MODEL 1
REMARK minimizedAffinity 7.87564421
REMARK minimizedRMSD -1
REMARK  0 active torsions:
REMARK  status: ('A' for Active; 'I' for Inactive)
ROOT
ATOM      1  C   UNL d   1       1.666   0.117   0.727  0.00  0.00     0.020 A 
ATOM      2  C1  UNL d   1       1.695   0.220   2.118  0.00  0.00     0.020 A 
ATOM      3  C2  UNL d   1       0.522   0.499   2.822  0.00  0.00     0.034 A 
ATOM      4  C3  UNL d   1      -0.685   0.676   2.136  0.00  0.00     0.017 A 
ATOM      5  C4  UNL d   1      -0.713   0.572   0.740  0.00  0.00     0.017 A 
ATOM      6  C5  UNL d   1       0.464   0.292   0.040  0.00  0.00     0.034 A 
ATOM      7 Cl   UNL d   1      -2.165   0.776  -0.175  0.00  0.00    -0.070 Cl
ATOM      8 Cl1  UNL d   1      -2.098   1.018   3.070  0.00  0.00    -0.070 Cl
ENDROOT
TORSDOF 0
ENDMDL
