MODEL 1
REMARK minimizedAffinity 20.9995441
REMARK minimizedRMSD -1
REMARK  0 active torsions:
REMARK  status: ('A' for Active; 'I' for Inactive)
ROOT
ATOM      1  C   UNL d   1       3.386  -1.048   0.634  0.00  0.00    -0.002 A 
ATOM      2  C1  UNL d   1       4.466  -1.583  -0.053  0.00  0.00     0.010 A 
ATOM      3  C2  UNL d   1       4.318  -2.741  -0.819  0.00  0.00     0.041 A 
ATOM      4  C3  UNL d   1       3.053  -3.358  -0.885  0.00  0.00    -0.075 A 
ATOM      5  S   UNL d   1       2.636  -4.783  -1.761  0.00  0.00     0.015 SA
ATOM      6  C4  UNL d   1       1.013  -4.715  -1.245  0.00  0.00     0.022 A 
ATOM      7  C5  UNL d   1       0.778  -3.638  -0.423  0.00  0.00     0.026 A 
ATOM      8  C6  UNL d   1       1.950  -2.838  -0.203  0.00  0.00    -0.082 A 
ATOM      9  C7  UNL d   1       2.132  -1.663   0.566  0.00  0.00     0.045 A 
ENDROOT
TORSDOF 0
ENDMDL
