MODEL 1
REMARK minimizedAffinity 15.2444363
REMARK minimizedRMSD -1
REMARK  0 active torsions:
REMARK  status: ('A' for Active; 'I' for Inactive)
ROOT
ATOM      1  C   UNL d   1      -1.008   1.947   1.405  0.00  0.00    -0.002 A 
ATOM      2  C1  UNL d   1      -0.013   2.129   2.355  0.00  0.00     0.010 A 
ATOM      3  C2  UNL d   1       1.174   2.785   2.022  0.00  0.00     0.041 A 
ATOM      4  C3  UNL d   1       1.345   3.262   0.708  0.00  0.00    -0.075 A 
ATOM      5  S   UNL d   1       2.714   4.095   0.074  0.00  0.00     0.015 SA
ATOM      6  C4  UNL d   1       2.009   4.231  -1.472  0.00  0.00     0.022 A 
ATOM      7  C5  UNL d   1       0.760   3.659  -1.522  0.00  0.00     0.026 A 
ATOM      8  C6  UNL d   1       0.356   3.091  -0.266  0.00  0.00    -0.082 A 
ATOM      9  C7  UNL d   1      -0.836   2.421   0.102  0.00  0.00     0.045 A 
ENDROOT
TORSDOF 0
ENDMDL
