MODEL 1
REMARK minimizedAffinity 18.1022472
REMARK minimizedRMSD -1
REMARK  0 active torsions:
REMARK  status: ('A' for Active; 'I' for Inactive)
ROOT
ATOM      1  C   UNL d   1      -0.277   4.665  -1.993  0.00  0.00    -0.002 A 
ATOM      2  C1  UNL d   1       1.022   4.987  -1.627  0.00  0.00     0.010 A 
ATOM      3  C2  UNL d   1       1.708   4.212  -0.689  0.00  0.00     0.041 A 
ATOM      4  C3  UNL d   1       1.060   3.096  -0.122  0.00  0.00    -0.075 A 
ATOM      5  S   UNL d   1       1.704   2.002   1.044  0.00  0.00     0.015 SA
ATOM      6  C4  UNL d   1       0.270   1.082   1.083  0.00  0.00     0.022 A 
ATOM      7  C5  UNL d   1      -0.687   1.583   0.233  0.00  0.00     0.026 A 
ATOM      8  C6  UNL d   1      -0.247   2.752  -0.476  0.00  0.00    -0.082 A 
ATOM      9  C7  UNL d   1      -0.916   3.558  -1.429  0.00  0.00     0.045 A 
ENDROOT
TORSDOF 0
ENDMDL
