MODEL 1
REMARK minimizedAffinity 15.600152
REMARK minimizedRMSD -1
REMARK  0 active torsions:
REMARK  status: ('A' for Active; 'I' for Inactive)
ROOT
ATOM      1  C   UNL d   1       0.183   3.606  -1.328  0.00  0.00    -0.002 A 
ATOM      2  C1  UNL d   1      -0.859   2.972  -0.666  0.00  0.00     0.010 A 
ATOM      3  C2  UNL d   1      -0.658   2.403   0.593  0.00  0.00     0.041 A 
ATOM      4  C3  UNL d   1       0.619   2.484   1.183  0.00  0.00    -0.075 A 
ATOM      5  S   UNL d   1       1.097   1.860   2.717  0.00  0.00     0.015 SA
ATOM      6  C4  UNL d   1       2.696   2.422   2.531  0.00  0.00     0.022 A 
ATOM      7  C5  UNL d   1       2.877   3.071   1.333  0.00  0.00     0.026 A 
ATOM      8  C6  UNL d   1       1.683   3.118   0.536  0.00  0.00    -0.082 A 
ATOM      9  C7  UNL d   1       1.449   3.685  -0.740  0.00  0.00     0.045 A 
ENDROOT
TORSDOF 0
ENDMDL
