MODEL 1
REMARK minimizedAffinity 13.8379946
REMARK minimizedRMSD -1
REMARK  0 active torsions:
REMARK  status: ('A' for Active; 'I' for Inactive)
ROOT
ATOM      1  C   UNL d   1       4.159  -5.991  -2.556  0.00  0.00    -0.002 A 
ATOM      2  C1  UNL d   1       3.922  -5.558  -3.853  0.00  0.00     0.010 A 
ATOM      3  C2  UNL d   1       2.764  -4.842  -4.162  0.00  0.00     0.041 A 
ATOM      4  C3  UNL d   1       1.840  -4.564  -3.136  0.00  0.00    -0.075 A 
ATOM      5  S   UNL d   1       0.354  -3.702  -3.281  0.00  0.00     0.015 SA
ATOM      6  C4  UNL d   1      -0.001  -3.887  -1.625  0.00  0.00     0.022 A 
ATOM      7  C5  UNL d   1       0.979  -4.587  -0.962  0.00  0.00     0.026 A 
ATOM      8  C6  UNL d   1       2.057  -4.988  -1.822  0.00  0.00    -0.082 A 
ATOM      9  C7  UNL d   1       3.240  -5.713  -1.540  0.00  0.00     0.045 A 
ENDROOT
TORSDOF 0
ENDMDL
