MODEL 1
REMARK minimizedAffinity 14.5391569
REMARK minimizedRMSD -1
REMARK  0 active torsions:
REMARK  status: ('A' for Active; 'I' for Inactive)
ROOT
ATOM      1  C   UNL d   1      -1.013  -3.003  -3.494  0.00  0.00    -0.002 A 
ATOM      2  C1  UNL d   1      -0.591  -2.045  -2.584  0.00  0.00     0.010 A 
ATOM      3  C2  UNL d   1       0.347  -2.364  -1.600  0.00  0.00     0.041 A 
ATOM      4  C3  UNL d   1       0.861  -3.674  -1.548  0.00  0.00    -0.075 A 
ATOM      5  S   UNL d   1       2.019  -4.293  -0.431  0.00  0.00     0.015 SA
ATOM      6  C4  UNL d   1       1.982  -5.844  -1.137  0.00  0.00     0.022 A 
ATOM      7  C5  UNL d   1       1.112  -5.906  -2.199  0.00  0.00     0.026 A 
ATOM      8  C6  UNL d   1       0.452  -4.657  -2.454  0.00  0.00    -0.082 A 
ATOM      9  C7  UNL d   1      -0.501  -4.302  -3.439  0.00  0.00     0.045 A 
ENDROOT
TORSDOF 0
ENDMDL
