MODEL 1
REMARK minimizedAffinity -5.42556047
REMARK minimizedRMSD -1
REMARK  1 active torsions:
REMARK  status: ('A' for Active; 'I' for Inactive)
REMARK    1  A    between atoms: C1_2  and  C2_3 
ROOT
ATOM      1  C2  UNL d   1      -0.031  -1.232  -0.159  0.00  0.00    -0.073 A 
ATOM      2  C3  UNL d   1       0.300  -0.835  -1.460  0.00  0.00    -0.002 A 
ATOM      3  C4  UNL d   1       0.632  -1.787  -2.425  0.00  0.00     0.004 A 
ATOM      4  C5  UNL d   1       0.629  -3.144  -2.102  0.00  0.00    -0.004 A 
ATOM      5  C6  UNL d   1       0.289  -3.561  -0.811  0.00  0.00    -0.075 A 
ATOM      6  C7  UNL d   1       0.283  -5.017  -0.448  0.00  0.00     0.076 C 
ATOM      7  C8  UNL d   1      -0.040  -2.599   0.153  0.00  0.00     0.001 A 
ENDROOT
BRANCH   1   8
ATOM      8  C1  UNL d   1      -0.396  -0.208   0.884  0.00  0.00     0.053 C 
ATOM      9  C   UNL d   1      -0.224   1.214   0.373  0.00  0.00     0.018 C 
ENDBRANCH   1   8
TORSDOF 1
ENDMDL
