MODEL 1
REMARK minimizedAffinity -5.39484978
REMARK minimizedRMSD -1
REMARK  1 active torsions:
REMARK  status: ('A' for Active; 'I' for Inactive)
REMARK    1  A    between atoms: C1_2  and  C2_3 
ROOT
ATOM      1  C2  UNL d   1      -0.180  -1.286   0.240  0.00  0.00    -0.073 A 
ATOM      2  C3  UNL d   1      -0.281  -2.488   0.951  0.00  0.00    -0.002 A 
ATOM      3  C4  UNL d   1      -0.102  -3.709   0.300  0.00  0.00     0.004 A 
ATOM      4  C5  UNL d   1       0.185  -3.742  -1.064  0.00  0.00    -0.004 A 
ATOM      5  C6  UNL d   1       0.302  -2.552  -1.790  0.00  0.00    -0.075 A 
ATOM      6  C7  UNL d   1       0.608  -2.570  -3.258  0.00  0.00     0.076 C 
ATOM      7  C8  UNL d   1       0.118  -1.329  -1.129  0.00  0.00     0.001 A 
ENDROOT
BRANCH   1   8
ATOM      8  C1  UNL d   1      -0.366   0.035   0.940  0.00  0.00     0.053 C 
ATOM      9  C   UNL d   1       0.103   1.203   0.087  0.00  0.00     0.018 C 
ENDBRANCH   1   8
TORSDOF 1
ENDMDL
