MODEL 1
REMARK minimizedAffinity -4.15374613
REMARK minimizedRMSD -1
REMARK  1 active torsions:
REMARK  status: ('A' for Active; 'I' for Inactive)
REMARK    1  A    between atoms: C1_2  and  C2_3 
ROOT
ATOM      1  C2  UNL d   1      -0.054  -0.173  -0.214  0.00  0.00    -0.073 A 
ATOM      2  C3  UNL d   1      -0.924  -0.108   0.881  0.00  0.00    -0.002 A 
ATOM      3  C4  UNL d   1      -1.339  -1.277   1.520  0.00  0.00     0.004 A 
ATOM      4  C5  UNL d   1      -0.884  -2.519   1.078  0.00  0.00    -0.004 A 
ATOM      5  C6  UNL d   1      -0.006  -2.603  -0.007  0.00  0.00    -0.075 A 
ATOM      6  C7  UNL d   1       0.491  -3.932  -0.496  0.00  0.00     0.076 C 
ATOM      7  C8  UNL d   1       0.405  -1.426  -0.646  0.00  0.00     0.001 A 
ENDROOT
BRANCH   1   8
ATOM      8  C1  UNL d   1       0.402   1.087  -0.904  0.00  0.00     0.053 C 
ATOM      9  C   UNL d   1       0.955   2.107   0.079  0.00  0.00     0.018 C 
ENDBRANCH   1   8
TORSDOF 1
ENDMDL
