MODEL 1
REMARK minimizedAffinity -4.14481926
REMARK minimizedRMSD -1
REMARK  1 active torsions:
REMARK  status: ('A' for Active; 'I' for Inactive)
REMARK    1  A    between atoms: C1_2  and  C2_3 
ROOT
ATOM      1  C2  UNL d   1      -0.163  -1.935  -1.266  0.00  0.00    -0.073 A 
ATOM      2  C3  UNL d   1      -0.624  -2.521  -0.082  0.00  0.00    -0.002 A 
ATOM      3  C4  UNL d   1      -0.854  -1.737   1.049  0.00  0.00     0.004 A 
ATOM      4  C5  UNL d   1      -0.634  -0.361   1.006  0.00  0.00    -0.004 A 
ATOM      5  C6  UNL d   1      -0.185   0.245  -0.172  0.00  0.00    -0.075 A 
ATOM      6  C7  UNL d   1       0.059   1.725  -0.234  0.00  0.00     0.076 C 
ATOM      7  C8  UNL d   1       0.046  -0.549  -1.303  0.00  0.00     0.001 A 
ENDROOT
BRANCH   1   8
ATOM      8  C1  UNL d   1       0.081  -2.777  -2.492  0.00  0.00     0.053 C 
ATOM      9  C   UNL d   1      -1.215  -3.292  -3.098  0.00  0.00     0.018 C 
ENDBRANCH   1   8
TORSDOF 1
ENDMDL
