MODEL 1
REMARK minimizedAffinity -3.40919304
REMARK minimizedRMSD -1
REMARK  1 active torsions:
REMARK  status: ('A' for Active; 'I' for Inactive)
REMARK    1  A    between atoms: C1_2  and  C2_3 
ROOT
ATOM      1  C2  UNL d   1      -0.423   0.461   0.640  0.00  0.00    -0.073 A 
ATOM      2  C3  UNL d   1      -0.624   0.138  -0.707  0.00  0.00    -0.002 A 
ATOM      3  C4  UNL d   1      -0.223   1.022  -1.711  0.00  0.00     0.004 A 
ATOM      4  C5  UNL d   1       0.388   2.231  -1.378  0.00  0.00    -0.004 A 
ATOM      5  C6  UNL d   1       0.608   2.565  -0.038  0.00  0.00    -0.075 A 
ATOM      6  C7  UNL d   1       1.262   3.863   0.336  0.00  0.00     0.076 C 
ATOM      7  C8  UNL d   1       0.200   1.674   0.963  0.00  0.00     0.001 A 
ENDROOT
BRANCH   1   8
ATOM      8  C1  UNL d   1      -0.849  -0.493   1.726  0.00  0.00     0.053 C 
ATOM      9  C   UNL d   1      -1.169  -1.875   1.179  0.00  0.00     0.018 C 
ENDBRANCH   1   8
TORSDOF 1
ENDMDL
