MODEL 1
REMARK minimizedAffinity -4.06449127
REMARK minimizedRMSD -1
REMARK  1 active torsions:
REMARK  status: ('A' for Active; 'I' for Inactive)
REMARK    1  A    between atoms: C1_2  and  C2_3 
ROOT
ATOM      1  C2  UNL d   1       0.142  -0.561   0.213  0.00  0.00    -0.073 A 
ATOM      2  C3  UNL d   1      -0.070  -1.450   1.274  0.00  0.00    -0.002 A 
ATOM      3  C4  UNL d   1      -0.257  -2.810   1.027  0.00  0.00     0.004 A 
ATOM      4  C5  UNL d   1      -0.227  -3.297  -0.280  0.00  0.00    -0.004 A 
ATOM      5  C6  UNL d   1      -0.004  -2.427  -1.352  0.00  0.00    -0.075 A 
ATOM      6  C7  UNL d   1       0.029  -2.934  -2.764  0.00  0.00     0.076 C 
ATOM      7  C8  UNL d   1       0.180  -1.061  -1.096  0.00  0.00     0.001 A 
ENDROOT
BRANCH   1   8
ATOM      8  C1  UNL d   1       0.351   0.908   0.476  0.00  0.00     0.053 C 
ATOM      9  C   UNL d   1      -0.025   1.761  -0.725  0.00  0.00     0.018 C 
ENDBRANCH   1   8
TORSDOF 1
ENDMDL
