MODEL 1
REMARK minimizedAffinity -2.7983079
REMARK minimizedRMSD -1
REMARK  1 active torsions:
REMARK  status: ('A' for Active; 'I' for Inactive)
REMARK    1  A    between atoms: C1_2  and  C2_3 
ROOT
ATOM      1  C2  UNL d   1       0.038   1.051   0.440  0.00  0.00    -0.073 A 
ATOM      2  C3  UNL d   1       0.414   0.995  -0.907  0.00  0.00    -0.002 A 
ATOM      3  C4  UNL d   1       1.430   1.821  -1.390  0.00  0.00     0.004 A 
ATOM      4  C5  UNL d   1       2.085   2.704  -0.532  0.00  0.00    -0.004 A 
ATOM      5  C6  UNL d   1       1.731   2.767   0.820  0.00  0.00    -0.075 A 
ATOM      6  C7  UNL d   1       2.424   3.713   1.755  0.00  0.00     0.076 C 
ATOM      7  C8  UNL d   1       0.708   1.936   1.297  0.00  0.00     0.001 A 
ENDROOT
BRANCH   1   8
ATOM      8  C1  UNL d   1      -1.054   0.157   0.968  0.00  0.00     0.053 C 
ATOM      9  C   UNL d   1      -0.701  -1.315   0.832  0.00  0.00     0.018 C 
ENDBRANCH   1   8
TORSDOF 1
ENDMDL
