MODEL 1
REMARK minimizedAffinity -5.58418512
REMARK minimizedRMSD -1
REMARK  1 active torsions:
REMARK  status: ('A' for Active; 'I' for Inactive)
REMARK    1  A    between atoms: C1_2  and  C2_3 
ROOT
ATOM      1  C2  UNL d   1       0.198   0.196  -0.066  0.00  0.00    -0.073 A 
ATOM      2  C3  UNL d   1      -0.606   0.261   1.077  0.00  0.00    -0.002 A 
ATOM      3  C4  UNL d   1      -1.128  -0.906   1.639  0.00  0.00     0.004 A 
ATOM      4  C5  UNL d   1      -0.846  -2.147   1.068  0.00  0.00    -0.004 A 
ATOM      5  C6  UNL d   1      -0.035  -2.233  -0.068  0.00  0.00    -0.075 A 
ATOM      6  C7  UNL d   1       0.276  -3.560  -0.695  0.00  0.00     0.076 C 
ATOM      7  C8  UNL d   1       0.483  -1.057  -0.627  0.00  0.00     0.001 A 
ENDROOT
BRANCH   1   8
ATOM      8  C1  UNL d   1       0.769   1.452  -0.673  0.00  0.00     0.053 C 
ATOM      9  C   UNL d   1       1.105   2.493   0.384  0.00  0.00     0.018 C 
ENDBRANCH   1   8
TORSDOF 1
ENDMDL
