MODEL 1
REMARK minimizedAffinity -5.17543077
REMARK minimizedRMSD -1
REMARK  1 active torsions:
REMARK  status: ('A' for Active; 'I' for Inactive)
REMARK    1  A    between atoms: C1_2  and  C2_3 
ROOT
ATOM      1  C2  UNL d   1      -0.471  -1.899  -1.504  0.00  0.00    -0.073 A 
ATOM      2  C3  UNL d   1      -0.089  -0.674  -2.062  0.00  0.00    -0.002 A 
ATOM      3  C4  UNL d   1      -0.139   0.494  -1.301  0.00  0.00     0.004 A 
ATOM      4  C5  UNL d   1      -0.563   0.449   0.027  0.00  0.00    -0.004 A 
ATOM      5  C6  UNL d   1      -0.938  -0.767   0.607  0.00  0.00    -0.075 A 
ATOM      6  C7  UNL d   1      -1.399  -0.832   2.033  0.00  0.00     0.076 C 
ATOM      7  C8  UNL d   1      -0.887  -1.936  -0.165  0.00  0.00     0.001 A 
ENDROOT
BRANCH   1   8
ATOM      8  C1  UNL d   1      -0.413  -3.164  -2.320  0.00  0.00     0.053 C 
ATOM      9  C   UNL d   1      -1.437  -3.165  -3.444  0.00  0.00     0.018 C 
ENDBRANCH   1   8
TORSDOF 1
ENDMDL
