MODEL 1
REMARK minimizedAffinity -1.1579572
REMARK minimizedRMSD -1
REMARK  1 active torsions:
REMARK  status: ('A' for Active; 'I' for Inactive)
REMARK    1  A    between atoms: C1_2  and  C2_3 
ROOT
ATOM      1  C2  UNL d   1      -0.490  -2.075   0.010  0.00  0.00    -0.073 A 
ATOM      2  C3  UNL d   1      -0.758  -0.917   0.748  0.00  0.00    -0.002 A 
ATOM      3  C4  UNL d   1      -0.535   0.342   0.190  0.00  0.00     0.004 A 
ATOM      4  C5  UNL d   1      -0.049   0.457  -1.112  0.00  0.00    -0.004 A 
ATOM      5  C6  UNL d   1       0.214  -0.689  -1.870  0.00  0.00    -0.075 A 
ATOM      6  C7  UNL d   1       0.739  -0.583  -3.272  0.00  0.00     0.076 C 
ATOM      7  C8  UNL d   1      -0.010  -1.950  -1.302  0.00  0.00     0.001 A 
ENDROOT
BRANCH   1   8
ATOM      8  C1  UNL d   1      -0.735  -3.437   0.606  0.00  0.00     0.053 C 
ATOM      9  C   UNL d   1       0.376  -4.418   0.264  0.00  0.00     0.018 C 
ENDBRANCH   1   8
TORSDOF 1
ENDMDL
