MODEL 1
REMARK minimizedAffinity 21.0341587
REMARK minimizedRMSD -1
REMARK  0 active torsions:
REMARK  status: ('A' for Active; 'I' for Inactive)
ROOT
ATOM      1  C   UNL d   1       1.390  -2.219   0.168  0.00  0.00     0.124 A 
ATOM      2  C1  UNL d   1       2.464  -2.013  -0.687  0.00  0.00     0.062 A 
ATOM      3  C2  UNL d   1       2.247  -1.588  -1.995  0.00  0.00     0.162 A 
ATOM      4  C3  UNL d   1       0.949  -1.366  -2.456  0.00  0.00    -0.034 A 
ATOM      5  C4  UNL d   1      -0.126  -1.577  -1.591  0.00  0.00     0.162 A 
ATOM      6  C5  UNL d   1       0.097  -2.001  -0.285  0.00  0.00     0.062 A 
ATOM      7  F   UNL d   1      -0.942  -2.200   0.539  0.00  0.00    -0.097 F 
ATOM      8  F1  UNL d   1      -1.386  -1.373  -2.002  0.00  0.00    -0.096 F 
ATOM      9  I   UNL d   1       0.620  -0.731  -4.411  0.00  0.00    -0.060 I 
ATOM     10  F2  UNL d   1       3.304  -1.397  -2.798  0.00  0.00    -0.096 F 
ATOM     11  F3  UNL d   1       3.715  -2.223  -0.252  0.00  0.00    -0.097 F 
ATOM     12  F4  UNL d   1       1.602  -2.628   1.425  0.00  0.00    -0.092 F 
ENDROOT
TORSDOF 0
ENDMDL
