MODEL 1
REMARK minimizedAffinity 20.4427261
REMARK minimizedRMSD -1
REMARK  0 active torsions:
REMARK  status: ('A' for Active; 'I' for Inactive)
ROOT
ATOM      1  C   UNL d   1       2.501   5.269  -1.868  0.00  0.00     0.124 A 
ATOM      2  C1  UNL d   1       3.747   4.826  -1.446  0.00  0.00     0.062 A 
ATOM      3  C2  UNL d   1       4.742   4.543  -2.377  0.00  0.00     0.162 A 
ATOM      4  C3  UNL d   1       4.496   4.702  -3.741  0.00  0.00    -0.034 A 
ATOM      5  C4  UNL d   1       3.240   5.147  -4.158  0.00  0.00     0.162 A 
ATOM      6  C5  UNL d   1       2.249   5.429  -3.223  0.00  0.00     0.062 A 
ATOM      7  F   UNL d   1       1.046   5.856  -3.634  0.00  0.00    -0.097 F 
ATOM      8  F1  UNL d   1       2.970   5.311  -5.461  0.00  0.00    -0.096 F 
ATOM      9  I   UNL d   1       5.981   4.280  -5.136  0.00  0.00    -0.060 I 
ATOM     10  F2  UNL d   1       5.937   4.117  -1.940  0.00  0.00    -0.096 F 
ATOM     11  F3  UNL d   1       3.993   4.670  -0.137  0.00  0.00    -0.097 F 
ATOM     12  F4  UNL d   1       1.546   5.539  -0.970  0.00  0.00    -0.092 F 
ENDROOT
TORSDOF 0
ENDMDL
