MODEL 1
REMARK minimizedAffinity 24.9868088
REMARK minimizedRMSD -1
REMARK  0 active torsions:
REMARK  status: ('A' for Active; 'I' for Inactive)
ROOT
ATOM      1  C   UNL d   1       2.549   5.052  -1.485  0.00  0.00     0.124 A 
ATOM      2  C1  UNL d   1       2.284   5.494  -2.774  0.00  0.00     0.062 A 
ATOM      3  C2  UNL d   1       3.268   5.419  -3.756  0.00  0.00     0.162 A 
ATOM      4  C3  UNL d   1       4.526   4.898  -3.453  0.00  0.00    -0.034 A 
ATOM      5  C4  UNL d   1       4.785   4.456  -2.154  0.00  0.00     0.162 A 
ATOM      6  C5  UNL d   1       3.798   4.533  -1.177  0.00  0.00     0.062 A 
ATOM      7  F   UNL d   1       4.056   4.106   0.068  0.00  0.00    -0.097 F 
ATOM      8  F1  UNL d   1       5.984   3.950  -1.829  0.00  0.00    -0.096 F 
ATOM      9  I   UNL d   1       6.000   4.784  -4.918  0.00  0.00    -0.060 I 
ATOM     10  F2  UNL d   1       2.984   5.854  -4.993  0.00  0.00    -0.096 F 
ATOM     11  F3  UNL d   1       1.078   5.996  -3.075  0.00  0.00    -0.097 F 
ATOM     12  F4  UNL d   1       1.601   5.126  -0.542  0.00  0.00    -0.092 F 
ENDROOT
TORSDOF 0
ENDMDL
