MODEL 1
REMARK minimizedAffinity 21.3584995
REMARK minimizedRMSD -1
REMARK  0 active torsions:
REMARK  status: ('A' for Active; 'I' for Inactive)
ROOT
ATOM      1  C   UNL d   1       2.520   5.189  -1.964  0.00  0.00     0.124 A 
ATOM      2  C1  UNL d   1       2.248   5.516  -3.285  0.00  0.00     0.062 A 
ATOM      3  C2  UNL d   1       3.237   5.391  -4.255  0.00  0.00     0.162 A 
ATOM      4  C3  UNL d   1       4.509   4.934  -3.909  0.00  0.00    -0.034 A 
ATOM      5  C4  UNL d   1       4.776   4.608  -2.578  0.00  0.00     0.162 A 
ATOM      6  C5  UNL d   1       3.783   4.735  -1.612  0.00  0.00     0.062 A 
ATOM      7  F   UNL d   1       4.048   4.418  -0.336  0.00  0.00    -0.097 F 
ATOM      8  F1  UNL d   1       5.987   4.166  -2.210  0.00  0.00    -0.096 F 
ATOM      9  I   UNL d   1       5.992   4.746  -5.357  0.00  0.00    -0.060 I 
ATOM     10  F2  UNL d   1       2.946   5.715  -5.524  0.00  0.00    -0.096 F 
ATOM     11  F3  UNL d   1       1.028   5.956  -3.628  0.00  0.00    -0.097 F 
ATOM     12  F4  UNL d   1       1.566   5.311  -1.032  0.00  0.00    -0.092 F 
ENDROOT
TORSDOF 0
ENDMDL
