MODEL 1
REMARK minimizedAffinity 32.5026894
REMARK minimizedRMSD -1
REMARK  0 active torsions:
REMARK  status: ('A' for Active; 'I' for Inactive)
ROOT
ATOM      1  C   UNL d   1      -0.056  -1.615  -2.243  0.00  0.00     0.124 A 
ATOM      2  C1  UNL d   1       0.205  -2.643  -1.347  0.00  0.00     0.062 A 
ATOM      3  C2  UNL d   1       1.448  -3.270  -1.344  0.00  0.00     0.162 A 
ATOM      4  C3  UNL d   1       2.440  -2.870  -2.239  0.00  0.00    -0.034 A 
ATOM      5  C4  UNL d   1       2.170  -1.836  -3.137  0.00  0.00     0.162 A 
ATOM      6  C5  UNL d   1       0.926  -1.213  -3.137  0.00  0.00     0.062 A 
ATOM      7  F   UNL d   1       0.676  -0.220  -4.003  0.00  0.00    -0.097 F 
ATOM      8  F1  UNL d   1       3.101  -1.426  -4.012  0.00  0.00    -0.096 F 
ATOM      9  I   UNL d   1       4.300  -3.804  -2.238  0.00  0.00    -0.060 I 
ATOM     10  F2  UNL d   1       1.673  -4.260  -0.468  0.00  0.00    -0.096 F 
ATOM     11  F3  UNL d   1      -0.742  -3.034  -0.483  0.00  0.00    -0.097 F 
ATOM     12  F4  UNL d   1      -1.253  -1.014  -2.244  0.00  0.00    -0.092 F 
ENDROOT
TORSDOF 0
ENDMDL
