MODEL 1
REMARK minimizedAffinity 3.09940505
REMARK minimizedRMSD -1
REMARK  0 active torsions:
REMARK  status: ('A' for Active; 'I' for Inactive)
ROOT
ATOM      1  C   UNL d   1       4.490  -1.927   1.166  0.00  0.00     0.124 A 
ATOM      2  C1  UNL d   1       5.250  -2.940   1.733  0.00  0.00     0.062 A 
ATOM      3  C2  UNL d   1       5.256  -3.122   3.113  0.00  0.00     0.162 A 
ATOM      4  C3  UNL d   1       4.497  -2.289   3.936  0.00  0.00    -0.034 A 
ATOM      5  C4  UNL d   1       3.736  -1.271   3.358  0.00  0.00     0.162 A 
ATOM      6  C5  UNL d   1       3.734  -1.094   1.978  0.00  0.00     0.062 A 
ATOM      7  F   UNL d   1       2.999  -0.114   1.431  0.00  0.00    -0.097 F 
ATOM      8  F1  UNL d   1       2.996  -0.452   4.119  0.00  0.00    -0.096 F 
ATOM      9  I   UNL d   1       4.503  -2.557   6.000  0.00  0.00    -0.060 I 
ATOM     10  F2  UNL d   1       5.999  -4.109   3.634  0.00  0.00    -0.096 F 
ATOM     11  F3  UNL d   1       5.982  -3.746   0.951  0.00  0.00    -0.097 F 
ATOM     12  F4  UNL d   1       4.487  -1.754  -0.162  0.00  0.00    -0.092 F 
ENDROOT
TORSDOF 0
ENDMDL
