MODEL 1
REMARK minimizedAffinity 12.4715967
REMARK minimizedRMSD -1
REMARK  0 active torsions:
REMARK  status: ('A' for Active; 'I' for Inactive)
ROOT
ATOM      1  C   UNL d   1       4.844   4.481  -4.333  0.00  0.00     0.124 A 
ATOM      2  C1  UNL d   1       4.937   5.194  -3.146  0.00  0.00     0.062 A 
ATOM      3  C2  UNL d   1       3.945   5.075  -2.178  0.00  0.00     0.162 A 
ATOM      4  C3  UNL d   1       2.849   4.239  -2.392  0.00  0.00    -0.034 A 
ATOM      5  C4  UNL d   1       2.761   3.526  -3.589  0.00  0.00     0.162 A 
ATOM      6  C5  UNL d   1       3.756   3.648  -4.554  0.00  0.00     0.062 A 
ATOM      7  F   UNL d   1       3.663   2.958  -5.700  0.00  0.00    -0.097 F 
ATOM      8  F1  UNL d   1       1.721   2.713  -3.828  0.00  0.00    -0.096 F 
ATOM      9  I   UNL d   1       1.362   4.059  -0.947  0.00  0.00    -0.060 I 
ATOM     10  F2  UNL d   1       4.061   5.776  -1.040  0.00  0.00    -0.096 F 
ATOM     11  F3  UNL d   1       5.987   6.000  -2.931  0.00  0.00    -0.097 F 
ATOM     12  F4  UNL d   1       5.800   4.597  -5.264  0.00  0.00    -0.092 F 
ENDROOT
TORSDOF 0
ENDMDL
