MODEL 1
REMARK minimizedAffinity 9.12072277
REMARK minimizedRMSD -1
REMARK  0 active torsions:
REMARK  status: ('A' for Active; 'I' for Inactive)
ROOT
ATOM      1  C   UNL d   1       2.472   3.695  -3.724  0.00  0.00     0.124 A 
ATOM      2  C1  UNL d   1       2.193   4.172  -2.451  0.00  0.00     0.062 A 
ATOM      3  C2  UNL d   1       3.199   4.758  -1.687  0.00  0.00     0.162 A 
ATOM      4  C3  UNL d   1       4.493   4.871  -2.194  0.00  0.00    -0.034 A 
ATOM      5  C4  UNL d   1       4.766   4.387  -3.475  0.00  0.00     0.162 A 
ATOM      6  C5  UNL d   1       3.758   3.802  -4.234  0.00  0.00     0.062 A 
ATOM      7  F   UNL d   1       4.030   3.341  -5.464  0.00  0.00    -0.097 F 
ATOM      8  F1  UNL d   1       6.000   4.479  -3.993  0.00  0.00    -0.096 F 
ATOM      9  I   UNL d   1       5.999   5.746  -1.055  0.00  0.00    -0.060 I 
ATOM     10  F2  UNL d   1       2.900   5.211  -0.460  0.00  0.00    -0.096 F 
ATOM     11  F3  UNL d   1       0.952   4.069  -1.954  0.00  0.00    -0.097 F 
ATOM     12  F4  UNL d   1       1.503   3.131  -4.456  0.00  0.00    -0.092 F 
ENDROOT
TORSDOF 0
ENDMDL
