MODEL 1
REMARK minimizedAffinity 23.1938553
REMARK minimizedRMSD -1
REMARK  0 active torsions:
REMARK  status: ('A' for Active; 'I' for Inactive)
ROOT
ATOM      1  C   UNL d   1       0.422  -2.211  -2.197  0.00  0.00     0.124 A 
ATOM      2  C1  UNL d   1      -0.723  -2.290  -2.979  0.00  0.00     0.062 A 
ATOM      3  C2  UNL d   1      -1.968  -2.460  -2.381  0.00  0.00     0.162 A 
ATOM      4  C3  UNL d   1      -2.077  -2.551  -0.993  0.00  0.00    -0.034 A 
ATOM      5  C4  UNL d   1      -0.921  -2.471  -0.214  0.00  0.00     0.162 A 
ATOM      6  C5  UNL d   1       0.321  -2.302  -0.816  0.00  0.00     0.062 A 
ATOM      7  F   UNL d   1       1.426  -2.225  -0.059  0.00  0.00    -0.097 F 
ATOM      8  F1  UNL d   1      -0.989  -2.555   1.123  0.00  0.00    -0.096 F 
ATOM      9  I   UNL d   1      -3.937  -2.805  -0.096  0.00  0.00    -0.060 I 
ATOM     10  F2  UNL d   1      -3.057  -2.534  -3.161  0.00  0.00    -0.096 F 
ATOM     11  F3  UNL d   1      -0.628  -2.204  -4.313  0.00  0.00    -0.097 F 
ATOM     12  F4  UNL d   1       1.619  -2.049  -2.775  0.00  0.00    -0.092 F 
ENDROOT
TORSDOF 0
ENDMDL
