MODEL 1
REMARK minimizedAffinity 4.47080088
REMARK minimizedRMSD -1
REMARK  0 active torsions:
REMARK  status: ('A' for Active; 'I' for Inactive)
ROOT
ATOM      1  C   UNL d   1       2.829   4.151  -2.437  0.00  0.00     0.124 A 
ATOM      2  C1  UNL d   1       2.579   3.723  -3.734  0.00  0.00     0.062 A 
ATOM      3  C2  UNL d   1       3.482   4.011  -4.753  0.00  0.00     0.162 A 
ATOM      4  C3  UNL d   1       4.646   4.730  -4.479  0.00  0.00    -0.034 A 
ATOM      5  C4  UNL d   1       4.890   5.157  -3.172  0.00  0.00     0.162 A 
ATOM      6  C5  UNL d   1       3.984   4.867  -2.158  0.00  0.00     0.062 A 
ATOM      7  F   UNL d   1       4.227   5.281  -0.906  0.00  0.00    -0.097 F 
ATOM      8  F1  UNL d   1       5.999   5.850  -2.874  0.00  0.00    -0.096 F 
ATOM      9  I   UNL d   1       6.000   5.162  -5.999  0.00  0.00    -0.060 I 
ATOM     10  F2  UNL d   1       3.215   3.585  -5.996  0.00  0.00    -0.096 F 
ATOM     11  F3  UNL d   1       1.463   3.032  -4.007  0.00  0.00    -0.097 F 
ATOM     12  F4  UNL d   1       1.957   3.873  -1.460  0.00  0.00    -0.092 F 
ENDROOT
TORSDOF 0
ENDMDL
