MODEL 1
REMARK minimizedAffinity 14.1694536
REMARK minimizedRMSD -1
REMARK  0 active torsions:
REMARK  status: ('A' for Active; 'I' for Inactive)
ROOT
ATOM      1  C   UNL d   1       2.191  -2.996   3.066  0.00  0.00     0.124 A 
ATOM      2  C1  UNL d   1       3.380  -3.684   2.871  0.00  0.00     0.062 A 
ATOM      3  C2  UNL d   1       4.469  -3.451   3.706  0.00  0.00     0.162 A 
ATOM      4  C3  UNL d   1       4.373  -2.527   4.747  0.00  0.00    -0.034 A 
ATOM      5  C4  UNL d   1       3.173  -1.838   4.937  0.00  0.00     0.162 A 
ATOM      6  C5  UNL d   1       2.088  -2.074   4.099  0.00  0.00     0.062 A 
ATOM      7  F   UNL d   1       0.940  -1.409   4.289  0.00  0.00    -0.097 F 
ATOM      8  F1  UNL d   1       3.046  -0.943   5.927  0.00  0.00    -0.096 F 
ATOM      9  I   UNL d   1       5.998  -2.176   5.998  0.00  0.00    -0.060 I 
ATOM     10  F2  UNL d   1       5.606  -4.130   3.494  0.00  0.00    -0.096 F 
ATOM     11  F3  UNL d   1       3.482  -4.574   1.874  0.00  0.00    -0.097 F 
ATOM     12  F4  UNL d   1       1.145  -3.221   2.260  0.00  0.00    -0.092 F 
ENDROOT
TORSDOF 0
ENDMDL
