MODEL 1
REMARK minimizedAffinity 10.751874
REMARK minimizedRMSD -1
REMARK  0 active torsions:
REMARK  status: ('A' for Active; 'I' for Inactive)
ROOT
ATOM      1  C   UNL d   1       2.369   5.811  -4.106  0.00  0.00     0.124 A 
ATOM      2  C1  UNL d   1       2.079   5.806  -2.749  0.00  0.00     0.062 A 
ATOM      3  C2  UNL d   1       3.107   5.737  -1.813  0.00  0.00     0.162 A 
ATOM      4  C3  UNL d   1       4.436   5.675  -2.231  0.00  0.00    -0.034 A 
ATOM      5  C4  UNL d   1       4.720   5.680  -3.598  0.00  0.00     0.162 A 
ATOM      6  C5  UNL d   1       3.689   5.749  -4.529  0.00  0.00     0.062 A 
ATOM      7  F   UNL d   1       3.972   5.755  -5.840  0.00  0.00    -0.097 F 
ATOM      8  F1  UNL d   1       5.987   5.622  -4.035  0.00  0.00    -0.096 F 
ATOM      9  I   UNL d   1       5.977   5.573  -0.836  0.00  0.00    -0.060 I 
ATOM     10  F2  UNL d   1       2.797   5.733  -0.508  0.00  0.00    -0.096 F 
ATOM     11  F3  UNL d   1       0.804   5.865  -2.337  0.00  0.00    -0.097 F 
ATOM     12  F4  UNL d   1       1.378   5.876  -5.004  0.00  0.00    -0.092 F 
ENDROOT
TORSDOF 0
ENDMDL
