MODEL 1
REMARK minimizedAffinity 19.9842529
REMARK minimizedRMSD -1
REMARK  0 active torsions:
REMARK  status: ('A' for Active; 'I' for Inactive)
ROOT
ATOM      1  C   UNL d   1       2.174   5.564  -1.907  0.00  0.00     0.124 A 
ATOM      2  C1  UNL d   1       1.970   5.777  -3.264  0.00  0.00     0.062 A 
ATOM      3  C2  UNL d   1       3.049   5.780  -4.142  0.00  0.00     0.162 A 
ATOM      4  C3  UNL d   1       4.344   5.568  -3.667  0.00  0.00    -0.034 A 
ATOM      5  C4  UNL d   1       4.541   5.355  -2.302  0.00  0.00     0.162 A 
ATOM      6  C5  UNL d   1       3.459   5.353  -1.428  0.00  0.00     0.062 A 
ATOM      7  F   UNL d   1       3.658   5.147  -0.118  0.00  0.00    -0.097 F 
ATOM      8  F1  UNL d   1       5.773   5.148  -1.812  0.00  0.00    -0.096 F 
ATOM      9  I   UNL d   1       5.961   5.572  -4.978  0.00  0.00    -0.060 I 
ATOM     10  F2  UNL d   1       2.823   5.989  -5.448  0.00  0.00    -0.096 F 
ATOM     11  F3  UNL d   1       0.729   5.982  -3.729  0.00  0.00    -0.097 F 
ATOM     12  F4  UNL d   1       1.134   5.563  -1.064  0.00  0.00    -0.092 F 
ENDROOT
TORSDOF 0
ENDMDL
