MODEL 1
REMARK minimizedAffinity 3.91229677
REMARK minimizedRMSD -1
REMARK  0 active torsions:
REMARK  status: ('A' for Active; 'I' for Inactive)
ROOT
ATOM      1  C   UNL d   1       2.968   4.038  -2.366  0.00  0.00     0.124 A 
ATOM      2  C1  UNL d   1       4.073   4.819  -2.059  0.00  0.00     0.062 A 
ATOM      3  C2  UNL d   1       4.939   5.234  -3.067  0.00  0.00     0.162 A 
ATOM      4  C3  UNL d   1       4.702   4.870  -4.392  0.00  0.00    -0.034 A 
ATOM      5  C4  UNL d   1       3.589   4.083  -4.693  0.00  0.00     0.162 A 
ATOM      6  C5  UNL d   1       2.727   3.671  -3.682  0.00  0.00     0.062 A 
ATOM      7  F   UNL d   1       1.659   2.916  -3.981  0.00  0.00    -0.097 F 
ATOM      8  F1  UNL d   1       3.331   3.715  -5.957  0.00  0.00    -0.096 F 
ATOM      9  I   UNL d   1       5.994   5.489  -5.902  0.00  0.00    -0.060 I 
ATOM     10  F2  UNL d   1       5.999   5.988  -2.741  0.00  0.00    -0.096 F 
ATOM     11  F3  UNL d   1       4.309   5.174  -0.788  0.00  0.00    -0.097 F 
ATOM     12  F4  UNL d   1       2.137   3.639  -1.394  0.00  0.00    -0.092 F 
ENDROOT
TORSDOF 0
ENDMDL
