MODEL 1
REMARK minimizedAffinity 24.9104366
REMARK minimizedRMSD -1
REMARK  0 active torsions:
REMARK  status: ('A' for Active; 'I' for Inactive)
ROOT
ATOM      1  C   UNL d   1       4.868   5.228  -3.857  0.00  0.00     0.124 A 
ATOM      2  C1  UNL d   1       4.867   5.254  -2.469  0.00  0.00     0.062 A 
ATOM      3  C2  UNL d   1       3.749   4.822  -1.761  0.00  0.00     0.162 A 
ATOM      4  C3  UNL d   1       2.622   4.359  -2.440  0.00  0.00    -0.034 A 
ATOM      5  C4  UNL d   1       2.630   4.337  -3.836  0.00  0.00     0.162 A 
ATOM      6  C5  UNL d   1       3.750   4.770  -4.539  0.00  0.00     0.062 A 
ATOM      7  F   UNL d   1       3.748   4.744  -5.879  0.00  0.00    -0.097 F 
ATOM      8  F1  UNL d   1       1.563   3.898  -4.520  0.00  0.00    -0.096 F 
ATOM      9  I   UNL d   1       0.949   3.712  -1.385  0.00  0.00    -0.060 I 
ATOM     10  F2  UNL d   1       3.777   4.858  -0.421  0.00  0.00    -0.096 F 
ATOM     11  F3  UNL d   1       5.946   5.698  -1.808  0.00  0.00    -0.097 F 
ATOM     12  F4  UNL d   1       5.944   5.645  -4.535  0.00  0.00    -0.092 F 
ENDROOT
TORSDOF 0
ENDMDL
