MODEL 1
REMARK minimizedAffinity 12.0758629
REMARK minimizedRMSD -1
REMARK  0 active torsions:
REMARK  status: ('A' for Active; 'I' for Inactive)
ROOT
ATOM      1  C   UNL d   1      -1.303  -3.752  -4.851  0.00  0.00     0.124 A 
ATOM      2  C1  UNL d   1      -0.854  -4.691  -3.932  0.00  0.00     0.062 A 
ATOM      3  C2  UNL d   1      -0.270  -4.278  -2.738  0.00  0.00     0.162 A 
ATOM      4  C3  UNL d   1      -0.133  -2.919  -2.455  0.00  0.00    -0.034 A 
ATOM      5  C4  UNL d   1      -0.586  -1.981  -3.384  0.00  0.00     0.162 A 
ATOM      6  C5  UNL d   1      -1.169  -2.399  -4.576  0.00  0.00     0.062 A 
ATOM      7  F   UNL d   1      -1.602  -1.490  -5.462  0.00  0.00    -0.097 F 
ATOM      8  F1  UNL d   1      -0.470  -0.667  -3.143  0.00  0.00    -0.096 F 
ATOM      9  I   UNL d   1       0.739  -2.297  -0.670  0.00  0.00    -0.060 I 
ATOM     10  F2  UNL d   1       0.155  -5.207  -1.869  0.00  0.00    -0.096 F 
ATOM     11  F3  UNL d   1      -0.981  -5.999  -4.196  0.00  0.00    -0.097 F 
ATOM     12  F4  UNL d   1      -1.863  -4.152  -6.000  0.00  0.00    -0.092 F 
ENDROOT
TORSDOF 0
ENDMDL
