MODEL 1
REMARK minimizedAffinity -3.57938337
REMARK minimizedRMSD -1
REMARK  3 active torsions:
REMARK  status: ('A' for Active; 'I' for Inactive)
REMARK    1  A    between atoms: C3'_2  and  C2'_3 
REMARK    2  A    between atoms: C2'_3  and  C1'_4 
REMARK    3  A    between atoms: C1'_4  and  C1_5 
ROOT
ATOM      1  C1  N4B d   1      -4.560  -4.227  -5.125  0.00  0.00    -0.075 A 
ATOM      2  C2  N4B d   1      -3.526  -3.530  -5.787  0.00  0.00     0.002 A 
ATOM      3  C3  N4B d   1      -2.260  -4.061  -5.833  0.00  0.00     0.002 A 
ATOM      4  C4  N4B d   1      -2.002  -5.274  -5.212  0.00  0.00    -0.004 A 
ATOM      5  C5  N4B d   1      -3.013  -5.953  -4.597  0.00  0.00     0.002 A 
ATOM      6  C6  N4B d   1      -4.290  -5.433  -4.546  0.00  0.00     0.002 A 
ENDROOT
BRANCH   1   7
ATOM      7  C1' N4B d   1      -5.940  -3.646  -4.975  0.00  0.00     0.057 C 
BRANCH   7   8
ATOM      8  C2' N4B d   1      -6.000  -2.305  -5.699  0.00  0.00     0.009 C 
BRANCH   8   9
ATOM      9  C3' N4B d   1      -5.788  -1.137  -4.751  0.00  0.00     0.004 C 
ATOM     10  C4' N4B d   1      -5.935  -1.525  -3.310  0.00  0.00     0.003 C 
ENDBRANCH   8   9
ENDBRANCH   7   8
ENDBRANCH   1   7
TORSDOF 3
ENDMDL
