MODEL 1
REMARK minimizedAffinity 2.46093297
REMARK minimizedRMSD -1
REMARK  3 active torsions:
REMARK  status: ('A' for Active; 'I' for Inactive)
REMARK    1  A    between atoms: C3'_2  and  C2'_3 
REMARK    2  A    between atoms: C2'_3  and  C1'_4 
REMARK    3  A    between atoms: C1'_4  and  C1_5 
ROOT
ATOM      1  C1  N4B d   1      -3.945  -4.065  -4.390  0.00  0.00    -0.075 A 
ATOM      2  C2  N4B d   1      -3.161  -4.297  -3.239  0.00  0.00     0.002 A 
ATOM      3  C3  N4B d   1      -1.874  -4.760  -3.367  0.00  0.00     0.002 A 
ATOM      4  C4  N4B d   1      -1.360  -5.015  -4.629  0.00  0.00    -0.004 A 
ATOM      5  C5  N4B d   1      -2.115  -4.765  -5.737  0.00  0.00     0.002 A 
ATOM      6  C6  N4B d   1      -3.408  -4.296  -5.624  0.00  0.00     0.002 A 
ENDROOT
BRANCH   1   7
ATOM      7  C1' N4B d   1      -5.386  -3.641  -4.298  0.00  0.00     0.057 C 
BRANCH   7   8
ATOM      8  C2' N4B d   1      -5.915  -3.357  -5.700  0.00  0.00     0.009 C 
BRANCH   8   9
ATOM      9  C3' N4B d   1      -5.964  -1.869  -5.999  0.00  0.00     0.004 C 
ATOM     10  C4' N4B d   1      -4.611  -1.223  -5.952  0.00  0.00     0.003 C 
ENDBRANCH   8   9
ENDBRANCH   7   8
ENDBRANCH   1   7
TORSDOF 3
ENDMDL
