MODEL 1
REMARK minimizedAffinity -4.18162775
REMARK minimizedRMSD -1
REMARK  3 active torsions:
REMARK  status: ('A' for Active; 'I' for Inactive)
REMARK    1  A    between atoms: C3'_2  and  C2'_3 
REMARK    2  A    between atoms: C2'_3  and  C1'_4 
REMARK    3  A    between atoms: C1'_4  and  C1_5 
ROOT
ATOM      1  C1  N4B d   1      -3.906  -5.205  -4.908  0.00  0.00    -0.075 A 
ATOM      2  C2  N4B d   1      -3.007  -5.181  -5.997  0.00  0.00     0.002 A 
ATOM      3  C3  N4B d   1      -1.653  -5.229  -5.770  0.00  0.00     0.002 A 
ATOM      4  C4  N4B d   1      -1.177  -5.282  -4.469  0.00  0.00    -0.004 A 
ATOM      5  C5  N4B d   1      -2.052  -5.330  -3.424  0.00  0.00     0.002 A 
ATOM      6  C6  N4B d   1      -3.416  -5.286  -3.637  0.00  0.00     0.002 A 
ENDROOT
BRANCH   1   7
ATOM      7  C1' N4B d   1      -5.391  -5.068  -5.101  0.00  0.00     0.057 C 
BRANCH   7   8
ATOM      8  C2' N4B d   1      -5.920  -3.983  -4.168  0.00  0.00     0.009 C 
BRANCH   8   9
ATOM      9  C3' N4B d   1      -6.000  -2.631  -4.855  0.00  0.00     0.004 C 
ATOM     10  C4' N4B d   1      -5.992  -1.486  -3.887  0.00  0.00     0.003 C 
ENDBRANCH   8   9
ENDBRANCH   7   8
ENDBRANCH   1   7
TORSDOF 3
ENDMDL
