MODEL 1
REMARK minimizedAffinity -2.47101212
REMARK minimizedRMSD -1
REMARK  3 active torsions:
REMARK  status: ('A' for Active; 'I' for Inactive)
REMARK    1  A    between atoms: C3'_2  and  C2'_3 
REMARK    2  A    between atoms: C2'_3  and  C1'_4 
REMARK    3  A    between atoms: C1'_4  and  C1_5 
ROOT
ATOM      1  C1  N4B d   1      -5.348  -3.983  -5.251  0.00  0.00    -0.075 A 
ATOM      2  C2  N4B d   1      -5.330  -2.773  -5.979  0.00  0.00     0.002 A 
ATOM      3  C3  N4B d   1      -5.632  -1.590  -5.351  0.00  0.00     0.002 A 
ATOM      4  C4  N4B d   1      -5.973  -1.594  -4.007  0.00  0.00    -0.004 A 
ATOM      5  C5  N4B d   1      -5.964  -2.764  -3.305  0.00  0.00     0.002 A 
ATOM      6  C6  N4B d   1      -5.658  -3.960  -3.922  0.00  0.00     0.002 A 
ENDROOT
BRANCH   1   7
ATOM      7  C1' N4B d   1      -5.109  -5.312  -5.914  0.00  0.00     0.057 C 
BRANCH   7   8
ATOM      8  C2' N4B d   1      -3.805  -5.906  -5.388  0.00  0.00     0.009 C 
BRANCH   8   9
ATOM      9  C3' N4B d   1      -2.613  -5.012  -5.686  0.00  0.00     0.004 C 
ATOM     10  C4' N4B d   1      -1.329  -5.778  -5.806  0.00  0.00     0.003 C 
ENDBRANCH   8   9
ENDBRANCH   7   8
ENDBRANCH   1   7
TORSDOF 3
ENDMDL
