MODEL 1
REMARK minimizedAffinity -1.16076267
REMARK minimizedRMSD -1
REMARK  3 active torsions:
REMARK  status: ('A' for Active; 'I' for Inactive)
REMARK    1  A    between atoms: C3'_2  and  C2'_3 
REMARK    2  A    between atoms: C2'_3  and  C1'_4 
REMARK    3  A    between atoms: C1'_4  and  C1_5 
ROOT
ATOM      1  C1  N4B d   1      -5.445  -4.093  -5.168  0.00  0.00    -0.075 A 
ATOM      2  C2  N4B d   1      -5.412  -3.878  -3.773  0.00  0.00     0.002 A 
ATOM      3  C3  N4B d   1      -5.669  -2.629  -3.264  0.00  0.00     0.002 A 
ATOM      4  C4  N4B d   1      -5.942  -1.579  -4.128  0.00  0.00    -0.004 A 
ATOM      5  C5  N4B d   1      -5.998  -1.801  -5.473  0.00  0.00     0.002 A 
ATOM      6  C6  N4B d   1      -5.745  -3.052  -5.998  0.00  0.00     0.002 A 
ENDROOT
BRANCH   1   7
ATOM      7  C1' N4B d   1      -5.086  -5.421  -5.776  0.00  0.00     0.057 C 
BRANCH   7   8
ATOM      8  C2' N4B d   1      -3.706  -5.842  -5.281  0.00  0.00     0.009 C 
BRANCH   8   9
ATOM      9  C3' N4B d   1      -2.593  -5.096  -5.997  0.00  0.00     0.004 C 
ATOM     10  C4' N4B d   1      -1.290  -5.837  -5.975  0.00  0.00     0.003 C 
ENDBRANCH   8   9
ENDBRANCH   7   8
ENDBRANCH   1   7
TORSDOF 3
ENDMDL
