MODEL 1
REMARK minimizedAffinity -3.86046171
REMARK minimizedRMSD -1
REMARK  3 active torsions:
REMARK  status: ('A' for Active; 'I' for Inactive)
REMARK    1  A    between atoms: C3'_2  and  C2'_3 
REMARK    2  A    between atoms: C2'_3  and  C1'_4 
REMARK    3  A    between atoms: C1'_4  and  C1_5 
ROOT
ATOM      1  C1  N4B d   1      -4.267  -4.235  -3.722  0.00  0.00    -0.075 A 
ATOM      2  C2  N4B d   1      -4.221  -2.824  -3.768  0.00  0.00     0.002 A 
ATOM      3  C3  N4B d   1      -5.064  -2.136  -4.607  0.00  0.00     0.002 A 
ATOM      4  C4  N4B d   1      -5.943  -2.835  -5.419  0.00  0.00    -0.004 A 
ATOM      5  C5  N4B d   1      -5.999  -4.197  -5.351  0.00  0.00     0.002 A 
ATOM      6  C6  N4B d   1      -5.161  -4.901  -4.509  0.00  0.00     0.002 A 
ENDROOT
BRANCH   1   7
ATOM      7  C1' N4B d   1      -3.307  -5.034  -2.885  0.00  0.00     0.057 C 
BRANCH   7   8
ATOM      8  C2' N4B d   1      -2.405  -5.854  -3.802  0.00  0.00     0.009 C 
BRANCH   8   9
ATOM      9  C3' N4B d   1      -1.420  -4.981  -4.560  0.00  0.00     0.004 C 
ATOM     10  C4' N4B d   1      -1.854  -4.704  -5.969  0.00  0.00     0.003 C 
ENDBRANCH   8   9
ENDBRANCH   7   8
ENDBRANCH   1   7
TORSDOF 3
ENDMDL
