MODEL 1
REMARK minimizedAffinity 1.72955787
REMARK minimizedRMSD -1
REMARK  1 active torsions:
REMARK  status: ('A' for Active; 'I' for Inactive)
REMARK    1  A    between atoms: C1_2  and  C2_3 
ROOT
ATOM      1  C2  UNL d   1      -0.282  -0.958   1.982  0.00  0.00    -0.073 A 
ATOM      2  C3  UNL d   1      -0.971  -0.317   0.946  0.00  0.00    -0.002 A 
ATOM      3  C4  UNL d   1      -0.271   0.337  -0.068  0.00  0.00     0.004 A 
ATOM      4  C5  UNL d   1       1.124   0.351  -0.062  0.00  0.00    -0.004 A 
ATOM      5  C6  UNL d   1       1.831  -0.293   0.958  0.00  0.00    -0.075 A 
ATOM      6  C7  UNL d   1       3.331  -0.285   0.980  0.00  0.00     0.076 C 
ATOM      7  C8  UNL d   1       1.121  -0.946   1.975  0.00  0.00     0.001 A 
ENDROOT
BRANCH   1   8
ATOM      8  C1  UNL d   1      -1.033  -1.670   3.076  0.00  0.00     0.053 C 
ATOM      9  C   UNL d   1      -2.217  -2.457   2.535  0.00  0.00     0.018 C 
ENDBRANCH   1   8
TORSDOF 1
ENDMDL
