MODEL 1
REMARK minimizedAffinity -3.48815799
REMARK minimizedRMSD -1
REMARK  1 active torsions:
REMARK  status: ('A' for Active; 'I' for Inactive)
REMARK    1  A    between atoms: C1_2  and  C2_3 
ROOT
ATOM      1  C2  UNL d   1      -3.325  -4.118  -5.140  0.00  0.00    -0.073 A 
ATOM      2  C3  UNL d   1      -3.938  -4.800  -4.083  0.00  0.00    -0.002 A 
ATOM      3  C4  UNL d   1      -5.208  -4.425  -3.644  0.00  0.00     0.004 A 
ATOM      4  C5  UNL d   1      -5.881  -3.370  -4.261  0.00  0.00    -0.004 A 
ATOM      5  C6  UNL d   1      -5.290  -2.684  -5.326  0.00  0.00    -0.075 A 
ATOM      6  C7  UNL d   1      -6.000  -1.546  -5.999  0.00  0.00     0.076 C 
ATOM      7  C8  UNL d   1      -4.013  -3.065  -5.760  0.00  0.00     0.001 A 
ENDROOT
BRANCH   1   8
ATOM      8  C1  UNL d   1      -1.956  -4.524  -5.622  0.00  0.00     0.053 C 
ATOM      9  C   UNL d   1      -1.637  -5.971  -5.279  0.00  0.00     0.018 C 
ENDBRANCH   1   8
TORSDOF 1
ENDMDL
