MODEL 1
REMARK minimizedAffinity -3.95609593
REMARK minimizedRMSD -1
REMARK  1 active torsions:
REMARK  status: ('A' for Active; 'I' for Inactive)
REMARK    1  A    between atoms: C1_2  and  C2_3 
ROOT
ATOM      1  C2  UNL d   1      -2.978  -4.350  -4.706  0.00  0.00    -0.073 A 
ATOM      2  C3  UNL d   1      -3.886  -5.391  -4.932  0.00  0.00    -0.002 A 
ATOM      3  C4  UNL d   1      -5.244  -5.211  -4.667  0.00  0.00     0.004 A 
ATOM      4  C5  UNL d   1      -5.709  -3.988  -4.182  0.00  0.00    -0.004 A 
ATOM      5  C6  UNL d   1      -4.819  -2.932  -3.962  0.00  0.00    -0.075 A 
ATOM      6  C7  UNL d   1      -5.302  -1.612  -3.439  0.00  0.00     0.076 C 
ATOM      7  C8  UNL d   1      -3.456  -3.122  -4.227  0.00  0.00     0.001 A 
ENDROOT
BRANCH   1   8
ATOM      8  C1  UNL d   1      -1.511  -4.537  -4.997  0.00  0.00     0.053 C 
ATOM      9  C   UNL d   1      -1.188  -5.967  -5.400  0.00  0.00     0.018 C 
ENDBRANCH   1   8
TORSDOF 1
ENDMDL
