MODEL 1
REMARK minimizedAffinity -4.1246953
REMARK minimizedRMSD -1
REMARK  1 active torsions:
REMARK  status: ('A' for Active; 'I' for Inactive)
REMARK    1  A    between atoms: C1_2  and  C2_3 
ROOT
ATOM      1  C2  UNL d   1      -4.551  -3.077  -5.118  0.00  0.00    -0.073 A 
ATOM      2  C3  UNL d   1      -5.556  -3.905  -4.606  0.00  0.00    -0.002 A 
ATOM      3  C4  UNL d   1      -5.343  -5.278  -4.481  0.00  0.00     0.004 A 
ATOM      4  C5  UNL d   1      -4.122  -5.836  -4.859  0.00  0.00    -0.004 A 
ATOM      5  C6  UNL d   1      -3.100  -5.023  -5.362  0.00  0.00    -0.075 A 
ATOM      6  C7  UNL d   1      -1.782  -5.608  -5.775  0.00  0.00     0.076 C 
ATOM      7  C8  UNL d   1      -3.323  -3.646  -5.487  0.00  0.00     0.001 A 
ENDROOT
BRANCH   1   8
ATOM      8  C1  UNL d   1      -4.774  -1.592  -5.249  0.00  0.00     0.053 C 
ATOM      9  C   UNL d   1      -6.000  -1.130  -4.477  0.00  0.00     0.018 C 
ENDBRANCH   1   8
TORSDOF 1
ENDMDL
