MODEL 1
REMARK minimizedAffinity -3.22635937
REMARK minimizedRMSD -1
REMARK  1 active torsions:
REMARK  status: ('A' for Active; 'I' for Inactive)
REMARK    1  A    between atoms: C1_2  and  C2_3 
ROOT
ATOM      1  C2  UNL d   1      -2.914  -4.447  -5.139  0.00  0.00    -0.073 A 
ATOM      2  C3  UNL d   1      -3.225  -4.805  -3.822  0.00  0.00    -0.002 A 
ATOM      3  C4  UNL d   1      -4.370  -4.301  -3.206  0.00  0.00     0.004 A 
ATOM      4  C5  UNL d   1      -5.220  -3.440  -3.900  0.00  0.00    -0.004 A 
ATOM      5  C6  UNL d   1      -4.933  -3.079  -5.221  0.00  0.00    -0.075 A 
ATOM      6  C7  UNL d   1      -5.836  -2.153  -5.981  0.00  0.00     0.076 C 
ATOM      7  C8  UNL d   1      -3.780  -3.588  -5.832  0.00  0.00     0.001 A 
ENDROOT
BRANCH   1   8
ATOM      8  C1  UNL d   1      -1.682  -4.994  -5.811  0.00  0.00     0.053 C 
ATOM      9  C   UNL d   1      -0.797  -5.761  -4.842  0.00  0.00     0.018 C 
ENDBRANCH   1   8
TORSDOF 1
ENDMDL
