MODEL 1
REMARK minimizedAffinity -3.24633074
REMARK minimizedRMSD -1
REMARK  1 active torsions:
REMARK  status: ('A' for Active; 'I' for Inactive)
REMARK    1  A    between atoms: C1_2  and  C2_3 
ROOT
ATOM      1  C2  UNL d   1      -4.542  -3.734  -4.446  0.00  0.00    -0.073 A 
ATOM      2  C3  UNL d   1      -5.577  -4.513  -4.974  0.00  0.00    -0.002 A 
ATOM      3  C4  UNL d   1      -5.288  -5.639  -5.747  0.00  0.00     0.004 A 
ATOM      4  C5  UNL d   1      -3.963  -6.000  -5.993  0.00  0.00    -0.004 A 
ATOM      5  C6  UNL d   1      -2.915  -5.241  -5.463  0.00  0.00    -0.075 A 
ATOM      6  C7  UNL d   1      -1.485  -5.615  -5.721  0.00  0.00     0.076 C 
ATOM      7  C8  UNL d   1      -3.213  -4.110  -4.691  0.00  0.00     0.001 A 
ENDROOT
BRANCH   1   8
ATOM      8  C1  UNL d   1      -4.849  -2.521  -3.605  0.00  0.00     0.053 C 
ATOM      9  C   UNL d   1      -6.000  -2.771  -2.644  0.00  0.00     0.018 C 
ENDBRANCH   1   8
TORSDOF 1
ENDMDL
