MODEL 1
REMARK minimizedAffinity -1.28170872
REMARK minimizedRMSD -1
REMARK  1 active torsions:
REMARK  status: ('A' for Active; 'I' for Inactive)
REMARK    1  A    between atoms: C1_2  and  C2_3 
ROOT
ATOM      1  C2  UNL d   1      -5.188  -2.803  -4.073  0.00  0.00    -0.073 A 
ATOM      2  C3  UNL d   1      -3.868  -3.051  -3.681  0.00  0.00    -0.002 A 
ATOM      3  C4  UNL d   1      -3.243  -4.251  -4.025  0.00  0.00     0.004 A 
ATOM      4  C5  UNL d   1      -3.929  -5.211  -4.769  0.00  0.00    -0.004 A 
ATOM      5  C6  UNL d   1      -5.245  -4.976  -5.180  0.00  0.00    -0.075 A 
ATOM      6  C7  UNL d   1      -5.997  -6.000  -5.980  0.00  0.00     0.076 C 
ATOM      7  C8  UNL d   1      -5.866  -3.770  -4.829  0.00  0.00     0.001 A 
ENDROOT
BRANCH   1   8
ATOM      8  C1  UNL d   1      -5.864  -1.506  -3.709  0.00  0.00     0.053 C 
ATOM      9  C   UNL d   1      -5.877  -0.525  -4.870  0.00  0.00     0.018 C 
ENDBRANCH   1   8
TORSDOF 1
ENDMDL
