MODEL 1
REMARK minimizedAffinity -3.9580524
REMARK minimizedRMSD -1
REMARK  1 active torsions:
REMARK  status: ('A' for Active; 'I' for Inactive)
REMARK    1  A    between atoms: C1_2  and  C2_3 
ROOT
ATOM      1  C2  UNL d   1      -5.252  -3.822  -4.893  0.00  0.00    -0.073 A 
ATOM      2  C3  UNL d   1      -5.952  -4.910  -5.427  0.00  0.00    -0.002 A 
ATOM      3  C4  UNL d   1      -5.263  -5.989  -5.981  0.00  0.00     0.004 A 
ATOM      4  C5  UNL d   1      -3.868  -5.996  -6.000  0.00  0.00    -0.004 A 
ATOM      5  C6  UNL d   1      -3.150  -4.925  -5.460  0.00  0.00    -0.075 A 
ATOM      6  C7  UNL d   1      -1.650  -4.916  -5.475  0.00  0.00     0.076 C 
ATOM      7  C8  UNL d   1      -3.850  -3.843  -4.908  0.00  0.00     0.001 A 
ENDROOT
BRANCH   1   8
ATOM      8  C1  UNL d   1      -5.991  -2.657  -4.288  0.00  0.00     0.053 C 
ATOM      9  C   UNL d   1      -5.984  -1.442  -5.201  0.00  0.00     0.018 C 
ENDBRANCH   1   8
TORSDOF 1
ENDMDL
