MODEL 1
REMARK minimizedAffinity -3.71220684
REMARK minimizedRMSD -1
REMARK  1 active torsions:
REMARK  status: ('A' for Active; 'I' for Inactive)
REMARK    1  A    between atoms: C1_2  and  C2_3 
ROOT
ATOM      1  C2  UNL d   1      -4.858  -3.314  -5.939  0.00  0.00    -0.073 A 
ATOM      2  C3  UNL d   1      -5.808  -4.339  -6.000  0.00  0.00    -0.002 A 
ATOM      3  C4  UNL d   1      -5.405  -5.675  -5.999  0.00  0.00     0.004 A 
ATOM      4  C5  UNL d   1      -4.051  -6.000  -5.930  0.00  0.00    -0.004 A 
ATOM      5  C6  UNL d   1      -3.086  -4.990  -5.857  0.00  0.00    -0.075 A 
ATOM      6  C7  UNL d   1      -1.625  -5.322  -5.784  0.00  0.00     0.076 C 
ATOM      7  C8  UNL d   1      -3.499  -3.650  -5.861  0.00  0.00     0.001 A 
ENDROOT
BRANCH   1   8
ATOM      8  C1  UNL d   1      -5.288  -1.870  -5.933  0.00  0.00     0.053 C 
ATOM      9  C   UNL d   1      -5.999  -1.492  -4.643  0.00  0.00     0.018 C 
ENDBRANCH   1   8
TORSDOF 1
ENDMDL
