MODEL 1
REMARK minimizedAffinity 0.272495061
REMARK minimizedRMSD -1
REMARK  1 active torsions:
REMARK  status: ('A' for Active; 'I' for Inactive)
REMARK    1  A    between atoms: C1_2  and  C2_3 
ROOT
ATOM      1  C2  UNL d   1      -4.841  -3.357  -5.223  0.00  0.00    -0.073 A 
ATOM      2  C3  UNL d   1      -4.875  -3.401  -3.824  0.00  0.00    -0.002 A 
ATOM      3  C4  UNL d   1      -3.812  -3.956  -3.110  0.00  0.00     0.004 A 
ATOM      4  C5  UNL d   1      -2.703  -4.465  -3.785  0.00  0.00    -0.004 A 
ATOM      5  C6  UNL d   1      -2.644  -4.418  -5.182  0.00  0.00    -0.075 A 
ATOM      6  C7  UNL d   1      -1.459  -4.963  -5.923  0.00  0.00     0.076 C 
ATOM      7  C8  UNL d   1      -3.717  -3.862  -5.892  0.00  0.00     0.001 A 
ENDROOT
BRANCH   1   8
ATOM      8  C1  UNL d   1      -5.983  -2.753  -5.998  0.00  0.00     0.053 C 
ATOM      9  C   UNL d   1      -5.999  -1.235  -5.901  0.00  0.00     0.018 C 
ENDBRANCH   1   8
TORSDOF 1
ENDMDL
