MODEL 1
REMARK minimizedAffinity -3.09524155
REMARK minimizedRMSD -1
REMARK  1 active torsions:
REMARK  status: ('A' for Active; 'I' for Inactive)
REMARK    1  A    between atoms: C1_2  and  C2_3 
ROOT
ATOM      1  C2  UNL d   1      -3.219  -4.217  -5.399  0.00  0.00    -0.073 A 
ATOM      2  C3  UNL d   1      -3.978  -5.389  -5.485  0.00  0.00    -0.002 A 
ATOM      3  C4  UNL d   1      -5.361  -5.348  -5.302  0.00  0.00     0.004 A 
ATOM      4  C5  UNL d   1      -5.999  -4.136  -5.038  0.00  0.00    -0.004 A 
ATOM      5  C6  UNL d   1      -5.258  -2.952  -4.961  0.00  0.00    -0.075 A 
ATOM      6  C7  UNL d   1      -5.929  -1.640  -4.676  0.00  0.00     0.076 C 
ATOM      7  C8  UNL d   1      -3.870  -3.002  -5.143  0.00  0.00     0.001 A 
ENDROOT
BRANCH   1   8
ATOM      8  C1  UNL d   1      -1.726  -4.256  -5.602  0.00  0.00     0.053 C 
ATOM      9  C   UNL d   1      -1.126  -5.584  -5.170  0.00  0.00     0.018 C 
ENDBRANCH   1   8
TORSDOF 1
ENDMDL
