MODEL 1
REMARK minimizedAffinity -3.04772854
REMARK minimizedRMSD -1
REMARK  1 active torsions:
REMARK  status: ('A' for Active; 'I' for Inactive)
REMARK    1  A    between atoms: C1_2  and  C2_3 
ROOT
ATOM      1  C2  UNL d   1      -3.341  -3.875  -5.565  0.00  0.00    -0.073 A 
ATOM      2  C3  UNL d   1      -4.068  -2.755  -5.983  0.00  0.00    -0.002 A 
ATOM      3  C4  UNL d   1      -5.392  -2.583  -5.578  0.00  0.00     0.004 A 
ATOM      4  C5  UNL d   1      -6.000  -3.523  -4.746  0.00  0.00    -0.004 A 
ATOM      5  C6  UNL d   1      -5.286  -4.643  -4.307  0.00  0.00    -0.075 A 
ATOM      6  C7  UNL d   1      -5.926  -5.664  -3.414  0.00  0.00     0.076 C 
ATOM      7  C8  UNL d   1      -3.957  -4.810  -4.721  0.00  0.00     0.001 A 
ENDROOT
BRANCH   1   8
ATOM      8  C1  UNL d   1      -1.909  -4.063  -5.994  0.00  0.00     0.053 C 
ATOM      9  C   UNL d   1      -1.478  -5.519  -5.921  0.00  0.00     0.018 C 
ENDBRANCH   1   8
TORSDOF 1
ENDMDL
