MODEL 1
REMARK minimizedAffinity -3.14781666
REMARK minimizedRMSD -1
REMARK  1 active torsions:
REMARK  status: ('A' for Active; 'I' for Inactive)
REMARK    1  A    between atoms: C1_2  and  C2_3 
ROOT
ATOM      1  C2  UNL d   1      -5.312  -2.901  -4.928  0.00  0.00    -0.073 A 
ATOM      2  C3  UNL d   1      -5.983  -4.087  -4.610  0.00  0.00    -0.002 A 
ATOM      3  C4  UNL d   1      -5.342  -5.319  -4.749  0.00  0.00     0.004 A 
ATOM      4  C5  UNL d   1      -4.023  -5.376  -5.200  0.00  0.00    -0.004 A 
ATOM      5  C6  UNL d   1      -3.332  -4.201  -5.511  0.00  0.00    -0.075 A 
ATOM      6  C7  UNL d   1      -1.914  -4.246  -5.999  0.00  0.00     0.076 C 
ATOM      7  C8  UNL d   1      -3.984  -2.968  -5.372  0.00  0.00     0.001 A 
ENDROOT
BRANCH   1   8
ATOM      8  C1  UNL d   1      -5.999  -1.568  -4.774  0.00  0.00     0.053 C 
ATOM      9  C   UNL d   1      -5.816  -0.688  -6.000  0.00  0.00     0.018 C 
ENDBRANCH   1   8
TORSDOF 1
ENDMDL
