MODEL 1
REMARK minimizedAffinity -2.93116236
REMARK minimizedRMSD -1
REMARK  1 active torsions:
REMARK  status: ('A' for Active; 'I' for Inactive)
REMARK    1  A    between atoms: C1_2  and  C2_3 
ROOT
ATOM      1  C2  UNL d   1      -3.097  -4.165  -4.968  0.00  0.00    -0.073 A 
ATOM      2  C3  UNL d   1      -3.615  -4.810  -3.840  0.00  0.00    -0.002 A 
ATOM      3  C4  UNL d   1      -4.896  -4.503  -3.379  0.00  0.00     0.004 A 
ATOM      4  C5  UNL d   1      -5.673  -3.555  -4.044  0.00  0.00    -0.004 A 
ATOM      5  C6  UNL d   1      -5.177  -2.909  -5.181  0.00  0.00    -0.075 A 
ATOM      6  C7  UNL d   1      -6.000  -1.885  -5.906  0.00  0.00     0.076 C 
ATOM      7  C8  UNL d   1      -3.889  -3.220  -5.636  0.00  0.00     0.001 A 
ENDROOT
BRANCH   1   8
ATOM      8  C1  UNL d   1      -1.716  -4.498  -5.474  0.00  0.00     0.053 C 
ATOM      9  C   UNL d   1      -1.612  -5.941  -5.939  0.00  0.00     0.018 C 
ENDBRANCH   1   8
TORSDOF 1
ENDMDL
