MODEL 1
REMARK minimizedAffinity -1.89547074
REMARK minimizedRMSD -1
REMARK  1 active torsions:
REMARK  status: ('A' for Active; 'I' for Inactive)
REMARK    1  A    between atoms: C1_2  and  C2_3 
ROOT
ATOM      1  C2  UNL d   1      -3.834  -5.025  -5.249  0.00  0.00    -0.073 A 
ATOM      2  C3  UNL d   1      -4.401  -5.469  -4.050  0.00  0.00    -0.002 A 
ATOM      3  C4  UNL d   1      -5.475  -4.783  -3.481  0.00  0.00     0.004 A 
ATOM      4  C5  UNL d   1      -5.997  -3.652  -4.107  0.00  0.00    -0.004 A 
ATOM      5  C6  UNL d   1      -5.452  -3.199  -5.313  0.00  0.00    -0.075 A 
ATOM      6  C7  UNL d   1      -6.000  -1.982  -5.999  0.00  0.00     0.076 C 
ATOM      7  C8  UNL d   1      -4.372  -3.891  -5.877  0.00  0.00     0.001 A 
ENDROOT
BRANCH   1   8
ATOM      8  C1  UNL d   1      -2.679  -5.766  -5.871  0.00  0.00     0.053 C 
ATOM      9  C   UNL d   1      -1.424  -4.910  -5.940  0.00  0.00     0.018 C 
ENDBRANCH   1   8
TORSDOF 1
ENDMDL
