MODEL 1
REMARK minimizedAffinity 2.24134088
REMARK minimizedRMSD -1
REMARK  1 active torsions:
REMARK  status: ('A' for Active; 'I' for Inactive)
REMARK    1  A    between atoms: C3_4  and  O_7 
ROOT
ATOM      1  C   UNL d   1       3.673  -2.757   3.356  0.00  0.00    -0.033 A 
ATOM      2  C1  UNL d   1       2.639  -2.175   2.621  0.00  0.00     0.039 A 
ATOM      3  C2  UNL d   1       1.425  -1.871   3.241  0.00  0.00    -0.080 A 
ATOM      4  C3  UNL d   1       1.259  -2.153   4.594  0.00  0.00     0.150 A 
ATOM      5  C4  UNL d   1       2.287  -2.729   5.333  0.00  0.00    -0.007 A 
ATOM      6  C5  UNL d   1       3.498  -3.033   4.713  0.00  0.00     0.039 A 
ENDROOT
BRANCH   4   7
ATOM      7  O   UNL d   1       0.091  -1.879   5.241  0.00  0.00    -0.526 OA
ATOM      8  H5  UNL d   1      -0.538  -1.510   4.598  0.00  0.00     0.418 HD
ENDBRANCH   4   7
TORSDOF 1
ENDMDL
