MODEL 1
REMARK minimizedAffinity 8.00774384
REMARK minimizedRMSD -1
REMARK  1 active torsions:
REMARK  status: ('A' for Active; 'I' for Inactive)
REMARK    1  A    between atoms: C3_4  and  O_7 
ROOT
ATOM      1  C   UNL d   1      -4.503   1.216  -3.355  0.00  0.00    -0.033 A 
ATOM      2  C1  UNL d   1      -3.866   0.603  -2.275  0.00  0.00     0.039 A 
ATOM      3  C2  UNL d   1      -2.511   0.273  -2.357  0.00  0.00    -0.080 A 
ATOM      4  C3  UNL d   1      -1.807   0.563  -3.522  0.00  0.00     0.150 A 
ATOM      5  C4  UNL d   1      -2.434   1.178  -4.600  0.00  0.00    -0.007 A 
ATOM      6  C5  UNL d   1      -3.787   1.505  -4.517  0.00  0.00     0.039 A 
ENDROOT
BRANCH   4   7
ATOM      7  O   UNL d   1      -0.485   0.256  -3.650  0.00  0.00    -0.526 OA
ATOM      8  H5  UNL d   1      -0.192  -0.190  -2.838  0.00  0.00     0.418 HD
ENDBRANCH   4   7
TORSDOF 1
ENDMDL
