MODEL 1
REMARK minimizedAffinity 4.92510843
REMARK minimizedRMSD -1
REMARK  1 active torsions:
REMARK  status: ('A' for Active; 'I' for Inactive)
REMARK    1  A    between atoms: C3_4  and  O_7 
ROOT
ATOM      1  C   UNL d   1       0.678  -5.555   0.312  0.00  0.00    -0.033 A 
ATOM      2  C1  UNL d   1       0.373  -4.878  -0.870  0.00  0.00     0.039 A 
ATOM      3  C2  UNL d   1      -0.724  -4.016  -0.921  0.00  0.00    -0.080 A 
ATOM      4  C3  UNL d   1      -1.506  -3.838   0.218  0.00  0.00     0.150 A 
ATOM      5  C4  UNL d   1      -1.205  -4.505   1.400  0.00  0.00    -0.007 A 
ATOM      6  C5  UNL d   1      -0.111  -5.367   1.448  0.00  0.00     0.039 A 
ENDROOT
BRANCH   4   7
ATOM      7  O   UNL d   1      -2.589  -3.010   0.216  0.00  0.00    -0.526 OA
ATOM      8  H5  UNL d   1      -2.691  -2.639  -0.677  0.00  0.00     0.418 HD
ENDBRANCH   4   7
TORSDOF 1
ENDMDL
