MODEL 1
REMARK minimizedAffinity 3.64965963
REMARK minimizedRMSD -1
REMARK  1 active torsions:
REMARK  status: ('A' for Active; 'I' for Inactive)
REMARK    1  A    between atoms: C3_4  and  O_7 
ROOT
ATOM      1  C   UNL d   1      -1.008  -2.941  -0.079  0.00  0.00    -0.033 A 
ATOM      2  C1  UNL d   1      -1.667  -1.992  -0.863  0.00  0.00     0.039 A 
ATOM      3  C2  UNL d   1      -3.057  -1.880  -0.806  0.00  0.00    -0.080 A 
ATOM      4  C3  UNL d   1      -3.776  -2.722   0.038  0.00  0.00     0.150 A 
ATOM      5  C4  UNL d   1      -3.126  -3.667   0.825  0.00  0.00    -0.007 A 
ATOM      6  C5  UNL d   1      -1.738  -3.778   0.766  0.00  0.00     0.039 A 
ENDROOT
BRANCH   4   7
ATOM      7  O   UNL d   1      -5.135  -2.654   0.124  0.00  0.00    -0.526 OA
ATOM      8  H5  UNL d   1      -5.449  -1.975  -0.497  0.00  0.00     0.418 HD
ENDBRANCH   4   7
TORSDOF 1
ENDMDL
