MODEL 1
REMARK minimizedAffinity 1.49008644
REMARK minimizedRMSD -1
REMARK  1 active torsions:
REMARK  status: ('A' for Active; 'I' for Inactive)
REMARK    1  A    between atoms: C3_4  and  O_7 
ROOT
ATOM      1  C   UNL d   1      -3.757  -0.928  -2.931  0.00  0.00    -0.033 A 
ATOM      2  C1  UNL d   1      -2.542  -1.257  -3.534  0.00  0.00     0.039 A 
ATOM      3  C2  UNL d   1      -1.355  -0.680  -3.077  0.00  0.00    -0.080 A 
ATOM      4  C3  UNL d   1      -1.398   0.223  -2.018  0.00  0.00     0.150 A 
ATOM      5  C4  UNL d   1      -2.605   0.552  -1.411  0.00  0.00    -0.007 A 
ATOM      6  C5  UNL d   1      -3.789  -0.024  -1.869  0.00  0.00     0.039 A 
ENDROOT
BRANCH   4   7
ATOM      7  O   UNL d   1      -0.267   0.815  -1.540  0.00  0.00    -0.526 OA
ATOM      8  H5  UNL d   1       0.487   0.515  -2.075  0.00  0.00     0.418 HD
ENDBRANCH   4   7
TORSDOF 1
ENDMDL
