MODEL 1
REMARK minimizedAffinity 6.35172987
REMARK minimizedRMSD -1
REMARK  1 active torsions:
REMARK  status: ('A' for Active; 'I' for Inactive)
REMARK    1  A    between atoms: C3_4  and  O_7 
ROOT
ATOM      1  C   UNL d   1      -1.580  -2.736  -0.316  0.00  0.00    -0.033 A 
ATOM      2  C1  UNL d   1      -0.242  -2.788  -0.713  0.00  0.00     0.039 A 
ATOM      3  C2  UNL d   1       0.553  -3.878  -0.352  0.00  0.00    -0.080 A 
ATOM      4  C3  UNL d   1      -0.001  -4.907   0.403  0.00  0.00     0.150 A 
ATOM      5  C4  UNL d   1      -1.334  -4.864   0.799  0.00  0.00    -0.007 A 
ATOM      6  C5  UNL d   1      -2.126  -3.775   0.439  0.00  0.00     0.039 A 
ENDROOT
BRANCH   4   7
ATOM      7  O   UNL d   1       0.737  -5.989   0.783  0.00  0.00    -0.526 OA
ATOM      8  H5  UNL d   1       1.647  -5.868   0.463  0.00  0.00     0.418 HD
ENDBRANCH   4   7
TORSDOF 1
ENDMDL
