MODEL 1
REMARK minimizedAffinity 3.85131454
REMARK minimizedRMSD -1
REMARK  1 active torsions:
REMARK  status: ('A' for Active; 'I' for Inactive)
REMARK    1  A    between atoms: C3_4  and  O_7 
ROOT
ATOM      1  C   UNL d   1      -1.326  -3.830  -0.304  0.00  0.00    -0.033 A 
ATOM      2  C1  UNL d   1      -0.681  -4.620   0.650  0.00  0.00     0.039 A 
ATOM      3  C2  UNL d   1      -0.640  -4.213   1.984  0.00  0.00    -0.080 A 
ATOM      4  C3  UNL d   1      -1.247  -3.015   2.352  0.00  0.00     0.150 A 
ATOM      5  C4  UNL d   1      -1.894  -2.225   1.408  0.00  0.00    -0.007 A 
ATOM      6  C5  UNL d   1      -1.933  -2.633   0.075  0.00  0.00     0.039 A 
ENDROOT
BRANCH   4   7
ATOM      7  O   UNL d   1      -1.229  -2.573   3.642  0.00  0.00    -0.526 OA
ATOM      8  H5  UNL d   1      -0.723  -3.207   4.177  0.00  0.00     0.418 HD
ENDBRANCH   4   7
TORSDOF 1
ENDMDL
