MODEL 1
REMARK minimizedAffinity -5.53062201
REMARK minimizedRMSD -1
REMARK  1 active torsions:
REMARK  status: ('A' for Active; 'I' for Inactive)
REMARK    1  A    between atoms: C1_2  and  C2_3 
ROOT
ATOM      1  C2  UNL d   1       0.522   0.247   0.263  0.00  0.00    -0.077 A 
ATOM      2  C3  UNL d   1       1.386   1.288  -0.104  0.00  0.00     0.002 A 
ATOM      3  C4  UNL d   1       1.332   2.517   0.556  0.00  0.00     0.002 A 
ATOM      4  C5  UNL d   1       0.418   2.715   1.589  0.00  0.00    -0.004 A 
ATOM      5  C6  UNL d   1      -0.447   1.687   1.961  0.00  0.00     0.002 A 
ATOM      6  C7  UNL d   1      -0.394   0.458   1.301  0.00  0.00     0.002 A 
ENDROOT
BRANCH   1   7
ATOM      7  C1  UNL d   1       0.613  -1.095  -0.415  0.00  0.00     0.055 C 
ATOM      8  C   UNL d   1      -0.759  -1.590  -0.849  0.00  0.00     0.019 C 
ENDBRANCH   1   7
TORSDOF 1
ENDMDL
