MODEL 1
REMARK minimizedAffinity -4.18392515
REMARK minimizedRMSD -1
REMARK  1 active torsions:
REMARK  status: ('A' for Active; 'I' for Inactive)
REMARK    1  A    between atoms: C1_2  and  C2_3 
ROOT
ATOM      1  C2  UNL d   1       0.215   0.634   0.751  0.00  0.00    -0.077 A 
ATOM      2  C3  UNL d   1      -0.855  -0.264   0.632  0.00  0.00     0.002 A 
ATOM      3  C4  UNL d   1      -0.785  -1.331  -0.265  0.00  0.00     0.002 A 
ATOM      4  C5  UNL d   1       0.355  -1.513  -1.047  0.00  0.00    -0.004 A 
ATOM      5  C6  UNL d   1       1.423  -0.624  -0.937  0.00  0.00     0.002 A 
ATOM      6  C7  UNL d   1       1.354   0.444  -0.041  0.00  0.00     0.002 A 
ENDROOT
BRANCH   1   7
ATOM      7  C1  UNL d   1       0.161   1.757   1.754  0.00  0.00     0.055 C 
ATOM      8  C   UNL d   1       1.166   2.849   1.417  0.00  0.00     0.019 C 
ENDBRANCH   1   7
TORSDOF 1
ENDMDL
