MODEL 1
REMARK minimizedAffinity -4.27284479
REMARK minimizedRMSD -1
REMARK  1 active torsions:
REMARK  status: ('A' for Active; 'I' for Inactive)
REMARK    1  A    between atoms: C1_2  and  C2_3 
ROOT
ATOM      1  C2  UNL d   1      -0.331  -0.124  -0.145  0.00  0.00    -0.077 A 
ATOM      2  C3  UNL d   1      -0.842   0.290   1.093  0.00  0.00     0.002 A 
ATOM      3  C4  UNL d   1      -0.290   1.389   1.753  0.00  0.00     0.002 A 
ATOM      4  C5  UNL d   1       0.773   2.085   1.182  0.00  0.00    -0.004 A 
ATOM      5  C6  UNL d   1       1.291   1.680  -0.047  0.00  0.00     0.002 A 
ATOM      6  C7  UNL d   1       0.741   0.581  -0.709  0.00  0.00     0.002 A 
ENDROOT
BRANCH   1   7
ATOM      7  C1  UNL d   1      -0.957  -1.278  -0.883  0.00  0.00     0.055 C 
ATOM      8  C   UNL d   1      -1.257  -0.914  -2.329  0.00  0.00     0.019 C 
ENDBRANCH   1   7
TORSDOF 1
ENDMDL
