MODEL 1
REMARK minimizedAffinity -2.41176891
REMARK minimizedRMSD -1
REMARK  1 active torsions:
REMARK  status: ('A' for Active; 'I' for Inactive)
REMARK    1  A    between atoms: C1_2  and  C2_3 
ROOT
ATOM      1  C2  UNL d   1      -0.315  -0.868  -0.295  0.00  0.00    -0.077 A 
ATOM      2  C3  UNL d   1      -1.236  -0.468   0.683  0.00  0.00     0.002 A 
ATOM      3  C4  UNL d   1      -0.961   0.625   1.507  0.00  0.00     0.002 A 
ATOM      4  C5  UNL d   1       0.232   1.329   1.358  0.00  0.00    -0.004 A 
ATOM      5  C6  UNL d   1       1.156   0.938   0.389  0.00  0.00     0.002 A 
ATOM      6  C7  UNL d   1       0.883  -0.156  -0.434  0.00  0.00     0.002 A 
ENDROOT
BRANCH   1   7
ATOM      7  C1  UNL d   1      -0.631  -2.017  -1.217  0.00  0.00     0.055 C 
ATOM      8  C   UNL d   1      -1.413  -1.549  -2.436  0.00  0.00     0.019 C 
ENDBRANCH   1   7
TORSDOF 1
ENDMDL
