MODEL 1
REMARK minimizedAffinity -5.10061407
REMARK minimizedRMSD -1
REMARK  1 active torsions:
REMARK  status: ('A' for Active; 'I' for Inactive)
REMARK    1  A    between atoms: C1_2  and  C2_3 
ROOT
ATOM      1  C2  UNL d   1       0.219   0.380   0.429  0.00  0.00    -0.077 A 
ATOM      2  C3  UNL d   1       1.300  -0.039  -0.359  0.00  0.00     0.002 A 
ATOM      3  C4  UNL d   1       2.480   0.708  -0.394  0.00  0.00     0.002 A 
ATOM      4  C5  UNL d   1       2.590   1.875   0.358  0.00  0.00    -0.004 A 
ATOM      5  C6  UNL d   1       1.519   2.301   1.143  0.00  0.00     0.002 A 
ATOM      6  C7  UNL d   1       0.339   1.557   1.179  0.00  0.00     0.002 A 
ENDROOT
BRANCH   1   7
ATOM      7  C1  UNL d   1      -1.036  -0.450   0.507  0.00  0.00     0.055 C 
ATOM      8  C   UNL d   1      -1.214  -1.302  -0.741  0.00  0.00     0.019 C 
ENDBRANCH   1   7
TORSDOF 1
ENDMDL
