MODEL 1
REMARK minimizedAffinity -2.19118738
REMARK minimizedRMSD -1
REMARK  1 active torsions:
REMARK  status: ('A' for Active; 'I' for Inactive)
REMARK    1  A    between atoms: C1_2  and  C2_3 
ROOT
ATOM      1  C2  UNL d   1      -0.998  -1.047  -1.406  0.00  0.00    -0.077 A 
ATOM      2  C3  UNL d   1      -0.321  -1.561  -2.521  0.00  0.00     0.002 A 
ATOM      3  C4  UNL d   1      -0.996  -1.766  -3.725  0.00  0.00     0.002 A 
ATOM      4  C5  UNL d   1      -2.351  -1.456  -3.828  0.00  0.00    -0.004 A 
ATOM      5  C6  UNL d   1      -3.034  -0.945  -2.724  0.00  0.00     0.002 A 
ATOM      6  C7  UNL d   1      -2.360  -0.741  -1.519  0.00  0.00     0.002 A 
ENDROOT
BRANCH   1   7
ATOM      7  C1  UNL d   1      -0.259  -0.779  -0.121  0.00  0.00     0.055 C 
ATOM      8  C   UNL d   1      -0.722   0.520   0.523  0.00  0.00     0.019 C 
ENDBRANCH   1   7
TORSDOF 1
ENDMDL
