MODEL 1
REMARK minimizedAffinity -4.52818537
REMARK minimizedRMSD -1
REMARK  1 active torsions:
REMARK  status: ('A' for Active; 'I' for Inactive)
REMARK    1  A    between atoms: C1_2  and  C2_3 
ROOT
ATOM      1  C2  UNL d   1       2.982   1.733   1.077  0.00  0.00    -0.077 A 
ATOM      2  C3  UNL d   1       2.104   1.464   2.136  0.00  0.00     0.002 A 
ATOM      3  C4  UNL d   1       0.799   1.959   2.114  0.00  0.00     0.002 A 
ATOM      4  C5  UNL d   1       0.359   2.722   1.034  0.00  0.00    -0.004 A 
ATOM      5  C6  UNL d   1       1.225   2.996  -0.023  0.00  0.00     0.002 A 
ATOM      6  C7  UNL d   1       2.531   2.503  -0.003  0.00  0.00     0.002 A 
ENDROOT
BRANCH   1   7
ATOM      7  C1  UNL d   1       4.375   1.158   1.075  0.00  0.00     0.055 C 
ATOM      8  C   UNL d   1       4.689   0.464   2.392  0.00  0.00     0.019 C 
ENDBRANCH   1   7
TORSDOF 1
ENDMDL
