MODEL 1
REMARK minimizedAffinity -1.90367818
REMARK minimizedRMSD -1
REMARK  1 active torsions:
REMARK  status: ('A' for Active; 'I' for Inactive)
REMARK    1  A    between atoms: C1_2  and  C2_3 
ROOT
ATOM      1  C2  UNL d   1       1.054   1.566   1.041  0.00  0.00    -0.077 A 
ATOM      2  C3  UNL d   1       0.276   1.700   2.199  0.00  0.00     0.002 A 
ATOM      3  C4  UNL d   1      -0.894   0.954   2.355  0.00  0.00     0.002 A 
ATOM      4  C5  UNL d   1      -1.294   0.066   1.358  0.00  0.00    -0.004 A 
ATOM      5  C6  UNL d   1      -0.528  -0.073   0.201  0.00  0.00     0.002 A 
ATOM      6  C7  UNL d   1       0.641   0.673   0.043  0.00  0.00     0.002 A 
ENDROOT
BRANCH   1   7
ATOM      7  C1  UNL d   1       2.342   2.333   0.893  0.00  0.00     0.055 C 
ATOM      8  C   UNL d   1       3.422   1.481   0.243  0.00  0.00     0.019 C 
ENDBRANCH   1   7
TORSDOF 1
ENDMDL
