MODEL 1
REMARK minimizedAffinity -4.38264036
REMARK minimizedRMSD -1
REMARK  1 active torsions:
REMARK  status: ('A' for Active; 'I' for Inactive)
REMARK    1  A    between atoms: C1_2  and  C2_3 
ROOT
ATOM      1  C2  UNL d   1       0.758   0.295   0.392  0.00  0.00    -0.077 A 
ATOM      2  C3  UNL d   1       0.006   1.138   1.223  0.00  0.00     0.002 A 
ATOM      3  C4  UNL d   1       0.623   2.185   1.911  0.00  0.00     0.002 A 
ATOM      4  C5  UNL d   1       1.993   2.401   1.771  0.00  0.00    -0.004 A 
ATOM      5  C6  UNL d   1       2.749   1.566   0.949  0.00  0.00     0.002 A 
ATOM      6  C7  UNL d   1       2.134   0.519   0.262  0.00  0.00     0.002 A 
ENDROOT
BRANCH   1   7
ATOM      7  C1  UNL d   1       0.086  -0.804  -0.389  0.00  0.00     0.055 C 
ATOM      8  C   UNL d   1      -1.039  -0.258  -1.257  0.00  0.00     0.019 C 
ENDBRANCH   1   7
TORSDOF 1
ENDMDL
