MODEL 1
REMARK minimizedAffinity -4.92291212
REMARK minimizedRMSD -1
REMARK  1 active torsions:
REMARK  status: ('A' for Active; 'I' for Inactive)
REMARK    1  A    between atoms: C1_2  and  C2_3 
ROOT
ATOM      1  C2  UNL d   1       2.706   4.818  -3.830  0.00  0.00    -0.077 A 
ATOM      2  C3  UNL d   1       1.572   5.376  -3.222  0.00  0.00     0.002 A 
ATOM      3  C4  UNL d   1       0.573   5.966  -3.998  0.00  0.00     0.002 A 
ATOM      4  C5  UNL d   1       0.695   6.000  -5.386  0.00  0.00    -0.004 A 
ATOM      5  C6  UNL d   1       1.819   5.449  -6.000  0.00  0.00     0.002 A 
ATOM      6  C7  UNL d   1       2.820   4.860  -5.226  0.00  0.00     0.002 A 
ENDROOT
BRANCH   1   7
ATOM      7  C1  UNL d   1       3.761   4.138  -2.999  0.00  0.00     0.055 C 
ATOM      8  C   UNL d   1       5.152   4.371  -3.570  0.00  0.00     0.019 C 
ENDBRANCH   1   7
TORSDOF 1
ENDMDL
