MODEL 1
REMARK minimizedAffinity 0.698720753
REMARK minimizedRMSD -1
REMARK  0 active torsions:
REMARK  status: ('A' for Active; 'I' for Inactive)
ROOT
ATOM      1  C   UNL d   1       2.204  -0.476   1.718  0.00  0.00     0.077 C 
ATOM      2  C1  UNL d   1       1.220   0.351   0.945  0.00  0.00    -0.074 A 
ATOM      3  C2  UNL d   1       1.264   1.748   0.989  0.00  0.00    -0.005 A 
ATOM      4  C3  UNL d   1       0.348   2.504   0.258  0.00  0.00     0.006 A 
ATOM      5  C4  UNL d   1      -0.621   1.871  -0.523  0.00  0.00    -0.005 A 
ATOM      6  C5  UNL d   1      -0.680   0.475  -0.579  0.00  0.00    -0.074 A 
ATOM      7  C6  UNL d   1      -1.708  -0.220  -1.421  0.00  0.00     0.077 C 
ATOM      8  C7  UNL d   1       0.249  -0.277   0.153  0.00  0.00    -0.001 A 
ENDROOT
TORSDOF 0
ENDMDL
