MODEL 1
REMARK minimizedAffinity 8.04331207
REMARK minimizedRMSD -1
REMARK  0 active torsions:
REMARK  status: ('A' for Active; 'I' for Inactive)
ROOT
ATOM      1  C   UNL d   1      -0.881   2.000   0.237  0.00  0.00     0.077 C 
ATOM      2  C1  UNL d   1      -2.238   1.938   0.873  0.00  0.00    -0.074 A 
ATOM      3  C2  UNL d   1      -2.510   2.633   2.055  0.00  0.00    -0.005 A 
ATOM      4  C3  UNL d   1      -3.780   2.573   2.629  0.00  0.00     0.006 A 
ATOM      5  C4  UNL d   1      -4.789   1.819   2.028  0.00  0.00    -0.005 A 
ATOM      6  C5  UNL d   1      -4.535   1.118   0.844  0.00  0.00    -0.074 A 
ATOM      7  C6  UNL d   1      -5.610   0.311   0.179  0.00  0.00     0.077 C 
ATOM      8  C7  UNL d   1      -3.258   1.189   0.270  0.00  0.00    -0.001 A 
ENDROOT
TORSDOF 0
ENDMDL
