MODEL 1
REMARK minimizedAffinity 1.18639231
REMARK minimizedRMSD -1
REMARK  0 active torsions:
REMARK  status: ('A' for Active; 'I' for Inactive)
ROOT
ATOM      1  C   UNL d   1      -3.305   4.501   2.620  0.00  0.00     0.077 C 
ATOM      2  C1  UNL d   1      -3.109   3.285   1.764  0.00  0.00    -0.074 A 
ATOM      3  C2  UNL d   1      -4.060   2.260   1.743  0.00  0.00    -0.005 A 
ATOM      4  C3  UNL d   1      -3.868   1.139   0.935  0.00  0.00     0.006 A 
ATOM      5  C4  UNL d   1      -2.725   1.032   0.142  0.00  0.00    -0.005 A 
ATOM      6  C5  UNL d   1      -1.764   2.048   0.149  0.00  0.00    -0.074 A 
ATOM      7  C6  UNL d   1      -0.535   1.953  -0.705  0.00  0.00     0.077 C 
ATOM      8  C7  UNL d   1      -1.967   3.174   0.958  0.00  0.00    -0.001 A 
ENDROOT
TORSDOF 0
ENDMDL
