MODEL 1
REMARK minimizedAffinity 6.96480274
REMARK minimizedRMSD -1
REMARK  0 active torsions:
REMARK  status: ('A' for Active; 'I' for Inactive)
ROOT
ATOM      1  C   UNL d   1       1.227   2.120  -0.171  0.00  0.00     0.077 C 
ATOM      2  C1  UNL d   1       2.055   0.942   0.248  0.00  0.00    -0.074 A 
ATOM      3  C2  UNL d   1       2.878   1.006   1.377  0.00  0.00    -0.005 A 
ATOM      4  C3  UNL d   1       3.634  -0.101   1.760  0.00  0.00     0.006 A 
ATOM      5  C4  UNL d   1       3.576  -1.282   1.019  0.00  0.00    -0.005 A 
ATOM      6  C5  UNL d   1       2.759  -1.365  -0.112  0.00  0.00    -0.074 A 
ATOM      7  C6  UNL d   1       2.677  -2.630  -0.914  0.00  0.00     0.077 C 
ATOM      8  C7  UNL d   1       1.996  -0.251  -0.487  0.00  0.00    -0.001 A 
ENDROOT
TORSDOF 0
ENDMDL
