MODEL 1
REMARK minimizedAffinity 4.85308552
REMARK minimizedRMSD -1
REMARK  0 active torsions:
REMARK  status: ('A' for Active; 'I' for Inactive)
ROOT
ATOM      1  C   UNL d   1       2.171  -1.651  -0.153  0.00  0.00     0.077 C 
ATOM      2  C1  UNL d   1       2.361  -0.170  -0.011  0.00  0.00    -0.074 A 
ATOM      3  C2  UNL d   1       3.583   0.431  -0.328  0.00  0.00    -0.005 A 
ATOM      4  C3  UNL d   1       3.742   1.811  -0.199  0.00  0.00     0.006 A 
ATOM      5  C4  UNL d   1       2.683   2.602   0.246  0.00  0.00    -0.005 A 
ATOM      6  C5  UNL d   1       1.453   2.019   0.567  0.00  0.00    -0.074 A 
ATOM      7  C6  UNL d   1       0.301   2.856   1.038  0.00  0.00     0.077 C 
ATOM      8  C7  UNL d   1       1.299   0.632   0.429  0.00  0.00    -0.001 A 
ENDROOT
TORSDOF 0
ENDMDL
