MODEL 1
REMARK minimizedAffinity 1.53026617
REMARK minimizedRMSD -1
REMARK  0 active torsions:
REMARK  status: ('A' for Active; 'I' for Inactive)
ROOT
ATOM      1  C   UNL d   1      -5.569   3.532  -5.255  0.00  0.00     0.077 C 
ATOM      2  C1  UNL d   1      -4.806   2.498  -4.482  0.00  0.00    -0.074 A 
ATOM      3  C2  UNL d   1      -3.470   2.216  -4.783  0.00  0.00    -0.005 A 
ATOM      4  C3  UNL d   1      -2.770   1.258  -4.049  0.00  0.00     0.006 A 
ATOM      5  C4  UNL d   1      -3.399   0.574  -3.008  0.00  0.00    -0.005 A 
ATOM      6  C5  UNL d   1      -4.734   0.842  -2.692  0.00  0.00    -0.074 A 
ATOM      7  C6  UNL d   1      -5.422   0.123  -1.570  0.00  0.00     0.077 C 
ATOM      8  C7  UNL d   1      -5.428   1.811  -3.430  0.00  0.00    -0.001 A 
ENDROOT
TORSDOF 0
ENDMDL
