MODEL 1
REMARK minimizedAffinity 6.71154785
REMARK minimizedRMSD -1
REMARK  0 active torsions:
REMARK  status: ('A' for Active; 'I' for Inactive)
ROOT
ATOM      1  C   UNL d   1      -0.999   1.581   0.816  0.00  0.00     0.077 C 
ATOM      2  C1  UNL d   1      -2.423   1.763   1.249  0.00  0.00    -0.074 A 
ATOM      3  C2  UNL d   1      -2.766   2.717   2.212  0.00  0.00    -0.005 A 
ATOM      4  C3  UNL d   1      -4.096   2.881   2.597  0.00  0.00     0.006 A 
ATOM      5  C4  UNL d   1      -5.096   2.094   2.024  0.00  0.00    -0.005 A 
ATOM      6  C5  UNL d   1      -4.773   1.136   1.058  0.00  0.00    -0.074 A 
ATOM      7  C6  UNL d   1      -5.836   0.290   0.424  0.00  0.00     0.077 C 
ATOM      8  C7  UNL d   1      -3.434   0.982   0.671  0.00  0.00    -0.001 A 
ENDROOT
TORSDOF 0
ENDMDL
