MODEL 1
REMARK minimizedAffinity -1.75813413
REMARK minimizedRMSD -1
REMARK  0 active torsions:
REMARK  status: ('A' for Active; 'I' for Inactive)
ROOT
ATOM      1  C   UNL d   1      -0.936  -2.210   1.686  0.00  0.00     0.023 A 
ATOM      2  C1  UNL d   1       0.101  -2.515   0.804  0.00  0.00     0.003 A 
ATOM      3  C2  UNL d   1       0.558  -1.551  -0.097  0.00  0.00     0.048 A 
ATOM      4  C3  UNL d   1      -0.025  -0.284  -0.110  0.00  0.00     0.023 A 
ATOM      5  C4  UNL d   1      -1.062   0.025   0.772  0.00  0.00     0.048 A 
ATOM      6  C5  UNL d   1      -1.517  -0.942   1.670  0.00  0.00     0.003 A 
ATOM      7  I   UNL d   1       0.654   1.152  -1.450  0.00  0.00    -0.146 I 
ENDROOT
TORSDOF 0
ENDMDL
