MODEL 1
REMARK minimizedAffinity -3.27049541
REMARK minimizedRMSD -1
REMARK  0 active torsions:
REMARK  status: ('A' for Active; 'I' for Inactive)
ROOT
ATOM      1  C   UNL d   1      -2.258  -2.469   1.684  0.00  0.00     0.023 A 
ATOM      2  C1  UNL d   1      -1.074  -3.112   1.324  0.00  0.00     0.003 A 
ATOM      3  C2  UNL d   1       0.010  -2.370   0.850  0.00  0.00     0.048 A 
ATOM      4  C3  UNL d   1      -0.097  -0.984   0.740  0.00  0.00     0.023 A 
ATOM      5  C4  UNL d   1      -1.280  -0.336   1.100  0.00  0.00     0.048 A 
ATOM      6  C5  UNL d   1      -2.361  -1.082   1.572  0.00  0.00     0.003 A 
ATOM      7  I   UNL d   1       1.514   0.123   0.036  0.00  0.00    -0.146 I 
ENDROOT
TORSDOF 0
ENDMDL
