MODEL 1
REMARK minimizedAffinity -3.67679644
REMARK minimizedRMSD -1
REMARK  0 active torsions:
REMARK  status: ('A' for Active; 'I' for Inactive)
ROOT
ATOM      1  C   UNL d   1      -2.632  -2.092   0.062  0.00  0.00     0.023 A 
ATOM      2  C1  UNL d   1      -1.976  -2.535   1.211  0.00  0.00     0.003 A 
ATOM      3  C2  UNL d   1      -0.662  -2.135   1.465  0.00  0.00     0.048 A 
ATOM      4  C3  UNL d   1      -0.011  -1.291   0.566  0.00  0.00     0.023 A 
ATOM      5  C4  UNL d   1      -0.663  -0.845  -0.584  0.00  0.00     0.048 A 
ATOM      6  C5  UNL d   1      -1.976  -1.248  -0.834  0.00  0.00     0.003 A 
ATOM      7  I   UNL d   1       1.944  -0.694   0.942  0.00  0.00    -0.146 I 
ENDROOT
TORSDOF 0
ENDMDL
