MODEL 1
REMARK minimizedAffinity -3.88158679
REMARK minimizedRMSD -1
REMARK  0 active torsions:
REMARK  status: ('A' for Active; 'I' for Inactive)
ROOT
ATOM      1  C   UNL d   1      -0.949  -2.534   0.595  0.00  0.00     0.023 A 
ATOM      2  C1  UNL d   1      -1.810  -1.505   0.216  0.00  0.00     0.003 A 
ATOM      3  C2  UNL d   1      -1.295  -0.253  -0.129  0.00  0.00     0.048 A 
ATOM      4  C3  UNL d   1       0.082  -0.038  -0.093  0.00  0.00     0.023 A 
ATOM      5  C4  UNL d   1       0.948  -1.066   0.285  0.00  0.00     0.048 A 
ATOM      6  C5  UNL d   1       0.429  -2.315   0.630  0.00  0.00     0.003 A 
ATOM      7  I   UNL d   1       0.851   1.823  -0.607  0.00  0.00    -0.146 I 
ENDROOT
TORSDOF 0
ENDMDL
