MODEL 1
REMARK minimizedAffinity -2.52974248
REMARK minimizedRMSD -1
REMARK  0 active torsions:
REMARK  status: ('A' for Active; 'I' for Inactive)
ROOT
ATOM      1  C   UNL d   1      -1.274  -1.529   1.008  0.00  0.00     0.023 A 
ATOM      2  C1  UNL d   1      -1.775  -0.301   0.577  0.00  0.00     0.003 A 
ATOM      3  C2  UNL d   1      -0.960   0.571  -0.149  0.00  0.00     0.048 A 
ATOM      4  C3  UNL d   1       0.353   0.207  -0.441  0.00  0.00     0.023 A 
ATOM      5  C4  UNL d   1       0.859  -1.022  -0.013  0.00  0.00     0.048 A 
ATOM      6  C5  UNL d   1       0.041  -1.890   0.713  0.00  0.00     0.003 A 
ATOM      7  I   UNL d   1       1.567   1.502  -1.522  0.00  0.00    -0.146 I 
ENDROOT
TORSDOF 0
ENDMDL
