MODEL 1
REMARK minimizedAffinity -2.01189375
REMARK minimizedRMSD -1
REMARK  0 active torsions:
REMARK  status: ('A' for Active; 'I' for Inactive)
ROOT
ATOM      1  C   UNL d   1      -1.044  -2.656   1.176  0.00  0.00     0.023 A 
ATOM      2  C1  UNL d   1      -2.002  -1.808   0.620  0.00  0.00     0.003 A 
ATOM      3  C2  UNL d   1      -1.612  -0.605   0.028  0.00  0.00     0.048 A 
ATOM      4  C3  UNL d   1      -0.262  -0.256  -0.005  0.00  0.00     0.023 A 
ATOM      5  C4  UNL d   1       0.700  -1.102   0.549  0.00  0.00     0.048 A 
ATOM      6  C5  UNL d   1       0.305  -2.303   1.141  0.00  0.00     0.003 A 
ATOM      7  I   UNL d   1       0.321   1.534  -0.886  0.00  0.00    -0.146 I 
ENDROOT
TORSDOF 0
ENDMDL
