MODEL 1
REMARK minimizedAffinity -2.19746161
REMARK minimizedRMSD -1
REMARK  0 active torsions:
REMARK  status: ('A' for Active; 'I' for Inactive)
ROOT
ATOM      1  C   UNL d   1       0.769   2.539  -4.107  0.00  0.00     0.023 A 
ATOM      2  C1  UNL d   1       1.244   1.804  -3.021  0.00  0.00     0.003 A 
ATOM      3  C2  UNL d   1       2.575   1.932  -2.618  0.00  0.00     0.048 A 
ATOM      4  C3  UNL d   1       3.425   2.798  -3.305  0.00  0.00     0.023 A 
ATOM      5  C4  UNL d   1       2.954   3.536  -4.392  0.00  0.00     0.048 A 
ATOM      6  C5  UNL d   1       1.623   3.404  -4.792  0.00  0.00     0.003 A 
ATOM      7  I   UNL d   1       5.406   2.990  -2.707  0.00  0.00    -0.146 I 
ENDROOT
TORSDOF 0
ENDMDL
