MODEL 1
REMARK minimizedAffinity -3.24563527
REMARK minimizedRMSD -1
REMARK  0 active torsions:
REMARK  status: ('A' for Active; 'I' for Inactive)
ROOT
ATOM      1  C   UNL d   1      -1.360  -2.495   1.342  0.00  0.00     0.023 A 
ATOM      2  C1  UNL d   1      -0.009  -2.555   1.001  0.00  0.00     0.003 A 
ATOM      3  C2  UNL d   1       0.593  -1.486   0.333  0.00  0.00     0.048 A 
ATOM      4  C3  UNL d   1      -0.163  -0.359   0.011  0.00  0.00     0.023 A 
ATOM      5  C4  UNL d   1      -1.515  -0.294   0.351  0.00  0.00     0.048 A 
ATOM      6  C5  UNL d   1      -2.112  -1.366   1.018  0.00  0.00     0.003 A 
ATOM      7  I   UNL d   1       0.729   1.233  -0.983  0.00  0.00    -0.146 I 
ENDROOT
TORSDOF 0
ENDMDL
