MODEL 1
REMARK minimizedAffinity -2.09818316
REMARK minimizedRMSD -1
REMARK  0 active torsions:
REMARK  status: ('A' for Active; 'I' for Inactive)
ROOT
ATOM      1  C   UNL d   1       0.296  -0.965   0.021  0.00  0.00     0.023 A 
ATOM      2  C1  UNL d   1       0.214  -1.305  -1.329  0.00  0.00     0.003 A 
ATOM      3  C2  UNL d   1       0.453  -0.339  -2.309  0.00  0.00     0.048 A 
ATOM      4  C3  UNL d   1       0.776   0.964  -1.931  0.00  0.00     0.023 A 
ATOM      5  C4  UNL d   1       0.860   1.308  -0.581  0.00  0.00     0.048 A 
ATOM      6  C5  UNL d   1       0.619   0.339   0.395  0.00  0.00     0.003 A 
ATOM      7  I   UNL d   1       1.133   2.403  -3.388  0.00  0.00    -0.146 I 
ENDROOT
TORSDOF 0
ENDMDL
