MODEL 1
REMARK minimizedAffinity -2.86099386
REMARK minimizedRMSD -1
REMARK  0 active torsions:
REMARK  status: ('A' for Active; 'I' for Inactive)
ROOT
ATOM      1  C   UNL d   1       0.861   1.959  -2.776  0.00  0.00     0.023 A 
ATOM      2  C1  UNL d   1       1.476   2.070  -1.529  0.00  0.00     0.003 A 
ATOM      3  C2  UNL d   1       2.868   2.144  -1.440  0.00  0.00     0.048 A 
ATOM      4  C3  UNL d   1       3.638   2.108  -2.602  0.00  0.00     0.023 A 
ATOM      5  C4  UNL d   1       3.027   1.998  -3.852  0.00  0.00     0.048 A 
ATOM      6  C5  UNL d   1       1.635   1.923  -3.936  0.00  0.00     0.003 A 
ATOM      7  I   UNL d   1       5.709   2.219  -2.471  0.00  0.00    -0.146 I 
ENDROOT
TORSDOF 0
ENDMDL
