MODEL 1
REMARK minimizedAffinity -3.01276922
REMARK minimizedRMSD -1
REMARK  0 active torsions:
REMARK  status: ('A' for Active; 'I' for Inactive)
ROOT
ATOM      1  C   UNL d   1      -0.996  -2.557   1.152  0.00  0.00     0.023 A 
ATOM      2  C1  UNL d   1       0.366  -2.295   1.300  0.00  0.00     0.003 A 
ATOM      3  C2  UNL d   1       0.944  -1.203   0.649  0.00  0.00     0.048 A 
ATOM      4  C3  UNL d   1       0.153  -0.376  -0.148  0.00  0.00     0.023 A 
ATOM      5  C4  UNL d   1      -1.211  -0.633  -0.298  0.00  0.00     0.048 A 
ATOM      6  C5  UNL d   1      -1.784  -1.726   0.354  0.00  0.00     0.003 A 
ATOM      7  I   UNL d   1       1.010   1.251  -1.117  0.00  0.00    -0.146 I 
ENDROOT
TORSDOF 0
ENDMDL
