MODEL 1
REMARK minimizedAffinity -5.23410225
REMARK minimizedRMSD -1
REMARK  0 active torsions:
REMARK  status: ('A' for Active; 'I' for Inactive)
ROOT
ATOM      1  C   UNL d   1      -2.068  -2.423   1.892  0.00  0.00     0.023 A 
ATOM      2  C1  UNL d   1      -2.624  -1.148   1.792  0.00  0.00     0.003 A 
ATOM      3  C2  UNL d   1      -1.897  -0.113   1.199  0.00  0.00     0.048 A 
ATOM      4  C3  UNL d   1      -0.616  -0.361   0.707  0.00  0.00     0.023 A 
ATOM      5  C4  UNL d   1      -0.057  -1.636   0.804  0.00  0.00     0.048 A 
ATOM      6  C5  UNL d   1      -0.786  -2.667   1.398  0.00  0.00     0.003 A 
ATOM      7  I   UNL d   1       0.467   1.177  -0.177  0.00  0.00    -0.146 I 
ENDROOT
TORSDOF 0
ENDMDL
