MODEL 1
REMARK minimizedAffinity -4.94673824
REMARK minimizedRMSD -1
REMARK  0 active torsions:
REMARK  status: ('A' for Active; 'I' for Inactive)
ROOT
ATOM      1  C   UNL d   1      -2.572  -2.061   1.850  0.00  0.00     0.023 A 
ATOM      2  C1  UNL d   1      -1.330  -2.482   1.377  0.00  0.00     0.003 A 
ATOM      3  C2  UNL d   1      -0.454  -1.562   0.795  0.00  0.00     0.048 A 
ATOM      4  C3  UNL d   1      -0.828  -0.222   0.692  0.00  0.00     0.023 A 
ATOM      5  C4  UNL d   1      -2.070   0.204   1.165  0.00  0.00     0.048 A 
ATOM      6  C5  UNL d   1      -2.942  -0.720   1.745  0.00  0.00     0.003 A 
ATOM      7  I   UNL d   1       0.473   1.149  -0.173  0.00  0.00    -0.146 I 
ENDROOT
TORSDOF 0
ENDMDL
