MODEL 1
REMARK minimizedAffinity -4.02819347
REMARK minimizedRMSD -1
REMARK  0 active torsions:
REMARK  status: ('A' for Active; 'I' for Inactive)
ROOT
ATOM      1  C   UNL d   1      -2.876  -1.741   1.933  0.00  0.00     0.023 A 
ATOM      2  C1  UNL d   1      -1.795  -2.309   1.261  0.00  0.00     0.003 A 
ATOM      3  C2  UNL d   1      -0.911  -1.499   0.546  0.00  0.00     0.048 A 
ATOM      4  C3  UNL d   1      -1.114  -0.120   0.509  0.00  0.00     0.023 A 
ATOM      5  C4  UNL d   1      -2.194   0.454   1.181  0.00  0.00     0.048 A 
ATOM      6  C5  UNL d   1      -3.076  -0.361   1.893  0.00  0.00     0.003 A 
ATOM      7  I   UNL d   1       0.201   1.089  -0.554  0.00  0.00    -0.146 I 
ENDROOT
TORSDOF 0
ENDMDL
