MODEL 1
REMARK minimizedAffinity -2.67485905
REMARK minimizedRMSD -1
REMARK  0 active torsions:
REMARK  status: ('A' for Active; 'I' for Inactive)
ROOT
ATOM      1  C   UNL d   1       1.616   2.288  -1.255  0.00  0.00     0.023 A 
ATOM      2  C1  UNL d   1       0.452   1.854  -1.891  0.00  0.00     0.003 A 
ATOM      3  C2  UNL d   1      -0.249   0.754  -1.394  0.00  0.00     0.048 A 
ATOM      4  C3  UNL d   1       0.218   0.092  -0.259  0.00  0.00     0.023 A 
ATOM      5  C4  UNL d   1       1.382   0.523   0.382  0.00  0.00     0.048 A 
ATOM      6  C5  UNL d   1       2.080   1.623  -0.120  0.00  0.00     0.003 A 
ATOM      7  I   UNL d   1      -0.824  -1.545   0.484  0.00  0.00    -0.146 I 
ENDROOT
TORSDOF 0
ENDMDL
