MODEL 1
REMARK minimizedAffinity -1.03130436
REMARK minimizedRMSD -1
REMARK  1 active torsions:
REMARK  status: ('A' for Active; 'I' for Inactive)
REMARK    1  A    between atoms: C1_2  and  C2_3 
ROOT
ATOM      1  C2  UNL d   1       0.341   0.068   0.070  0.00  0.00    -0.076 A 
ATOM      2  C3  UNL d   1       1.542  -0.152  -0.626  0.00  0.00     0.004 A 
ATOM      3  C4  UNL d   1       2.465  -1.098  -0.183  0.00  0.00    -0.003 A 
ATOM      4  C5  UNL d   1       2.201  -1.840   0.964  0.00  0.00     0.000 A 
ATOM      5  C6  UNL d   1       1.006  -1.646   1.657  0.00  0.00     0.000 A 
ATOM      6  C7  UNL d   1       0.058  -0.708   1.214  0.00  0.00    -0.073 A 
ATOM      7  C8  UNL d   1      -1.211  -0.537   2.003  0.00  0.00     0.078 C 
ENDROOT
BRANCH   1   8
ATOM      8  C1  UNL d   1      -0.609   1.127  -0.443  0.00  0.00     0.053 C 
ATOM      9  C   UNL d   1      -1.325   0.700  -1.715  0.00  0.00     0.018 C 
ENDBRANCH   1   8
TORSDOF 1
ENDMDL
