MODEL 1
REMARK minimizedAffinity -2.52330279
REMARK minimizedRMSD -1
REMARK  1 active torsions:
REMARK  status: ('A' for Active; 'I' for Inactive)
REMARK    1  A    between atoms: C1_2  and  C2_3 
ROOT
ATOM      1  C2  UNL d   1      -0.104   0.146   0.344  0.00  0.00    -0.076 A 
ATOM      2  C3  UNL d   1       0.818  -0.755   0.906  0.00  0.00     0.004 A 
ATOM      3  C4  UNL d   1       2.118  -0.850   0.413  0.00  0.00    -0.003 A 
ATOM      4  C5  UNL d   1       2.518  -0.046  -0.649  0.00  0.00     0.000 A 
ATOM      5  C6  UNL d   1       1.622   0.865  -1.207  0.00  0.00     0.000 A 
ATOM      6  C7  UNL d   1       0.312   0.985  -0.711  0.00  0.00    -0.073 A 
ATOM      7  C8  UNL d   1      -0.615   1.980  -1.355  0.00  0.00     0.078 C 
ENDROOT
BRANCH   1   8
ATOM      8  C1  UNL d   1      -1.509   0.186   0.902  0.00  0.00     0.053 C 
ATOM      9  C   UNL d   1      -1.646  -0.608   2.192  0.00  0.00     0.018 C 
ENDBRANCH   1   8
TORSDOF 1
ENDMDL
