MODEL 1
REMARK minimizedAffinity -4.75072861
REMARK minimizedRMSD -1
REMARK  1 active torsions:
REMARK  status: ('A' for Active; 'I' for Inactive)
REMARK    1  A    between atoms: C1_2  and  C2_3 
ROOT
ATOM      1  C2  UNL d   1      -0.896   0.746  -0.896  0.00  0.00    -0.076 A 
ATOM      2  C3  UNL d   1       0.111   0.085  -1.622  0.00  0.00     0.004 A 
ATOM      3  C4  UNL d   1       0.948  -0.843  -1.006  0.00  0.00    -0.003 A 
ATOM      4  C5  UNL d   1       0.792  -1.127   0.347  0.00  0.00     0.000 A 
ATOM      5  C6  UNL d   1      -0.213  -0.494   1.078  0.00  0.00     0.000 A 
ATOM      6  C7  UNL d   1      -1.076   0.433   0.468  0.00  0.00    -0.073 A 
ATOM      7  C8  UNL d   1      -2.138   1.090   1.306  0.00  0.00     0.078 C 
ENDROOT
BRANCH   1   8
ATOM      8  C1  UNL d   1      -1.756   1.763  -1.612  0.00  0.00     0.053 C 
ATOM      9  C   UNL d   1      -3.036   1.157  -2.165  0.00  0.00     0.018 C 
ENDBRANCH   1   8
TORSDOF 1
ENDMDL
