MODEL 1
REMARK minimizedAffinity -4.98837137
REMARK minimizedRMSD -1
REMARK  1 active torsions:
REMARK  status: ('A' for Active; 'I' for Inactive)
REMARK    1  A    between atoms: C1_2  and  C2_3 
ROOT
ATOM      1  C2  UNL d   1      -0.321   0.075   0.409  0.00  0.00    -0.076 A 
ATOM      2  C3  UNL d   1      -1.192   0.092   1.512  0.00  0.00     0.004 A 
ATOM      3  C4  UNL d   1      -0.922  -0.666   2.651  0.00  0.00    -0.003 A 
ATOM      4  C5  UNL d   1       0.223  -1.452   2.705  0.00  0.00     0.000 A 
ATOM      5  C6  UNL d   1       1.108  -1.467   1.627  0.00  0.00     0.000 A 
ATOM      6  C7  UNL d   1       0.859  -0.697   0.478  0.00  0.00    -0.073 A 
ATOM      7  C8  UNL d   1       1.844  -0.755  -0.657  0.00  0.00     0.078 C 
ENDROOT
BRANCH   1   8
ATOM      8  C1  UNL d   1      -0.679   0.895  -0.809  0.00  0.00     0.053 C 
ATOM      9  C   UNL d   1      -2.038   0.524  -1.382  0.00  0.00     0.018 C 
ENDBRANCH   1   8
TORSDOF 1
ENDMDL
