MODEL 1
REMARK minimizedAffinity -5.40310431
REMARK minimizedRMSD -1
REMARK  1 active torsions:
REMARK  status: ('A' for Active; 'I' for Inactive)
REMARK    1  A    between atoms: C1_2  and  C2_3 
ROOT
ATOM      1  C2  UNL d   1       0.314   0.001  -0.013  0.00  0.00    -0.076 A 
ATOM      2  C3  UNL d   1       1.603  -0.338  -0.461  0.00  0.00     0.004 A 
ATOM      3  C4  UNL d   1       2.414  -1.202   0.272  0.00  0.00    -0.003 A 
ATOM      4  C5  UNL d   1       1.949  -1.743   1.466  0.00  0.00     0.000 A 
ATOM      5  C6  UNL d   1       0.666  -1.432   1.917  0.00  0.00     0.000 A 
ATOM      6  C7  UNL d   1      -0.170  -0.575   1.181  0.00  0.00    -0.073 A 
ATOM      7  C8  UNL d   1      -1.542  -0.270   1.717  0.00  0.00     0.078 C 
ENDROOT
BRANCH   1   8
ATOM      8  C1  UNL d   1      -0.510   0.965  -0.837  0.00  0.00     0.053 C 
ATOM      9  C   UNL d   1      -1.259   0.274  -1.966  0.00  0.00     0.018 C 
ENDBRANCH   1   8
TORSDOF 1
ENDMDL
