MODEL 1
REMARK minimizedAffinity -5.70958424
REMARK minimizedRMSD -1
REMARK  1 active torsions:
REMARK  status: ('A' for Active; 'I' for Inactive)
REMARK    1  A    between atoms: C1_2  and  C2_3 
ROOT
ATOM      1  C2  UNL d   1      -0.578   0.791  -0.786  0.00  0.00    -0.076 A 
ATOM      2  C3  UNL d   1      -0.735   1.671  -1.872  0.00  0.00     0.004 A 
ATOM      3  C4  UNL d   1      -2.001   1.994  -2.357  0.00  0.00    -0.003 A 
ATOM      4  C5  UNL d   1      -3.131   1.442  -1.764  0.00  0.00     0.000 A 
ATOM      5  C6  UNL d   1      -2.996   0.581  -0.675  0.00  0.00     0.000 A 
ATOM      6  C7  UNL d   1      -1.727   0.258  -0.164  0.00  0.00    -0.073 A 
ATOM      7  C8  UNL d   1      -1.639  -0.680   1.008  0.00  0.00     0.078 C 
ENDROOT
BRANCH   1   8
ATOM      8  C1  UNL d   1       0.821   0.456  -0.321  0.00  0.00     0.053 C 
ATOM      9  C   UNL d   1       1.267  -0.929  -0.764  0.00  0.00     0.018 C 
ENDBRANCH   1   8
TORSDOF 1
ENDMDL
