MODEL 1
REMARK minimizedAffinity -3.38614392
REMARK minimizedRMSD -1
REMARK  1 active torsions:
REMARK  status: ('A' for Active; 'I' for Inactive)
REMARK    1  A    between atoms: C1_2  and  C2_3 
ROOT
ATOM      1  C2  UNL d   1       0.075  -0.572   1.535  0.00  0.00    -0.076 A 
ATOM      2  C3  UNL d   1      -0.024  -1.502   2.584  0.00  0.00     0.004 A 
ATOM      3  C4  UNL d   1       0.958  -2.472   2.778  0.00  0.00    -0.003 A 
ATOM      4  C5  UNL d   1       2.055  -2.528   1.926  0.00  0.00     0.000 A 
ATOM      5  C6  UNL d   1       2.179  -1.602   0.890  0.00  0.00     0.000 A 
ATOM      6  C7  UNL d   1       1.206  -0.608   0.691  0.00  0.00    -0.073 A 
ATOM      7  C8  UNL d   1       1.386   0.361  -0.445  0.00  0.00     0.078 C 
ENDROOT
BRANCH   1   8
ATOM      8  C1  UNL d   1      -1.034   0.440   1.357  0.00  0.00     0.053 C 
ATOM      9  C   UNL d   1      -2.398  -0.213   1.197  0.00  0.00     0.018 C 
ENDBRANCH   1   8
TORSDOF 1
ENDMDL
