MODEL 1
REMARK minimizedAffinity 5.5915966
REMARK minimizedRMSD -1
REMARK  1 active torsions:
REMARK  status: ('A' for Active; 'I' for Inactive)
REMARK    1  A    between atoms: C1_2  and  C2_3 
ROOT
ATOM      1  C2  UNL d   1       1.074   0.246   0.523  0.00  0.00    -0.076 A 
ATOM      2  C3  UNL d   1       0.947   1.463  -0.169  0.00  0.00     0.004 A 
ATOM      3  C4  UNL d   1       2.015   1.992  -0.891  0.00  0.00    -0.003 A 
ATOM      4  C5  UNL d   1       3.228   1.312  -0.933  0.00  0.00     0.000 A 
ATOM      5  C6  UNL d   1       3.366   0.095  -0.267  0.00  0.00     0.000 A 
ATOM      6  C7  UNL d   1       2.294  -0.460   0.452  0.00  0.00    -0.073 A 
ATOM      7  C8  UNL d   1       2.500  -1.773   1.156  0.00  0.00     0.078 C 
ENDROOT
BRANCH   1   8
ATOM      8  C1  UNL d   1      -0.111  -0.265   1.312  0.00  0.00     0.053 C 
ATOM      9  C   UNL d   1      -1.341  -0.479   0.443  0.00  0.00     0.018 C 
ENDBRANCH   1   8
TORSDOF 1
ENDMDL
