MODEL 1
REMARK minimizedAffinity 4.70718861
REMARK minimizedRMSD -1
REMARK  1 active torsions:
REMARK  status: ('A' for Active; 'I' for Inactive)
REMARK    1  A    between atoms: C1_2  and  C2_3 
ROOT
ATOM      1  C2  UNL d   1      -3.836  -4.592   0.081  0.00  0.00    -0.076 A 
ATOM      2  C3  UNL d   1      -3.889  -4.837  -1.302  0.00  0.00     0.004 A 
ATOM      3  C4  UNL d   1      -4.960  -5.525  -1.868  0.00  0.00    -0.003 A 
ATOM      4  C5  UNL d   1      -5.997  -5.979  -1.060  0.00  0.00     0.000 A 
ATOM      5  C6  UNL d   1      -5.970  -5.730   0.311  0.00  0.00     0.000 A 
ATOM      6  C7  UNL d   1      -4.904  -5.023   0.896  0.00  0.00    -0.073 A 
ATOM      7  C8  UNL d   1      -4.923  -4.788   2.381  0.00  0.00     0.078 C 
ENDROOT
BRANCH   1   8
ATOM      8  C1  UNL d   1      -2.635  -3.864   0.643  0.00  0.00     0.053 C 
ATOM      9  C   UNL d   1      -2.637  -2.383   0.296  0.00  0.00     0.018 C 
ENDBRANCH   1   8
TORSDOF 1
ENDMDL
