MODEL 1
REMARK minimizedAffinity 4.3480463
REMARK minimizedRMSD -1
REMARK  1 active torsions:
REMARK  status: ('A' for Active; 'I' for Inactive)
REMARK    1  A    between atoms: C1_2  and  C2_3 
ROOT
ATOM      1  C2  UNL d   1      -1.468  -1.984   0.466  0.00  0.00    -0.076 A 
ATOM      2  C3  UNL d   1      -0.171  -2.225  -0.020  0.00  0.00     0.004 A 
ATOM      3  C4  UNL d   1       0.743  -1.184  -0.175  0.00  0.00    -0.003 A 
ATOM      4  C5  UNL d   1       0.374   0.116   0.153  0.00  0.00     0.000 A 
ATOM      5  C6  UNL d   1      -0.902   0.371   0.653  0.00  0.00     0.000 A 
ATOM      6  C7  UNL d   1      -1.830  -0.669   0.831  0.00  0.00    -0.073 A 
ATOM      7  C8  UNL d   1      -3.194  -0.336   1.369  0.00  0.00     0.078 C 
ENDROOT
BRANCH   1   8
ATOM      8  C1  UNL d   1      -2.424  -3.148   0.588  0.00  0.00     0.053 C 
ATOM      9  C   UNL d   1      -2.613  -3.598   2.029  0.00  0.00     0.018 C 
ENDBRANCH   1   8
TORSDOF 1
ENDMDL
