MODEL 1
REMARK minimizedAffinity 7.51094007
REMARK minimizedRMSD -1
REMARK  1 active torsions:
REMARK  status: ('A' for Active; 'I' for Inactive)
REMARK    1  A    between atoms: C1_2  and  C2_3 
ROOT
ATOM      1  C2  UNL d   1      -0.813  -2.288   0.080  0.00  0.00    -0.076 A 
ATOM      2  C3  UNL d   1      -0.780  -3.518  -0.599  0.00  0.00     0.004 A 
ATOM      3  C4  UNL d   1      -1.619  -4.567  -0.226  0.00  0.00    -0.003 A 
ATOM      4  C5  UNL d   1      -2.505  -4.402   0.833  0.00  0.00     0.000 A 
ATOM      5  C6  UNL d   1      -2.563  -3.183   1.507  0.00  0.00     0.000 A 
ATOM      6  C7  UNL d   1      -1.736  -2.110   1.133  0.00  0.00    -0.073 A 
ATOM      7  C8  UNL d   1      -1.837  -0.820   1.899  0.00  0.00     0.078 C 
ENDROOT
BRANCH   1   8
ATOM      8  C1  UNL d   1       0.139  -1.196  -0.352  0.00  0.00     0.053 C 
ATOM      9  C   UNL d   1       1.486  -1.287   0.349  0.00  0.00     0.018 C 
ENDBRANCH   1   8
TORSDOF 1
ENDMDL
