MODEL 1
REMARK minimizedAffinity -1.46612012
REMARK minimizedRMSD -1
REMARK  1 active torsions:
REMARK  status: ('A' for Active; 'I' for Inactive)
REMARK    1  A    between atoms: C1_2  and  C2_3 
ROOT
ATOM      1  C2  UNL d   1       1.887  -0.946   0.361  0.00  0.00    -0.076 A 
ATOM      2  C3  UNL d   1       2.906  -0.499  -0.497  0.00  0.00     0.004 A 
ATOM      3  C4  UNL d   1       2.820   0.741  -1.128  0.00  0.00    -0.003 A 
ATOM      4  C5  UNL d   1       1.713   1.554  -0.909  0.00  0.00     0.000 A 
ATOM      5  C6  UNL d   1       0.701   1.134  -0.047  0.00  0.00     0.000 A 
ATOM      6  C7  UNL d   1       0.780  -0.106   0.609  0.00  0.00    -0.073 A 
ATOM      7  C8  UNL d   1      -0.343  -0.512   1.524  0.00  0.00     0.078 C 
ENDROOT
BRANCH   1   8
ATOM      8  C1  UNL d   1       2.022  -2.312   0.996  0.00  0.00     0.053 C 
ATOM      9  C   UNL d   1       1.979  -2.256   2.515  0.00  0.00     0.018 C 
ENDBRANCH   1   8
TORSDOF 1
ENDMDL
