MODEL 1
REMARK minimizedAffinity 0.0165217277
REMARK minimizedRMSD -1
REMARK  1 active torsions:
REMARK  status: ('A' for Active; 'I' for Inactive)
REMARK    1  A    between atoms: C1_2  and  C2_3 
ROOT
ATOM      1  C2  UNL d   1       1.224  -0.307   0.922  0.00  0.00    -0.076 A 
ATOM      2  C3  UNL d   1      -0.031  -0.485   1.530  0.00  0.00     0.004 A 
ATOM      3  C4  UNL d   1      -1.063   0.430   1.327  0.00  0.00    -0.003 A 
ATOM      4  C5  UNL d   1      -0.857   1.537   0.511  0.00  0.00     0.000 A 
ATOM      5  C6  UNL d   1       0.376   1.720  -0.114  0.00  0.00     0.000 A 
ATOM      6  C7  UNL d   1       1.421   0.798   0.067  0.00  0.00    -0.073 A 
ATOM      7  C8  UNL d   1       2.732   1.048  -0.628  0.00  0.00     0.078 C 
ENDROOT
BRANCH   1   8
ATOM      8  C1  UNL d   1       2.314  -1.317   1.200  0.00  0.00     0.053 C 
ATOM      9  C   UNL d   1       1.762  -2.657   1.664  0.00  0.00     0.018 C 
ENDBRANCH   1   8
TORSDOF 1
ENDMDL
