MODEL 1
REMARK minimizedAffinity -2.89675355
REMARK minimizedRMSD -1
REMARK  0 active torsions:
REMARK  status: ('A' for Active; 'I' for Inactive)
ROOT
ATOM      1  O1  BZF d   1      -1.158  -0.207   0.843  0.00  0.00    -0.204 OA
ATOM      2  C2  BZF d   1      -1.250   0.984   0.149  0.00  0.00     0.174 A 
ATOM      3  C3  BZF d   1      -0.063   1.307  -0.405  0.00  0.00    -0.012 A 
ATOM      4  C3A BZF d   1       0.802   0.206  -0.111  0.00  0.00    -0.107 A 
ATOM      5  C4  BZF d   1       2.106  -0.068  -0.408  0.00  0.00     0.055 A 
ATOM      6  C5  BZF d   1       2.674  -1.198   0.091  0.00  0.00    -0.016 A 
ATOM      7  C6  BZF d   1       1.969  -2.071   0.893  0.00  0.00     0.022 A 
ATOM      8  C7  BZF d   1       0.671  -1.844   1.211  0.00  0.00     0.029 A 
ATOM      9  C7A BZF d   1       0.085  -0.720   0.682  0.00  0.00     0.058 A 
ENDROOT
TORSDOF 0
ENDMDL
