MODEL 1
REMARK minimizedAffinity -4.19043589
REMARK minimizedRMSD -1
REMARK  0 active torsions:
REMARK  status: ('A' for Active; 'I' for Inactive)
ROOT
ATOM      1  O1  BZF d   1       2.153  -0.745  -0.407  0.00  0.00    -0.204 OA
ATOM      2  C2  BZF d   1       2.486  -1.995   0.078  0.00  0.00     0.174 A 
ATOM      3  C3  BZF d   1       1.621  -2.381   1.038  0.00  0.00    -0.012 A 
ATOM      4  C3A BZF d   1       0.636  -1.346   1.096  0.00  0.00    -0.107 A 
ATOM      5  C4  BZF d   1      -0.491  -1.164   1.845  0.00  0.00     0.055 A 
ATOM      6  C5  BZF d   1      -1.194  -0.008   1.711  0.00  0.00    -0.016 A 
ATOM      7  C6  BZF d   1      -0.796   0.987   0.842  0.00  0.00     0.022 A 
ATOM      8  C7  BZF d   1       0.312   0.849   0.075  0.00  0.00     0.029 A 
ATOM      9  C7A BZF d   1       1.006  -0.331   0.184  0.00  0.00     0.058 A 
ENDROOT
TORSDOF 0
ENDMDL
