MODEL 1
REMARK minimizedAffinity -1.70395601
REMARK minimizedRMSD -1
REMARK  0 active torsions:
REMARK  status: ('A' for Active; 'I' for Inactive)
ROOT
ATOM      1  O1  BZF d   1       0.319   1.161  -0.571  0.00  0.00    -0.204 OA
ATOM      2  C2  BZF d   1      -1.053   1.262  -0.451  0.00  0.00     0.174 A 
ATOM      3  C3  BZF d   1      -1.572   0.131   0.070  0.00  0.00    -0.012 A 
ATOM      4  C3A BZF d   1      -0.444  -0.695   0.375  0.00  0.00    -0.107 A 
ATOM      5  C4  BZF d   1      -0.311  -1.936   0.928  0.00  0.00     0.055 A 
ATOM      6  C5  BZF d   1       0.927  -2.489   1.021  0.00  0.00    -0.016 A 
ATOM      7  C6  BZF d   1       2.052  -1.832   0.568  0.00  0.00     0.022 A 
ATOM      8  C7  BZF d   1       1.971  -0.596   0.016  0.00  0.00     0.029 A 
ATOM      9  C7A BZF d   1       0.725  -0.021  -0.049  0.00  0.00     0.058 A 
ENDROOT
TORSDOF 0
ENDMDL
