MODEL 1
REMARK minimizedAffinity -4.17056131
REMARK minimizedRMSD -1
REMARK  0 active torsions:
REMARK  status: ('A' for Active; 'I' for Inactive)
ROOT
ATOM      1  O1  BZF d   1       1.089   2.557   0.505  0.00  0.00    -0.204 OA
ATOM      2  C2  BZF d   1       1.209   3.694  -0.271  0.00  0.00     0.174 A 
ATOM      3  C3  BZF d   1       0.375   3.640  -1.330  0.00  0.00    -0.012 A 
ATOM      4  C3A BZF d   1      -0.375   2.435  -1.158  0.00  0.00    -0.107 A 
ATOM      5  C4  BZF d   1      -1.372   1.838  -1.876  0.00  0.00     0.055 A 
ATOM      6  C5  BZF d   1      -1.840   0.627  -1.476  0.00  0.00    -0.016 A 
ATOM      7  C6  BZF d   1      -1.332  -0.018  -0.367  0.00  0.00     0.022 A 
ATOM      8  C7  BZF d   1      -0.347   0.537   0.380  0.00  0.00     0.029 A 
ATOM      9  C7A BZF d   1       0.106   1.776  -0.002  0.00  0.00     0.058 A 
ENDROOT
TORSDOF 0
ENDMDL
