MODEL 1
REMARK minimizedAffinity -2.87654567
REMARK minimizedRMSD -1
REMARK  0 active torsions:
REMARK  status: ('A' for Active; 'I' for Inactive)
ROOT
ATOM      1  O1  BZF d   1       0.705   3.596  -0.061  0.00  0.00    -0.204 OA
ATOM      2  C2  BZF d   1       2.058   3.857   0.037  0.00  0.00     0.174 A 
ATOM      3  C3  BZF d   1       2.768   2.710   0.033  0.00  0.00    -0.012 A 
ATOM      4  C3A BZF d   1       1.804   1.672  -0.169  0.00  0.00    -0.107 A 
ATOM      5  C4  BZF d   1       1.896   0.314  -0.281  0.00  0.00     0.055 A 
ATOM      6  C5  BZF d   1       0.758  -0.418  -0.398  0.00  0.00    -0.016 A 
ATOM      7  C6  BZF d   1      -0.489   0.173  -0.402  0.00  0.00     0.022 A 
ATOM      8  C7  BZF d   1      -0.631   1.517  -0.298  0.00  0.00     0.029 A 
ATOM      9  C7A BZF d   1       0.520   2.262  -0.213  0.00  0.00     0.058 A 
ENDROOT
TORSDOF 0
ENDMDL
