MODEL 1
REMARK minimizedAffinity 0.570303738
REMARK minimizedRMSD -1
REMARK  0 active torsions:
REMARK  status: ('A' for Active; 'I' for Inactive)
ROOT
ATOM      1  O1  BZF d   1      -0.909   1.444   0.875  0.00  0.00    -0.204 OA
ATOM      2  C2  BZF d   1      -0.608   1.818  -0.420  0.00  0.00     0.174 A 
ATOM      3  C3  BZF d   1      -0.261   0.745  -1.160  0.00  0.00    -0.012 A 
ATOM      4  C3A BZF d   1      -0.441  -0.381  -0.296  0.00  0.00    -0.107 A 
ATOM      5  C4  BZF d   1      -0.275  -1.727  -0.460  0.00  0.00     0.055 A 
ATOM      6  C5  BZF d   1      -0.465  -2.551   0.603  0.00  0.00    -0.016 A 
ATOM      7  C6  BZF d   1      -0.815  -2.064   1.846  0.00  0.00     0.022 A 
ATOM      8  C7  BZF d   1      -0.997  -0.737   2.056  0.00  0.00     0.029 A 
ATOM      9  C7A BZF d   1      -0.838   0.095   0.975  0.00  0.00     0.058 A 
ENDROOT
TORSDOF 0
ENDMDL
