MODEL 1
REMARK minimizedAffinity -2.02585793
REMARK minimizedRMSD -1
REMARK  0 active torsions:
REMARK  status: ('A' for Active; 'I' for Inactive)
ROOT
ATOM      1  O1  BZF d   1       1.217  -1.457  -0.632  0.00  0.00    -0.204 OA
ATOM      2  C2  BZF d   1       1.481  -2.673  -0.032  0.00  0.00     0.174 A 
ATOM      3  C3  BZF d   1       0.693  -2.856   1.047  0.00  0.00    -0.012 A 
ATOM      4  C3A BZF d   1      -0.178  -1.721   1.072  0.00  0.00    -0.107 A 
ATOM      5  C4  BZF d   1      -1.196  -1.337   1.898  0.00  0.00     0.055 A 
ATOM      6  C5  BZF d   1      -1.798  -0.137   1.691  0.00  0.00    -0.016 A 
ATOM      7  C6  BZF d   1      -1.404   0.707   0.673  0.00  0.00     0.022 A 
ATOM      8  C7  BZF d   1      -0.403   0.367  -0.175  0.00  0.00     0.029 A 
ATOM      9  C7A BZF d   1       0.185  -0.860   0.011  0.00  0.00     0.058 A 
ENDROOT
TORSDOF 0
ENDMDL
