MODEL 1
REMARK minimizedAffinity -0.93082273
REMARK minimizedRMSD -1
REMARK  0 active torsions:
REMARK  status: ('A' for Active; 'I' for Inactive)
ROOT
ATOM      1  O1  BZF d   1      -0.816   1.386  -1.064  0.00  0.00    -0.204 OA
ATOM      2  C2  BZF d   1      -0.625   0.101  -0.593  0.00  0.00     0.174 A 
ATOM      3  C3  BZF d   1       0.543   0.005   0.074  0.00  0.00    -0.012 A 
ATOM      4  C3A BZF d   1       1.074   1.334   0.097  0.00  0.00    -0.107 A 
ATOM      5  C4  BZF d   1       2.205   1.884   0.630  0.00  0.00     0.055 A 
ATOM      6  C5  BZF d   1       2.464   3.200   0.412  0.00  0.00    -0.016 A 
ATOM      7  C6  BZF d   1       1.619   3.993  -0.336  0.00  0.00     0.022 A 
ATOM      8  C7  BZF d   1       0.482   3.493  -0.880  0.00  0.00     0.029 A 
ATOM      9  C7A BZF d   1       0.201   2.172  -0.634  0.00  0.00     0.058 A 
ENDROOT
TORSDOF 0
ENDMDL
