MODEL 1
REMARK minimizedAffinity -2.75215197
REMARK minimizedRMSD -1
REMARK  0 active torsions:
REMARK  status: ('A' for Active; 'I' for Inactive)
ROOT
ATOM      1  O1  BZF d   1      -0.235   1.278   0.401  0.00  0.00    -0.204 OA
ATOM      2  C2  BZF d   1       0.206  -0.031   0.409  0.00  0.00     0.174 A 
ATOM      3  C3  BZF d   1       1.547  -0.085   0.272  0.00  0.00    -0.012 A 
ATOM      4  C3A BZF d   1       1.980   1.278   0.265  0.00  0.00    -0.107 A 
ATOM      5  C4  BZF d   1       3.205   1.874   0.172  0.00  0.00     0.055 A 
ATOM      6  C5  BZF d   1       3.279   3.230   0.121  0.00  0.00    -0.016 A 
ATOM      7  C6  BZF d   1       2.148   4.020   0.155  0.00  0.00     0.022 A 
ATOM      8  C7  BZF d   1       0.911   3.475   0.252  0.00  0.00     0.029 A 
ATOM      9  C7A BZF d   1       0.836   2.106   0.337  0.00  0.00     0.058 A 
ENDROOT
TORSDOF 0
ENDMDL
