MODEL 1
REMARK minimizedAffinity -4.95303822
REMARK minimizedRMSD -1
REMARK  0 active torsions:
REMARK  status: ('A' for Active; 'I' for Inactive)
ROOT
ATOM      1  O1  BZF d   1       1.105   0.354  -0.318  0.00  0.00    -0.204 OA
ATOM      2  C2  BZF d   1      -0.070   1.068  -0.178  0.00  0.00     0.174 A 
ATOM      3  C3  BZF d   1      -0.992   0.345   0.490  0.00  0.00    -0.012 A 
ATOM      4  C3A BZF d   1      -0.323  -0.862   0.867  0.00  0.00    -0.107 A 
ATOM      5  C4  BZF d   1      -0.709  -1.971   1.564  0.00  0.00     0.055 A 
ATOM      6  C5  BZF d   1       0.163  -3.006   1.695  0.00  0.00    -0.016 A 
ATOM      7  C6  BZF d   1       1.424  -2.968   1.137  0.00  0.00     0.022 A 
ATOM      8  C7  BZF d   1       1.853  -1.888   0.440  0.00  0.00     0.029 A 
ATOM      9  C7A BZF d   1       0.987  -0.827   0.335  0.00  0.00     0.058 A 
ENDROOT
TORSDOF 0
ENDMDL
