MODEL 1
REMARK minimizedAffinity -3.59497809
REMARK minimizedRMSD -1
REMARK  0 active torsions:
REMARK  status: ('A' for Active; 'I' for Inactive)
ROOT
ATOM      1  O1  BZF d   1      -1.251  -0.947   0.045  0.00  0.00    -0.204 OA
ATOM      2  C2  BZF d   1      -1.207   0.402  -0.250  0.00  0.00     0.174 A 
ATOM      3  C3  BZF d   1       0.033   0.894  -0.052  0.00  0.00    -0.012 A 
ATOM      4  C3A BZF d   1       0.834  -0.236   0.306  0.00  0.00    -0.107 A 
ATOM      5  C4  BZF d   1       2.156  -0.391   0.609  0.00  0.00     0.055 A 
ATOM      6  C5  BZF d   1       2.608  -1.616   0.987  0.00  0.00    -0.016 A 
ATOM      7  C6  BZF d   1       1.765  -2.705   1.076  0.00  0.00     0.022 A 
ATOM      8  C7  BZF d   1       0.447  -2.601   0.780  0.00  0.00     0.029 A 
ATOM      9  C7A BZF d   1      -0.006  -1.372   0.366  0.00  0.00     0.058 A 
ENDROOT
TORSDOF 0
ENDMDL
