MODEL 1
REMARK minimizedAffinity -0.111976184
REMARK minimizedRMSD -1
REMARK  0 active torsions:
REMARK  status: ('A' for Active; 'I' for Inactive)
ROOT
ATOM      1  O1  BZF d   1       2.152  -1.797   0.875  0.00  0.00    -0.204 OA
ATOM      2  C2  BZF d   1       1.638  -2.864   1.587  0.00  0.00     0.174 A 
ATOM      3  C3  BZF d   1       0.369  -2.617   1.970  0.00  0.00    -0.012 A 
ATOM      4  C3A BZF d   1       0.040  -1.352   1.388  0.00  0.00    -0.107 A 
ATOM      5  C4  BZF d   1      -1.086  -0.579   1.395  0.00  0.00     0.055 A 
ATOM      6  C5  BZF d   1      -1.057   0.637   0.790  0.00  0.00    -0.016 A 
ATOM      7  C6  BZF d   1       0.081   1.113   0.172  0.00  0.00     0.022 A 
ATOM      8  C7  BZF d   1       1.221   0.381   0.134  0.00  0.00     0.029 A 
ATOM      9  C7A BZF d   1       1.184  -0.863   0.717  0.00  0.00     0.058 A 
ENDROOT
TORSDOF 0
ENDMDL
