MODEL 1
REMARK minimizedAffinity -2.43415475
REMARK minimizedRMSD -1
REMARK  0 active torsions:
REMARK  status: ('A' for Active; 'I' for Inactive)
ROOT
ATOM      1  O1  BZF d   1       0.625   3.574   0.458  0.00  0.00    -0.204 OA
ATOM      2  C2  BZF d   1       1.978   3.847   0.510  0.00  0.00     0.174 A 
ATOM      3  C3  BZF d   1       2.696   2.706   0.527  0.00  0.00    -0.012 A 
ATOM      4  C3A BZF d   1       1.736   1.655   0.390  0.00  0.00    -0.107 A 
ATOM      5  C4  BZF d   1       1.836   0.294   0.324  0.00  0.00     0.055 A 
ATOM      6  C5  BZF d   1       0.701  -0.450   0.264  0.00  0.00    -0.016 A 
ATOM      7  C6  BZF d   1      -0.550   0.133   0.273  0.00  0.00     0.022 A 
ATOM      8  C7  BZF d   1      -0.700   1.478   0.332  0.00  0.00     0.029 A 
ATOM      9  C7A BZF d   1       0.447   2.234   0.360  0.00  0.00     0.058 A 
ENDROOT
TORSDOF 0
ENDMDL
