MODEL 1
REMARK minimizedAffinity -4.78957176
REMARK minimizedRMSD -1
REMARK  0 active torsions:
REMARK  status: ('A' for Active; 'I' for Inactive)
ROOT
ATOM      1  O1  BZF d   1      -0.817   0.663   0.379  0.00  0.00    -0.204 OA
ATOM      2  C2  BZF d   1      -0.197  -0.561   0.219  0.00  0.00     0.174 A 
ATOM      3  C3  BZF d   1       1.120  -0.402  -0.024  0.00  0.00    -0.012 A 
ATOM      4  C3A BZF d   1       1.354   1.006   0.076  0.00  0.00    -0.107 A 
ATOM      5  C4  BZF d   1       2.469   1.784  -0.048  0.00  0.00     0.055 A 
ATOM      6  C5  BZF d   1       2.345   3.134   0.035  0.00  0.00    -0.016 A 
ATOM      7  C6  BZF d   1       1.123   3.740   0.236  0.00  0.00     0.022 A 
ATOM      8  C7  BZF d   1      -0.011   3.010   0.370  0.00  0.00     0.029 A 
ATOM      9  C7A BZF d   1       0.115   1.644   0.320  0.00  0.00     0.058 A 
ENDROOT
TORSDOF 0
ENDMDL
