MODEL 1
REMARK minimizedAffinity -2.06630015
REMARK minimizedRMSD -1
REMARK  0 active torsions:
REMARK  status: ('A' for Active; 'I' for Inactive)
ROOT
ATOM      1  O1  BZF d   1       1.563   0.750   0.493  0.00  0.00    -0.204 OA
ATOM      2  C2  BZF d   1       0.357   1.352   0.192  0.00  0.00     0.174 A 
ATOM      3  C3  BZF d   1      -0.643   0.446   0.191  0.00  0.00    -0.012 A 
ATOM      4  C3A BZF d   1      -0.037  -0.783   0.604  0.00  0.00    -0.107 A 
ATOM      5  C4  BZF d   1      -0.519  -2.044   0.810  0.00  0.00     0.055 A 
ATOM      6  C5  BZF d   1       0.349  -3.037   1.139  0.00  0.00    -0.016 A 
ATOM      7  C6  BZF d   1       1.703  -2.805   1.265  0.00  0.00     0.022 A 
ATOM      8  C7  BZF d   1       2.227  -1.570   1.075  0.00  0.00     0.029 A 
ATOM      9  C7A BZF d   1       1.348  -0.558   0.775  0.00  0.00     0.058 A 
ENDROOT
TORSDOF 0
ENDMDL
