MODEL 1
REMARK minimizedAffinity -1.55580997
REMARK minimizedRMSD -1
REMARK  0 active torsions:
REMARK  status: ('A' for Active; 'I' for Inactive)
ROOT
ATOM      1  O1  BZF d   1       2.119  -1.709   0.382  0.00  0.00    -0.204 OA
ATOM      2  C2  BZF d   1       1.557  -2.771   1.065  0.00  0.00     0.174 A 
ATOM      3  C3  BZF d   1       0.253  -2.537   1.322  0.00  0.00    -0.012 A 
ATOM      4  C3A BZF d   1      -0.039  -1.290   0.685  0.00  0.00    -0.107 A 
ATOM      5  C4  BZF d   1      -1.172  -0.536   0.571  0.00  0.00     0.055 A 
ATOM      6  C5  BZF d   1      -1.104   0.668  -0.055  0.00  0.00    -0.016 A 
ATOM      7  C6  BZF d   1       0.080   1.152  -0.572  0.00  0.00     0.022 A 
ATOM      8  C7  BZF d   1       1.229   0.438  -0.488  0.00  0.00     0.029 A 
ATOM      9  C7A BZF d   1       1.157  -0.794   0.114  0.00  0.00     0.058 A 
ENDROOT
TORSDOF 0
ENDMDL
