MODEL 1
REMARK minimizedAffinity -4.09135151
REMARK minimizedRMSD -1
REMARK  0 active torsions:
REMARK  status: ('A' for Active; 'I' for Inactive)
ROOT
ATOM      1  O1  BZF d   1       0.928   3.465  -0.067  0.00  0.00    -0.204 OA
ATOM      2  C2  BZF d   1       2.281   3.740  -0.036  0.00  0.00     0.174 A 
ATOM      3  C3  BZF d   1       3.003   2.602  -0.087  0.00  0.00    -0.012 A 
ATOM      4  C3A BZF d   1       2.042   1.554  -0.249  0.00  0.00    -0.107 A 
ATOM      5  C4  BZF d   1       2.143   0.199  -0.378  0.00  0.00     0.055 A 
ATOM      6  C5  BZF d   1       1.008  -0.545  -0.444  0.00  0.00    -0.016 A 
ATOM      7  C6  BZF d   1      -0.243   0.032  -0.378  0.00  0.00     0.022 A 
ATOM      8  C7  BZF d   1      -0.395   1.373  -0.255  0.00  0.00     0.029 A 
ATOM      9  C7A BZF d   1       0.751   2.131  -0.222  0.00  0.00     0.058 A 
ENDROOT
TORSDOF 0
ENDMDL
