MODEL 1
REMARK minimizedAffinity 10.685092
REMARK minimizedRMSD -1
REMARK  1 active torsions:
REMARK  status: ('A' for Active; 'I' for Inactive)
REMARK    1  A    between atoms: C1_2  and  C2_3 
ROOT
ATOM      1  C2  UNL d   1      -0.068  -2.990  -1.168  0.00  0.00    -0.076 A 
ATOM      2  C3  UNL d   1       0.197  -1.697  -0.684  0.00  0.00     0.004 A 
ATOM      3  C4  UNL d   1       1.357  -1.425   0.039  0.00  0.00    -0.003 A 
ATOM      4  C5  UNL d   1       2.271  -2.442   0.290  0.00  0.00     0.000 A 
ATOM      5  C6  UNL d   1       2.033  -3.726  -0.198  0.00  0.00     0.000 A 
ATOM      6  C7  UNL d   1       0.877  -4.013  -0.943  0.00  0.00    -0.073 A 
ATOM      7  C8  UNL d   1       0.668  -5.418  -1.440  0.00  0.00     0.078 C 
ENDROOT
BRANCH   1   8
ATOM      8  C1  UNL d   1      -1.356  -3.231  -1.922  0.00  0.00     0.053 C 
ATOM      9  C   UNL d   1      -1.202  -3.019  -3.421  0.00  0.00     0.018 C 
ENDBRANCH   1   8
TORSDOF 1
ENDMDL
