MODEL 1
REMARK minimizedAffinity 7.26407337
REMARK minimizedRMSD -1
REMARK  1 active torsions:
REMARK  status: ('A' for Active; 'I' for Inactive)
REMARK    1  A    between atoms: C1_2  and  C2_3 
ROOT
ATOM      1  C2  UNL d   1       2.010  -3.039  -0.199  0.00  0.00    -0.076 A 
ATOM      2  C3  UNL d   1       2.090  -4.424  -0.424  0.00  0.00     0.004 A 
ATOM      3  C4  UNL d   1       1.037  -5.116  -1.020  0.00  0.00    -0.003 A 
ATOM      4  C5  UNL d   1      -0.113  -4.433  -1.403  0.00  0.00     0.000 A 
ATOM      5  C6  UNL d   1      -0.201  -3.056  -1.204  0.00  0.00     0.000 A 
ATOM      6  C7  UNL d   1       0.858  -2.341  -0.619  0.00  0.00    -0.073 A 
ATOM      7  C8  UNL d   1       0.706  -0.857  -0.423  0.00  0.00     0.078 C 
ENDROOT
BRANCH   1   8
ATOM      8  C1  UNL d   1       3.173  -2.347   0.476  0.00  0.00     0.053 C 
ATOM      9  C   UNL d   1       4.427  -2.342  -0.383  0.00  0.00     0.018 C 
ENDBRANCH   1   8
TORSDOF 1
ENDMDL
