MODEL 1
REMARK minimizedAffinity 10.1132803
REMARK minimizedRMSD -1
REMARK  1 active torsions:
REMARK  status: ('A' for Active; 'I' for Inactive)
REMARK    1  A    between atoms: C1_2  and  C2_3 
ROOT
ATOM      1  C2  UNL d   1       1.355  -2.748  -0.387  0.00  0.00    -0.076 A 
ATOM      2  C3  UNL d   1       1.241  -4.135  -0.584  0.00  0.00     0.004 A 
ATOM      3  C4  UNL d   1       0.174  -4.673  -1.300  0.00  0.00    -0.003 A 
ATOM      4  C5  UNL d   1      -0.798  -3.832  -1.832  0.00  0.00     0.000 A 
ATOM      5  C6  UNL d   1      -0.692  -2.452  -1.661  0.00  0.00     0.000 A 
ATOM      6  C7  UNL d   1       0.387  -1.893  -0.955  0.00  0.00    -0.073 A 
ATOM      7  C8  UNL d   1       0.448  -0.398  -0.796  0.00  0.00     0.078 C 
ENDROOT
BRANCH   1   8
ATOM      8  C1  UNL d   1       2.520  -2.224   0.422  0.00  0.00     0.053 C 
ATOM      9  C   UNL d   1       3.799  -2.124  -0.396  0.00  0.00     0.018 C 
ENDBRANCH   1   8
TORSDOF 1
ENDMDL
