MODEL 1
REMARK minimizedAffinity 1.9482137
REMARK minimizedRMSD -1
REMARK  1 active torsions:
REMARK  status: ('A' for Active; 'I' for Inactive)
REMARK    1  A    between atoms: C1_2  and  C2_3 
ROOT
ATOM      1  C2  UNL d   1      -5.940   1.461  -3.930  0.00  0.00    -0.076 A 
ATOM      2  C3  UNL d   1      -5.963   0.738  -2.725  0.00  0.00     0.004 A 
ATOM      3  C4  UNL d   1      -5.886   1.391  -1.495  0.00  0.00    -0.003 A 
ATOM      4  C5  UNL d   1      -5.786   2.777  -1.452  0.00  0.00     0.000 A 
ATOM      5  C6  UNL d   1      -5.780   3.511  -2.637  0.00  0.00     0.000 A 
ATOM      6  C7  UNL d   1      -5.873   2.870  -3.884  0.00  0.00    -0.073 A 
ATOM      7  C8  UNL d   1      -5.855   3.710  -5.132  0.00  0.00     0.078 C 
ENDROOT
BRANCH   1   8
ATOM      8  C1  UNL d   1      -5.999   0.697  -5.234  0.00  0.00     0.053 C 
ATOM      9  C   UNL d   1      -4.618   0.332  -5.758  0.00  0.00     0.018 C 
ENDBRANCH   1   8
TORSDOF 1
ENDMDL
