MODEL 1
REMARK minimizedAffinity -1.59997046
REMARK minimizedRMSD -1
REMARK  1 active torsions:
REMARK  status: ('A' for Active; 'I' for Inactive)
REMARK    1  A    between atoms: C1_2  and  C2_3 
ROOT
ATOM      1  C2  UNL d   1      -4.956   2.495   0.558  0.00  0.00    -0.076 A 
ATOM      2  C3  UNL d   1      -5.999   2.606  -0.378  0.00  0.00     0.004 A 
ATOM      3  C4  UNL d   1      -5.786   3.192  -1.625  0.00  0.00    -0.003 A 
ATOM      4  C5  UNL d   1      -4.525   3.676  -1.956  0.00  0.00     0.000 A 
ATOM      5  C6  UNL d   1      -3.475   3.559  -1.047  0.00  0.00     0.000 A 
ATOM      6  C7  UNL d   1      -3.669   2.956   0.208  0.00  0.00    -0.073 A 
ATOM      7  C8  UNL d   1      -2.501   2.862   1.151  0.00  0.00     0.078 C 
ENDROOT
BRANCH   1   8
ATOM      8  C1  UNL d   1      -5.253   1.875   1.904  0.00  0.00     0.053 C 
ATOM      9  C   UNL d   1      -4.972   0.380   1.932  0.00  0.00     0.018 C 
ENDBRANCH   1   8
TORSDOF 1
ENDMDL
