MODEL 1
REMARK minimizedAffinity 8.03749847
REMARK minimizedRMSD -1
REMARK  1 active torsions:
REMARK  status: ('A' for Active; 'I' for Inactive)
REMARK    1  A    between atoms: C1_2  and  C2_3 
ROOT
ATOM      1  C2  UNL d   1      -5.992   1.746  -3.421  0.00  0.00    -0.076 A 
ATOM      2  C3  UNL d   1      -5.998   1.147  -2.149  0.00  0.00     0.004 A 
ATOM      3  C4  UNL d   1      -5.967   1.922  -0.991  0.00  0.00    -0.003 A 
ATOM      4  C5  UNL d   1      -5.931   3.309  -1.086  0.00  0.00     0.000 A 
ATOM      5  C6  UNL d   1      -5.942   3.920  -2.340  0.00  0.00     0.000 A 
ATOM      6  C7  UNL d   1      -5.989   3.154  -3.517  0.00  0.00    -0.073 A 
ATOM      7  C8  UNL d   1      -5.993   3.865  -4.842  0.00  0.00     0.078 C 
ENDROOT
BRANCH   1   8
ATOM      8  C1  UNL d   1      -5.999   0.853  -4.641  0.00  0.00     0.053 C 
ATOM      9  C   UNL d   1      -4.601   0.589  -5.178  0.00  0.00     0.018 C 
ENDBRANCH   1   8
TORSDOF 1
ENDMDL
