MODEL 1
REMARK minimizedAffinity 1.37930608
REMARK minimizedRMSD -1
REMARK  1 active torsions:
REMARK  status: ('A' for Active; 'I' for Inactive)
REMARK    1  A    between atoms: C1_2  and  C2_3 
ROOT
ATOM      1  C2  UNL d   1      -5.980   2.068  -2.531  0.00  0.00    -0.076 A 
ATOM      2  C3  UNL d   1      -5.992   0.950  -3.382  0.00  0.00     0.004 A 
ATOM      3  C4  UNL d   1      -6.000   1.102  -4.768  0.00  0.00    -0.003 A 
ATOM      4  C5  UNL d   1      -5.995   2.376  -5.325  0.00  0.00     0.000 A 
ATOM      5  C6  UNL d   1      -5.965   3.497  -4.496  0.00  0.00     0.000 A 
ATOM      6  C7  UNL d   1      -5.941   3.361  -3.097  0.00  0.00    -0.073 A 
ATOM      7  C8  UNL d   1      -5.915   4.604  -2.251  0.00  0.00     0.078 C 
ENDROOT
BRANCH   1   8
ATOM      8  C1  UNL d   1      -6.000   1.842  -1.037  0.00  0.00     0.053 C 
ATOM      9  C   UNL d   1      -4.657   2.133  -0.385  0.00  0.00     0.018 C 
ENDBRANCH   1   8
TORSDOF 1
ENDMDL
