MODEL 1
REMARK minimizedAffinity -4.95306969
REMARK minimizedRMSD -1
REMARK  1 active torsions:
REMARK  status: ('A' for Active; 'I' for Inactive)
REMARK    1  A    between atoms: C3_4  and  O_7 
ROOT
ATOM      1  C   UNL d   1      -0.597   3.425   0.331  0.00  0.00    -0.033 A 
ATOM      2  C1  UNL d   1      -1.353   2.518   1.076  0.00  0.00     0.039 A 
ATOM      3  C2  UNL d   1      -1.196   1.145   0.877  0.00  0.00    -0.080 A 
ATOM      4  C3  UNL d   1      -0.281   0.693  -0.069  0.00  0.00     0.150 A 
ATOM      5  C4  UNL d   1       0.479   1.591  -0.813  0.00  0.00    -0.007 A 
ATOM      6  C5  UNL d   1       0.320   2.961  -0.613  0.00  0.00     0.039 A 
ENDROOT
BRANCH   4   7
ATOM      7  O   UNL d   1      -0.096  -0.637  -0.303  0.00  0.00    -0.526 OA
ATOM      8  H5  UNL d   1      -0.708  -1.137   0.263  0.00  0.00     0.418 HD
ENDBRANCH   4   7
TORSDOF 1
ENDMDL
