MODEL 1
REMARK minimizedAffinity -0.747022331
REMARK minimizedRMSD -1
REMARK  1 active torsions:
REMARK  status: ('A' for Active; 'I' for Inactive)
REMARK    1  A    between atoms: C3_4  and  O_7 
ROOT
ATOM      1  C   UNL d   1       0.004  -0.353  -0.309  0.00  0.00    -0.033 A 
ATOM      2  C1  UNL d   1      -1.167  -0.279   0.447  0.00  0.00     0.039 A 
ATOM      3  C2  UNL d   1      -1.447   0.867   1.194  0.00  0.00    -0.080 A 
ATOM      4  C3  UNL d   1      -0.549   1.931   1.174  0.00  0.00     0.150 A 
ATOM      5  C4  UNL d   1       0.618   1.866   0.419  0.00  0.00    -0.007 A 
ATOM      6  C5  UNL d   1       0.896   0.720  -0.325  0.00  0.00     0.039 A 
ENDROOT
BRANCH   4   7
ATOM      7  O   UNL d   1      -0.777   3.069   1.890  0.00  0.00    -0.526 OA
ATOM      8  H5  UNL d   1      -1.606   2.960   2.385  0.00  0.00     0.418 HD
ENDBRANCH   4   7
TORSDOF 1
ENDMDL
