MODEL 1
REMARK minimizedAffinity -3.38193703
REMARK minimizedRMSD -1
REMARK  1 active torsions:
REMARK  status: ('A' for Active; 'I' for Inactive)
REMARK    1  A    between atoms: C3_4  and  O_7 
ROOT
ATOM      1  C   UNL d   1       1.471   1.143  -0.440  0.00  0.00    -0.033 A 
ATOM      2  C1  UNL d   1       2.179  -0.045  -0.245  0.00  0.00     0.039 A 
ATOM      3  C2  UNL d   1       1.504  -1.209   0.128  0.00  0.00    -0.080 A 
ATOM      4  C3  UNL d   1       0.123  -1.172   0.302  0.00  0.00     0.150 A 
ATOM      5  C4  UNL d   1      -0.589   0.007   0.105  0.00  0.00    -0.007 A 
ATOM      6  C5  UNL d   1       0.087   1.168  -0.267  0.00  0.00     0.039 A 
ENDROOT
BRANCH   4   7
ATOM      7  O   UNL d   1      -0.578  -2.281   0.670  0.00  0.00    -0.526 OA
ATOM      8  H5  UNL d   1       0.048  -3.013   0.798  0.00  0.00     0.418 HD
ENDBRANCH   4   7
TORSDOF 1
ENDMDL
