MODEL 1
REMARK minimizedAffinity -2.94290519
REMARK minimizedRMSD -1
REMARK  1 active torsions:
REMARK  status: ('A' for Active; 'I' for Inactive)
REMARK    1  A    between atoms: C3_4  and  O_7 
ROOT
ATOM      1  C   UNL d   1       0.719   1.017  -0.444  0.00  0.00    -0.033 A 
ATOM      2  C1  UNL d   1       0.541   2.400  -0.525  0.00  0.00     0.039 A 
ATOM      3  C2  UNL d   1      -0.572   2.998   0.069  0.00  0.00    -0.080 A 
ATOM      4  C3  UNL d   1      -1.498   2.204   0.740  0.00  0.00     0.150 A 
ATOM      5  C4  UNL d   1      -1.325   0.827   0.828  0.00  0.00    -0.007 A 
ATOM      6  C5  UNL d   1      -0.213   0.231   0.234  0.00  0.00     0.039 A 
ENDROOT
BRANCH   4   7
ATOM      7  O   UNL d   1      -2.602   2.743   1.331  0.00  0.00    -0.526 OA
ATOM      8  H5  UNL d   1      -2.605   3.700   1.164  0.00  0.00     0.418 HD
ENDBRANCH   4   7
TORSDOF 1
ENDMDL
