MODEL 1
REMARK minimizedAffinity -4.76705503
REMARK minimizedRMSD -1
REMARK  1 active torsions:
REMARK  status: ('A' for Active; 'I' for Inactive)
REMARK    1  A    between atoms: C3_4  and  O_7 
ROOT
ATOM      1  C   UNL d   1      -0.029  -0.143   0.141  0.00  0.00    -0.033 A 
ATOM      2  C1  UNL d   1       1.132   0.420  -0.394  0.00  0.00     0.039 A 
ATOM      3  C2  UNL d   1       1.259   1.808  -0.484  0.00  0.00    -0.080 A 
ATOM      4  C3  UNL d   1       0.221   2.620  -0.036  0.00  0.00     0.150 A 
ATOM      5  C4  UNL d   1      -0.937   2.065   0.501  0.00  0.00    -0.007 A 
ATOM      6  C5  UNL d   1      -1.062   0.680   0.589  0.00  0.00     0.039 A 
ENDROOT
BRANCH   4   7
ATOM      7  O   UNL d   1       0.297   3.979  -0.108  0.00  0.00    -0.526 OA
ATOM      8  H5  UNL d   1       1.140   4.218  -0.527  0.00  0.00     0.418 HD
ENDBRANCH   4   7
TORSDOF 1
ENDMDL
