MODEL 1
REMARK minimizedAffinity -3.21804047
REMARK minimizedRMSD -1
REMARK  1 active torsions:
REMARK  status: ('A' for Active; 'I' for Inactive)
REMARK    1  A    between atoms: C3_4  and  O_7 
ROOT
ATOM      1  C   UNL d   1       0.335   0.059   0.012  0.00  0.00    -0.033 A 
ATOM      2  C1  UNL d   1      -0.745   0.719   0.603  0.00  0.00     0.039 A 
ATOM      3  C2  UNL d   1      -0.807   2.113   0.587  0.00  0.00    -0.080 A 
ATOM      4  C3  UNL d   1       0.215   2.836  -0.022  0.00  0.00     0.150 A 
ATOM      5  C4  UNL d   1       1.292   2.186  -0.616  0.00  0.00    -0.007 A 
ATOM      6  C5  UNL d   1       1.353   0.793  -0.598  0.00  0.00     0.039 A 
ENDROOT
BRANCH   4   7
ATOM      7  O   UNL d   1       0.201   4.199  -0.058  0.00  0.00    -0.526 OA
ATOM      8  H5  UNL d   1      -0.588   4.511   0.416  0.00  0.00     0.418 HD
ENDBRANCH   4   7
TORSDOF 1
ENDMDL
