MODEL 1
REMARK minimizedAffinity 3.92858267
REMARK minimizedRMSD -1
REMARK  1 active torsions:
REMARK  status: ('A' for Active; 'I' for Inactive)
REMARK    1  A    between atoms: C3_4  and  O_7 
ROOT
ATOM      1  C   UNL d   1       3.014   2.015  -3.971  0.00  0.00    -0.033 A 
ATOM      2  C1  UNL d   1       3.276   1.705  -5.307  0.00  0.00     0.039 A 
ATOM      3  C2  UNL d   1       4.280   2.384  -6.000  0.00  0.00    -0.080 A 
ATOM      4  C3  UNL d   1       5.013   3.371  -5.347  0.00  0.00     0.150 A 
ATOM      5  C4  UNL d   1       4.761   3.683  -4.015  0.00  0.00    -0.007 A 
ATOM      6  C5  UNL d   1       3.758   3.004  -3.325  0.00  0.00     0.039 A 
ENDROOT
BRANCH   4   7
ATOM      7  O   UNL d   1       5.999   4.064  -5.983  0.00  0.00    -0.526 OA
ATOM      8  H5  UNL d   1       6.042   3.762  -6.906  0.00  0.00     0.418 HD
ENDBRANCH   4   7
TORSDOF 1
ENDMDL
