MODEL 1
REMARK minimizedAffinity -3.29591227
REMARK minimizedRMSD -1
REMARK  1 active torsions:
REMARK  status: ('A' for Active; 'I' for Inactive)
REMARK    1  A    between atoms: C3_4  and  O_7 
ROOT
ATOM      1  C   UNL d   1      -0.757  -0.331   0.175  0.00  0.00    -0.033 A 
ATOM      2  C1  UNL d   1      -1.695   0.621   0.580  0.00  0.00     0.039 A 
ATOM      3  C2  UNL d   1      -1.407   1.982   0.464  0.00  0.00    -0.080 A 
ATOM      4  C3  UNL d   1      -0.179   2.378  -0.059  0.00  0.00     0.150 A 
ATOM      5  C4  UNL d   1       0.759   1.435  -0.468  0.00  0.00    -0.007 A 
ATOM      6  C5  UNL d   1       0.469   0.076  -0.351  0.00  0.00     0.039 A 
ENDROOT
BRANCH   4   7
ATOM      7  O   UNL d   1       0.150   3.694  -0.188  0.00  0.00    -0.526 OA
ATOM      8  H5  UNL d   1      -0.582   4.230   0.162  0.00  0.00     0.418 HD
ENDBRANCH   4   7
TORSDOF 1
ENDMDL
