MODEL 1
REMARK minimizedAffinity -3.95560288
REMARK minimizedRMSD -1
REMARK  1 active torsions:
REMARK  status: ('A' for Active; 'I' for Inactive)
REMARK    1  A    between atoms: C3_4  and  O_7 
ROOT
ATOM      1  C   UNL d   1       0.441  -1.831  -1.241  0.00  0.00    -0.033 A 
ATOM      2  C1  UNL d   1       0.039  -2.403  -2.449  0.00  0.00     0.039 A 
ATOM      3  C2  UNL d   1      -1.080  -3.237  -2.491  0.00  0.00    -0.080 A 
ATOM      4  C3  UNL d   1      -1.788  -3.490  -1.320  0.00  0.00     0.150 A 
ATOM      5  C4  UNL d   1      -1.396  -2.921  -0.113  0.00  0.00    -0.007 A 
ATOM      6  C5  UNL d   1      -0.278  -2.089  -0.073  0.00  0.00     0.039 A 
ENDROOT
BRANCH   4   7
ATOM      7  O   UNL d   1      -2.884  -4.302  -1.310  0.00  0.00    -0.526 OA
ATOM      8  H5  UNL d   1      -3.019  -4.646  -2.209  0.00  0.00     0.418 HD
ENDBRANCH   4   7
TORSDOF 1
ENDMDL
