MODEL 1
REMARK minimizedAffinity -3.12495518
REMARK minimizedRMSD -1
REMARK  1 active torsions:
REMARK  status: ('A' for Active; 'I' for Inactive)
REMARK    1  A    between atoms: C3_4  and  O_7 
ROOT
ATOM      1  C   UNL d   1      -1.369  -3.335  -2.986  0.00  0.00    -0.033 A 
ATOM      2  C1  UNL d   1      -1.816  -3.689  -1.711  0.00  0.00     0.039 A 
ATOM      3  C2  UNL d   1      -1.100  -3.288  -0.582  0.00  0.00    -0.080 A 
ATOM      4  C3  UNL d   1       0.059  -2.534  -0.740  0.00  0.00     0.150 A 
ATOM      5  C4  UNL d   1       0.509  -2.174  -2.006  0.00  0.00    -0.007 A 
ATOM      6  C5  UNL d   1      -0.207  -2.577  -3.133  0.00  0.00     0.039 A 
ENDROOT
BRANCH   4   7
ATOM      7  O   UNL d   1       0.794  -2.123   0.332  0.00  0.00    -0.526 OA
ATOM      8  H5  UNL d   1       0.379  -2.469   1.140  0.00  0.00     0.418 HD
ENDBRANCH   4   7
TORSDOF 1
ENDMDL
