MODEL 1
REMARK minimizedAffinity -3.52675891
REMARK minimizedRMSD -1
REMARK  1 active torsions:
REMARK  status: ('A' for Active; 'I' for Inactive)
REMARK    1  A    between atoms: C3_4  and  O_7 
ROOT
ATOM      1  C   UNL d   1      -0.149   1.860  -0.184  0.00  0.00    -0.033 A 
ATOM      2  C1  UNL d   1      -1.147   0.966   0.209  0.00  0.00     0.039 A 
ATOM      3  C2  UNL d   1      -0.872  -0.400   0.289  0.00  0.00    -0.080 A 
ATOM      4  C3  UNL d   1       0.404  -0.860  -0.025  0.00  0.00     0.150 A 
ATOM      5  C4  UNL d   1       1.405   0.025  -0.413  0.00  0.00    -0.007 A 
ATOM      6  C5  UNL d   1       1.128   1.389  -0.493  0.00  0.00     0.039 A 
ENDROOT
BRANCH   4   7
ATOM      7  O   UNL d   1       0.719  -2.185   0.035  0.00  0.00    -0.526 OA
ATOM      8  H5  UNL d   1      -0.078  -2.679   0.289  0.00  0.00     0.418 HD
ENDBRANCH   4   7
TORSDOF 1
ENDMDL
