MODEL 1
REMARK minimizedAffinity -2.99531269
REMARK minimizedRMSD -1
REMARK  1 active torsions:
REMARK  status: ('A' for Active; 'I' for Inactive)
REMARK    1  A    between atoms: C3_4  and  O_7 
ROOT
ATOM      1  C   UNL d   1      -2.407   2.633   1.057  0.00  0.00    -0.033 A 
ATOM      2  C1  UNL d   1      -1.021   2.755   1.178  0.00  0.00     0.039 A 
ATOM      3  C2  UNL d   1      -0.199   1.649   0.953  0.00  0.00    -0.080 A 
ATOM      4  C3  UNL d   1      -0.773   0.429   0.607  0.00  0.00     0.150 A 
ATOM      5  C4  UNL d   1      -2.153   0.301   0.481  0.00  0.00    -0.007 A 
ATOM      6  C5  UNL d   1      -2.972   1.406   0.707  0.00  0.00     0.039 A 
ENDROOT
BRANCH   4   7
ATOM      7  O   UNL d   1      -0.012  -0.679   0.382  0.00  0.00    -0.526 OA
ATOM      8  H5  UNL d   1       0.920  -0.448   0.533  0.00  0.00     0.418 HD
ENDBRANCH   4   7
TORSDOF 1
ENDMDL
