MODEL 1
REMARK minimizedAffinity -3.45907259
REMARK minimizedRMSD -1
REMARK  1 active torsions:
REMARK  status: ('A' for Active; 'I' for Inactive)
REMARK    1  A    between atoms: C3_4  and  O_7 
ROOT
ATOM      1  C   UNL d   1      -0.765   2.505   0.336  0.00  0.00    -0.033 A 
ATOM      2  C1  UNL d   1       0.608   2.254   0.378  0.00  0.00     0.039 A 
ATOM      3  C2  UNL d   1       1.094   0.975   0.100  0.00  0.00    -0.080 A 
ATOM      4  C3  UNL d   1       0.199  -0.041  -0.220  0.00  0.00     0.150 A 
ATOM      5  C4  UNL d   1      -1.170   0.203  -0.268  0.00  0.00    -0.007 A 
ATOM      6  C5  UNL d   1      -1.654   1.480   0.011  0.00  0.00     0.039 A 
ENDROOT
BRANCH   4   7
ATOM      7  O   UNL d   1       0.626  -1.307  -0.495  0.00  0.00    -0.526 OA
ATOM      8  H5  UNL d   1       1.592  -1.334  -0.396  0.00  0.00     0.418 HD
ENDBRANCH   4   7
TORSDOF 1
ENDMDL
