MODEL 1
REMARK minimizedAffinity -3.87014437
REMARK minimizedRMSD -1
REMARK  1 active torsions:
REMARK  status: ('A' for Active; 'I' for Inactive)
REMARK    1  A    between atoms: C3_4  and  O_7 
ROOT
ATOM      1  C   UNL d   1      -0.660  -0.661   0.344  0.00  0.00    -0.033 A 
ATOM      2  C1  UNL d   1       0.583  -1.251   0.106  0.00  0.00     0.039 A 
ATOM      3  C2  UNL d   1       1.696  -0.452  -0.164  0.00  0.00    -0.080 A 
ATOM      4  C3  UNL d   1       1.553   0.932  -0.192  0.00  0.00     0.150 A 
ATOM      5  C4  UNL d   1       0.318   1.526   0.048  0.00  0.00    -0.007 A 
ATOM      6  C5  UNL d   1      -0.792   0.727   0.317  0.00  0.00     0.039 A 
ENDROOT
BRANCH   4   7
ATOM      7  O   UNL d   1       2.609   1.753  -0.456  0.00  0.00    -0.526 OA
ATOM      8  H5  UNL d   1       3.391   1.202  -0.631  0.00  0.00     0.418 HD
ENDBRANCH   4   7
TORSDOF 1
ENDMDL
