MODEL 1
REMARK minimizedAffinity -1.09934688
REMARK minimizedRMSD -1
REMARK  0 active torsions:
REMARK  status: ('A' for Active; 'I' for Inactive)
ROOT
ATOM      1  C   UNL d   1       2.343   1.562   0.289  0.00  0.00     0.020 A 
ATOM      2  C1  UNL d   1       3.118   0.471   0.680  0.00  0.00     0.020 A 
ATOM      3  C2  UNL d   1       2.527  -0.786   0.831  0.00  0.00     0.034 A 
ATOM      4  C3  UNL d   1       1.159  -0.954   0.593  0.00  0.00     0.017 A 
ATOM      5  C4  UNL d   1       0.382   0.143   0.200  0.00  0.00     0.017 A 
ATOM      6  C5  UNL d   1       0.978   1.398   0.050  0.00  0.00     0.034 A 
ATOM      7 Cl   UNL d   1      -1.313   0.013  -0.112  0.00  0.00    -0.070 Cl
ATOM      8 Cl1  UNL d   1       0.495  -2.536   0.800  0.00  0.00    -0.070 Cl
ENDROOT
TORSDOF 0
ENDMDL
