MODEL 1
REMARK minimizedAffinity -2.82049489
REMARK minimizedRMSD -1
REMARK  0 active torsions:
REMARK  status: ('A' for Active; 'I' for Inactive)
ROOT
ATOM      1  C   UNL d   1       1.553   1.668   0.563  0.00  0.00     0.020 A 
ATOM      2  C1  UNL d   1       2.183   0.880   1.525  0.00  0.00     0.020 A 
ATOM      3  C2  UNL d   1       1.610  -0.329   1.924  0.00  0.00     0.034 A 
ATOM      4  C3  UNL d   1       0.401  -0.754   1.359  0.00  0.00     0.017 A 
ATOM      5  C4  UNL d   1      -0.231   0.037   0.393  0.00  0.00     0.017 A 
ATOM      6  C5  UNL d   1       0.348   1.247  -0.002  0.00  0.00     0.034 A 
ATOM      7 Cl   UNL d   1      -1.723  -0.422  -0.348  0.00  0.00    -0.070 Cl
ATOM      8 Cl1  UNL d   1      -0.251  -2.261   1.899  0.00  0.00    -0.070 Cl
ENDROOT
TORSDOF 0
ENDMDL
