MODEL 1
REMARK minimizedAffinity -1.90884948
REMARK minimizedRMSD -1
REMARK  0 active torsions:
REMARK  status: ('A' for Active; 'I' for Inactive)
ROOT
ATOM      1  C   UNL d   1       1.657   1.687   0.610  0.00  0.00     0.020 A 
ATOM      2  C1  UNL d   1       0.424   1.386   0.033  0.00  0.00     0.020 A 
ATOM      3  C2  UNL d   1      -0.185   0.155   0.290  0.00  0.00     0.034 A 
ATOM      4  C3  UNL d   1       0.440  -0.778   1.126  0.00  0.00     0.017 A 
ATOM      5  C4  UNL d   1       1.677  -0.474   1.704  0.00  0.00     0.017 A 
ATOM      6  C5  UNL d   1       2.282   0.759   1.444  0.00  0.00     0.034 A 
ATOM      7 Cl   UNL d   1       2.508  -1.575   2.746  0.00  0.00    -0.070 Cl
ATOM      8 Cl1  UNL d   1      -0.370  -2.280   1.400  0.00  0.00    -0.070 Cl
ENDROOT
TORSDOF 0
ENDMDL
