MODEL 1
REMARK minimizedAffinity -3.33529425
REMARK minimizedRMSD -1
REMARK  0 active torsions:
REMARK  status: ('A' for Active; 'I' for Inactive)
ROOT
ATOM      1  C   UNL d   1       2.377  -0.714   0.576  0.00  0.00     0.020 A 
ATOM      2  C1  UNL d   1       3.148   0.444   0.678  0.00  0.00     0.020 A 
ATOM      3  C2  UNL d   1       2.553   1.696   0.506  0.00  0.00     0.034 A 
ATOM      4  C3  UNL d   1       1.185   1.793   0.232  0.00  0.00     0.017 A 
ATOM      5  C4  UNL d   1       0.412   0.631   0.130  0.00  0.00     0.017 A 
ATOM      6  C5  UNL d   1       1.012  -0.620   0.303  0.00  0.00     0.034 A 
ATOM      7 Cl   UNL d   1      -1.283   0.671  -0.207  0.00  0.00    -0.070 Cl
ATOM      8 Cl1  UNL d   1       0.516   3.374   0.031  0.00  0.00    -0.070 Cl
ENDROOT
TORSDOF 0
ENDMDL
