MODEL 1
REMARK minimizedAffinity -3.20435405
REMARK minimizedRMSD -1
REMARK  0 active torsions:
REMARK  status: ('A' for Active; 'I' for Inactive)
ROOT
ATOM      1  C   UNL d   1       1.819   2.352   0.126  0.00  0.00     0.020 A 
ATOM      2  C1  UNL d   1       2.689   1.468   0.763  0.00  0.00     0.020 A 
ATOM      3  C2  UNL d   1       2.220   0.232   1.214  0.00  0.00     0.034 A 
ATOM      4  C3  UNL d   1       0.880  -0.123   1.028  0.00  0.00     0.017 A 
ATOM      5  C4  UNL d   1       0.008   0.765   0.388  0.00  0.00     0.017 A 
ATOM      6  C5  UNL d   1       0.482   2.001  -0.062  0.00  0.00     0.034 A 
ATOM      7 Cl   UNL d   1      -1.660   0.397   0.122  0.00  0.00    -0.070 Cl
ATOM      8 Cl1  UNL d   1       0.369  -1.668   1.611  0.00  0.00    -0.070 Cl
ENDROOT
TORSDOF 0
ENDMDL
