MODEL 1
REMARK minimizedAffinity -1.49633729
REMARK minimizedRMSD -1
REMARK  0 active torsions:
REMARK  status: ('A' for Active; 'I' for Inactive)
ROOT
ATOM      1  C   UNL d   1      -3.083   1.999  -3.753  0.00  0.00     0.020 A 
ATOM      2  C1  UNL d   1      -2.977   2.702  -2.554  0.00  0.00     0.020 A 
ATOM      3  C2  UNL d   1      -2.635   2.030  -1.378  0.00  0.00     0.034 A 
ATOM      4  C3  UNL d   1      -2.399   0.651  -1.399  0.00  0.00     0.017 A 
ATOM      5  C4  UNL d   1      -2.506  -0.055  -2.604  0.00  0.00     0.017 A 
ATOM      6  C5  UNL d   1      -2.848   0.623  -3.778  0.00  0.00     0.034 A 
ATOM      7 Cl   UNL d   1      -2.229  -1.757  -2.708  0.00  0.00    -0.070 Cl
ATOM      8 Cl1  UNL d   1      -1.980  -0.116   0.092  0.00  0.00    -0.070 Cl
ENDROOT
TORSDOF 0
ENDMDL
