MODEL 1
REMARK minimizedAffinity -0.188518375
REMARK minimizedRMSD -1
REMARK  0 active torsions:
REMARK  status: ('A' for Active; 'I' for Inactive)
ROOT
ATOM      1  C   UNL d   1       2.846   2.324   3.256  0.00  0.00     0.020 A 
ATOM      2  C1  UNL d   1       2.462   2.610   1.946  0.00  0.00     0.020 A 
ATOM      3  C2  UNL d   1       1.844   1.628   1.169  0.00  0.00     0.034 A 
ATOM      4  C3  UNL d   1       1.609   0.355   1.701  0.00  0.00     0.017 A 
ATOM      5  C4  UNL d   1       1.996   0.068   3.015  0.00  0.00     0.017 A 
ATOM      6  C5  UNL d   1       2.613   1.056   3.789  0.00  0.00     0.034 A 
ATOM      7 Cl   UNL d   1       1.739  -1.479   3.741  0.00  0.00    -0.070 Cl
ATOM      8 Cl1  UNL d   1       0.841  -0.812   0.684  0.00  0.00    -0.070 Cl
ENDROOT
TORSDOF 0
ENDMDL
