MODEL 1
REMARK minimizedAffinity -0.265684932
REMARK minimizedRMSD -1
REMARK  0 active torsions:
REMARK  status: ('A' for Active; 'I' for Inactive)
ROOT
ATOM      1  C   UNL d   1      -0.874   0.812   0.040  0.00  0.00     0.020 A 
ATOM      2  C1  UNL d   1      -0.073  -0.212   0.544  0.00  0.00     0.020 A 
ATOM      3  C2  UNL d   1       1.057   0.095   1.305  0.00  0.00     0.034 A 
ATOM      4  C3  UNL d   1       1.390   1.429   1.564  0.00  0.00     0.017 A 
ATOM      5  C4  UNL d   1       0.586   2.457   1.058  0.00  0.00     0.017 A 
ATOM      6  C5  UNL d   1      -0.545   2.144   0.297  0.00  0.00     0.034 A 
ATOM      7 Cl   UNL d   1       0.932   4.127   1.336  0.00  0.00    -0.070 Cl
ATOM      8 Cl1  UNL d   1       2.801   1.736   2.513  0.00  0.00    -0.070 Cl
ENDROOT
TORSDOF 0
ENDMDL
