MODEL 1
REMARK minimizedAffinity 2.24378872
REMARK minimizedRMSD -1
REMARK  0 active torsions:
REMARK  status: ('A' for Active; 'I' for Inactive)
ROOT
ATOM      1  C   UNL d   1       0.800  -1.521   0.279  0.00  0.00     0.020 A 
ATOM      2  C1  UNL d   1       1.992  -1.680   0.985  0.00  0.00     0.020 A 
ATOM      3  C2  UNL d   1       2.476  -0.640   1.781  0.00  0.00     0.034 A 
ATOM      4  C3  UNL d   1       1.768   0.564   1.875  0.00  0.00     0.017 A 
ATOM      5  C4  UNL d   1       0.571   0.722   1.167  0.00  0.00     0.017 A 
ATOM      6  C5  UNL d   1       0.091  -0.322   0.370  0.00  0.00     0.034 A 
ATOM      7 Cl   UNL d   1      -0.359   2.178   1.232  0.00  0.00    -0.070 Cl
ATOM      8 Cl1  UNL d   1       2.425   1.807   2.879  0.00  0.00    -0.070 Cl
ENDROOT
TORSDOF 0
ENDMDL
