MODEL 1
REMARK minimizedAffinity -3.37198853
REMARK minimizedRMSD -1
REMARK  2 active torsions:
REMARK  status: ('A' for Active; 'I' for Inactive)
REMARK    1  A    between atoms: C2'_3  and  C1'_4 
REMARK    2  A    between atoms: C1'_4  and  C1_5 
ROOT
ATOM      1  C1  I4B d   1      -0.797   3.465   0.889  0.00  0.00    -0.075 A 
ATOM      2  C2  I4B d   1      -0.703   3.098  -0.430  0.00  0.00     0.003 A 
ATOM      3  C3  I4B d   1      -0.148   1.844  -0.783  0.00  0.00     0.002 A 
ATOM      4  C4  I4B d   1       0.343   1.015   0.205  0.00  0.00    -0.004 A 
ATOM      5  C5  I4B d   1       0.225   1.379   1.544  0.00  0.00     0.002 A 
ATOM      6  C6  I4B d   1      -0.360   2.606   1.889  0.00  0.00     0.003 A 
ENDROOT
BRANCH   1   7
ATOM      7  C1' I4B d   1      -1.358   4.811   1.224  0.00  0.00     0.060 C 
BRANCH   7   8
ATOM      8  C2' I4B d   1      -2.737   4.607   1.817  0.00  0.00    -0.013 C 
ATOM      9  C4' I4B d   1      -2.685   3.704   3.022  0.00  0.00     0.013 C 
ATOM     10  C3' I4B d   1      -3.292   5.954   2.174  0.00  0.00     0.013 C 
ENDBRANCH   7   8
ENDBRANCH   1   7
TORSDOF 2
ENDMDL
