MODEL 1
REMARK minimizedAffinity 6.09486628
REMARK minimizedRMSD -1
REMARK  2 active torsions:
REMARK  status: ('A' for Active; 'I' for Inactive)
REMARK    1  A    between atoms: C2'_3  and  C1'_4 
REMARK    2  A    between atoms: C1'_4  and  C1_5 
ROOT
ATOM      1  C1  I4B d   1      -1.069   2.687   0.766  0.00  0.00    -0.075 A 
ATOM      2  C2  I4B d   1      -1.567   3.930   0.464  0.00  0.00     0.003 A 
ATOM      3  C3  I4B d   1      -1.475   4.433  -0.857  0.00  0.00     0.002 A 
ATOM      4  C4  I4B d   1      -0.837   3.686  -1.826  0.00  0.00    -0.004 A 
ATOM      5  C5  I4B d   1      -0.353   2.416  -1.523  0.00  0.00     0.002 A 
ATOM      6  C6  I4B d   1      -0.480   1.908  -0.222  0.00  0.00     0.003 A 
ENDROOT
BRANCH   1   7
ATOM      7  C1' I4B d   1      -1.153   2.201   2.178  0.00  0.00     0.060 C 
BRANCH   7   8
ATOM      8  C2' I4B d   1       0.177   1.569   2.535  0.00  0.00    -0.013 C 
ATOM      9  C4' I4B d   1       1.237   2.617   2.752  0.00  0.00     0.013 C 
ATOM     10  C3' I4B d   1      -0.021   0.736   3.765  0.00  0.00     0.013 C 
ENDBRANCH   7   8
ENDBRANCH   1   7
TORSDOF 2
ENDMDL
