MODEL 1
REMARK minimizedAffinity 3.9662447
REMARK minimizedRMSD -1
REMARK  2 active torsions:
REMARK  status: ('A' for Active; 'I' for Inactive)
REMARK    1  A    between atoms: C2'_3  and  C1'_4 
REMARK    2  A    between atoms: C1'_4  and  C1_5 
ROOT
ATOM      1  C1  I4B d   1      -0.631   2.407   1.418  0.00  0.00    -0.075 A 
ATOM      2  C2  I4B d   1      -0.686   3.776   1.504  0.00  0.00     0.003 A 
ATOM      3  C3  I4B d   1      -0.895   4.556   0.341  0.00  0.00     0.002 A 
ATOM      4  C4  I4B d   1      -0.993   3.933  -0.886  0.00  0.00    -0.004 A 
ATOM      5  C5  I4B d   1      -0.961   2.544  -0.969  0.00  0.00     0.002 A 
ATOM      6  C6  I4B d   1      -0.791   1.775   0.191  0.00  0.00     0.003 A 
ENDROOT
BRANCH   1   7
ATOM      7  C1' I4B d   1      -0.376   1.616   2.661  0.00  0.00     0.060 C 
BRANCH   7   8
ATOM      8  C2' I4B d   1       0.433   0.394   2.279  0.00  0.00    -0.013 C 
ATOM      9  C4' I4B d   1       1.729   0.782   1.618  0.00  0.00     0.013 C 
ATOM     10  C3' I4B d   1       0.678  -0.407   3.523  0.00  0.00     0.013 C 
ENDBRANCH   7   8
ENDBRANCH   1   7
TORSDOF 2
ENDMDL
