MODEL 1
REMARK minimizedAffinity 8.35461903
REMARK minimizedRMSD -1
REMARK  2 active torsions:
REMARK  status: ('A' for Active; 'I' for Inactive)
REMARK    1  A    between atoms: C2'_3  and  C1'_4 
REMARK    2  A    between atoms: C1'_4  and  C1_5 
ROOT
ATOM      1  C1  I4B d   1      -0.645   2.446  -0.415  0.00  0.00    -0.075 A 
ATOM      2  C2  I4B d   1      -1.321   3.620  -0.633  0.00  0.00     0.003 A 
ATOM      3  C3  I4B d   1      -1.894   4.325   0.453  0.00  0.00     0.002 A 
ATOM      4  C4  I4B d   1      -1.812   3.798   1.725  0.00  0.00    -0.004 A 
ATOM      5  C5  I4B d   1      -1.106   2.619   1.948  0.00  0.00     0.002 A 
ATOM      6  C6  I4B d   1      -0.508   1.945   0.873  0.00  0.00     0.003 A 
ENDROOT
BRANCH   1   7
ATOM      7  C1' I4B d   1      -0.080   1.710  -1.588  0.00  0.00     0.060 C 
BRANCH   7   8
ATOM      8  C2' I4B d   1       0.099   0.260  -1.188  0.00  0.00    -0.013 C 
ATOM      9  C4' I4B d   1      -0.590  -0.662  -2.158  0.00  0.00     0.013 C 
ATOM     10  C3' I4B d   1       1.570  -0.024  -1.123  0.00  0.00     0.013 C 
ENDBRANCH   7   8
ENDBRANCH   1   7
TORSDOF 2
ENDMDL
