MODEL 1
REMARK minimizedAffinity 6.49164963
REMARK minimizedRMSD -1
REMARK  2 active torsions:
REMARK  status: ('A' for Active; 'I' for Inactive)
REMARK    1  A    between atoms: C2'_3  and  C1'_4 
REMARK    2  A    between atoms: C1'_4  and  C1_5 
ROOT
ATOM      1  C1  I4B d   1      -0.571   2.574   0.428  0.00  0.00    -0.075 A 
ATOM      2  C2  I4B d   1      -0.764   1.649  -0.568  0.00  0.00     0.003 A 
ATOM      3  C3  I4B d   1      -0.763   2.052  -1.925  0.00  0.00     0.002 A 
ATOM      4  C4  I4B d   1      -0.617   3.389  -2.237  0.00  0.00    -0.004 A 
ATOM      5  C5  I4B d   1      -0.399   4.322  -1.227  0.00  0.00     0.002 A 
ATOM      6  C6  I4B d   1      -0.363   3.910   0.113  0.00  0.00     0.003 A 
ENDROOT
BRANCH   1   7
ATOM      7  C1' I4B d   1      -0.611   2.118   1.852  0.00  0.00     0.060 C 
BRANCH   7   8
ATOM      8  C2' I4B d   1      -0.067   0.705   1.906  0.00  0.00    -0.013 C 
ATOM      9  C4' I4B d   1       1.338   0.642   1.367  0.00  0.00     0.013 C 
ATOM     10  C3' I4B d   1      -0.121   0.242   3.331  0.00  0.00     0.013 C 
ENDBRANCH   7   8
ENDBRANCH   1   7
TORSDOF 2
ENDMDL
