MODEL 1
REMARK minimizedAffinity 9.23685646
REMARK minimizedRMSD -1
REMARK  2 active torsions:
REMARK  status: ('A' for Active; 'I' for Inactive)
REMARK    1  A    between atoms: C2'_3  and  C1'_4 
REMARK    2  A    between atoms: C1'_4  and  C1_5 
ROOT
ATOM      1  C1  I4B d   1      -0.773   2.511   1.648  0.00  0.00    -0.075 A 
ATOM      2  C2  I4B d   1      -1.113   3.840   1.589  0.00  0.00     0.003 A 
ATOM      3  C3  I4B d   1      -1.327   4.466   0.338  0.00  0.00     0.002 A 
ATOM      4  C4  I4B d   1      -1.143   3.744  -0.824  0.00  0.00    -0.004 A 
ATOM      5  C5  I4B d   1      -0.821   2.392  -0.762  0.00  0.00     0.002 A 
ATOM      6  C6  I4B d   1      -0.647   1.767   0.481  0.00  0.00     0.003 A 
ENDROOT
BRANCH   1   7
ATOM      7  C1' I4B d   1      -0.522   1.889   2.985  0.00  0.00     0.060 C 
BRANCH   7   8
ATOM      8  C2' I4B d   1      -0.912   0.427   2.901  0.00  0.00    -0.013 C 
ATOM      9  C4' I4B d   1      -0.257  -0.375   3.994  0.00  0.00     0.013 C 
ATOM     10  C3' I4B d   1      -2.406   0.341   2.987  0.00  0.00     0.013 C 
ENDBRANCH   7   8
ENDBRANCH   1   7
TORSDOF 2
ENDMDL
