MODEL 1
REMARK minimizedAffinity -0.313162297
REMARK minimizedRMSD -1
REMARK  2 active torsions:
REMARK  status: ('A' for Active; 'I' for Inactive)
REMARK    1  A    between atoms: C2'_3  and  C1'_4 
REMARK    2  A    between atoms: C1'_4  and  C1_5 
ROOT
ATOM      1  C1  I4B d   1      -0.872   3.529   1.290  0.00  0.00    -0.075 A 
ATOM      2  C2  I4B d   1       0.335   4.173   1.182  0.00  0.00     0.003 A 
ATOM      3  C3  I4B d   1       1.417   3.803   2.018  0.00  0.00     0.002 A 
ATOM      4  C4  I4B d   1       1.233   2.827   2.976  0.00  0.00    -0.004 A 
ATOM      5  C5  I4B d   1       0.015   2.159   3.068  0.00  0.00     0.002 A 
ATOM      6  C6  I4B d   1      -1.040   2.503   2.211  0.00  0.00     0.003 A 
ENDROOT
BRANCH   1   7
ATOM      7  C1' I4B d   1      -2.003   3.966   0.414  0.00  0.00     0.060 C 
BRANCH   7   8
ATOM      8  C2' I4B d   1      -1.991   5.480   0.357  0.00  0.00    -0.013 C 
ATOM      9  C4' I4B d   1      -2.676   5.985  -0.885  0.00  0.00     0.013 C 
ATOM     10  C3' I4B d   1      -2.664   5.995   1.595  0.00  0.00     0.013 C 
ENDBRANCH   7   8
ENDBRANCH   1   7
TORSDOF 2
ENDMDL
