MODEL 1
REMARK minimizedAffinity 4.75844336
REMARK minimizedRMSD -1
REMARK  2 active torsions:
REMARK  status: ('A' for Active; 'I' for Inactive)
REMARK    1  A    between atoms: C2'_3  and  C1'_4 
REMARK    2  A    between atoms: C1'_4  and  C1_5 
ROOT
ATOM      1  C1  I4B d   1       0.475   0.256   0.138  0.00  0.00    -0.075 A 
ATOM      2  C2  I4B d   1      -0.050  -0.394   1.227  0.00  0.00     0.003 A 
ATOM      3  C3  I4B d   1      -0.421   0.335   2.382  0.00  0.00     0.002 A 
ATOM      4  C4  I4B d   1      -0.204   1.697   2.425  0.00  0.00    -0.004 A 
ATOM      5  C5  I4B d   1       0.308   2.358   1.312  0.00  0.00     0.002 A 
ATOM      6  C6  I4B d   1       0.638   1.635   0.157  0.00  0.00     0.003 A 
ENDROOT
BRANCH   1   7
ATOM      7  C1' I4B d   1       0.887  -0.549  -1.053  0.00  0.00     0.060 C 
BRANCH   7   8
ATOM      8  C2' I4B d   1       2.220  -1.197  -0.741  0.00  0.00    -0.013 C 
ATOM      9  C4' I4B d   1       2.584  -1.024   0.710  0.00  0.00     0.013 C 
ATOM     10  C3' I4B d   1       2.126  -2.649  -1.106  0.00  0.00     0.013 C 
ENDBRANCH   7   8
ENDBRANCH   1   7
TORSDOF 2
ENDMDL
