MODEL 1
REMARK minimizedAffinity 5.00561094
REMARK minimizedRMSD -1
REMARK  2 active torsions:
REMARK  status: ('A' for Active; 'I' for Inactive)
REMARK    1  A    between atoms: C2'_3  and  C1'_4 
REMARK    2  A    between atoms: C1'_4  and  C1_5 
ROOT
ATOM      1  C1  I4B d   1       0.007   1.465   1.742  0.00  0.00    -0.075 A 
ATOM      2  C2  I4B d   1       1.268   0.923   1.752  0.00  0.00     0.003 A 
ATOM      3  C3  I4B d   1       1.539  -0.236   2.519  0.00  0.00     0.002 A 
ATOM      4  C4  I4B d   1       0.541  -0.786   3.297  0.00  0.00    -0.004 A 
ATOM      5  C5  I4B d   1      -0.743  -0.248   3.268  0.00  0.00     0.002 A 
ATOM      6  C6  I4B d   1      -1.015   0.877   2.476  0.00  0.00     0.003 A 
ENDROOT
BRANCH   1   7
ATOM      7  C1' I4B d   1      -0.236   2.708   0.947  0.00  0.00     0.060 C 
BRANCH   7   8
ATOM      8  C2' I4B d   1       0.131   2.419  -0.495  0.00  0.00    -0.013 C 
ATOM      9  C4' I4B d   1      -0.940   1.612  -1.179  0.00  0.00     0.013 C 
ATOM     10  C3' I4B d   1       0.347   3.731  -1.189  0.00  0.00     0.013 C 
ENDBRANCH   7   8
ENDBRANCH   1   7
TORSDOF 2
ENDMDL
