MODEL 1
REMARK minimizedAffinity -4.658216
REMARK minimizedRMSD -1
REMARK  2 active torsions:
REMARK  status: ('A' for Active; 'I' for Inactive)
REMARK    1  A    between atoms: C2'_3  and  C1'_4 
REMARK    2  A    between atoms: C1'_4  and  C1_5 
ROOT
ATOM      1  C1  I4B d   1       0.042  -0.159  -0.218  0.00  0.00    -0.075 A 
ATOM      2  C2  I4B d   1      -0.974  -0.107   0.703  0.00  0.00     0.003 A 
ATOM      3  C3  I4B d   1      -0.730  -0.454   2.054  0.00  0.00     0.002 A 
ATOM      4  C4  I4B d   1       0.523  -0.894   2.427  0.00  0.00    -0.004 A 
ATOM      5  C5  I4B d   1       1.558  -0.925   1.497  0.00  0.00     0.002 A 
ATOM      6  C6  I4B d   1       1.320  -0.543   0.168  0.00  0.00     0.003 A 
ENDROOT
BRANCH   1   7
ATOM      7  C1' I4B d   1      -0.258   0.184  -1.643  0.00  0.00     0.060 C 
BRANCH   7   8
ATOM      8  C2' I4B d   1      -0.746   1.617  -1.685  0.00  0.00    -0.013 C 
ATOM      9  C4' I4B d   1       0.380   2.568  -1.996  0.00  0.00     0.013 C 
ATOM     10  C3' I4B d   1      -1.831   1.707  -2.717  0.00  0.00     0.013 C 
ENDBRANCH   7   8
ENDBRANCH   1   7
TORSDOF 2
ENDMDL
