MODEL 1
REMARK minimizedAffinity -5.24090004
REMARK minimizedRMSD -1
REMARK  2 active torsions:
REMARK  status: ('A' for Active; 'I' for Inactive)
REMARK    1  A    between atoms: C2'_3  and  C1'_4 
REMARK    2  A    between atoms: C1'_4  and  C1_5 
ROOT
ATOM      1  C1  I4B d   1      -0.663   0.704  -0.069  0.00  0.00    -0.075 A 
ATOM      2  C2  I4B d   1      -0.199   1.937   0.316  0.00  0.00     0.003 A 
ATOM      3  C3  I4B d   1      -0.020   2.963  -0.643  0.00  0.00     0.002 A 
ATOM      4  C4  I4B d   1      -0.267   2.698  -1.975  0.00  0.00    -0.004 A 
ATOM      5  C5  I4B d   1      -0.758   1.455  -2.360  0.00  0.00     0.002 A 
ATOM      6  C6  I4B d   1      -0.969   0.455  -1.400  0.00  0.00     0.003 A 
ENDROOT
BRANCH   1   7
ATOM      7  C1' I4B d   1      -0.809  -0.366   0.966  0.00  0.00     0.060 C 
BRANCH   7   8
ATOM      8  C2' I4B d   1       0.564  -0.650   1.541  0.00  0.00    -0.013 C 
ATOM      9  C4' I4B d   1       0.477  -1.567   2.733  0.00  0.00     0.013 C 
ATOM     10  C3' I4B d   1       1.405  -1.252   0.455  0.00  0.00     0.013 C 
ENDBRANCH   7   8
ENDBRANCH   1   7
TORSDOF 2
ENDMDL
