MODEL 1
REMARK minimizedAffinity -1.26004791
REMARK minimizedRMSD -1
REMARK  2 active torsions:
REMARK  status: ('A' for Active; 'I' for Inactive)
REMARK    1  A    between atoms: C2'_3  and  C1'_4 
REMARK    2  A    between atoms: C1'_4  and  C1_5 
ROOT
ATOM      1  C1  I4B d   1       0.164  -0.364  -0.133  0.00  0.00    -0.075 A 
ATOM      2  C2  I4B d   1      -0.818   0.216   0.632  0.00  0.00     0.003 A 
ATOM      3  C3  I4B d   1      -0.860  -0.009   2.029  0.00  0.00     0.002 A 
ATOM      4  C4  I4B d   1       0.063  -0.856   2.609  0.00  0.00    -0.004 A 
ATOM      5  C5  I4B d   1       1.072  -1.424   1.836  0.00  0.00     0.002 A 
ATOM      6  C6  I4B d   1       1.130  -1.167   0.458  0.00  0.00     0.003 A 
ENDROOT
BRANCH   1   7
ATOM      7  C1' I4B d   1       0.159  -0.131  -1.610  0.00  0.00     0.060 C 
BRANCH   7   8
ATOM      8  C2' I4B d   1      -0.042   1.352  -1.848  0.00  0.00    -0.013 C 
ATOM      9  C4' I4B d   1       1.106   1.939  -2.627  0.00  0.00     0.013 C 
ATOM     10  C3' I4B d   1      -1.340   1.533  -2.578  0.00  0.00     0.013 C 
ENDBRANCH   7   8
ENDBRANCH   1   7
TORSDOF 2
ENDMDL
