MODEL 1
REMARK minimizedAffinity -1.25826204
REMARK minimizedRMSD -1
REMARK  2 active torsions:
REMARK  status: ('A' for Active; 'I' for Inactive)
REMARK    1  A    between atoms: C2'_3  and  C1'_4 
REMARK    2  A    between atoms: C1'_4  and  C1_5 
ROOT
ATOM      1  C1  I4B d   1      -0.502   1.198  -1.286  0.00  0.00    -0.075 A 
ATOM      2  C2  I4B d   1      -0.190   2.519  -1.489  0.00  0.00     0.003 A 
ATOM      3  C3  I4B d   1      -1.018   3.329  -2.302  0.00  0.00     0.002 A 
ATOM      4  C4  I4B d   1      -2.113   2.770  -2.929  0.00  0.00    -0.004 A 
ATOM      5  C5  I4B d   1      -2.440   1.436  -2.703  0.00  0.00     0.002 A 
ATOM      6  C6  I4B d   1      -1.637   0.647  -1.866  0.00  0.00     0.003 A 
ENDROOT
BRANCH   1   7
ATOM      7  C1' I4B d   1       0.413   0.362  -0.448  0.00  0.00     0.060 C 
BRANCH   7   8
ATOM      8  C2' I4B d   1       1.772   0.342  -1.118  0.00  0.00    -0.013 C 
ATOM      9  C4' I4B d   1       2.784   1.123  -0.322  0.00  0.00     0.013 C 
ATOM     10  C3' I4B d   1       2.192  -1.090  -1.271  0.00  0.00     0.013 C 
ENDBRANCH   7   8
ENDBRANCH   1   7
TORSDOF 2
ENDMDL
