MODEL 1
REMARK minimizedAffinity -5.04940701
REMARK minimizedRMSD -1
REMARK  2 active torsions:
REMARK  status: ('A' for Active; 'I' for Inactive)
REMARK    1  A    between atoms: C2'_3  and  C1'_4 
REMARK    2  A    between atoms: C1'_4  and  C1_5 
ROOT
ATOM      1  C1  I4B d   1       0.063  -0.103  -0.396  0.00  0.00    -0.075 A 
ATOM      2  C2  I4B d   1       1.312  -0.474   0.037  0.00  0.00     0.003 A 
ATOM      3  C3  I4B d   1       1.537  -0.756   1.406  0.00  0.00     0.002 A 
ATOM      4  C4  I4B d   1       0.504  -0.606   2.310  0.00  0.00    -0.004 A 
ATOM      5  C5  I4B d   1      -0.767  -0.253   1.865  0.00  0.00     0.002 A 
ATOM      6  C6  I4B d   1      -0.992  -0.011   0.502  0.00  0.00     0.003 A 
ENDROOT
BRANCH   1   7
ATOM      7  C1' I4B d   1      -0.131   0.219  -1.844  0.00  0.00     0.060 C 
BRANCH   7   8
ATOM      8  C2' I4B d   1      -0.447   1.697  -1.954  0.00  0.00    -0.013 C 
ATOM      9  C4' I4B d   1       0.662   2.441  -2.651  0.00  0.00     0.013 C 
ATOM     10  C3' I4B d   1      -1.743   1.839  -2.695  0.00  0.00     0.013 C 
ENDBRANCH   7   8
ENDBRANCH   1   7
TORSDOF 2
ENDMDL
