MODEL 1
REMARK minimizedAffinity -4.09683323
REMARK minimizedRMSD -1
REMARK  2 active torsions:
REMARK  status: ('A' for Active; 'I' for Inactive)
REMARK    1  A    between atoms: C2'_3  and  C1'_4 
REMARK    2  A    between atoms: C1'_4  and  C1_5 
ROOT
ATOM      1  C1  I4B d   1      -0.183   0.282  -0.269  0.00  0.00    -0.075 A 
ATOM      2  C2  I4B d   1       1.064  -0.286  -0.343  0.00  0.00     0.003 A 
ATOM      3  C3  I4B d   1       1.630  -0.914   0.793  0.00  0.00     0.002 A 
ATOM      4  C4  I4B d   1       0.940  -0.906   1.988  0.00  0.00    -0.004 A 
ATOM      5  C5  I4B d   1      -0.334  -0.350   2.056  0.00  0.00     0.002 A 
ATOM      6  C6  I4B d   1      -0.905   0.237   0.917  0.00  0.00     0.003 A 
ENDROOT
BRANCH   1   7
ATOM      7  C1' I4B d   1      -0.737   0.966  -1.479  0.00  0.00     0.060 C 
BRANCH   7   8
ATOM      8  C2' I4B d   1      -0.324   2.423  -1.421  0.00  0.00    -0.013 C 
ATOM      9  C4' I4B d   1       0.782   2.715  -2.400  0.00  0.00     0.013 C 
ATOM     10  C3' I4B d   1      -1.536   3.258  -1.708  0.00  0.00     0.013 C 
ENDBRANCH   7   8
ENDBRANCH   1   7
TORSDOF 2
ENDMDL
