MODEL 1
REMARK minimizedAffinity 0.847883761
REMARK minimizedRMSD -1
REMARK  2 active torsions:
REMARK  status: ('A' for Active; 'I' for Inactive)
REMARK    1  A    between atoms: C2'_3  and  C1'_4 
REMARK    2  A    between atoms: C1'_4  and  C1_5 
ROOT
ATOM      1  C1  I4B d   1      -0.723  -0.820   2.116  0.00  0.00    -0.075 A 
ATOM      2  C2  I4B d   1      -1.401   0.043   2.941  0.00  0.00     0.003 A 
ATOM      3  C3  I4B d   1      -2.557   0.714   2.475  0.00  0.00     0.002 A 
ATOM      4  C4  I4B d   1      -2.970   0.532   1.171  0.00  0.00    -0.004 A 
ATOM      5  C5  I4B d   1      -2.295  -0.361   0.343  0.00  0.00     0.002 A 
ATOM      6  C6  I4B d   1      -1.172  -1.051   0.822  0.00  0.00     0.003 A 
ENDROOT
BRANCH   1   7
ATOM      7  C1' I4B d   1       0.514  -1.486   2.630  0.00  0.00     0.060 C 
BRANCH   7   8
ATOM      8  C2' I4B d   1       1.671  -0.525   2.450  0.00  0.00    -0.013 C 
ATOM      9  C4' I4B d   1       2.679  -0.672   3.559  0.00  0.00     0.013 C 
ATOM     10  C3' I4B d   1       2.293  -0.795   1.113  0.00  0.00     0.013 C 
ENDBRANCH   7   8
ENDBRANCH   1   7
TORSDOF 2
ENDMDL
