MODEL 1
REMARK minimizedAffinity 10.4564018
REMARK minimizedRMSD -1
REMARK  3 active torsions:
REMARK  status: ('A' for Active; 'I' for Inactive)
REMARK    1  A    between atoms: C3'_2  and  C2'_3 
REMARK    2  A    between atoms: C2'_3  and  C1'_4 
REMARK    3  A    between atoms: C1'_4  and  C1_5 
ROOT
ATOM      1  C1  N4B d   1      -1.917   0.492  -1.883  0.00  0.00    -0.075 A 
ATOM      2  C2  N4B d   1      -2.955   0.727  -2.811  0.00  0.00     0.002 A 
ATOM      3  C3  N4B d   1      -2.979   1.895  -3.532  0.00  0.00     0.002 A 
ATOM      4  C4  N4B d   1      -1.990   2.846  -3.331  0.00  0.00    -0.004 A 
ATOM      5  C5  N4B d   1      -0.977   2.600  -2.451  0.00  0.00     0.002 A 
ATOM      6  C6  N4B d   1      -0.938   1.429  -1.721  0.00  0.00     0.002 A 
ENDROOT
BRANCH   1   7
ATOM      7  C1' N4B d   1      -1.896  -0.732  -1.008  0.00  0.00     0.057 C 
BRANCH   7   8
ATOM      8  C2' N4B d   1      -0.449  -1.156  -0.774  0.00  0.00     0.009 C 
BRANCH   8   9
ATOM      9  C3' N4B d   1      -0.211  -1.600   0.659  0.00  0.00     0.004 C 
ATOM     10  C4' N4B d   1       1.245  -1.693   1.004  0.00  0.00     0.003 C 
ENDBRANCH   8   9
ENDBRANCH   7   8
ENDBRANCH   1   7
TORSDOF 3
ENDMDL
