MODEL 1
REMARK minimizedAffinity 3.85810876
REMARK minimizedRMSD -1
REMARK  3 active torsions:
REMARK  status: ('A' for Active; 'I' for Inactive)
REMARK    1  A    between atoms: C3'_2  and  C2'_3 
REMARK    2  A    between atoms: C2'_3  and  C1'_4 
REMARK    3  A    between atoms: C1'_4  and  C1_5 
ROOT
ATOM      1  C1  N4B d   1       2.374   4.391  -5.773  0.00  0.00    -0.075 A 
ATOM      2  C2  N4B d   1       2.816   5.726  -5.908  0.00  0.00     0.002 A 
ATOM      3  C3  N4B d   1       4.159   5.999  -5.997  0.00  0.00     0.002 A 
ATOM      4  C4  N4B d   1       5.076   4.960  -5.935  0.00  0.00    -0.004 A 
ATOM      5  C5  N4B d   1       4.640   3.671  -5.830  0.00  0.00     0.002 A 
ATOM      6  C6  N4B d   1       3.293   3.382  -5.743  0.00  0.00     0.002 A 
ENDROOT
BRANCH   1   7
ATOM      7  C1' N4B d   1       0.921   4.051  -5.585  0.00  0.00     0.057 C 
BRANCH   7   8
ATOM      8  C2' N4B d   1       0.766   3.192  -4.333  0.00  0.00     0.009 C 
BRANCH   8   9
ATOM      9  C3' N4B d   1      -0.424   2.253  -4.432  0.00  0.00     0.004 C 
ATOM     10  C4' N4B d   1      -1.297   2.290  -3.214  0.00  0.00     0.003 C 
ENDBRANCH   8   9
ENDBRANCH   7   8
ENDBRANCH   1   7
TORSDOF 3
ENDMDL
