MODEL 1
REMARK minimizedAffinity 3.35505128
REMARK minimizedRMSD -1
REMARK  3 active torsions:
REMARK  status: ('A' for Active; 'I' for Inactive)
REMARK    1  A    between atoms: C3'_2  and  C2'_3 
REMARK    2  A    between atoms: C2'_3  and  C1'_4 
REMARK    3  A    between atoms: C1'_4  and  C1_5 
ROOT
ATOM      1  C1  N4B d   1       2.762  -3.482   1.016  0.00  0.00    -0.075 A 
ATOM      2  C2  N4B d   1       1.911  -4.608   0.980  0.00  0.00     0.002 A 
ATOM      3  C3  N4B d   1       2.427  -5.850   0.705  0.00  0.00     0.002 A 
ATOM      4  C4  N4B d   1       3.782  -5.988   0.446  0.00  0.00    -0.004 A 
ATOM      5  C5  N4B d   1       4.602  -4.899   0.509  0.00  0.00     0.002 A 
ATOM      6  C6  N4B d   1       4.098  -3.645   0.788  0.00  0.00     0.002 A 
ENDROOT
BRANCH   1   7
ATOM      7  C1' N4B d   1       2.230  -2.090   1.227  0.00  0.00     0.057 C 
BRANCH   7   8
ATOM      8  C2' N4B d   1       1.845  -1.919   2.694  0.00  0.00     0.009 C 
BRANCH   8   9
ATOM      9  C3' N4B d   1       0.408  -1.454   2.853  0.00  0.00     0.004 C 
ATOM     10  C4' N4B d   1      -0.572  -2.347   2.153  0.00  0.00     0.003 C 
ENDBRANCH   8   9
ENDBRANCH   7   8
ENDBRANCH   1   7
TORSDOF 3
ENDMDL
