MODEL 1
REMARK minimizedAffinity -1.18814862
REMARK minimizedRMSD -1
REMARK  0 active torsions:
REMARK  status: ('A' for Active; 'I' for Inactive)
ROOT
ATOM      1  C   UNL d   1       0.644  -2.245  -1.425  0.00  0.00     0.023 A 
ATOM      2  C1  UNL d   1       0.057  -2.178  -0.162  0.00  0.00     0.003 A 
ATOM      3  C2  UNL d   1      -1.203  -2.738   0.055  0.00  0.00     0.048 A 
ATOM      4  C3  UNL d   1      -1.871  -3.366  -0.995  0.00  0.00     0.023 A 
ATOM      5  C4  UNL d   1      -1.287  -3.437  -2.261  0.00  0.00     0.048 A 
ATOM      6  C5  UNL d   1      -0.027  -2.874  -2.474  0.00  0.00     0.003 A 
ATOM      7  I   UNL d   1      -3.747  -4.202  -0.675  0.00  0.00    -0.146 I 
ENDROOT
TORSDOF 0
ENDMDL
