MODEL 1
REMARK minimizedAffinity -4.18660784
REMARK minimizedRMSD -1
REMARK  0 active torsions:
REMARK  status: ('A' for Active; 'I' for Inactive)
ROOT
ATOM      1  C   UNL d   1      -0.779   1.763   0.892  0.00  0.00     0.023 A 
ATOM      2  C1  UNL d   1       0.306   0.898   1.037  0.00  0.00     0.003 A 
ATOM      3  C2  UNL d   1       0.228  -0.410   0.554  0.00  0.00     0.048 A 
ATOM      4  C3  UNL d   1      -0.938  -0.846  -0.075  0.00  0.00     0.023 A 
ATOM      5  C4  UNL d   1      -2.026   0.016  -0.223  0.00  0.00     0.048 A 
ATOM      6  C5  UNL d   1      -1.944   1.322   0.262  0.00  0.00     0.003 A 
ATOM      7  I   UNL d   1      -1.057  -2.792  -0.795  0.00  0.00    -0.146 I 
ENDROOT
TORSDOF 0
ENDMDL
