MODEL 1
REMARK minimizedAffinity -2.16950655
REMARK minimizedRMSD -1
REMARK  0 active torsions:
REMARK  status: ('A' for Active; 'I' for Inactive)
ROOT
ATOM      1  C   UNL d   1       0.990   2.820   0.748  0.00  0.00     0.023 A 
ATOM      2  C1  UNL d   1       2.010   1.884   0.581  0.00  0.00     0.003 A 
ATOM      3  C2  UNL d   1       1.705   0.578   0.191  0.00  0.00     0.048 A 
ATOM      4  C3  UNL d   1       0.376   0.216  -0.030  0.00  0.00     0.023 A 
ATOM      5  C4  UNL d   1      -0.648   1.149   0.135  0.00  0.00     0.048 A 
ATOM      6  C5  UNL d   1      -0.338   2.453   0.526  0.00  0.00     0.003 A 
ATOM      7  I   UNL d   1      -0.081  -1.727  -0.610  0.00  0.00    -0.146 I 
ENDROOT
TORSDOF 0
ENDMDL
