MODEL 1
REMARK minimizedAffinity -3.8319025
REMARK minimizedRMSD -1
REMARK  0 active torsions:
REMARK  status: ('A' for Active; 'I' for Inactive)
ROOT
ATOM      1  C   UNL d   1      -1.643   1.225   0.540  0.00  0.00     0.023 A 
ATOM      2  C1  UNL d   1      -0.838   2.358   0.428  0.00  0.00     0.003 A 
ATOM      3  C2  UNL d   1       0.547   2.223   0.306  0.00  0.00     0.048 A 
ATOM      4  C3  UNL d   1       1.119   0.952   0.295  0.00  0.00     0.023 A 
ATOM      5  C4  UNL d   1       0.318  -0.185   0.406  0.00  0.00     0.048 A 
ATOM      6  C5  UNL d   1      -1.066  -0.045   0.529  0.00  0.00     0.003 A 
ATOM      7  I   UNL d   1       3.180   0.749   0.113  0.00  0.00    -0.146 I 
ENDROOT
TORSDOF 0
ENDMDL
