MODEL 1
REMARK minimizedAffinity -1.14049113
REMARK minimizedRMSD -1
REMARK  0 active torsions:
REMARK  status: ('A' for Active; 'I' for Inactive)
ROOT
ATOM      1  C   UNL d   1       0.276   2.366   0.627  0.00  0.00     0.023 A 
ATOM      2  C1  UNL d   1      -1.033   1.940   0.399  0.00  0.00     0.003 A 
ATOM      3  C2  UNL d   1      -1.288   0.606   0.078  0.00  0.00     0.048 A 
ATOM      4  C3  UNL d   1      -0.230  -0.298  -0.012  0.00  0.00     0.023 A 
ATOM      5  C4  UNL d   1       1.081   0.123   0.216  0.00  0.00     0.048 A 
ATOM      6  C5  UNL d   1       1.331   1.459   0.536  0.00  0.00     0.003 A 
ATOM      7  I   UNL d   1      -0.608  -2.286  -0.489  0.00  0.00    -0.146 I 
ENDROOT
TORSDOF 0
ENDMDL
