MODEL 1
REMARK minimizedAffinity -3.26759052
REMARK minimizedRMSD -1
REMARK  0 active torsions:
REMARK  status: ('A' for Active; 'I' for Inactive)
ROOT
ATOM      1  C   UNL d   1       0.734   0.749   0.504  0.00  0.00     0.023 A 
ATOM      2  C1  UNL d   1       1.674  -0.201   0.104  0.00  0.00     0.003 A 
ATOM      3  C2  UNL d   1       1.254  -1.454  -0.346  0.00  0.00     0.048 A 
ATOM      4  C3  UNL d   1      -0.108  -1.750  -0.395  0.00  0.00     0.023 A 
ATOM      5  C4  UNL d   1      -1.052  -0.803   0.003  0.00  0.00     0.048 A 
ATOM      6  C5  UNL d   1      -0.628   0.449   0.453  0.00  0.00     0.003 A 
ATOM      7  I   UNL d   1      -0.735  -3.615  -1.065  0.00  0.00    -0.146 I 
ENDROOT
TORSDOF 0
ENDMDL
