MODEL 1
REMARK minimizedAffinity -1.08212721
REMARK minimizedRMSD -1
REMARK  0 active torsions:
REMARK  status: ('A' for Active; 'I' for Inactive)
ROOT
ATOM      1  C   UNL d   1      -0.764   1.044   0.948  0.00  0.00     0.023 A 
ATOM      2  C1  UNL d   1      -1.493  -0.112   1.229  0.00  0.00     0.003 A 
ATOM      3  C2  UNL d   1      -1.315  -1.258   0.451  0.00  0.00     0.048 A 
ATOM      4  C3  UNL d   1      -0.405  -1.242  -0.605  0.00  0.00     0.023 A 
ATOM      5  C4  UNL d   1       0.328  -0.088  -0.889  0.00  0.00     0.048 A 
ATOM      6  C5  UNL d   1       0.146   1.055  -0.110  0.00  0.00     0.003 A 
ATOM      7  I   UNL d   1      -0.138  -2.946  -1.764  0.00  0.00    -0.146 I 
ENDROOT
TORSDOF 0
ENDMDL
