MODEL 1
REMARK minimizedAffinity 0.786798477
REMARK minimizedRMSD -1
REMARK  0 active torsions:
REMARK  status: ('A' for Active; 'I' for Inactive)
ROOT
ATOM      1  C   UNL d   1      -1.288   0.223   0.021  0.00  0.00     0.023 A 
ATOM      2  C1  UNL d   1      -0.135  -0.561   0.085  0.00  0.00     0.003 A 
ATOM      3  C2  UNL d   1       1.067  -0.002   0.522  0.00  0.00     0.048 A 
ATOM      4  C3  UNL d   1       1.111   1.342   0.893  0.00  0.00     0.023 A 
ATOM      5  C4  UNL d   1      -0.040   2.130   0.831  0.00  0.00     0.048 A 
ATOM      6  C5  UNL d   1      -1.240   1.567   0.393  0.00  0.00     0.003 A 
ATOM      7  I   UNL d   1       2.900   2.176   1.544  0.00  0.00    -0.146 I 
ENDROOT
TORSDOF 0
ENDMDL
