MODEL 1
REMARK minimizedAffinity -3.44988632
REMARK minimizedRMSD -1
REMARK  0 active torsions:
REMARK  status: ('A' for Active; 'I' for Inactive)
ROOT
ATOM      1  C   UNL d   1       0.097   2.770   0.821  0.00  0.00     0.023 A 
ATOM      2  C1  UNL d   1      -1.100   2.241   0.338  0.00  0.00     0.003 A 
ATOM      3  C2  UNL d   1      -1.162   0.906  -0.067  0.00  0.00     0.048 A 
ATOM      4  C3  UNL d   1      -0.023   0.106   0.014  0.00  0.00     0.023 A 
ATOM      5  C4  UNL d   1       1.177   0.631   0.497  0.00  0.00     0.048 A 
ATOM      6  C5  UNL d   1       1.234   1.966   0.900  0.00  0.00     0.003 A 
ATOM      7  I   UNL d   1      -0.112  -1.881  -0.589  0.00  0.00    -0.146 I 
ENDROOT
TORSDOF 0
ENDMDL
