MODEL 1
REMARK minimizedAffinity -2.99522924
REMARK minimizedRMSD -1
REMARK  0 active torsions:
REMARK  status: ('A' for Active; 'I' for Inactive)
ROOT
ATOM      1  C   UNL d   1      -0.716  -3.122  -3.106  0.00  0.00     0.023 A 
ATOM      2  C1  UNL d   1       0.357  -2.243  -3.252  0.00  0.00     0.003 A 
ATOM      3  C2  UNL d   1       0.664  -1.338  -2.234  0.00  0.00     0.048 A 
ATOM      4  C3  UNL d   1      -0.106  -1.317  -1.072  0.00  0.00     0.023 A 
ATOM      5  C4  UNL d   1      -1.180  -2.195  -0.921  0.00  0.00     0.048 A 
ATOM      6  C5  UNL d   1      -1.484  -3.098  -1.942  0.00  0.00     0.003 A 
ATOM      7  I   UNL d   1       0.349   0.029   0.445  0.00  0.00    -0.146 I 
ENDROOT
TORSDOF 0
ENDMDL
