MODEL 1
REMARK minimizedAffinity 0.0494029857
REMARK minimizedRMSD -1
REMARK  0 active torsions:
REMARK  status: ('A' for Active; 'I' for Inactive)
ROOT
ATOM      1  C   UNL d   1      -0.686   2.692   0.839  0.00  0.00     0.023 A 
ATOM      2  C1  UNL d   1       0.590   2.134   0.747  0.00  0.00     0.003 A 
ATOM      3  C2  UNL d   1       0.757   0.856   0.210  0.00  0.00     0.048 A 
ATOM      4  C3  UNL d   1      -0.355   0.142  -0.235  0.00  0.00     0.023 A 
ATOM      5  C4  UNL d   1      -1.633   0.697  -0.146  0.00  0.00     0.048 A 
ATOM      6  C5  UNL d   1      -1.795   1.974   0.393  0.00  0.00     0.003 A 
ATOM      7  I   UNL d   1      -0.108  -1.760  -1.036  0.00  0.00    -0.146 I 
ENDROOT
TORSDOF 0
ENDMDL
