MODEL 1
REMARK minimizedAffinity -0.781671405
REMARK minimizedRMSD -1
REMARK  0 active torsions:
REMARK  status: ('A' for Active; 'I' for Inactive)
ROOT
ATOM      1  C   UNL d   1       0.414   1.518   0.875  0.00  0.00     0.023 A 
ATOM      2  C1  UNL d   1      -0.794   1.460   0.180  0.00  0.00     0.003 A 
ATOM      3  C2  UNL d   1      -1.100   0.343  -0.599  0.00  0.00     0.048 A 
ATOM      4  C3  UNL d   1      -0.194  -0.714  -0.678  0.00  0.00     0.023 A 
ATOM      5  C4  UNL d   1       1.016  -0.661   0.016  0.00  0.00     0.048 A 
ATOM      6  C5  UNL d   1       1.318   0.459   0.793  0.00  0.00     0.003 A 
ATOM      7  I   UNL d   1      -0.647  -2.379  -1.837  0.00  0.00    -0.146 I 
ENDROOT
TORSDOF 0
ENDMDL
