MODEL 1
REMARK minimizedAffinity -2.69203687
REMARK minimizedRMSD -1
REMARK  0 active torsions:
REMARK  status: ('A' for Active; 'I' for Inactive)
ROOT
ATOM      1  C1  DEN d   1      -2.001   2.595  -3.378  0.00  0.00     0.130 A 
ATOM      2  C2  DEN d   1      -2.936   1.547  -2.974  0.00  0.00    -0.031 A 
ATOM      3  C3  DEN d   1      -2.684   1.234  -1.553  0.00  0.00     0.027 A 
ATOM      4  C4  DEN d   1      -0.950   2.267   0.053  0.00  0.00     0.027 A 
ATOM      5  C5  DEN d   1       0.073   3.183   0.163  0.00  0.00    -0.003 A 
ATOM      6  C6  DEN d   1       0.495   3.936  -0.900  0.00  0.00     0.001 A 
ATOM      7  C7  DEN d   1      -0.138   3.820  -2.109  0.00  0.00     0.017 A 
ATOM      8  C8  DEN d   1      -1.166   2.893  -2.229  0.00  0.00    -0.094 A 
ATOM      9  C9  DEN d   1      -1.586   2.150  -1.140  0.00  0.00    -0.072 A 
ENDROOT
TORSDOF 0
ENDMDL
