MODEL 1
REMARK minimizedAffinity 8.90867901
REMARK minimizedRMSD -1
REMARK  0 active torsions:
REMARK  status: ('A' for Active; 'I' for Inactive)
ROOT
ATOM      1  C1  DEN d   1       0.298   2.366  -1.607  0.00  0.00     0.130 A 
ATOM      2  C2  DEN d   1      -0.041   3.686  -2.131  0.00  0.00    -0.031 A 
ATOM      3  C3  DEN d   1      -0.642   4.472  -1.035  0.00  0.00     0.027 A 
ATOM      4  C4  DEN d   1      -1.073   3.780   1.411  0.00  0.00     0.027 A 
ATOM      5  C5  DEN d   1      -0.964   2.753   2.323  0.00  0.00    -0.003 A 
ATOM      6  C6  DEN d   1      -0.462   1.525   1.984  0.00  0.00     0.001 A 
ATOM      7  C7  DEN d   1      -0.008   1.306   0.710  0.00  0.00     0.017 A 
ATOM      8  C8  DEN d   1      -0.122   2.334  -0.217  0.00  0.00    -0.094 A 
ATOM      9  C9  DEN d   1      -0.620   3.572   0.149  0.00  0.00    -0.072 A 
ENDROOT
TORSDOF 0
ENDMDL
