MODEL 1
REMARK minimizedAffinity 24.9949589
REMARK minimizedRMSD -1
REMARK  0 active torsions:
REMARK  status: ('A' for Active; 'I' for Inactive)
ROOT
ATOM      1  C1  DEN d   1      -3.507   5.609   1.888  0.00  0.00     0.130 A 
ATOM      2  C2  DEN d   1      -4.875   6.000   2.215  0.00  0.00    -0.031 A 
ATOM      3  C3  DEN d   1      -5.661   6.000   0.964  0.00  0.00     0.027 A 
ATOM      4  C4  DEN d   1      -4.895   5.430  -1.432  0.00  0.00     0.027 A 
ATOM      5  C5  DEN d   1      -3.821   5.053  -2.208  0.00  0.00    -0.003 A 
ATOM      6  C6  DEN d   1      -2.570   4.870  -1.683  0.00  0.00     0.001 A 
ATOM      7  C7  DEN d   1      -2.371   5.019  -0.336  0.00  0.00     0.017 A 
ATOM      8  C8  DEN d   1      -3.447   5.406   0.452  0.00  0.00    -0.094 A 
ATOM      9  C9  DEN d   1      -4.707   5.575  -0.096  0.00  0.00    -0.072 A 
ENDROOT
TORSDOF 0
ENDMDL
