MODEL 1
REMARK minimizedAffinity 6.47701025
REMARK minimizedRMSD -1
REMARK  0 active torsions:
REMARK  status: ('A' for Active; 'I' for Inactive)
ROOT
ATOM      1  C1  DEN d   1      -5.999  -5.540   2.068  0.00  0.00     0.130 A 
ATOM      2  C2  DEN d   1      -5.944  -5.207   3.489  0.00  0.00    -0.031 A 
ATOM      3  C3  DEN d   1      -5.907  -3.736   3.611  0.00  0.00     0.027 A 
ATOM      4  C4  DEN d   1      -5.933  -1.951   1.749  0.00  0.00     0.027 A 
ATOM      5  C5  DEN d   1      -5.962  -1.751   0.387  0.00  0.00    -0.003 A 
ATOM      6  C6  DEN d   1      -5.971  -2.791  -0.504  0.00  0.00     0.001 A 
ATOM      7  C7  DEN d   1      -5.997  -4.080  -0.042  0.00  0.00     0.017 A 
ATOM      8  C8  DEN d   1      -5.960  -4.290   1.330  0.00  0.00    -0.094 A 
ATOM      9  C9  DEN d   1      -5.963  -3.226   2.215  0.00  0.00    -0.072 A 
ENDROOT
TORSDOF 0
ENDMDL
