MODEL 1
REMARK minimizedAffinity 4.59753656
REMARK minimizedRMSD -1
REMARK  0 active torsions:
REMARK  status: ('A' for Active; 'I' for Inactive)
ROOT
ATOM      1  C1  DEN d   1      -2.197   6.000   0.266  0.00  0.00     0.130 A 
ATOM      2  C2  DEN d   1      -3.513   5.590   0.750  0.00  0.00    -0.031 A 
ATOM      3  C3  DEN d   1      -3.438   4.163   1.124  0.00  0.00     0.027 A 
ATOM      4  C4  DEN d   1      -1.421   2.559   1.007  0.00  0.00     0.027 A 
ATOM      5  C5  DEN d   1      -0.095   2.448   0.653  0.00  0.00    -0.003 A 
ATOM      6  C6  DEN d   1       0.609   3.494   0.119  0.00  0.00     0.001 A 
ATOM      7  C7  DEN d   1       0.001   4.712  -0.036  0.00  0.00     0.017 A 
ATOM      8  C8  DEN d   1      -1.338   4.830   0.311  0.00  0.00    -0.094 A 
ATOM      9  C9  DEN d   1      -2.029   3.764   0.862  0.00  0.00    -0.072 A 
ENDROOT
TORSDOF 0
ENDMDL
