MODEL 1
REMARK minimizedAffinity -2.10808969
REMARK minimizedRMSD -1
REMARK  0 active torsions:
REMARK  status: ('A' for Active; 'I' for Inactive)
ROOT
ATOM      1  C1  DEN d   1      -1.126   2.764  -0.441  0.00  0.00     0.130 A 
ATOM      2  C2  DEN d   1       0.122   3.413  -0.835  0.00  0.00    -0.031 A 
ATOM      3  C3  DEN d   1       0.993   3.485   0.355  0.00  0.00     0.027 A 
ATOM      4  C4  DEN d   1       0.536   2.656   2.754  0.00  0.00     0.027 A 
ATOM      5  C5  DEN d   1      -0.388   2.050   3.575  0.00  0.00    -0.003 A 
ATOM      6  C6  DEN d   1      -1.627   1.673   3.127  0.00  0.00     0.001 A 
ATOM      7  C7  DEN d   1      -1.957   1.858   1.810  0.00  0.00     0.017 A 
ATOM      8  C8  DEN d   1      -1.033   2.475   0.978  0.00  0.00    -0.094 A 
ATOM      9  C9  DEN d   1       0.218   2.838   1.447  0.00  0.00    -0.072 A 
ENDROOT
TORSDOF 0
ENDMDL
