MODEL 1
REMARK minimizedAffinity 16.2692699
REMARK minimizedRMSD -1
REMARK  0 active torsions:
REMARK  status: ('A' for Active; 'I' for Inactive)
ROOT
ATOM      1  C1  DEN d   1       1.465   3.076   2.810  0.00  0.00     0.130 A 
ATOM      2  C2  DEN d   1       0.721   2.098   3.598  0.00  0.00    -0.031 A 
ATOM      3  C3  DEN d   1      -0.313   1.502   2.727  0.00  0.00     0.027 A 
ATOM      4  C4  DEN d   1      -0.827   1.995   0.248  0.00  0.00     0.027 A 
ATOM      5  C5  DEN d   1      -0.470   2.757  -0.842  0.00  0.00    -0.003 A 
ATOM      6  C6  DEN d   1       0.526   3.695  -0.783  0.00  0.00     0.001 A 
ATOM      7  C7  DEN d   1       1.231   3.864   0.380  0.00  0.00     0.017 A 
ATOM      8  C8  DEN d   1       0.872   3.105   1.485  0.00  0.00    -0.094 A 
ATOM      9  C9  DEN d   1      -0.130   2.153   1.402  0.00  0.00    -0.072 A 
ENDROOT
TORSDOF 0
ENDMDL
