MODEL 1
REMARK minimizedAffinity 2.56658721
REMARK minimizedRMSD -1
REMARK  0 active torsions:
REMARK  status: ('A' for Active; 'I' for Inactive)
ROOT
ATOM      1  C1  DEN d   1      -0.195   0.665   2.052  0.00  0.00     0.130 A 
ATOM      2  C2  DEN d   1      -1.223   1.701   2.001  0.00  0.00    -0.031 A 
ATOM      3  C3  DEN d   1      -2.434   1.176   2.663  0.00  0.00     0.027 A 
ATOM      4  C4  DEN d   1      -2.814  -1.126   3.762  0.00  0.00     0.027 A 
ATOM      5  C5  DEN d   1      -2.237  -2.345   4.043  0.00  0.00    -0.003 A 
ATOM      6  C6  DEN d   1      -0.961  -2.656   3.653  0.00  0.00     0.001 A 
ATOM      7  C7  DEN d   1      -0.204  -1.720   2.999  0.00  0.00     0.017 A 
ATOM      8  C8  DEN d   1      -0.781  -0.491   2.706  0.00  0.00    -0.094 A 
ATOM      9  C9  DEN d   1      -2.068  -0.191   3.120  0.00  0.00    -0.072 A 
ENDROOT
TORSDOF 0
ENDMDL
