MODEL 1
REMARK minimizedAffinity 19.9887447
REMARK minimizedRMSD -1
REMARK  0 active torsions:
REMARK  status: ('A' for Active; 'I' for Inactive)
ROOT
ATOM      1  C1  DEN d   1      -0.227   3.373  -3.228  0.00  0.00     0.130 A 
ATOM      2  C2  DEN d   1      -1.130   4.039  -4.163  0.00  0.00    -0.031 A 
ATOM      3  C3  DEN d   1      -1.895   5.056  -3.413  0.00  0.00     0.027 A 
ATOM      4  C4  DEN d   1      -1.765   5.664  -0.909  0.00  0.00     0.027 A 
ATOM      5  C5  DEN d   1      -1.154   5.363   0.288  0.00  0.00    -0.003 A 
ATOM      6  C6  DEN d   1      -0.225   4.364   0.404  0.00  0.00     0.001 A 
ATOM      7  C7  DEN d   1       0.155   3.659  -0.707  0.00  0.00     0.017 A 
ATOM      8  C8  DEN d   1      -0.461   3.951  -1.917  0.00  0.00    -0.094 A 
ATOM      9  C9  DEN d   1      -1.390   4.973  -2.016  0.00  0.00    -0.072 A 
ENDROOT
TORSDOF 0
ENDMDL
