MODEL 1
REMARK minimizedAffinity 5.8803916
REMARK minimizedRMSD -1
REMARK  0 active torsions:
REMARK  status: ('A' for Active; 'I' for Inactive)
ROOT
ATOM      1  C1  DEN d   1      -0.010   1.787   1.539  0.00  0.00     0.130 A 
ATOM      2  C2  DEN d   1      -1.251   2.532   1.349  0.00  0.00    -0.031 A 
ATOM      3  C3  DEN d   1      -2.351   1.746   1.943  0.00  0.00     0.027 A 
ATOM      4  C4  DEN d   1      -2.252  -0.539   3.137  0.00  0.00     0.027 A 
ATOM      5  C5  DEN d   1      -1.422  -1.565   3.529  0.00  0.00    -0.003 A 
ATOM      6  C6  DEN d   1      -0.079  -1.562   3.258  0.00  0.00     0.001 A 
ATOM      7  C7  DEN d   1       0.481  -0.491   2.615  0.00  0.00     0.017 A 
ATOM      8  C8  DEN d   1      -0.351   0.545   2.209  0.00  0.00    -0.094 A 
ATOM      9  C9  DEN d   1      -1.704   0.529   2.503  0.00  0.00    -0.072 A 
ENDROOT
TORSDOF 0
ENDMDL
