MODEL 1
REMARK minimizedAffinity -0.178951427
REMARK minimizedRMSD -1
REMARK  0 active torsions:
REMARK  status: ('A' for Active; 'I' for Inactive)
ROOT
ATOM      1  C1  DEN d   1       0.460   4.388  -0.992  0.00  0.00     0.130 A 
ATOM      2  C2  DEN d   1      -0.182   3.715  -2.118  0.00  0.00    -0.031 A 
ATOM      3  C3  DEN d   1      -0.845   2.499  -1.604  0.00  0.00     0.027 A 
ATOM      4  C4  DEN d   1      -0.944   1.602   0.812  0.00  0.00     0.027 A 
ATOM      5  C5  DEN d   1      -0.538   1.824   2.109  0.00  0.00    -0.003 A 
ATOM      6  C6  DEN d   1       0.250   2.890   2.455  0.00  0.00     0.001 A 
ATOM      7  C7  DEN d   1       0.621   3.798   1.500  0.00  0.00     0.017 A 
ATOM      8  C8  DEN d   1       0.222   3.577   0.188  0.00  0.00    -0.094 A 
ATOM      9  C9  DEN d   1      -0.585   2.501  -0.139  0.00  0.00    -0.072 A 
ENDROOT
TORSDOF 0
ENDMDL
