MODEL 1
REMARK minimizedAffinity -1.35566759
REMARK minimizedRMSD -1
REMARK  0 active torsions:
REMARK  status: ('A' for Active; 'I' for Inactive)
ROOT
ATOM      1  C1  DEN d   1       0.295   3.878   0.959  0.00  0.00     0.130 A 
ATOM      2  C2  DEN d   1       0.246   3.512  -0.454  0.00  0.00    -0.031 A 
ATOM      3  C3  DEN d   1      -0.362   2.171  -0.557  0.00  0.00     0.027 A 
ATOM      4  C4  DEN d   1      -1.231   0.633   1.322  0.00  0.00     0.027 A 
ATOM      5  C5  DEN d   1      -1.392   0.506   2.684  0.00  0.00    -0.003 A 
ATOM      6  C6  DEN d   1      -0.974   1.471   3.562  0.00  0.00     0.001 A 
ATOM      7  C7  DEN d   1      -0.415   2.627   3.084  0.00  0.00     0.017 A 
ATOM      8  C8  DEN d   1      -0.243   2.759   1.713  0.00  0.00    -0.094 A 
ATOM      9  C9  DEN d   1      -0.684   1.778   0.841  0.00  0.00    -0.072 A 
ENDROOT
TORSDOF 0
ENDMDL
