MODEL 1
REMARK minimizedAffinity 4.14572334
REMARK minimizedRMSD -1
REMARK  0 active torsions:
REMARK  status: ('A' for Active; 'I' for Inactive)
ROOT
ATOM      1  C1  DEN d   1      -2.719   0.774   2.550  0.00  0.00     0.130 A 
ATOM      2  C2  DEN d   1      -1.598   1.506   1.964  0.00  0.00    -0.031 A 
ATOM      3  C3  DEN d   1      -0.350   0.824   2.363  0.00  0.00     0.027 A 
ATOM      4  C4  DEN d   1      -0.045  -1.283   3.819  0.00  0.00     0.027 A 
ATOM      5  C5  DEN d   1      -0.704  -2.246   4.551  0.00  0.00    -0.003 A 
ATOM      6  C6  DEN d   1      -2.066  -2.250   4.695  0.00  0.00     0.001 A 
ATOM      7  C7  DEN d   1      -2.818  -1.297   4.060  0.00  0.00     0.017 A 
ATOM      8  C8  DEN d   1      -2.161  -0.319   3.326  0.00  0.00    -0.094 A 
ATOM      9  C9  DEN d   1      -0.784  -0.339   3.182  0.00  0.00    -0.072 A 
ENDROOT
TORSDOF 0
ENDMDL
