MODEL 1
REMARK minimizedAffinity -0.496798575
REMARK minimizedRMSD -1
REMARK  0 active torsions:
REMARK  status: ('A' for Active; 'I' for Inactive)
ROOT
ATOM      1  C1  DEN d   1      -1.356   1.771   0.792  0.00  0.00     0.130 A 
ATOM      2  C2  DEN d   1      -1.441   1.581   2.237  0.00  0.00    -0.031 A 
ATOM      3  C3  DEN d   1      -0.496   2.518   2.877  0.00  0.00     0.027 A 
ATOM      4  C4  DEN d   1       1.079   4.238   1.776  0.00  0.00     0.027 A 
ATOM      5  C5  DEN d   1       1.513   4.756   0.575  0.00  0.00    -0.003 A 
ATOM      6  C6  DEN d   1       1.049   4.296  -0.628  0.00  0.00     0.001 A 
ATOM      7  C7  DEN d   1       0.090   3.318  -0.657  0.00  0.00     0.017 A 
ATOM      8  C8  DEN d   1      -0.346   2.786   0.549  0.00  0.00    -0.094 A 
ATOM      9  C9  DEN d   1       0.126   3.273   1.756  0.00  0.00    -0.072 A 
ENDROOT
TORSDOF 0
ENDMDL
