MODEL 1
REMARK minimizedAffinity 4.22733021
REMARK minimizedRMSD -1
REMARK  1 active torsions:
REMARK  status: ('A' for Active; 'I' for Inactive)
REMARK    1  A    between atoms: C3_4  and  O_7 
ROOT
ATOM      1  C   UNL d   1      -2.372   1.338   2.510  0.00  0.00    -0.033 A 
ATOM      2  C1  UNL d   1      -1.167   0.967   1.910  0.00  0.00     0.039 A 
ATOM      3  C2  UNL d   1       0.043   1.218   2.559  0.00  0.00    -0.080 A 
ATOM      4  C3  UNL d   1       0.035   1.837   3.805  0.00  0.00     0.150 A 
ATOM      5  C4  UNL d   1      -1.162   2.205   4.410  0.00  0.00    -0.007 A 
ATOM      6  C5  UNL d   1      -2.370   1.956   3.761  0.00  0.00     0.039 A 
ENDROOT
BRANCH   4   7
ATOM      7  O   UNL d   1       1.192   2.106   4.475  0.00  0.00    -0.526 OA
ATOM      8  H5  UNL d   1       1.940   1.823   3.923  0.00  0.00     0.418 HD
ENDBRANCH   4   7
TORSDOF 1
ENDMDL
