MODEL 1
REMARK minimizedAffinity 3.25004792
REMARK minimizedRMSD -1
REMARK  1 active torsions:
REMARK  status: ('A' for Active; 'I' for Inactive)
REMARK    1  A    between atoms: C3_4  and  O_7 
ROOT
ATOM      1  C   UNL d   1       0.580  -0.071   1.238  0.00  0.00    -0.033 A 
ATOM      2  C1  UNL d   1       1.188   0.581   2.313  0.00  0.00     0.039 A 
ATOM      3  C2  UNL d   1       0.513   1.602   2.985  0.00  0.00    -0.080 A 
ATOM      4  C3  UNL d   1      -0.768   1.961   2.573  0.00  0.00     0.150 A 
ATOM      5  C4  UNL d   1      -1.381   1.313   1.506  0.00  0.00    -0.007 A 
ATOM      6  C5  UNL d   1      -0.705   0.295   0.836  0.00  0.00     0.039 A 
ENDROOT
BRANCH   4   7
ATOM      7  O   UNL d   1      -1.464   2.955   3.195  0.00  0.00    -0.526 OA
ATOM      8  H5  UNL d   1      -0.904   3.331   3.895  0.00  0.00     0.418 HD
ENDBRANCH   4   7
TORSDOF 1
ENDMDL
