MODEL 1
REMARK minimizedAffinity 1.19443512
REMARK minimizedRMSD -1
REMARK  1 active torsions:
REMARK  status: ('A' for Active; 'I' for Inactive)
REMARK    1  A    between atoms: C3_4  and  O_7 
ROOT
ATOM      1  C   UNL d   1      -3.869  -1.505   5.994  0.00  0.00    -0.033 A 
ATOM      2  C1  UNL d   1      -5.261  -1.391   5.989  0.00  0.00     0.039 A 
ATOM      3  C2  UNL d   1      -5.860  -0.130   5.988  0.00  0.00    -0.080 A 
ATOM      4  C3  UNL d   1      -5.057   1.007   5.990  0.00  0.00     0.150 A 
ATOM      5  C4  UNL d   1      -3.670   0.901   5.992  0.00  0.00    -0.007 A 
ATOM      6  C5  UNL d   1      -3.074  -0.359   5.994  0.00  0.00     0.039 A 
ENDROOT
BRANCH   4   7
ATOM      7  O   UNL d   1      -5.596   2.260   5.994  0.00  0.00    -0.526 OA
ATOM      8  H5  UNL d   1      -6.564   2.178   6.022  0.00  0.00     0.418 HD
ENDBRANCH   4   7
TORSDOF 1
ENDMDL
