MODEL 1
REMARK minimizedAffinity 1.29751635
REMARK minimizedRMSD -1
REMARK  1 active torsions:
REMARK  status: ('A' for Active; 'I' for Inactive)
REMARK    1  A    between atoms: C3_4  and  O_7 
ROOT
ATOM      1  C   UNL d   1       0.645   1.444   2.703  0.00  0.00    -0.033 A 
ATOM      2  C1  UNL d   1      -0.084   2.588   3.034  0.00  0.00     0.039 A 
ATOM      3  C2  UNL d   1      -1.385   2.751   2.555  0.00  0.00    -0.080 A 
ATOM      4  C3  UNL d   1      -1.945   1.764   1.749  0.00  0.00     0.150 A 
ATOM      5  C4  UNL d   1      -1.226   0.620   1.419  0.00  0.00    -0.007 A 
ATOM      6  C5  UNL d   1       0.074   0.459   1.897  0.00  0.00     0.039 A 
ENDROOT
BRANCH   4   7
ATOM      7  O   UNL d   1      -3.210   1.881   1.254  0.00  0.00    -0.526 OA
ATOM      8  H5  UNL d   1      -3.575   2.735   1.541  0.00  0.00     0.418 HD
ENDBRANCH   4   7
TORSDOF 1
ENDMDL
