MODEL 1
REMARK minimizedAffinity 2.32886434
REMARK minimizedRMSD -1
REMARK  1 active torsions:
REMARK  status: ('A' for Active; 'I' for Inactive)
REMARK    1  A    between atoms: C3_4  and  O_7 
ROOT
ATOM      1  C   UNL d   1       0.804   0.154   2.155  0.00  0.00    -0.033 A 
ATOM      2  C1  UNL d   1      -0.408   0.096   1.464  0.00  0.00     0.039 A 
ATOM      3  C2  UNL d   1      -1.434   0.991   1.773  0.00  0.00    -0.080 A 
ATOM      4  C3  UNL d   1      -1.235   1.939   2.773  0.00  0.00     0.150 A 
ATOM      5  C4  UNL d   1      -0.029   2.005   3.463  0.00  0.00    -0.007 A 
ATOM      6  C5  UNL d   1       0.994   1.110   3.154  0.00  0.00     0.039 A 
ENDROOT
BRANCH   4   7
ATOM      7  O   UNL d   1      -2.209   2.830   3.114  0.00  0.00    -0.526 OA
ATOM      8  H5  UNL d   1      -2.996   2.647   2.574  0.00  0.00     0.418 HD
ENDBRANCH   4   7
TORSDOF 1
ENDMDL
