MODEL 1
REMARK minimizedAffinity 1.75256884
REMARK minimizedRMSD -1
REMARK  1 active torsions:
REMARK  status: ('A' for Active; 'I' for Inactive)
REMARK    1  A    between atoms: C3_4  and  O_7 
ROOT
ATOM      1  C   UNL d   1       0.467   1.343   3.454  0.00  0.00    -0.033 A 
ATOM      2  C1  UNL d   1      -0.727   2.062   3.372  0.00  0.00     0.039 A 
ATOM      3  C2  UNL d   1      -1.608   1.837   2.312  0.00  0.00    -0.080 A 
ATOM      4  C3  UNL d   1      -1.284   0.892   1.343  0.00  0.00     0.150 A 
ATOM      5  C4  UNL d   1      -0.098   0.169   1.420  0.00  0.00    -0.007 A 
ATOM      6  C5  UNL d   1       0.781   0.395   2.479  0.00  0.00     0.039 A 
ENDROOT
BRANCH   4   7
ATOM      7  O   UNL d   1      -2.110   0.642   0.288  0.00  0.00    -0.526 OA
ATOM      8  H5  UNL d   1      -2.877   1.235   0.350  0.00  0.00     0.418 HD
ENDBRANCH   4   7
TORSDOF 1
ENDMDL
