MODEL 1
REMARK minimizedAffinity 1.96996081
REMARK minimizedRMSD -1
REMARK  1 active torsions:
REMARK  status: ('A' for Active; 'I' for Inactive)
REMARK    1  A    between atoms: C3_4  and  O_7 
ROOT
ATOM      1  C   UNL d   1       1.044   2.140   2.923  0.00  0.00    -0.033 A 
ATOM      2  C1  UNL d   1       0.067   3.044   3.343  0.00  0.00     0.039 A 
ATOM      3  C2  UNL d   1      -1.281   2.793   3.077  0.00  0.00    -0.080 A 
ATOM      4  C3  UNL d   1      -1.637   1.635   2.392  0.00  0.00     0.150 A 
ATOM      5  C4  UNL d   1      -0.669   0.727   1.973  0.00  0.00    -0.007 A 
ATOM      6  C5  UNL d   1       0.676   0.981   2.239  0.00  0.00     0.039 A 
ENDROOT
BRANCH   4   7
ATOM      7  O   UNL d   1      -2.939   1.348   2.105  0.00  0.00    -0.526 OA
ATOM      8  H5  UNL d   1      -3.493   2.078   2.429  0.00  0.00     0.418 HD
ENDBRANCH   4   7
TORSDOF 1
ENDMDL
