MODEL 1
REMARK minimizedAffinity -0.0778297186
REMARK minimizedRMSD -1
REMARK  1 active torsions:
REMARK  status: ('A' for Active; 'I' for Inactive)
REMARK    1  A    between atoms: C3_4  and  O_7 
ROOT
ATOM      1  C   UNL d   1       3.547   0.416  -3.906  0.00  0.00    -0.033 A 
ATOM      2  C1  UNL d   1       3.527  -0.866  -3.355  0.00  0.00     0.039 A 
ATOM      3  C2  UNL d   1       2.848  -1.898  -4.007  0.00  0.00    -0.080 A 
ATOM      4  C3  UNL d   1       2.195  -1.634  -5.208  0.00  0.00     0.150 A 
ATOM      5  C4  UNL d   1       2.214  -0.359  -5.764  0.00  0.00    -0.007 A 
ATOM      6  C5  UNL d   1       2.892   0.670  -5.111  0.00  0.00     0.039 A 
ENDROOT
BRANCH   4   7
ATOM      7  O   UNL d   1       1.515  -2.607  -5.878  0.00  0.00    -0.526 OA
ATOM      8  H5  UNL d   1       1.564  -3.428  -5.361  0.00  0.00     0.418 HD
ENDBRANCH   4   7
TORSDOF 1
ENDMDL
