MODEL 1
REMARK minimizedAffinity 1.04804933
REMARK minimizedRMSD -1
REMARK  1 active torsions:
REMARK  status: ('A' for Active; 'I' for Inactive)
REMARK    1  A    between atoms: C3_4  and  O_7 
ROOT
ATOM      1  C   UNL d   1      -2.716   1.487   1.519  0.00  0.00    -0.033 A 
ATOM      2  C1  UNL d   1      -2.053   0.657   0.613  0.00  0.00     0.039 A 
ATOM      3  C2  UNL d   1      -0.750   0.230   0.879  0.00  0.00    -0.080 A 
ATOM      4  C3  UNL d   1      -0.124   0.639   2.054  0.00  0.00     0.150 A 
ATOM      5  C4  UNL d   1      -0.781   1.462   2.962  0.00  0.00    -0.007 A 
ATOM      6  C5  UNL d   1      -2.081   1.888   2.694  0.00  0.00     0.039 A 
ENDROOT
BRANCH   4   7
ATOM      7  O   UNL d   1       1.148   0.252   2.355  0.00  0.00    -0.526 OA
ATOM      8  H5  UNL d   1       1.486  -0.291   1.622  0.00  0.00     0.418 HD
ENDBRANCH   4   7
TORSDOF 1
ENDMDL
