MODEL 1
REMARK minimizedAffinity 1.83192611
REMARK minimizedRMSD -1
REMARK  1 active torsions:
REMARK  status: ('A' for Active; 'I' for Inactive)
REMARK    1  A    between atoms: C3_4  and  O_7 
ROOT
ATOM      1  C   UNL d   1      -3.602   1.149   2.767  0.00  0.00    -0.033 A 
ATOM      2  C1  UNL d   1      -2.843   1.658   1.712  0.00  0.00     0.039 A 
ATOM      3  C2  UNL d   1      -1.554   1.173   1.480  0.00  0.00    -0.080 A 
ATOM      4  C3  UNL d   1      -1.038   0.181   2.309  0.00  0.00     0.150 A 
ATOM      5  C4  UNL d   1      -1.791  -0.333   3.359  0.00  0.00    -0.007 A 
ATOM      6  C5  UNL d   1      -3.077   0.153   3.590  0.00  0.00     0.039 A 
ENDROOT
BRANCH   4   7
ATOM      7  O   UNL d   1       0.217  -0.320   2.125  0.00  0.00    -0.526 OA
ATOM      8  H5  UNL d   1       0.629   0.149   1.380  0.00  0.00     0.418 HD
ENDBRANCH   4   7
TORSDOF 1
ENDMDL
