MODEL 1
REMARK minimizedAffinity 2.82841802
REMARK minimizedRMSD -1
REMARK  1 active torsions:
REMARK  status: ('A' for Active; 'I' for Inactive)
REMARK    1  A    between atoms: C3_4  and  O_7 
ROOT
ATOM      1  C   UNL d   1       2.758   1.303  -4.835  0.00  0.00    -0.033 A 
ATOM      2  C1  UNL d   1       3.662   0.926  -3.840  0.00  0.00     0.039 A 
ATOM      3  C2  UNL d   1       3.698  -0.395  -3.391  0.00  0.00    -0.080 A 
ATOM      4  C3  UNL d   1       2.826  -1.329  -3.944  0.00  0.00     0.150 A 
ATOM      5  C4  UNL d   1       1.926  -0.962  -4.939  0.00  0.00    -0.007 A 
ATOM      6  C5  UNL d   1       1.891   0.359  -5.385  0.00  0.00     0.039 A 
ENDROOT
BRANCH   4   7
ATOM      7  O   UNL d   1       2.821  -2.629  -3.535  0.00  0.00    -0.526 OA
ATOM      8  H5  UNL d   1       3.475  -2.731  -2.823  0.00  0.00     0.418 HD
ENDBRANCH   4   7
TORSDOF 1
ENDMDL
