MODEL 1
REMARK minimizedAffinity 3.87435603
REMARK minimizedRMSD -1
REMARK  1 active torsions:
REMARK  status: ('A' for Active; 'I' for Inactive)
REMARK    1  A    between atoms: C3_4  and  O_7 
ROOT
ATOM      1  C   UNL d   1       4.515  -0.445  -2.598  0.00  0.00    -0.033 A 
ATOM      2  C1  UNL d   1       5.345  -1.260  -3.370  0.00  0.00     0.039 A 
ATOM      3  C2  UNL d   1       4.849  -1.876  -4.520  0.00  0.00    -0.080 A 
ATOM      4  C3  UNL d   1       3.522  -1.668  -4.888  0.00  0.00     0.150 A 
ATOM      5  C4  UNL d   1       2.690  -0.854  -4.126  0.00  0.00    -0.007 A 
ATOM      6  C5  UNL d   1       3.188  -0.241  -2.977  0.00  0.00     0.039 A 
ENDROOT
BRANCH   4   7
ATOM      7  O   UNL d   1       2.991  -2.252  -6.000  0.00  0.00    -0.526 OA
ATOM      8  H5  UNL d   1       3.673  -2.809  -6.411  0.00  0.00     0.418 HD
ENDBRANCH   4   7
TORSDOF 1
ENDMDL
