MODEL 1
REMARK minimizedAffinity -0.0742233396
REMARK minimizedRMSD -1
REMARK  1 active torsions:
REMARK  status: ('A' for Active; 'I' for Inactive)
REMARK    1  A    between atoms: C3_4  and  O_7 
ROOT
ATOM      1  C   UNL d   1      -2.910   0.949   0.802  0.00  0.00    -0.033 A 
ATOM      2  C1  UNL d   1      -1.754   0.320   0.336  0.00  0.00     0.039 A 
ATOM      3  C2  UNL d   1      -0.580   0.366   1.090  0.00  0.00    -0.080 A 
ATOM      4  C3  UNL d   1      -0.575   1.042   2.307  0.00  0.00     0.150 A 
ATOM      5  C4  UNL d   1      -1.725   1.667   2.779  0.00  0.00    -0.007 A 
ATOM      6  C5  UNL d   1      -2.896   1.621   2.024  0.00  0.00     0.039 A 
ENDROOT
BRANCH   4   7
ATOM      7  O   UNL d   1       0.548   1.117   3.076  0.00  0.00    -0.526 OA
ATOM      8  H5  UNL d   1       1.271   0.665   2.611  0.00  0.00     0.418 HD
ENDBRANCH   4   7
TORSDOF 1
ENDMDL
