MODEL 1
REMARK minimizedAffinity 3.75228024
REMARK minimizedRMSD -1
REMARK  1 active torsions:
REMARK  status: ('A' for Active; 'I' for Inactive)
REMARK    1  A    between atoms: C3_4  and  O_7 
ROOT
ATOM      1  C   UNL d   1      -6.000  -1.243   3.835  0.00  0.00    -0.033 A 
ATOM      2  C1  UNL d   1      -5.871  -1.308   5.224  0.00  0.00     0.039 A 
ATOM      3  C2  UNL d   1      -5.737  -0.135   5.969  0.00  0.00    -0.080 A 
ATOM      4  C3  UNL d   1      -5.735   1.094   5.315  0.00  0.00     0.150 A 
ATOM      5  C4  UNL d   1      -5.867   1.166   3.932  0.00  0.00    -0.007 A 
ATOM      6  C5  UNL d   1      -5.999  -0.007   3.189  0.00  0.00     0.039 A 
ENDROOT
BRANCH   4   7
ATOM      7  O   UNL d   1      -5.603   2.266   6.000  0.00  0.00    -0.526 OA
ATOM      8  H5  UNL d   1      -5.492   2.060   6.943  0.00  0.00     0.418 HD
ENDBRANCH   4   7
TORSDOF 1
ENDMDL
