MODEL 1
REMARK minimizedAffinity 4.22901583
REMARK minimizedRMSD -1
REMARK  1 active torsions:
REMARK  status: ('A' for Active; 'I' for Inactive)
REMARK    1  A    between atoms: C3_4  and  O_7 
ROOT
ATOM      1  C   UNL d   1       0.471  -0.193   1.598  0.00  0.00    -0.033 A 
ATOM      2  C1  UNL d   1      -0.650  -0.323   0.775  0.00  0.00     0.039 A 
ATOM      3  C2  UNL d   1      -1.815   0.389   1.063  0.00  0.00    -0.080 A 
ATOM      4  C3  UNL d   1      -1.847   1.228   2.173  0.00  0.00     0.150 A 
ATOM      5  C4  UNL d   1      -0.733   1.366   2.995  0.00  0.00    -0.007 A 
ATOM      6  C5  UNL d   1       0.430   0.653   2.707  0.00  0.00     0.039 A 
ENDROOT
BRANCH   4   7
ATOM      7  O   UNL d   1      -2.963   1.941   2.497  0.00  0.00    -0.526 OA
ATOM      8  H5  UNL d   1      -3.662   1.724   1.858  0.00  0.00     0.418 HD
ENDBRANCH   4   7
TORSDOF 1
ENDMDL
