MODEL 1
REMARK minimizedAffinity 3.15836
REMARK minimizedRMSD -1
REMARK  2 active torsions:
REMARK  status: ('A' for Active; 'I' for Inactive)
REMARK    1  A    between atoms: C1_2  and  C2_3 
REMARK    2  A    between atoms: C2_3  and  C3_4 
ROOT
ATOM      1  C3  UNL d   1       2.915   3.670  -4.681  0.00  0.00    -0.075 A 
ATOM      2  C4  UNL d   1       3.850   4.602  -5.153  0.00  0.00     0.002 A 
ATOM      3  C5  UNL d   1       3.428   5.762  -5.804  0.00  0.00     0.002 A 
ATOM      4  C6  UNL d   1       2.069   5.999  -5.998  0.00  0.00    -0.004 A 
ATOM      5  C7  UNL d   1       1.132   5.072  -5.548  0.00  0.00     0.002 A 
ATOM      6  C8  UNL d   1       1.551   3.912  -4.893  0.00  0.00     0.002 A 
ENDROOT
BRANCH   1   7
ATOM      7  C2  UNL d   1       3.364   2.427  -3.950  0.00  0.00     0.056 C 
BRANCH   7   8
ATOM      8  C1  UNL d   1       4.277   1.514  -4.776  0.00  0.00     0.007 C 
ATOM      9  C   UNL d   1       3.615   0.201  -5.172  0.00  0.00     0.009 C 
ENDBRANCH   7   8
ENDBRANCH   1   7
TORSDOF 2
ENDMDL
