MODEL 1
REMARK minimizedAffinity 10.1944771
REMARK minimizedRMSD -1
REMARK  2 active torsions:
REMARK  status: ('A' for Active; 'I' for Inactive)
REMARK    1  A    between atoms: C1_2  and  C2_3 
REMARK    2  A    between atoms: C2_3  and  C3_4 
ROOT
ATOM      1  C3  UNL d   1      -0.807  -1.300   1.652  0.00  0.00    -0.075 A 
ATOM      2  C4  UNL d   1      -1.732  -0.704   0.784  0.00  0.00     0.002 A 
ATOM      3  C5  UNL d   1      -2.608  -1.490   0.034  0.00  0.00     0.002 A 
ATOM      4  C6  UNL d   1      -2.563  -2.878   0.135  0.00  0.00    -0.004 A 
ATOM      5  C7  UNL d   1      -1.636  -3.482   0.982  0.00  0.00     0.002 A 
ATOM      6  C8  UNL d   1      -0.762  -2.698   1.736  0.00  0.00     0.002 A 
ENDROOT
BRANCH   1   7
ATOM      7  C2  UNL d   1       0.124  -0.455   2.488  0.00  0.00     0.056 C 
BRANCH   7   8
ATOM      8  C1  UNL d   1       0.529   0.867   1.828  0.00  0.00     0.007 C 
ATOM      9  C   UNL d   1       1.987   0.898   1.390  0.00  0.00     0.009 C 
ENDBRANCH   7   8
ENDBRANCH   1   7
TORSDOF 2
ENDMDL
