MODEL 1
REMARK minimizedAffinity 4.56309271
REMARK minimizedRMSD -1
REMARK  2 active torsions:
REMARK  status: ('A' for Active; 'I' for Inactive)
REMARK    1  A    between atoms: C1_2  and  C2_3 
REMARK    2  A    between atoms: C2_3  and  C3_4 
ROOT
ATOM      1  C3  UNL d   1      -5.651   0.807   4.543  0.00  0.00    -0.075 A 
ATOM      2  C4  UNL d   1      -5.957   1.654   5.618  0.00  0.00     0.002 A 
ATOM      3  C5  UNL d   1      -5.675   3.018   5.548  0.00  0.00     0.002 A 
ATOM      4  C6  UNL d   1      -5.075   3.551   4.410  0.00  0.00    -0.004 A 
ATOM      5  C7  UNL d   1      -4.751   2.716   3.342  0.00  0.00     0.002 A 
ATOM      6  C8  UNL d   1      -5.036   1.352   3.407  0.00  0.00     0.002 A 
ENDROOT
BRANCH   1   7
ATOM      7  C2  UNL d   1      -5.981  -0.665   4.600  0.00  0.00     0.056 C 
BRANCH   7   8
ATOM      8  C1  UNL d   1      -5.832  -1.284   5.994  0.00  0.00     0.007 C 
ATOM      9  C   UNL d   1      -5.997  -2.798   6.000  0.00  0.00     0.009 C 
ENDBRANCH   7   8
ENDBRANCH   1   7
TORSDOF 2
ENDMDL
