MODEL 1
REMARK minimizedAffinity 13.5301914
REMARK minimizedRMSD -1
REMARK  2 active torsions:
REMARK  status: ('A' for Active; 'I' for Inactive)
REMARK    1  A    between atoms: C1_2  and  C2_3 
REMARK    2  A    between atoms: C2_3  and  C3_4 
ROOT
ATOM      1  C3  UNL d   1       3.472   1.795  -0.804  0.00  0.00    -0.075 A 
ATOM      2  C4  UNL d   1       2.310   2.153  -0.106  0.00  0.00     0.002 A 
ATOM      3  C5  UNL d   1       1.950   1.481   1.062  0.00  0.00     0.002 A 
ATOM      4  C6  UNL d   1       2.739   0.437   1.540  0.00  0.00    -0.004 A 
ATOM      5  C7  UNL d   1       3.887   0.062   0.845  0.00  0.00     0.002 A 
ATOM      6  C8  UNL d   1       4.252   0.736  -0.321  0.00  0.00     0.002 A 
ENDROOT
BRANCH   1   7
ATOM      7  C2  UNL d   1       3.883   2.538  -2.053  0.00  0.00     0.056 C 
BRANCH   7   8
ATOM      8  C1  UNL d   1       2.911   2.372  -3.226  0.00  0.00     0.007 C 
ATOM      9  C   UNL d   1       2.446   3.698  -3.812  0.00  0.00     0.009 C 
ENDBRANCH   7   8
ENDBRANCH   1   7
TORSDOF 2
ENDMDL
