MODEL 1
REMARK minimizedAffinity 16.0068417
REMARK minimizedRMSD -1
REMARK  2 active torsions:
REMARK  status: ('A' for Active; 'I' for Inactive)
REMARK    1  A    between atoms: C1_2  and  C2_3 
REMARK    2  A    between atoms: C2_3  and  C3_4 
ROOT
ATOM      1  C3  UNL d   1      -3.935  -4.970  -1.732  0.00  0.00    -0.075 A 
ATOM      2  C4  UNL d   1      -2.980  -3.968  -1.960  0.00  0.00     0.002 A 
ATOM      3  C5  UNL d   1      -3.188  -3.003  -2.945  0.00  0.00     0.002 A 
ATOM      4  C6  UNL d   1      -4.346  -3.032  -3.720  0.00  0.00    -0.004 A 
ATOM      5  C7  UNL d   1      -5.293  -4.032  -3.513  0.00  0.00     0.002 A 
ATOM      6  C8  UNL d   1      -5.089  -4.997  -2.525  0.00  0.00     0.002 A 
ENDROOT
BRANCH   1   7
ATOM      7  C2  UNL d   1      -3.729  -6.000  -0.647  0.00  0.00     0.056 C 
BRANCH   7   8
ATOM      8  C1  UNL d   1      -4.121  -5.518   0.754  0.00  0.00     0.007 C 
ATOM      9  C   UNL d   1      -3.162  -5.986   1.840  0.00  0.00     0.009 C 
ENDBRANCH   7   8
ENDBRANCH   1   7
TORSDOF 2
ENDMDL
