MODEL 1
REMARK minimizedAffinity 13.5742493
REMARK minimizedRMSD -1
REMARK  2 active torsions:
REMARK  status: ('A' for Active; 'I' for Inactive)
REMARK    1  A    between atoms: C1_2  and  C2_3 
REMARK    2  A    between atoms: C2_3  and  C3_4 
ROOT
ATOM      1  C3  UNL d   1      -2.774  -4.715   1.469  0.00  0.00    -0.075 A 
ATOM      2  C4  UNL d   1      -3.366  -3.579   0.898  0.00  0.00     0.002 A 
ATOM      3  C5  UNL d   1      -2.632  -2.403   0.739  0.00  0.00     0.002 A 
ATOM      4  C6  UNL d   1      -1.305  -2.344   1.157  0.00  0.00    -0.004 A 
ATOM      5  C7  UNL d   1      -0.712  -3.461   1.742  0.00  0.00     0.002 A 
ATOM      6  C8  UNL d   1      -1.442  -4.641   1.898  0.00  0.00     0.002 A 
ENDROOT
BRANCH   1   7
ATOM      7  C2  UNL d   1      -3.554  -6.000   1.617  0.00  0.00     0.056 C 
BRANCH   7   8
ATOM      8  C1  UNL d   1      -5.003  -5.910   1.128  0.00  0.00     0.007 C 
ATOM      9  C   UNL d   1      -6.000  -5.647   2.250  0.00  0.00     0.009 C 
ENDBRANCH   7   8
ENDBRANCH   1   7
TORSDOF 2
ENDMDL
