MODEL 1
REMARK minimizedAffinity 21.6961708
REMARK minimizedRMSD -1
REMARK  2 active torsions:
REMARK  status: ('A' for Active; 'I' for Inactive)
REMARK    1  A    between atoms: C1_2  and  C2_3 
REMARK    2  A    between atoms: C2_3  and  C3_4 
ROOT
ATOM      1  C3  UNL d   1      -2.702  -4.212  -3.101  0.00  0.00    -0.075 A 
ATOM      2  C4  UNL d   1      -3.454  -5.255  -2.541  0.00  0.00     0.002 A 
ATOM      3  C5  UNL d   1      -4.844  -5.161  -2.460  0.00  0.00     0.002 A 
ATOM      4  C6  UNL d   1      -5.497  -4.022  -2.927  0.00  0.00    -0.004 A 
ATOM      5  C7  UNL d   1      -4.757  -2.974  -3.470  0.00  0.00     0.002 A 
ATOM      6  C8  UNL d   1      -3.367  -3.067  -3.557  0.00  0.00     0.002 A 
ENDROOT
BRANCH   1   7
ATOM      7  C2  UNL d   1      -1.200  -4.320  -3.219  0.00  0.00     0.056 C 
BRANCH   7   8
ATOM      8  C1  UNL d   1      -0.712  -4.750  -4.606  0.00  0.00     0.007 C 
ATOM      9  C   UNL d   1       0.390  -5.799  -4.557  0.00  0.00     0.009 C 
ENDBRANCH   7   8
ENDBRANCH   1   7
TORSDOF 2
ENDMDL
