MODEL 1
REMARK minimizedAffinity 10.9960203
REMARK minimizedRMSD -1
REMARK  2 active torsions:
REMARK  status: ('A' for Active; 'I' for Inactive)
REMARK    1  A    between atoms: C1_2  and  C2_3 
REMARK    2  A    between atoms: C2_3  and  C3_4 
ROOT
ATOM      1  C3  UNL d   1      -3.121  -4.832  -2.976  0.00  0.00    -0.075 A 
ATOM      2  C4  UNL d   1      -3.862  -3.659  -3.179  0.00  0.00     0.002 A 
ATOM      3  C5  UNL d   1      -5.243  -3.650  -2.983  0.00  0.00     0.002 A 
ATOM      4  C6  UNL d   1      -5.902  -4.814  -2.591  0.00  0.00    -0.004 A 
ATOM      5  C7  UNL d   1      -5.178  -5.989  -2.402  0.00  0.00     0.002 A 
ATOM      6  C8  UNL d   1      -3.796  -6.000  -2.593  0.00  0.00     0.002 A 
ENDROOT
BRANCH   1   7
ATOM      7  C2  UNL d   1      -1.623  -4.841  -3.158  0.00  0.00     0.056 C 
BRANCH   7   8
ATOM      8  C1  UNL d   1      -1.146  -5.658  -4.364  0.00  0.00     0.007 C 
ATOM      9  C   UNL d   1       0.370  -5.685  -4.509  0.00  0.00     0.009 C 
ENDBRANCH   7   8
ENDBRANCH   1   7
TORSDOF 2
ENDMDL
