MODEL 1
REMARK minimizedAffinity 18.4433842
REMARK minimizedRMSD -1
REMARK  2 active torsions:
REMARK  status: ('A' for Active; 'I' for Inactive)
REMARK    1  A    between atoms: C1_2  and  C2_3 
REMARK    2  A    between atoms: C2_3  and  C3_4 
ROOT
ATOM      1  C3  UNL d   1      -1.670  -3.444   1.895  0.00  0.00    -0.075 A 
ATOM      2  C4  UNL d   1      -3.008  -3.632   1.520  0.00  0.00     0.002 A 
ATOM      3  C5  UNL d   1      -3.585  -4.901   1.563  0.00  0.00     0.002 A 
ATOM      4  C6  UNL d   1      -2.830  -5.999   1.969  0.00  0.00    -0.004 A 
ATOM      5  C7  UNL d   1      -1.494  -5.828   2.328  0.00  0.00     0.002 A 
ATOM      6  C8  UNL d   1      -0.916  -4.557   2.290  0.00  0.00     0.002 A 
ENDROOT
BRANCH   1   7
ATOM      7  C2  UNL d   1      -1.049  -2.068   1.879  0.00  0.00     0.056 C 
BRANCH   7   8
ATOM      8  C1  UNL d   1      -0.795  -1.483   3.273  0.00  0.00     0.007 C 
ATOM      9  C   UNL d   1       0.295  -0.419   3.287  0.00  0.00     0.009 C 
ENDBRANCH   7   8
ENDBRANCH   1   7
TORSDOF 2
ENDMDL
