MODEL 1
REMARK minimizedAffinity 11.4811535
REMARK minimizedRMSD -1
REMARK  2 active torsions:
REMARK  status: ('A' for Active; 'I' for Inactive)
REMARK    1  A    between atoms: C1_2  and  C2_3 
REMARK    2  A    between atoms: C2_3  and  C3_4 
ROOT
ATOM      1  C3  UNL d   1       0.373   3.379  -1.471  0.00  0.00    -0.075 A 
ATOM      2  C4  UNL d   1       0.923   2.741  -0.350  0.00  0.00     0.002 A 
ATOM      3  C5  UNL d   1       2.298   2.519  -0.264  0.00  0.00     0.002 A 
ATOM      4  C6  UNL d   1       3.137   2.922  -1.301  0.00  0.00    -0.004 A 
ATOM      5  C7  UNL d   1       2.599   3.542  -2.426  0.00  0.00     0.002 A 
ATOM      6  C8  UNL d   1       1.225   3.770  -2.512  0.00  0.00     0.002 A 
ENDROOT
BRANCH   1   7
ATOM      7  C2  UNL d   1      -1.110   3.649  -1.556  0.00  0.00     0.056 C 
BRANCH   7   8
ATOM      8  C1  UNL d   1      -1.501   5.095  -1.231  0.00  0.00     0.007 C 
ATOM      9  C   UNL d   1      -2.862   5.213  -0.560  0.00  0.00     0.009 C 
ENDBRANCH   7   8
ENDBRANCH   1   7
TORSDOF 2
ENDMDL
