MODEL 1
REMARK minimizedAffinity 15.3261061
REMARK minimizedRMSD -1
REMARK  2 active torsions:
REMARK  status: ('A' for Active; 'I' for Inactive)
REMARK    1  A    between atoms: C1_2  and  C2_3 
REMARK    2  A    between atoms: C2_3  and  C3_4 
ROOT
ATOM      1  C3  UNL d   1      -1.506  -3.858   2.295  0.00  0.00    -0.075 A 
ATOM      2  C4  UNL d   1      -1.514  -3.410   0.966  0.00  0.00     0.002 A 
ATOM      3  C5  UNL d   1      -1.141  -2.102   0.658  0.00  0.00     0.002 A 
ATOM      4  C6  UNL d   1      -0.765  -1.224   1.672  0.00  0.00    -0.004 A 
ATOM      5  C7  UNL d   1      -0.768  -1.654   2.997  0.00  0.00     0.002 A 
ATOM      6  C8  UNL d   1      -1.137  -2.963   3.308  0.00  0.00     0.002 A 
ENDROOT
BRANCH   1   7
ATOM      7  C2  UNL d   1      -1.881  -5.282   2.633  0.00  0.00     0.056 C 
BRANCH   7   8
ATOM      8  C1  UNL d   1      -2.662  -6.000   1.528  0.00  0.00     0.007 C 
ATOM      9  C   UNL d   1      -4.167  -6.000   1.759  0.00  0.00     0.009 C 
ENDBRANCH   7   8
ENDBRANCH   1   7
TORSDOF 2
ENDMDL
