MODEL 1
REMARK minimizedAffinity 1.49347901
REMARK minimizedRMSD -1
REMARK  0 active torsions:
REMARK  status: ('A' for Active; 'I' for Inactive)
ROOT
ATOM      1  N1  IND d   1       2.618  -2.817  -0.218  0.00  0.00    -0.196 N 
ATOM      2  C2  IND d   1       1.879  -1.715  -0.546  0.00  0.00     0.054 A 
ATOM      3  C3  IND d   1       1.881  -1.529  -1.885  0.00  0.00    -0.031 A 
ATOM      4  C4  IND d   1       2.944  -2.969  -3.735  0.00  0.00     0.051 A 
ATOM      5  C5  IND d   1       3.751  -4.056  -3.925  0.00  0.00    -0.031 A 
ATOM      6  C6  IND d   1       4.228  -4.803  -2.867  0.00  0.00     0.015 A 
ATOM      7  C7  IND d   1       3.906  -4.495  -1.575  0.00  0.00    -0.016 A 
ATOM      8  C8  IND d   1       3.094  -3.388  -1.379  0.00  0.00    -0.047 A 
ATOM      9  C9  IND d   1       2.641  -2.601  -2.446  0.00  0.00    -0.096 A 
ATOM     10  HN1 IND d   1       2.762  -3.106   0.579  0.00  0.00     0.298 HD
ENDROOT
TORSDOF 0
ENDMDL
