MODEL 1
REMARK minimizedAffinity 8.39034748
REMARK minimizedRMSD -1
REMARK  0 active torsions:
REMARK  status: ('A' for Active; 'I' for Inactive)
ROOT
ATOM      1  N1  IND d   1       2.929  -3.936  -0.107  0.00  0.00    -0.196 N 
ATOM      2  C2  IND d   1       4.013  -4.606   0.387  0.00  0.00     0.054 A 
ATOM      3  C3  IND d   1       4.667  -5.243  -0.610  0.00  0.00    -0.031 A 
ATOM      4  C4  IND d   1       4.193  -5.242  -3.140  0.00  0.00     0.051 A 
ATOM      5  C5  IND d   1       3.288  -4.803  -4.066  0.00  0.00    -0.031 A 
ATOM      6  C6  IND d   1       2.198  -4.035  -3.713  0.00  0.00     0.015 A 
ATOM      7  C7  IND d   1       1.976  -3.666  -2.417  0.00  0.00    -0.016 A 
ATOM      8  C8  IND d   1       2.888  -4.115  -1.473  0.00  0.00    -0.047 A 
ATOM      9  C9  IND d   1       3.973  -4.931  -1.819  0.00  0.00    -0.096 A 
ATOM     10  HN1 IND d   1       2.367  -3.479   0.356  0.00  0.00     0.298 HD
ENDROOT
TORSDOF 0
ENDMDL
