MODEL 1
REMARK minimizedAffinity 11.1151962
REMARK minimizedRMSD -1
REMARK  0 active torsions:
REMARK  status: ('A' for Active; 'I' for Inactive)
ROOT
ATOM      1  N1  IND d   1       3.350  -5.093   0.523  0.00  0.00    -0.196 N 
ATOM      2  C2  IND d   1       4.391  -4.235   0.741  0.00  0.00     0.054 A 
ATOM      3  C3  IND d   1       4.821  -3.711  -0.429  0.00  0.00    -0.031 A 
ATOM      4  C4  IND d   1       3.896  -4.043  -2.808  0.00  0.00     0.051 A 
ATOM      5  C5  IND d   1       2.974  -4.763  -3.514  0.00  0.00    -0.031 A 
ATOM      6  C6  IND d   1       2.110  -5.646  -2.898  0.00  0.00     0.015 A 
ATOM      7  C7  IND d   1       2.130  -5.834  -1.545  0.00  0.00    -0.016 A 
ATOM      8  C8  IND d   1       3.070  -5.110  -0.826  0.00  0.00    -0.047 A 
ATOM      9  C9  IND d   1       3.977  -4.244  -1.450  0.00  0.00    -0.096 A 
ATOM     10  HN1 IND d   1       2.939  -5.547   1.127  0.00  0.00     0.298 HD
ENDROOT
TORSDOF 0
ENDMDL
