MODEL 1
REMARK minimizedAffinity 5.44676781
REMARK minimizedRMSD -1
REMARK  0 active torsions:
REMARK  status: ('A' for Active; 'I' for Inactive)
ROOT
ATOM      1  N1  IND d   1      -5.987  -3.978   1.943  0.00  0.00    -0.196 N 
ATOM      2  C2  IND d   1      -5.999  -2.613   2.015  0.00  0.00     0.054 A 
ATOM      3  C3  IND d   1      -5.281  -2.192   3.079  0.00  0.00    -0.031 A 
ATOM      4  C4  IND d   1      -3.917  -3.563   4.779  0.00  0.00     0.051 A 
ATOM      5  C5  IND d   1      -3.633  -4.848   5.145  0.00  0.00    -0.031 A 
ATOM      6  C6  IND d   1      -4.126  -5.931   4.447  0.00  0.00     0.015 A 
ATOM      7  C7  IND d   1      -4.917  -5.768   3.345  0.00  0.00    -0.016 A 
ATOM      8  C8  IND d   1      -5.214  -4.465   2.974  0.00  0.00    -0.047 A 
ATOM      9  C9  IND d   1      -4.751  -3.362   3.704  0.00  0.00    -0.096 A 
ATOM     10  HN1 IND d   1      -6.395  -4.454   1.354  0.00  0.00     0.298 HD
ENDROOT
TORSDOF 0
ENDMDL
