MODEL 1
REMARK minimizedAffinity 4.82907152
REMARK minimizedRMSD -1
REMARK  0 active torsions:
REMARK  status: ('A' for Active; 'I' for Inactive)
ROOT
ATOM      1  N1  IND d   1       3.043  -4.235   0.037  0.00  0.00    -0.196 N 
ATOM      2  C2  IND d   1       4.079  -5.117   0.162  0.00  0.00     0.054 A 
ATOM      3  C3  IND d   1       4.577  -5.433  -1.055  0.00  0.00    -0.031 A 
ATOM      4  C4  IND d   1       3.910  -4.542  -3.376  0.00  0.00     0.051 A 
ATOM      5  C5  IND d   1       2.991  -3.747  -4.002  0.00  0.00    -0.031 A 
ATOM      6  C6  IND d   1       2.025  -3.057  -3.298  0.00  0.00     0.015 A 
ATOM      7  C7  IND d   1       1.948  -3.129  -1.936  0.00  0.00    -0.016 A 
ATOM      8  C8  IND d   1       2.875  -3.941  -1.298  0.00  0.00    -0.047 A 
ATOM      9  C9  IND d   1       3.831  -4.677  -2.010  0.00  0.00    -0.096 A 
ATOM     10  HN1 IND d   1       2.574  -3.917   0.684  0.00  0.00     0.298 HD
ENDROOT
TORSDOF 0
ENDMDL
