MODEL 1
REMARK minimizedAffinity 0.334370017
REMARK minimizedRMSD -1
REMARK  0 active torsions:
REMARK  status: ('A' for Active; 'I' for Inactive)
ROOT
ATOM      1  N1  IND d   1       4.715  -4.296  -0.916  0.00  0.00    -0.196 N 
ATOM      2  C2  IND d   1       3.830  -3.974   0.075  0.00  0.00     0.054 A 
ATOM      3  C3  IND d   1       2.712  -3.426  -0.452  0.00  0.00    -0.031 A 
ATOM      4  C4  IND d   1       2.080  -3.055  -2.920  0.00  0.00     0.051 A 
ATOM      5  C5  IND d   1       2.581  -3.157  -4.188  0.00  0.00    -0.031 A 
ATOM      6  C6  IND d   1       3.843  -3.656  -4.434  0.00  0.00     0.015 A 
ATOM      7  C7  IND d   1       4.651  -4.085  -3.419  0.00  0.00    -0.016 A 
ATOM      8  C8  IND d   1       4.148  -3.977  -2.131  0.00  0.00    -0.047 A 
ATOM      9  C9  IND d   1       2.884  -3.431  -1.871  0.00  0.00    -0.096 A 
ATOM     10  HN1 IND d   1       5.494  -4.641  -0.800  0.00  0.00     0.298 HD
ENDROOT
TORSDOF 0
ENDMDL
