MODEL 1
REMARK minimizedAffinity 1.64305735
REMARK minimizedRMSD -1
REMARK  0 active torsions:
REMARK  status: ('A' for Active; 'I' for Inactive)
ROOT
ATOM      1  N1  IND d   1       2.046  -3.678  -2.556  0.00  0.00    -0.196 N 
ATOM      2  C2  IND d   1       2.369  -4.510  -3.592  0.00  0.00     0.054 A 
ATOM      3  C3  IND d   1       3.522  -5.164  -3.327  0.00  0.00    -0.031 A 
ATOM      4  C4  IND d   1       4.993  -5.099  -1.215  0.00  0.00     0.051 A 
ATOM      5  C5  IND d   1       5.126  -4.459  -0.015  0.00  0.00    -0.031 A 
ATOM      6  C6  IND d   1       4.219  -3.509   0.410  0.00  0.00     0.015 A 
ATOM      7  C7  IND d   1       3.135  -3.170  -0.349  0.00  0.00    -0.016 A 
ATOM      8  C8  IND d   1       3.000  -3.813  -1.572  0.00  0.00    -0.047 A 
ATOM      9  C9  IND d   1       3.940  -4.746  -2.027  0.00  0.00    -0.096 A 
ATOM     10  HN1 IND d   1       1.362  -3.157  -2.525  0.00  0.00     0.298 HD
ENDROOT
TORSDOF 0
ENDMDL
