MODEL 1
REMARK minimizedAffinity 7.85787773
REMARK minimizedRMSD -1
REMARK  0 active torsions:
REMARK  status: ('A' for Active; 'I' for Inactive)
ROOT
ATOM      1  N1  IND d   1       5.372  -5.249  -1.307  0.00  0.00    -0.196 N 
ATOM      2  C2  IND d   1       4.788  -5.013  -0.093  0.00  0.00     0.054 A 
ATOM      3  C3  IND d   1       3.554  -4.486  -0.260  0.00  0.00    -0.031 A 
ATOM      4  C4  IND d   1       2.253  -4.023  -2.432  0.00  0.00     0.051 A 
ATOM      5  C5  IND d   1       2.386  -4.042  -3.792  0.00  0.00    -0.031 A 
ATOM      6  C6  IND d   1       3.543  -4.475  -4.406  0.00  0.00     0.015 A 
ATOM      7  C7  IND d   1       4.611  -4.919  -3.679  0.00  0.00    -0.016 A 
ATOM      8  C8  IND d   1       4.483  -4.895  -2.297  0.00  0.00    -0.047 A 
ATOM      9  C9  IND d   1       3.326  -4.415  -1.668  0.00  0.00    -0.096 A 
ATOM     10  HN1 IND d   1       6.161  -5.566  -1.430  0.00  0.00     0.298 HD
ENDROOT
TORSDOF 0
ENDMDL
