MODEL 1
REMARK minimizedAffinity 6.8005662
REMARK minimizedRMSD -1
REMARK  0 active torsions:
REMARK  status: ('A' for Active; 'I' for Inactive)
ROOT
ATOM      1  N1  IND d   1       3.600  -3.854   0.104  0.00  0.00    -0.196 N 
ATOM      2  C2  IND d   1       4.641  -4.724   0.274  0.00  0.00     0.054 A 
ATOM      3  C3  IND d   1       4.901  -5.378  -0.880  0.00  0.00    -0.031 A 
ATOM      4  C4  IND d   1       3.810  -5.106  -3.196  0.00  0.00     0.051 A 
ATOM      5  C5  IND d   1       2.791  -4.459  -3.837  0.00  0.00    -0.031 A 
ATOM      6  C6  IND d   1       1.975  -3.557  -3.185  0.00  0.00     0.015 A 
ATOM      7  C7  IND d   1       2.155  -3.259  -1.864  0.00  0.00    -0.016 A 
ATOM      8  C8  IND d   1       3.185  -3.919  -1.208  0.00  0.00    -0.047 A 
ATOM      9  C9  IND d   1       3.989  -4.867  -1.853  0.00  0.00    -0.096 A 
ATOM     10  HN1 IND d   1       3.262  -3.351   0.714  0.00  0.00     0.298 HD
ENDROOT
TORSDOF 0
ENDMDL
