MODEL 1
REMARK minimizedAffinity 2.98888063
REMARK minimizedRMSD -1
REMARK  0 active torsions:
REMARK  status: ('A' for Active; 'I' for Inactive)
ROOT
ATOM      1  N1  IND d   1       3.285  -4.833  -2.029  0.00  0.00    -0.196 N 
ATOM      2  C2  IND d   1       2.817  -5.025  -3.299  0.00  0.00     0.054 A 
ATOM      3  C3  IND d   1       2.126  -3.940  -3.714  0.00  0.00    -0.031 A 
ATOM      4  C4  IND d   1       1.725  -1.698  -2.514  0.00  0.00     0.051 A 
ATOM      5  C5  IND d   1       1.926  -1.064  -1.320  0.00  0.00    -0.031 A 
ATOM      6  C6  IND d   1       2.607  -1.665  -0.281  0.00  0.00     0.015 A 
ATOM      7  C7  IND d   1       3.124  -2.924  -0.402  0.00  0.00    -0.016 A 
ATOM      8  C8  IND d   1       2.915  -3.573  -1.611  0.00  0.00    -0.047 A 
ATOM      9  C9  IND d   1       2.188  -2.985  -2.654  0.00  0.00    -0.096 A 
ATOM     10  HN1 IND d   1       3.735  -5.403  -1.568  0.00  0.00     0.298 HD
ENDROOT
TORSDOF 0
ENDMDL
