MODEL 1
REMARK minimizedAffinity 14.5663567
REMARK minimizedRMSD -1
REMARK  0 active torsions:
REMARK  status: ('A' for Active; 'I' for Inactive)
ROOT
ATOM      1  N1  IND d   1      -3.780  -1.811   2.341  0.00  0.00    -0.196 N 
ATOM      2  C2  IND d   1      -4.961  -1.318   1.860  0.00  0.00     0.054 A 
ATOM      3  C3  IND d   1      -6.000  -2.043   2.332  0.00  0.00    -0.031 A 
ATOM      4  C4  IND d   1      -6.000  -4.017   3.985  0.00  0.00     0.051 A 
ATOM      5  C5  IND d   1      -5.159  -4.849   4.670  0.00  0.00    -0.031 A 
ATOM      6  C6  IND d   1      -3.787  -4.706   4.614  0.00  0.00     0.015 A 
ATOM      7  C7  IND d   1      -3.204  -3.714   3.877  0.00  0.00    -0.016 A 
ATOM      8  C8  IND d   1      -4.055  -2.872   3.175  0.00  0.00    -0.047 A 
ATOM      9  C9  IND d   1      -5.445  -3.039   3.194  0.00  0.00    -0.096 A 
ATOM     10  HN1 IND d   1      -2.997  -1.509   2.153  0.00  0.00     0.298 HD
ENDROOT
TORSDOF 0
ENDMDL
