MODEL 1
REMARK minimizedAffinity 7.9171567
REMARK minimizedRMSD -1
REMARK  0 active torsions:
REMARK  status: ('A' for Active; 'I' for Inactive)
ROOT
ATOM      1  N1  IND d   1       4.920  -4.335  -4.245  0.00  0.00    -0.196 N 
ATOM      2  C2  IND d   1       4.330  -3.599  -5.235  0.00  0.00     0.054 A 
ATOM      3  C3  IND d   1       3.120  -3.153  -4.831  0.00  0.00    -0.031 A 
ATOM      4  C4  IND d   1       1.953  -3.424  -2.552  0.00  0.00     0.051 A 
ATOM      5  C5  IND d   1       2.084  -4.046  -1.343  0.00  0.00    -0.031 A 
ATOM      6  C6  IND d   1       3.191  -4.810  -1.031  0.00  0.00     0.015 A 
ATOM      7  C7  IND d   1       4.217  -4.971  -1.918  0.00  0.00    -0.016 A 
ATOM      8  C8  IND d   1       4.085  -4.346  -3.150  0.00  0.00    -0.047 A 
ATOM      9  C9  IND d   1       2.945  -3.605  -3.487  0.00  0.00    -0.096 A 
ATOM     10  HN1 IND d   1       5.685  -4.725  -4.298  0.00  0.00     0.298 HD
ENDROOT
TORSDOF 0
ENDMDL
