MODEL 1
REMARK minimizedAffinity 0.801029563
REMARK minimizedRMSD -1
REMARK  0 active torsions:
REMARK  status: ('A' for Active; 'I' for Inactive)
ROOT
ATOM      1  N1  IND d   1       3.011  -3.820  -0.381  0.00  0.00    -0.196 N 
ATOM      2  C2  IND d   1       4.035  -4.484   0.235  0.00  0.00     0.054 A 
ATOM      3  C3  IND d   1       4.844  -5.057  -0.685  0.00  0.00    -0.031 A 
ATOM      4  C4  IND d   1       4.733  -4.950  -3.254  0.00  0.00     0.051 A 
ATOM      5  C5  IND d   1       3.956  -4.493  -4.281  0.00  0.00    -0.031 A 
ATOM      6  C6  IND d   1       2.802  -3.770  -4.056  0.00  0.00     0.015 A 
ATOM      7  C7  IND d   1       2.387  -3.468  -2.790  0.00  0.00    -0.016 A 
ATOM      8  C8  IND d   1       3.170  -3.937  -1.745  0.00  0.00    -0.047 A 
ATOM      9  C9  IND d   1       4.319  -4.707  -1.966  0.00  0.00    -0.096 A 
ATOM     10  HN1 IND d   1       2.375  -3.399   0.016  0.00  0.00     0.298 HD
ENDROOT
TORSDOF 0
ENDMDL
