MODEL 1
REMARK minimizedAffinity 3.16936827
REMARK minimizedRMSD -1
REMARK  0 active torsions:
REMARK  status: ('A' for Active; 'I' for Inactive)
ROOT
ATOM      1  N1  IND d   1       4.119  -5.908  -0.623  0.00  0.00    -0.196 N 
ATOM      2  C2  IND d   1       4.621  -4.941   0.203  0.00  0.00     0.054 A 
ATOM      3  C3  IND d   1       4.208  -3.718  -0.200  0.00  0.00    -0.031 A 
ATOM      4  C4  IND d   1       2.622  -3.079  -2.125  0.00  0.00     0.051 A 
ATOM      5  C5  IND d   1       1.939  -3.615  -3.180  0.00  0.00    -0.031 A 
ATOM      6  C6  IND d   1       1.945  -4.970  -3.440  0.00  0.00     0.015 A 
ATOM      7  C7  IND d   1       2.628  -5.845  -2.645  0.00  0.00    -0.016 A 
ATOM      8  C8  IND d   1       3.330  -5.304  -1.577  0.00  0.00    -0.047 A 
ATOM      9  C9  IND d   1       3.362  -3.925  -1.332  0.00  0.00    -0.096 A 
ATOM     10  HN1 IND d   1       4.271  -6.752  -0.557  0.00  0.00     0.298 HD
ENDROOT
TORSDOF 0
ENDMDL
