MODEL 1
REMARK minimizedAffinity -1.27384079
REMARK minimizedRMSD -1
REMARK  0 active torsions:
REMARK  status: ('A' for Active; 'I' for Inactive)
ROOT
ATOM      1  N1  IND d   1       2.876  -3.621   0.095  0.00  0.00    -0.196 N 
ATOM      2  C2  IND d   1       4.016  -4.306   0.410  0.00  0.00     0.054 A 
ATOM      3  C3  IND d   1       4.645  -4.715  -0.715  0.00  0.00    -0.031 A 
ATOM      4  C4  IND d   1       4.036  -4.282  -3.179  0.00  0.00     0.051 A 
ATOM      5  C5  IND d   1       3.064  -3.735  -3.968  0.00  0.00    -0.031 A 
ATOM      6  C6  IND d   1       1.958  -3.107  -3.432  0.00  0.00     0.015 A 
ATOM      7  C7  IND d   1       1.788  -2.992  -2.081  0.00  0.00    -0.016 A 
ATOM      8  C8  IND d   1       2.770  -3.552  -1.277  0.00  0.00    -0.047 A 
ATOM      9  C9  IND d   1       3.873  -4.228  -1.815  0.00  0.00    -0.096 A 
ATOM     10  HN1 IND d   1       2.318  -3.289   0.659  0.00  0.00     0.298 HD
ENDROOT
TORSDOF 0
ENDMDL
