MODEL 1
REMARK minimizedAffinity 8.26417828
REMARK minimizedRMSD -1
REMARK  0 active torsions:
REMARK  status: ('A' for Active; 'I' for Inactive)
ROOT
ATOM      1  N1  IND d   1       4.841  -5.133  -1.091  0.00  0.00    -0.196 N 
ATOM      2  C2  IND d   1       4.114  -4.933   0.049  0.00  0.00     0.054 A 
ATOM      3  C3  IND d   1       2.866  -4.511  -0.257  0.00  0.00    -0.031 A 
ATOM      4  C4  IND d   1       1.772  -4.176  -2.563  0.00  0.00     0.051 A 
ATOM      5  C5  IND d   1       2.051  -4.198  -3.901  0.00  0.00    -0.031 A 
ATOM      6  C6  IND d   1       3.299  -4.541  -4.380  0.00  0.00     0.015 A 
ATOM      7  C7  IND d   1       4.315  -4.889  -3.536  0.00  0.00    -0.016 A 
ATOM      8  C8  IND d   1       4.038  -4.862  -2.177  0.00  0.00    -0.047 A 
ATOM      9  C9  IND d   1       2.786  -4.473  -1.683  0.00  0.00    -0.096 A 
ATOM     10  HN1 IND d   1       5.662  -5.385  -1.125  0.00  0.00     0.298 HD
ENDROOT
TORSDOF 0
ENDMDL
