MODEL 1
REMARK minimizedAffinity 19.7171516
REMARK minimizedRMSD -1
REMARK  0 active torsions:
REMARK  status: ('A' for Active; 'I' for Inactive)
ROOT
ATOM      1  N1  IND d   1       1.300   5.201  -1.301  0.00  0.00    -0.196 N 
ATOM      2  C2  IND d   1       0.778   5.860  -0.223  0.00  0.00     0.054 A 
ATOM      3  C3  IND d   1       0.822   5.073   0.876  0.00  0.00    -0.031 A 
ATOM      4  C4  IND d   1       1.801   2.708   1.156  0.00  0.00     0.051 A 
ATOM      5  C5  IND d   1       2.356   1.681   0.445  0.00  0.00    -0.031 A 
ATOM      6  C6  IND d   1       2.594   1.777  -0.910  0.00  0.00     0.015 A 
ATOM      7  C7  IND d   1       2.296   2.914  -1.607  0.00  0.00    -0.016 A 
ATOM      8  C8  IND d   1       1.726   3.957  -0.890  0.00  0.00    -0.047 A 
ATOM      9  C9  IND d   1       1.443   3.849   0.477  0.00  0.00    -0.096 A 
ATOM     10  HN1 IND d   1       1.354   5.511  -2.101  0.00  0.00     0.298 HD
ENDROOT
TORSDOF 0
ENDMDL
