MODEL 1
REMARK minimizedAffinity 18.9276237
REMARK minimizedRMSD -1
REMARK  0 active torsions:
REMARK  status: ('A' for Active; 'I' for Inactive)
ROOT
ATOM      1  N1  IND d   1      -4.233  -4.317  -4.503  0.00  0.00    -0.196 N 
ATOM      2  C2  IND d   1      -4.043  -3.821  -5.762  0.00  0.00     0.054 A 
ATOM      3  C3  IND d   1      -2.725  -3.632  -6.000  0.00  0.00    -0.031 A 
ATOM      4  C4  IND d   1      -0.701  -4.164  -4.502  0.00  0.00     0.051 A 
ATOM      5  C5  IND d   1      -0.373  -4.595  -3.247  0.00  0.00    -0.031 A 
ATOM      6  C6  IND d   1      -1.334  -4.967  -2.329  0.00  0.00     0.015 A 
ATOM      7  C7  IND d   1      -2.665  -4.930  -2.637  0.00  0.00    -0.016 A 
ATOM      8  C8  IND d   1      -3.002  -4.486  -3.908  0.00  0.00    -0.047 A 
ATOM      9  C9  IND d   1      -2.033  -4.067  -4.829  0.00  0.00    -0.096 A 
ATOM     10  HN1 IND d   1      -4.993  -4.494  -4.143  0.00  0.00     0.298 HD
ENDROOT
TORSDOF 0
ENDMDL
