MODEL 1
REMARK minimizedAffinity 24.0856915
REMARK minimizedRMSD -1
REMARK  0 active torsions:
REMARK  status: ('A' for Active; 'I' for Inactive)
ROOT
ATOM      1  N1  IND d   1      -5.373   2.868   3.825  0.00  0.00    -0.196 N 
ATOM      2  C2  IND d   1      -5.521   3.595   4.974  0.00  0.00     0.054 A 
ATOM      3  C3  IND d   1      -4.883   2.989   6.000  0.00  0.00    -0.031 A 
ATOM      4  C4  IND d   1      -3.446   0.852   5.999  0.00  0.00     0.051 A 
ATOM      5  C5  IND d   1      -3.049  -0.178   5.194  0.00  0.00    -0.031 A 
ATOM      6  C6  IND d   1      -3.410  -0.245   3.864  0.00  0.00     0.015 A 
ATOM      7  C7  IND d   1      -4.177   0.725   3.284  0.00  0.00    -0.016 A 
ATOM      8  C8  IND d   1      -4.589   1.769   4.100  0.00  0.00    -0.047 A 
ATOM      9  C9  IND d   1      -4.260   1.821   5.461  0.00  0.00    -0.096 A 
ATOM     10  HN1 IND d   1      -5.712   3.064   3.060  0.00  0.00     0.298 HD
ENDROOT
TORSDOF 0
ENDMDL
