MODEL 1
REMARK minimizedAffinity 2.52345562
REMARK minimizedRMSD -1
REMARK  0 active torsions:
REMARK  status: ('A' for Active; 'I' for Inactive)
ROOT
ATOM      1  C   UNL d   1      -0.018  -1.928   0.464  0.00  0.00    -0.002 A 
ATOM      2  C1  UNL d   1      -1.143  -1.117   0.427  0.00  0.00     0.010 A 
ATOM      3  C2  UNL d   1      -1.018   0.262   0.244  0.00  0.00     0.041 A 
ATOM      4  C3  UNL d   1       0.269   0.816   0.095  0.00  0.00    -0.075 A 
ATOM      5  S   UNL d   1       0.664   2.477  -0.142  0.00  0.00     0.015 SA
ATOM      6  C4  UNL d   1       2.335   2.149  -0.201  0.00  0.00     0.022 A 
ATOM      7  C5  UNL d   1       2.603   0.809  -0.045  0.00  0.00     0.026 A 
ATOM      8  C6  UNL d   1       1.416   0.019   0.127  0.00  0.00    -0.082 A 
ATOM      9  C7  UNL d   1       1.257  -1.375   0.316  0.00  0.00     0.045 A 
ENDROOT
TORSDOF 0
ENDMDL
