MODEL 1
REMARK minimizedAffinity 2.82903409
REMARK minimizedRMSD -1
REMARK  0 active torsions:
REMARK  status: ('A' for Active; 'I' for Inactive)
ROOT
ATOM      1  C   UNL d   1      -1.045  -4.091  -2.704  0.00  0.00    -0.002 A 
ATOM      2  C1  UNL d   1       0.209  -3.826  -3.235  0.00  0.00     0.010 A 
ATOM      3  C2  UNL d   1       1.113  -3.011  -2.550  0.00  0.00     0.041 A 
ATOM      4  C3  UNL d   1       0.732  -2.464  -1.310  0.00  0.00    -0.075 A 
ATOM      5  S   UNL d   1       1.674  -1.439  -0.292  0.00  0.00     0.015 SA
ATOM      6  C4  UNL d   1       0.433  -1.329   0.872  0.00  0.00     0.022 A 
ATOM      7  C5  UNL d   1      -0.679  -2.051   0.509  0.00  0.00     0.026 A 
ATOM      8  C6  UNL d   1      -0.526  -2.717  -0.754  0.00  0.00    -0.082 A 
ATOM      9  C7  UNL d   1      -1.419  -3.546  -1.473  0.00  0.00     0.045 A 
ENDROOT
TORSDOF 0
ENDMDL
