MODEL 1
REMARK minimizedAffinity 1.27341914
REMARK minimizedRMSD -1
REMARK  0 active torsions:
REMARK  status: ('A' for Active; 'I' for Inactive)
ROOT
ATOM      1  C   UNL d   1       2.869   1.155  -0.090  0.00  0.00    -0.002 A 
ATOM      2  C1  UNL d   1       2.080   1.903  -0.953  0.00  0.00     0.010 A 
ATOM      3  C2  UNL d   1       0.853   1.409  -1.402  0.00  0.00     0.041 A 
ATOM      4  C3  UNL d   1       0.428   0.140  -0.963  0.00  0.00    -0.075 A 
ATOM      5  S   UNL d   1      -1.037  -0.668  -1.381  0.00  0.00     0.015 SA
ATOM      6  C4  UNL d   1      -0.650  -2.024  -0.424  0.00  0.00     0.022 A 
ATOM      7  C5  UNL d   1       0.563  -1.881   0.206  0.00  0.00     0.026 A 
ATOM      8  C6  UNL d   1       1.205  -0.632  -0.094  0.00  0.00    -0.082 A 
ATOM      9  C7  UNL d   1       2.444  -0.104   0.343  0.00  0.00     0.045 A 
ENDROOT
TORSDOF 0
ENDMDL
