MODEL 1
REMARK minimizedAffinity -0.959312975
REMARK minimizedRMSD -1
REMARK  0 active torsions:
REMARK  status: ('A' for Active; 'I' for Inactive)
ROOT
ATOM      1  C   UNL d   1       0.739  -1.559   0.091  0.00  0.00    -0.002 A 
ATOM      2  C1  UNL d   1       1.854  -0.753  -0.093  0.00  0.00     0.010 A 
ATOM      3  C2  UNL d   1       1.751   0.636   0.011  0.00  0.00     0.041 A 
ATOM      4  C3  UNL d   1       0.497   1.206   0.307  0.00  0.00    -0.075 A 
ATOM      5  S   UNL d   1       0.132   2.881   0.484  0.00  0.00     0.015 SA
ATOM      6  C4  UNL d   1      -1.511   2.566   0.808  0.00  0.00     0.022 A 
ATOM      7  C5  UNL d   1      -1.792   1.221   0.786  0.00  0.00     0.026 A 
ATOM      8  C6  UNL d   1      -0.640   0.414   0.497  0.00  0.00    -0.082 A 
ATOM      9  C7  UNL d   1      -0.503  -0.990   0.384  0.00  0.00     0.045 A 
ENDROOT
TORSDOF 0
ENDMDL
