MODEL 1
REMARK minimizedAffinity -4.60910368
REMARK minimizedRMSD -1
REMARK  0 active torsions:
REMARK  status: ('A' for Active; 'I' for Inactive)
ROOT
ATOM      1  C   UNL d   1      -0.764   3.284   0.423  0.00  0.00    -0.002 A 
ATOM      2  C1  UNL d   1      -1.759   2.344   0.651  0.00  0.00     0.010 A 
ATOM      3  C2  UNL d   1      -1.448   0.985   0.724  0.00  0.00     0.041 A 
ATOM      4  C3  UNL d   1      -0.107   0.583   0.565  0.00  0.00    -0.075 A 
ATOM      5  S   UNL d   1       0.508  -1.027   0.616  0.00  0.00     0.015 SA
ATOM      6  C4  UNL d   1       2.106  -0.504   0.338  0.00  0.00     0.022 A 
ATOM      7  C5  UNL d   1       2.187   0.862   0.207  0.00  0.00     0.026 A 
ATOM      8  C6  UNL d   1       0.912   1.511   0.335  0.00  0.00    -0.082 A 
ATOM      9  C7  UNL d   1       0.565   2.882   0.266  0.00  0.00     0.045 A 
ENDROOT
TORSDOF 0
ENDMDL
