MODEL 1
REMARK minimizedAffinity 0.832575977
REMARK minimizedRMSD -1
REMARK  0 active torsions:
REMARK  status: ('A' for Active; 'I' for Inactive)
ROOT
ATOM      1  C   UNL d   1      -0.315  -0.549   0.377  0.00  0.00    -0.002 A 
ATOM      2  C1  UNL d   1      -0.421   0.179  -0.799  0.00  0.00     0.010 A 
ATOM      3  C2  UNL d   1      -0.626  -0.468  -2.019  0.00  0.00     0.041 A 
ATOM      4  C3  UNL d   1      -0.725  -1.873  -2.038  0.00  0.00    -0.075 A 
ATOM      5  S   UNL d   1      -0.976  -2.879  -3.415  0.00  0.00     0.015 SA
ATOM      6  C4  UNL d   1      -0.950  -4.300  -2.474  0.00  0.00     0.022 A 
ATOM      7  C5  UNL d   1      -0.755  -4.032  -1.140  0.00  0.00     0.026 A 
ATOM      8  C6  UNL d   1      -0.623  -2.628  -0.866  0.00  0.00    -0.082 A 
ATOM      9  C7  UNL d   1      -0.414  -1.943   0.355  0.00  0.00     0.045 A 
ENDROOT
TORSDOF 0
ENDMDL
