MODEL 1
REMARK minimizedAffinity -3.77236581
REMARK minimizedRMSD -1
REMARK  0 active torsions:
REMARK  status: ('A' for Active; 'I' for Inactive)
ROOT
ATOM      1  C   UNL d   1      -1.504   0.073   0.944  0.00  0.00    -0.002 A 
ATOM      2  C1  UNL d   1      -1.831   1.177   1.719  0.00  0.00     0.010 A 
ATOM      3  C2  UNL d   1      -1.191   2.401   1.517  0.00  0.00     0.041 A 
ATOM      4  C3  UNL d   1      -0.208   2.499   0.512  0.00  0.00    -0.075 A 
ATOM      5  S   UNL d   1       0.707   3.897   0.085  0.00  0.00     0.015 SA
ATOM      6  C4  UNL d   1       1.552   3.062  -1.136  0.00  0.00     0.022 A 
ATOM      7  C5  UNL d   1       1.159   1.748  -1.230  0.00  0.00     0.026 A 
ATOM      8  C6  UNL d   1       0.138   1.402  -0.282  0.00  0.00    -0.082 A 
ATOM      9  C7  UNL d   1      -0.529   0.174  -0.052  0.00  0.00     0.045 A 
ENDROOT
TORSDOF 0
ENDMDL
