MODEL 1
REMARK minimizedAffinity -3.81414771
REMARK minimizedRMSD -1
REMARK  0 active torsions:
REMARK  status: ('A' for Active; 'I' for Inactive)
ROOT
ATOM      1  C   UNL d   1      -0.220   2.935   0.041  0.00  0.00    -0.002 A 
ATOM      2  C1  UNL d   1       1.153   2.742  -0.015  0.00  0.00     0.010 A 
ATOM      3  C2  UNL d   1       1.687   1.453  -0.073  0.00  0.00     0.041 A 
ATOM      4  C3  UNL d   1       0.810   0.351  -0.077  0.00  0.00    -0.075 A 
ATOM      5  S   UNL d   1       1.237  -1.318  -0.145  0.00  0.00     0.015 SA
ATOM      6  C4  UNL d   1      -0.393  -1.814  -0.104  0.00  0.00     0.022 A 
ATOM      7  C5  UNL d   1      -1.256  -0.745  -0.039  0.00  0.00     0.026 A 
ATOM      8  C6  UNL d   1      -0.577   0.520  -0.024  0.00  0.00    -0.082 A 
ATOM      9  C7  UNL d   1      -1.088   1.839   0.036  0.00  0.00     0.045 A 
ENDROOT
TORSDOF 0
ENDMDL
