MODEL 1
REMARK minimizedAffinity 2.33374786
REMARK minimizedRMSD -1
REMARK  0 active torsions:
REMARK  status: ('A' for Active; 'I' for Inactive)
ROOT
ATOM      1  C   UNL d   1       1.026   0.157   0.243  0.00  0.00    -0.002 A 
ATOM      2  C1  UNL d   1       1.854  -0.808   0.798  0.00  0.00     0.010 A 
ATOM      3  C2  UNL d   1       1.594  -2.166   0.600  0.00  0.00     0.041 A 
ATOM      4  C3  UNL d   1       0.478  -2.540  -0.173  0.00  0.00    -0.075 A 
ATOM      5  S   UNL d   1      -0.036  -4.143  -0.549  0.00  0.00     0.015 SA
ATOM      6  C4  UNL d   1      -1.366  -3.583  -1.456  0.00  0.00     0.022 A 
ATOM      7  C5  UNL d   1      -1.432  -2.211  -1.481  0.00  0.00     0.026 A 
ATOM      8  C6  UNL d   1      -0.371  -1.587  -0.743  0.00  0.00    -0.082 A 
ATOM      9  C7  UNL d   1      -0.081  -0.218  -0.523  0.00  0.00     0.045 A 
ENDROOT
TORSDOF 0
ENDMDL
