MODEL 1
REMARK minimizedAffinity 2.95519876
REMARK minimizedRMSD -1
REMARK  0 active torsions:
REMARK  status: ('A' for Active; 'I' for Inactive)
ROOT
ATOM      1  C   UNL d   1      -1.950   2.614   0.730  0.00  0.00    -0.002 A 
ATOM      2  C1  UNL d   1      -0.618   2.988   0.631  0.00  0.00     0.010 A 
ATOM      3  C2  UNL d   1       0.369   2.036   0.368  0.00  0.00     0.041 A 
ATOM      4  C3  UNL d   1      -0.010   0.689   0.202  0.00  0.00    -0.075 A 
ATOM      5  S   UNL d   1       1.025  -0.649  -0.128  0.00  0.00     0.015 SA
ATOM      6  C4  UNL d   1      -0.277  -1.748  -0.145  0.00  0.00     0.022 A 
ATOM      7  C5  UNL d   1      -1.480  -1.127   0.093  0.00  0.00     0.026 A 
ATOM      8  C6  UNL d   1      -1.346   0.289   0.297  0.00  0.00    -0.082 A 
ATOM      9  C7  UNL d   1      -2.323   1.278   0.566  0.00  0.00     0.045 A 
ENDROOT
TORSDOF 0
ENDMDL
