MODEL 1
REMARK minimizedAffinity -2.87945223
REMARK minimizedRMSD -1
REMARK  0 active torsions:
REMARK  status: ('A' for Active; 'I' for Inactive)
ROOT
ATOM      1  C   UNL d   1       2.460   2.652   1.682  0.00  0.00    -0.002 A 
ATOM      2  C1  UNL d   1       2.898   1.400   1.274  0.00  0.00     0.010 A 
ATOM      3  C2  UNL d   1       2.003   0.478   0.729  0.00  0.00     0.041 A 
ATOM      4  C3  UNL d   1       0.648   0.838   0.599  0.00  0.00    -0.075 A 
ATOM      5  S   UNL d   1      -0.629  -0.129  -0.040  0.00  0.00     0.015 SA
ATOM      6  C4  UNL d   1      -1.785   1.097   0.213  0.00  0.00     0.022 A 
ATOM      7  C5  UNL d   1      -1.228   2.224   0.771  0.00  0.00     0.026 A 
ATOM      8  C6  UNL d   1       0.183   2.093   1.002  0.00  0.00    -0.082 A 
ATOM      9  C7  UNL d   1       1.115   3.006   1.551  0.00  0.00     0.045 A 
ENDROOT
TORSDOF 0
ENDMDL
