MODEL 1
REMARK minimizedAffinity -1.47028112
REMARK minimizedRMSD -1
REMARK  0 active torsions:
REMARK  status: ('A' for Active; 'I' for Inactive)
ROOT
ATOM      1  C   UNL d   1      -1.707  -4.300  -1.197  0.00  0.00    -0.002 A 
ATOM      2  C1  UNL d   1      -0.462  -4.392  -1.802  0.00  0.00     0.010 A 
ATOM      3  C2  UNL d   1       0.446  -3.334  -1.722  0.00  0.00     0.041 A 
ATOM      4  C3  UNL d   1       0.078  -2.172  -1.015  0.00  0.00    -0.075 A 
ATOM      5  S   UNL d   1       1.028  -0.752  -0.785  0.00  0.00     0.015 SA
ATOM      6  C4  UNL d   1      -0.197   0.010   0.123  0.00  0.00     0.022 A 
ATOM      7  C5  UNL d   1      -1.310  -0.786   0.257  0.00  0.00     0.026 A 
ATOM      8  C6  UNL d   1      -1.170  -2.057  -0.397  0.00  0.00    -0.082 A 
ATOM      9  C7  UNL d   1      -2.068  -3.146  -0.497  0.00  0.00     0.045 A 
ENDROOT
TORSDOF 0
ENDMDL
