MODEL 1
REMARK minimizedAffinity -4.38189125
REMARK minimizedRMSD -1
REMARK  0 active torsions:
REMARK  status: ('A' for Active; 'I' for Inactive)
ROOT
ATOM      1  C   UNL d   1      -0.551   2.770  -0.391  0.00  0.00    -0.002 A 
ATOM      2  C1  UNL d   1       0.659   2.779   0.288  0.00  0.00     0.010 A 
ATOM      3  C2  UNL d   1       1.364   1.593   0.501  0.00  0.00     0.041 A 
ATOM      4  C3  UNL d   1       0.827   0.385   0.015  0.00  0.00    -0.075 A 
ATOM      5  S   UNL d   1       1.513  -1.190   0.158  0.00  0.00     0.015 SA
ATOM      6  C4  UNL d   1       0.217  -1.913  -0.679  0.00  0.00     0.022 A 
ATOM      7  C5  UNL d   1      -0.726  -0.990  -1.065  0.00  0.00     0.026 A 
ATOM      8  C6  UNL d   1      -0.390   0.349  -0.672  0.00  0.00    -0.082 A 
ATOM      9  C7  UNL d   1      -1.081   1.569  -0.872  0.00  0.00     0.045 A 
ENDROOT
TORSDOF 0
ENDMDL
