MODEL 1
REMARK minimizedAffinity -2.55266476
REMARK minimizedRMSD -1
REMARK  0 active torsions:
REMARK  status: ('A' for Active; 'I' for Inactive)
ROOT
ATOM      1  C   UNL d   1      -1.871  -2.607  -1.795  0.00  0.00     0.077 C 
ATOM      2  C1  UNL d   1      -0.883  -1.626  -1.238  0.00  0.00    -0.074 A 
ATOM      3  C2  UNL d   1       0.491  -1.878  -1.294  0.00  0.00    -0.005 A 
ATOM      4  C3  UNL d   1       1.398  -0.951  -0.781  0.00  0.00     0.006 A 
ATOM      5  C4  UNL d   1       0.941   0.235  -0.206  0.00  0.00    -0.005 A 
ATOM      6  C5  UNL d   1      -0.430   0.505  -0.141  0.00  0.00    -0.074 A 
ATOM      7  C6  UNL d   1      -0.938   1.780   0.464  0.00  0.00     0.077 C 
ATOM      8  C7  UNL d   1      -1.335  -0.428  -0.666  0.00  0.00    -0.001 A 
ENDROOT
TORSDOF 0
ENDMDL
