MODEL 1
REMARK minimizedAffinity -4.84652424
REMARK minimizedRMSD -1
REMARK  0 active torsions:
REMARK  status: ('A' for Active; 'I' for Inactive)
ROOT
ATOM      1  C   UNL d   1      -0.051   2.327   2.092  0.00  0.00     0.077 C 
ATOM      2  C1  UNL d   1       0.415   1.447   0.970  0.00  0.00    -0.074 A 
ATOM      3  C2  UNL d   1       1.667   1.642   0.377  0.00  0.00    -0.005 A 
ATOM      4  C3  UNL d   1       2.091   0.811  -0.659  0.00  0.00     0.006 A 
ATOM      5  C4  UNL d   1       1.270  -0.223  -1.112  0.00  0.00    -0.005 A 
ATOM      6  C5  UNL d   1       0.015  -0.433  -0.531  0.00  0.00    -0.074 A 
ATOM      7  C6  UNL d   1      -0.876  -1.545  -0.999  0.00  0.00     0.077 C 
ATOM      8  C7  UNL d   1      -0.401   0.402   0.515  0.00  0.00    -0.001 A 
ENDROOT
TORSDOF 0
ENDMDL
