MODEL 1
REMARK minimizedAffinity -4.96386385
REMARK minimizedRMSD -1
REMARK  0 active torsions:
REMARK  status: ('A' for Active; 'I' for Inactive)
ROOT
ATOM      1  C   UNL d   1      -0.549  -1.235  -0.623  0.00  0.00     0.077 C 
ATOM      2  C1  UNL d   1       0.069  -0.063   0.080  0.00  0.00    -0.074 A 
ATOM      3  C2  UNL d   1      -0.601   0.586   1.122  0.00  0.00    -0.005 A 
ATOM      4  C3  UNL d   1      -0.009   1.668   1.773  0.00  0.00     0.006 A 
ATOM      5  C4  UNL d   1       1.257   2.113   1.388  0.00  0.00    -0.005 A 
ATOM      6  C5  UNL d   1       1.942   1.476   0.349  0.00  0.00    -0.074 A 
ATOM      7  C6  UNL d   1       3.307   1.935  -0.070  0.00  0.00     0.077 C 
ATOM      8  C7  UNL d   1       1.344   0.385  -0.295  0.00  0.00    -0.001 A 
ENDROOT
TORSDOF 0
ENDMDL
