MODEL 1
REMARK minimizedAffinity -2.12256479
REMARK minimizedRMSD -1
REMARK  0 active torsions:
REMARK  status: ('A' for Active; 'I' for Inactive)
ROOT
ATOM      1  C   UNL d   1       1.059   3.218   1.072  0.00  0.00     0.077 C 
ATOM      2  C1  UNL d   1       0.487   1.843   1.251  0.00  0.00    -0.074 A 
ATOM      3  C2  UNL d   1      -0.129   1.471   2.450  0.00  0.00    -0.005 A 
ATOM      4  C3  UNL d   1      -0.665   0.192   2.599  0.00  0.00     0.006 A 
ATOM      5  C4  UNL d   1      -0.590  -0.727   1.552  0.00  0.00    -0.005 A 
ATOM      6  C5  UNL d   1       0.022  -0.373   0.345  0.00  0.00    -0.074 A 
ATOM      7  C6  UNL d   1       0.103  -1.346  -0.794  0.00  0.00     0.077 C 
ATOM      8  C7  UNL d   1       0.552   0.916   0.201  0.00  0.00    -0.001 A 
ENDROOT
TORSDOF 0
ENDMDL
