MODEL 1
REMARK minimizedAffinity -2.36681056
REMARK minimizedRMSD -1
REMARK  0 active torsions:
REMARK  status: ('A' for Active; 'I' for Inactive)
ROOT
ATOM      1  C   UNL d   1      -3.017  -1.218  -2.939  0.00  0.00     0.077 C 
ATOM      2  C1  UNL d   1      -1.742  -0.911  -2.212  0.00  0.00    -0.074 A 
ATOM      3  C2  UNL d   1      -0.513  -0.920  -2.879  0.00  0.00    -0.005 A 
ATOM      4  C3  UNL d   1       0.663  -0.623  -2.191  0.00  0.00     0.006 A 
ATOM      5  C4  UNL d   1       0.623  -0.315  -0.831  0.00  0.00    -0.005 A 
ATOM      6  C5  UNL d   1      -0.597  -0.299  -0.147  0.00  0.00    -0.074 A 
ATOM      7  C6  UNL d   1      -0.659   0.040   1.313  0.00  0.00     0.077 C 
ATOM      8  C7  UNL d   1      -1.775  -0.592  -0.847  0.00  0.00    -0.001 A 
ENDROOT
TORSDOF 0
ENDMDL
