MODEL 1
REMARK minimizedAffinity -5.4759841
REMARK minimizedRMSD -1
REMARK  0 active torsions:
REMARK  status: ('A' for Active; 'I' for Inactive)
ROOT
ATOM      1  C   UNL d   1       1.355   3.264   0.821  0.00  0.00     0.077 C 
ATOM      2  C1  UNL d   1       0.586   1.977   0.835  0.00  0.00    -0.074 A 
ATOM      3  C2  UNL d   1      -0.343   1.706   1.846  0.00  0.00    -0.005 A 
ATOM      4  C3  UNL d   1      -1.058   0.508   1.841  0.00  0.00     0.006 A 
ATOM      5  C4  UNL d   1      -0.853  -0.429   0.828  0.00  0.00    -0.005 A 
ATOM      6  C5  UNL d   1       0.071  -0.175  -0.191  0.00  0.00    -0.074 A 
ATOM      7  C6  UNL d   1       0.296  -1.167  -1.293  0.00  0.00     0.077 C 
ATOM      8  C7  UNL d   1       0.780   1.034  -0.184  0.00  0.00    -0.001 A 
ENDROOT
TORSDOF 0
ENDMDL
