MODEL 1
REMARK minimizedAffinity -2.17095757
REMARK minimizedRMSD -1
REMARK  0 active torsions:
REMARK  status: ('A' for Active; 'I' for Inactive)
ROOT
ATOM      1  C   UNL d   1       1.446   2.674   1.230  0.00  0.00     0.077 C 
ATOM      2  C1  UNL d   1       0.595   1.439   1.236  0.00  0.00    -0.074 A 
ATOM      3  C2  UNL d   1       0.009   0.976   2.418  0.00  0.00    -0.005 A 
ATOM      4  C3  UNL d   1      -0.789  -0.168   2.406  0.00  0.00     0.006 A 
ATOM      5  C4  UNL d   1      -1.008  -0.860   1.215  0.00  0.00    -0.005 A 
ATOM      6  C5  UNL d   1      -0.430  -0.411   0.022  0.00  0.00    -0.074 A 
ATOM      7  C6  UNL d   1      -0.663  -1.137  -1.269  0.00  0.00     0.077 C 
ATOM      8  C7  UNL d   1       0.364   0.743   0.041  0.00  0.00    -0.001 A 
ENDROOT
TORSDOF 0
ENDMDL
