MODEL 1
REMARK minimizedAffinity -2.87000418
REMARK minimizedRMSD -1
REMARK  0 active torsions:
REMARK  status: ('A' for Active; 'I' for Inactive)
ROOT
ATOM      1  C   UNL d   1       0.679   1.887   1.298  0.00  0.00     0.077 C 
ATOM      2  C1  UNL d   1       0.762   0.754   0.318  0.00  0.00    -0.074 A 
ATOM      3  C2  UNL d   1       1.977   0.411  -0.283  0.00  0.00    -0.005 A 
ATOM      4  C3  UNL d   1       2.041  -0.650  -1.185  0.00  0.00     0.006 A 
ATOM      5  C4  UNL d   1       0.892  -1.379  -1.495  0.00  0.00    -0.005 A 
ATOM      6  C5  UNL d   1      -0.332  -1.051  -0.903  0.00  0.00    -0.074 A 
ATOM      7  C6  UNL d   1      -1.575  -1.830  -1.218  0.00  0.00     0.077 C 
ATOM      8  C7  UNL d   1      -0.387   0.013   0.008  0.00  0.00    -0.001 A 
ENDROOT
TORSDOF 0
ENDMDL
