MODEL 1
REMARK minimizedAffinity -3.90070868
REMARK minimizedRMSD -1
REMARK  0 active torsions:
REMARK  status: ('A' for Active; 'I' for Inactive)
ROOT
ATOM      1  C   UNL d   1       1.917  -1.319  -1.086  0.00  0.00     0.077 C 
ATOM      2  C1  UNL d   1       0.924  -0.464  -0.357  0.00  0.00    -0.074 A 
ATOM      3  C2  UNL d   1      -0.346  -0.952  -0.034  0.00  0.00    -0.005 A 
ATOM      4  C3  UNL d   1      -1.255  -0.149   0.653  0.00  0.00     0.006 A 
ATOM      5  C4  UNL d   1      -0.905   1.150   1.024  0.00  0.00    -0.005 A 
ATOM      6  C5  UNL d   1       0.361   1.656   0.711  0.00  0.00    -0.074 A 
ATOM      7  C6  UNL d   1       0.757   3.046   1.111  0.00  0.00     0.077 C 
ATOM      8  C7  UNL d   1       1.272   0.839   0.026  0.00  0.00    -0.001 A 
ENDROOT
TORSDOF 0
ENDMDL
