MODEL 1
REMARK minimizedAffinity -5.33535862
REMARK minimizedRMSD -1
REMARK  0 active torsions:
REMARK  status: ('A' for Active; 'I' for Inactive)
ROOT
ATOM      1  C   UNL d   1       0.885   2.042   2.319  0.00  0.00     0.077 C 
ATOM      2  C1  UNL d   1       0.235   1.212   1.252  0.00  0.00    -0.074 A 
ATOM      3  C2  UNL d   1      -1.046   1.519   0.783  0.00  0.00    -0.005 A 
ATOM      4  C3  UNL d   1      -1.634   0.744  -0.217  0.00  0.00     0.006 A 
ATOM      5  C4  UNL d   1      -0.948  -0.344  -0.757  0.00  0.00    -0.005 A 
ATOM      6  C5  UNL d   1       0.335  -0.666  -0.302  0.00  0.00    -0.074 A 
ATOM      7  C6  UNL d   1       1.091  -1.826  -0.879  0.00  0.00     0.077 C 
ATOM      8  C7  UNL d   1       0.922   0.122   0.698  0.00  0.00    -0.001 A 
ENDROOT
TORSDOF 0
ENDMDL
