MODEL 1
REMARK minimizedAffinity -4.34249258
REMARK minimizedRMSD -1
REMARK  0 active torsions:
REMARK  status: ('A' for Active; 'I' for Inactive)
ROOT
ATOM      1  C   UNL d   1      -1.394  -1.128  -2.236  0.00  0.00     0.077 C 
ATOM      2  C1  UNL d   1      -0.813  -0.529  -0.990  0.00  0.00    -0.074 A 
ATOM      3  C2  UNL d   1      -1.346  -0.829   0.268  0.00  0.00    -0.005 A 
ATOM      4  C3  UNL d   1      -0.789  -0.271   1.419  0.00  0.00     0.006 A 
ATOM      5  C4  UNL d   1       0.305   0.590   1.324  0.00  0.00    -0.005 A 
ATOM      6  C5  UNL d   1       0.852   0.901   0.075  0.00  0.00    -0.074 A 
ATOM      7  C6  UNL d   1       2.033   1.818  -0.044  0.00  0.00     0.077 C 
ATOM      8  C7  UNL d   1       0.291   0.332  -1.076  0.00  0.00    -0.001 A 
ENDROOT
TORSDOF 0
ENDMDL
