MODEL 1
REMARK minimizedAffinity -0.959406972
REMARK minimizedRMSD -1
REMARK  0 active torsions:
REMARK  status: ('A' for Active; 'I' for Inactive)
ROOT
ATOM      1  C   UNL d   1       2.761   0.037  -0.687  0.00  0.00     0.077 C 
ATOM      2  C1  UNL d   1       1.333  -0.072  -0.241  0.00  0.00    -0.074 A 
ATOM      3  C2  UNL d   1       0.864   0.664   0.852  0.00  0.00    -0.005 A 
ATOM      4  C3  UNL d   1      -0.469   0.559   1.250  0.00  0.00     0.006 A 
ATOM      5  C4  UNL d   1      -1.345  -0.280   0.560  0.00  0.00    -0.005 A 
ATOM      6  C5  UNL d   1      -0.893  -1.023  -0.536  0.00  0.00    -0.074 A 
ATOM      7  C6  UNL d   1      -1.823  -1.923  -1.294  0.00  0.00     0.077 C 
ATOM      8  C7  UNL d   1       0.446  -0.908  -0.934  0.00  0.00    -0.001 A 
ENDROOT
TORSDOF 0
ENDMDL
