MODEL 1
REMARK minimizedAffinity -4.55832577
REMARK minimizedRMSD -1
REMARK  0 active torsions:
REMARK  status: ('A' for Active; 'I' for Inactive)
ROOT
ATOM      1  C   UNL d   1       1.705   2.963   0.952  0.00  0.00     0.077 C 
ATOM      2  C1  UNL d   1       0.982   1.663   0.761  0.00  0.00    -0.074 A 
ATOM      3  C2  UNL d   1      -0.152   1.353   1.519  0.00  0.00    -0.005 A 
ATOM      4  C3  UNL d   1      -0.820   0.144   1.324  0.00  0.00     0.006 A 
ATOM      5  C4  UNL d   1      -0.361  -0.766   0.371  0.00  0.00    -0.005 A 
ATOM      6  C5  UNL d   1       0.771  -0.473  -0.397  0.00  0.00    -0.074 A 
ATOM      7  C6  UNL d   1       1.272  -1.436  -1.432  0.00  0.00     0.077 C 
ATOM      8  C7  UNL d   1       1.432   0.747  -0.200  0.00  0.00    -0.001 A 
ENDROOT
TORSDOF 0
ENDMDL
