MODEL 1
REMARK minimizedAffinity -2.31609845
REMARK minimizedRMSD -1
REMARK  0 active torsions:
REMARK  status: ('A' for Active; 'I' for Inactive)
ROOT
ATOM      1  C   UNL d   1      -0.010  -1.164  -1.256  0.00  0.00     0.077 C 
ATOM      2  C1  UNL d   1      -0.118  -0.225  -0.092  0.00  0.00    -0.074 A 
ATOM      3  C2  UNL d   1      -0.831  -0.584   1.057  0.00  0.00    -0.005 A 
ATOM      4  C3  UNL d   1      -0.915   0.296   2.136  0.00  0.00     0.006 A 
ATOM      5  C4  UNL d   1      -0.288   1.541   2.078  0.00  0.00    -0.005 A 
ATOM      6  C5  UNL d   1       0.430   1.917   0.938  0.00  0.00    -0.074 A 
ATOM      7  C6  UNL d   1       1.118   3.248   0.863  0.00  0.00     0.077 C 
ATOM      8  C7  UNL d   1       0.515   1.024  -0.139  0.00  0.00    -0.001 A 
ENDROOT
TORSDOF 0
ENDMDL
