MODEL 1
REMARK minimizedAffinity -2.53101802
REMARK minimizedRMSD -1
REMARK  0 active torsions:
REMARK  status: ('A' for Active; 'I' for Inactive)
ROOT
ATOM      1  C   UNL d   1      -1.575  -1.971  -1.111  0.00  0.00     0.077 C 
ATOM      2  C1  UNL d   1      -0.448  -1.071  -0.700  0.00  0.00    -0.074 A 
ATOM      3  C2  UNL d   1       0.847  -1.272  -1.190  0.00  0.00    -0.005 A 
ATOM      4  C3  UNL d   1       1.884  -0.422  -0.807  0.00  0.00     0.006 A 
ATOM      5  C4  UNL d   1       1.637   0.637   0.068  0.00  0.00    -0.005 A 
ATOM      6  C5  UNL d   1       0.349   0.855   0.567  0.00  0.00    -0.074 A 
ATOM      7  C6  UNL d   1       0.064   1.994   1.500  0.00  0.00     0.077 C 
ATOM      8  C7  UNL d   1      -0.689  -0.000   0.172  0.00  0.00    -0.001 A 
ENDROOT
TORSDOF 0
ENDMDL
