MODEL 1
REMARK minimizedAffinity -4.97602654
REMARK minimizedRMSD -1
REMARK  0 active torsions:
REMARK  status: ('A' for Active; 'I' for Inactive)
ROOT
ATOM      1  C   UNL d   1      -1.201  -1.024  -0.995  0.00  0.00     0.077 C 
ATOM      2  C1  UNL d   1      -0.061  -0.207  -0.464  0.00  0.00    -0.074 A 
ATOM      3  C2  UNL d   1       1.240  -0.394  -0.941  0.00  0.00    -0.005 A 
ATOM      4  C3  UNL d   1       2.289   0.381  -0.444  0.00  0.00     0.006 A 
ATOM      5  C4  UNL d   1       2.047   1.348   0.532  0.00  0.00    -0.005 A 
ATOM      6  C5  UNL d   1       0.752   1.550   1.020  0.00  0.00    -0.074 A 
ATOM      7  C6  UNL d   1       0.474   2.592   2.062  0.00  0.00     0.077 C 
ATOM      8  C7  UNL d   1      -0.297   0.772   0.511  0.00  0.00    -0.001 A 
ENDROOT
TORSDOF 0
ENDMDL
