MODEL 1
REMARK minimizedAffinity -1.08815944
REMARK minimizedRMSD -1
REMARK  0 active torsions:
REMARK  status: ('A' for Active; 'I' for Inactive)
ROOT
ATOM      1  C   UNL d   1       0.746  -1.507  -1.205  0.00  0.00     0.077 C 
ATOM      2  C1  UNL d   1       0.380  -0.469  -0.186  0.00  0.00    -0.074 A 
ATOM      3  C2  UNL d   1      -0.634  -0.705   0.749  0.00  0.00    -0.005 A 
ATOM      4  C3  UNL d   1      -0.956   0.266   1.696  0.00  0.00     0.006 A 
ATOM      5  C4  UNL d   1      -0.271   1.481   1.719  0.00  0.00    -0.005 A 
ATOM      6  C5  UNL d   1       0.746   1.735   0.793  0.00  0.00    -0.074 A 
ATOM      7  C6  UNL d   1       1.500   3.031   0.810  0.00  0.00     0.077 C 
ATOM      8  C7  UNL d   1       1.069   0.751  -0.152  0.00  0.00    -0.001 A 
ENDROOT
TORSDOF 0
ENDMDL
