MODEL 1
REMARK minimizedAffinity -2.44467187
REMARK minimizedRMSD -1
REMARK  0 active torsions:
REMARK  status: ('A' for Active; 'I' for Inactive)
ROOT
ATOM      1  C   UNL d   1       2.849  -0.484  -1.137  0.00  0.00     0.077 C 
ATOM      2  C1  UNL d   1       1.879   0.479  -0.520  0.00  0.00    -0.074 A 
ATOM      3  C2  UNL d   1       1.859   1.824  -0.903  0.00  0.00    -0.005 A 
ATOM      4  C3  UNL d   1       0.945   2.706  -0.327  0.00  0.00     0.006 A 
ATOM      5  C4  UNL d   1       0.043   2.253   0.636  0.00  0.00    -0.005 A 
ATOM      6  C5  UNL d   1       0.047   0.912   1.031  0.00  0.00    -0.074 A 
ATOM      7  C6  UNL d   1      -0.922   0.407   2.058  0.00  0.00     0.077 C 
ATOM      8  C7  UNL d   1       0.964   0.030   0.443  0.00  0.00    -0.001 A 
ENDROOT
TORSDOF 0
ENDMDL
