MODEL 1
REMARK minimizedAffinity -3.40138221
REMARK minimizedRMSD -1
REMARK  1 active torsions:
REMARK  status: ('A' for Active; 'I' for Inactive)
REMARK    1  A    between atoms: N_2  and  C1_3 
ROOT
ATOM      1  C1  UNL d   1      -3.800   5.981  -3.679  0.00  0.00     0.143 A 
ATOM      2  C2  UNL d   1      -3.078   5.994  -2.481  0.00  0.00    -0.057 A 
ATOM      3  C3  UNL d   1      -1.683   5.881  -2.473  0.00  0.00     0.033 A 
ATOM      4  C4  UNL d   1      -0.985   5.723  -3.665  0.00  0.00    -0.042 A 
ATOM      5  C5  UNL d   1      -1.684   5.682  -4.867  0.00  0.00     0.033 A 
ATOM      6  C6  UNL d   1      -3.077   5.802  -4.869  0.00  0.00    -0.057 A 
ENDROOT
BRANCH   1   7
ATOM      7  N   UNL d   1      -5.195   5.990  -3.747  0.00  0.00    -0.732 N 
ATOM      8  C   UNL d   1      -5.989   5.427  -2.675  0.00  0.00     0.284 C 
ATOM      9  H3  UNL d   1      -5.561   6.863  -4.120  0.00  0.00     0.395 HD
ENDBRANCH   1   7
TORSDOF 1
ENDMDL
