MODEL 1
REMARK minimizedAffinity 4.937603
REMARK minimizedRMSD -1
REMARK  1 active torsions:
REMARK  status: ('A' for Active; 'I' for Inactive)
REMARK    1  A    between atoms: N_2  and  C1_3 
ROOT
ATOM      1  C1  UNL d   1      -1.276  -0.804   2.425  0.00  0.00     0.143 A 
ATOM      2  C2  UNL d   1       0.033  -1.273   2.275  0.00  0.00    -0.057 A 
ATOM      3  C3  UNL d   1       0.317  -2.396   1.488  0.00  0.00     0.033 A 
ATOM      4  C4  UNL d   1      -0.712  -3.089   0.858  0.00  0.00    -0.042 A 
ATOM      5  C5  UNL d   1      -2.024  -2.656   1.014  0.00  0.00     0.033 A 
ATOM      6  C6  UNL d   1      -2.300  -1.530   1.796  0.00  0.00    -0.057 A 
ENDROOT
BRANCH   1   7
ATOM      7  N   UNL d   1      -1.634   0.247   3.273  0.00  0.00    -0.732 N 
ATOM      8  C   UNL d   1      -2.285  -0.016   4.538  0.00  0.00     0.284 C 
ATOM      9  H3  UNL d   1      -0.921   0.972   3.315  0.00  0.00     0.395 HD
ENDBRANCH   1   7
TORSDOF 1
ENDMDL
