MODEL 1
REMARK minimizedAffinity 7.17375994
REMARK minimizedRMSD -1
REMARK  1 active torsions:
REMARK  status: ('A' for Active; 'I' for Inactive)
REMARK    1  A    between atoms: N_2  and  C1_3 
ROOT
ATOM      1  C1  UNL d   1       3.898   1.905   1.113  0.00  0.00     0.143 A 
ATOM      2  C2  UNL d   1       4.734   2.075   0.004  0.00  0.00    -0.057 A 
ATOM      3  C3  UNL d   1       5.784   3.001   0.022  0.00  0.00     0.033 A 
ATOM      4  C4  UNL d   1       6.000   3.796   1.143  0.00  0.00    -0.042 A 
ATOM      5  C5  UNL d   1       5.166   3.661   2.247  0.00  0.00     0.033 A 
ATOM      6  C6  UNL d   1       4.123   2.731   2.226  0.00  0.00    -0.057 A 
ENDROOT
BRANCH   1   7
ATOM      7  N   UNL d   1       2.777   1.072   1.121  0.00  0.00    -0.732 N 
ATOM      8  C   UNL d   1       2.786  -0.170   1.864  0.00  0.00     0.284 C 
ATOM      9  H3  UNL d   1       1.906   1.593   1.194  0.00  0.00     0.395 HD
ENDBRANCH   1   7
TORSDOF 1
ENDMDL
