MODEL 1
REMARK minimizedAffinity 4.53816414
REMARK minimizedRMSD -1
REMARK  1 active torsions:
REMARK  status: ('A' for Active; 'I' for Inactive)
REMARK    1  A    between atoms: N_2  and  C1_3 
ROOT
ATOM      1  C1  UNL d   1      -3.747   5.915  -3.554  0.00  0.00     0.143 A 
ATOM      2  C2  UNL d   1      -2.374   5.646  -3.565  0.00  0.00    -0.057 A 
ATOM      3  C3  UNL d   1      -1.670   5.510  -4.768  0.00  0.00     0.033 A 
ATOM      4  C4  UNL d   1      -2.336   5.613  -5.985  0.00  0.00    -0.042 A 
ATOM      5  C5  UNL d   1      -3.705   5.855  -5.998  0.00  0.00     0.033 A 
ATOM      6  C6  UNL d   1      -4.401   5.997  -4.794  0.00  0.00    -0.057 A 
ENDROOT
BRANCH   1   7
ATOM      7  N   UNL d   1      -4.521   5.963  -2.392  0.00  0.00    -0.732 N 
ATOM      8  C   UNL d   1      -5.156   4.768  -1.880  0.00  0.00     0.284 C 
ATOM      9  H3  UNL d   1      -4.108   6.555  -1.675  0.00  0.00     0.395 HD
ENDBRANCH   1   7
TORSDOF 1
ENDMDL
