MODEL 1
REMARK minimizedAffinity 6.48302126
REMARK minimizedRMSD -1
REMARK  1 active torsions:
REMARK  status: ('A' for Active; 'I' for Inactive)
REMARK    1  A    between atoms: N_2  and  C1_3 
ROOT
ATOM      1  C1  UNL d   1      -3.565   0.216   1.062  0.00  0.00     0.143 A 
ATOM      2  C2  UNL d   1      -2.980   0.786   2.198  0.00  0.00    -0.057 A 
ATOM      3  C3  UNL d   1      -1.757   0.320   2.695  0.00  0.00     0.033 A 
ATOM      4  C4  UNL d   1      -1.110  -0.747   2.081  0.00  0.00    -0.042 A 
ATOM      5  C5  UNL d   1      -1.686  -1.346   0.966  0.00  0.00     0.033 A 
ATOM      6  C6  UNL d   1      -2.904  -0.872   0.470  0.00  0.00    -0.057 A 
ENDROOT
BRANCH   1   7
ATOM      7  N   UNL d   1      -4.827   0.569   0.577  0.00  0.00    -0.732 N 
ATOM      8  C   UNL d   1      -5.001   0.963  -0.805  0.00  0.00     0.284 C 
ATOM      9  H3  UNL d   1      -5.563  -0.035   0.933  0.00  0.00     0.395 HD
ENDBRANCH   1   7
TORSDOF 1
ENDMDL
