MODEL 1
REMARK minimizedAffinity 1.92171454
REMARK minimizedRMSD -1
REMARK  1 active torsions:
REMARK  status: ('A' for Active; 'I' for Inactive)
REMARK    1  A    between atoms: N_2  and  C1_3 
ROOT
ATOM      1  C1  UNL d   1      -2.432  -0.132   0.592  0.00  0.00     0.143 A 
ATOM      2  C2  UNL d   1      -3.072   0.668   1.545  0.00  0.00    -0.057 A 
ATOM      3  C3  UNL d   1      -2.895   0.447   2.916  0.00  0.00     0.033 A 
ATOM      4  C4  UNL d   1      -2.094  -0.601   3.360  0.00  0.00    -0.042 A 
ATOM      5  C5  UNL d   1      -1.468  -1.424   2.431  0.00  0.00     0.033 A 
ATOM      6  C6  UNL d   1      -1.643  -1.194   1.063  0.00  0.00    -0.057 A 
ENDROOT
BRANCH   1   7
ATOM      7  N   UNL d   1      -2.645  -0.025  -0.784  0.00  0.00    -0.732 N 
ATOM      8  C   UNL d   1      -3.954   0.310  -1.303  0.00  0.00     0.284 C 
ATOM      9  H3  UNL d   1      -1.877   0.442  -1.261  0.00  0.00     0.395 HD
ENDBRANCH   1   7
TORSDOF 1
ENDMDL
