MODEL 1
REMARK minimizedAffinity 9.22909451
REMARK minimizedRMSD -1
REMARK  1 active torsions:
REMARK  status: ('A' for Active; 'I' for Inactive)
REMARK    1  A    between atoms: N_2  and  C1_3 
ROOT
ATOM      1  C1  UNL d   1      -4.191   1.026   1.051  0.00  0.00     0.143 A 
ATOM      2  C2  UNL d   1      -3.687   1.694   2.172  0.00  0.00    -0.057 A 
ATOM      3  C3  UNL d   1      -2.607   1.180   2.899  0.00  0.00     0.033 A 
ATOM      4  C4  UNL d   1      -2.028  -0.031   2.534  0.00  0.00    -0.042 A 
ATOM      5  C5  UNL d   1      -2.529  -0.725   1.438  0.00  0.00     0.033 A 
ATOM      6  C6  UNL d   1      -3.604  -0.203   0.712  0.00  0.00    -0.057 A 
ENDROOT
BRANCH   1   7
ATOM      7  N   UNL d   1      -5.326   1.435   0.346  0.00  0.00    -0.732 N 
ATOM      8  C   UNL d   1      -5.213   2.372  -0.751  0.00  0.00     0.284 C 
ATOM      9  H3  UNL d   1      -5.974   0.670   0.175  0.00  0.00     0.395 HD
ENDBRANCH   1   7
TORSDOF 1
ENDMDL
