MODEL 1
REMARK minimizedAffinity 4.41945505
REMARK minimizedRMSD -1
REMARK  1 active torsions:
REMARK  status: ('A' for Active; 'I' for Inactive)
REMARK    1  A    between atoms: N_2  and  C1_3 
ROOT
ATOM      1  C1  UNL d   1      -2.057   5.924  -3.354  0.00  0.00     0.143 A 
ATOM      2  C2  UNL d   1      -3.446   5.954  -3.524  0.00  0.00    -0.057 A 
ATOM      3  C3  UNL d   1      -4.021   5.977  -4.800  0.00  0.00     0.033 A 
ATOM      4  C4  UNL d   1      -3.214   6.000  -5.933  0.00  0.00    -0.042 A 
ATOM      5  C5  UNL d   1      -1.831   5.995  -5.787  0.00  0.00     0.033 A 
ATOM      6  C6  UNL d   1      -1.263   5.966  -4.510  0.00  0.00    -0.057 A 
ENDROOT
BRANCH   1   7
ATOM      7  N   UNL d   1      -1.424   6.000  -2.111  0.00  0.00    -0.732 N 
ATOM      8  C   UNL d   1       0.020   5.998  -2.018  0.00  0.00     0.284 C 
ATOM      9  H3  UNL d   1      -1.880   6.657  -1.482  0.00  0.00     0.395 HD
ENDBRANCH   1   7
TORSDOF 1
ENDMDL
