MODEL 1
REMARK minimizedAffinity 9.42916584
REMARK minimizedRMSD -1
REMARK  1 active torsions:
REMARK  status: ('A' for Active; 'I' for Inactive)
REMARK    1  A    between atoms: N_2  and  C1_3 
ROOT
ATOM      1  C1  UNL d   1       3.587   3.709  -3.440  0.00  0.00     0.143 A 
ATOM      2  C2  UNL d   1       4.570   4.610  -3.018  0.00  0.00    -0.057 A 
ATOM      3  C3  UNL d   1       4.244   5.735  -2.250  0.00  0.00     0.033 A 
ATOM      4  C4  UNL d   1       2.919   5.994  -1.914  0.00  0.00    -0.042 A 
ATOM      5  C5  UNL d   1       1.922   5.126  -2.344  0.00  0.00     0.033 A 
ATOM      6  C6  UNL d   1       2.255   4.001  -3.105  0.00  0.00    -0.057 A 
ENDROOT
BRANCH   1   7
ATOM      7  N   UNL d   1       3.835   2.627  -4.288  0.00  0.00    -0.732 N 
ATOM      8  C   UNL d   1       4.291   2.843  -5.644  0.00  0.00     0.284 C 
ATOM      9  H3  UNL d   1       4.300   1.858  -3.810  0.00  0.00     0.395 HD
ENDBRANCH   1   7
TORSDOF 1
ENDMDL
