MODEL 1
REMARK minimizedAffinity 8.95757389
REMARK minimizedRMSD -1
REMARK  1 active torsions:
REMARK  status: ('A' for Active; 'I' for Inactive)
REMARK    1  A    between atoms: N_2  and  C1_3 
ROOT
ATOM      1  C1  UNL d   1       3.462   3.568  -3.856  0.00  0.00     0.143 A 
ATOM      2  C2  UNL d   1       4.234   4.439  -3.079  0.00  0.00    -0.057 A 
ATOM      3  C3  UNL d   1       5.329   5.121  -3.623  0.00  0.00     0.033 A 
ATOM      4  C4  UNL d   1       5.690   4.921  -4.952  0.00  0.00    -0.042 A 
ATOM      5  C5  UNL d   1       4.953   4.042  -5.736  0.00  0.00     0.033 A 
ATOM      6  C6  UNL d   1       3.856   3.368  -5.189  0.00  0.00    -0.057 A 
ENDROOT
BRANCH   1   7
ATOM      7  N   UNL d   1       2.422   2.786  -3.348  0.00  0.00    -0.732 N 
ATOM      8  C   UNL d   1       2.683   1.774  -2.347  0.00  0.00     0.284 C 
ATOM      9  H3  UNL d   1       1.576   3.325  -3.183  0.00  0.00     0.395 HD
ENDBRANCH   1   7
TORSDOF 1
ENDMDL
