MODEL 1
REMARK minimizedAffinity -3.73769188
REMARK minimizedRMSD -1
REMARK  1 active torsions:
REMARK  status: ('A' for Active; 'I' for Inactive)
REMARK    1  A    between atoms: N_2  and  C1_3 
ROOT
ATOM      1  C1  UNL d   1       0.596   3.823  -1.289  0.00  0.00     0.143 A 
ATOM      2  C2  UNL d   1       1.226   3.125  -2.325  0.00  0.00    -0.057 A 
ATOM      3  C3  UNL d   1       2.370   2.354  -2.090  0.00  0.00     0.033 A 
ATOM      4  C4  UNL d   1       2.924   2.290  -0.816  0.00  0.00    -0.042 A 
ATOM      5  C5  UNL d   1       2.330   2.996   0.224  0.00  0.00     0.033 A 
ATOM      6  C6  UNL d   1       1.183   3.759  -0.015  0.00  0.00    -0.057 A 
ENDROOT
BRANCH   1   7
ATOM      7  N   UNL d   1      -0.486   4.686  -1.478  0.00  0.00    -0.732 N 
ATOM      8  C   UNL d   1      -0.900   5.591  -0.427  0.00  0.00     0.284 C 
ATOM      9  H3  UNL d   1      -0.498   5.097  -2.409  0.00  0.00     0.395 HD
ENDBRANCH   1   7
TORSDOF 1
ENDMDL
