MODEL 1
REMARK minimizedAffinity -0.447772831
REMARK minimizedRMSD -1
REMARK  1 active torsions:
REMARK  status: ('A' for Active; 'I' for Inactive)
REMARK    1  A    between atoms: C3_4  and  O_7 
ROOT
ATOM      1  C   UNL d   1      -1.692  -4.669   6.000  0.00  0.00    -0.033 A 
ATOM      2  C1  UNL d   1      -1.018  -5.892   5.993  0.00  0.00     0.039 A 
ATOM      3  C2  UNL d   1       0.332  -5.945   5.639  0.00  0.00    -0.080 A 
ATOM      4  C3  UNL d   1       0.995  -4.770   5.295  0.00  0.00     0.150 A 
ATOM      5  C4  UNL d   1       0.330  -3.548   5.303  0.00  0.00    -0.007 A 
ATOM      6  C5  UNL d   1      -1.018  -3.497   5.656  0.00  0.00     0.039 A 
ENDROOT
BRANCH   4   7
ATOM      7  O   UNL d   1       2.310  -4.773   4.938  0.00  0.00    -0.526 OA
ATOM      8  H5  UNL d   1       2.631  -5.690   4.950  0.00  0.00     0.418 HD
ENDBRANCH   4   7
TORSDOF 1
ENDMDL
