MODEL 1
REMARK minimizedAffinity 5.22901201
REMARK minimizedRMSD -1
REMARK  1 active torsions:
REMARK  status: ('A' for Active; 'I' for Inactive)
REMARK    1  A    between atoms: C3_4  and  O_7 
ROOT
ATOM      1  C   UNL d   1      -1.407  -0.998  -1.078  0.00  0.00    -0.033 A 
ATOM      2  C1  UNL d   1      -0.245  -0.261  -1.315  0.00  0.00     0.039 A 
ATOM      3  C2  UNL d   1       0.757  -0.203  -0.344  0.00  0.00    -0.080 A 
ATOM      4  C3  UNL d   1       0.585  -0.887   0.856  0.00  0.00     0.150 A 
ATOM      5  C4  UNL d   1      -0.568  -1.627   1.097  0.00  0.00    -0.007 A 
ATOM      6  C5  UNL d   1      -1.568  -1.682   0.127  0.00  0.00     0.039 A 
ENDROOT
BRANCH   4   7
ATOM      7  O   UNL d   1       1.533  -0.856   1.835  0.00  0.00    -0.526 OA
ATOM      8  H5  UNL d   1       2.261  -0.283   1.541  0.00  0.00     0.418 HD
ENDBRANCH   4   7
TORSDOF 1
ENDMDL
