MODEL 1
REMARK minimizedAffinity 0.953407705
REMARK minimizedRMSD -1
REMARK  1 active torsions:
REMARK  status: ('A' for Active; 'I' for Inactive)
REMARK    1  A    between atoms: C3_4  and  O_7 
ROOT
ATOM      1  C   UNL d   1       0.861   0.875   0.286  0.00  0.00    -0.033 A 
ATOM      2  C1  UNL d   1       1.556  -0.335   0.251  0.00  0.00     0.039 A 
ATOM      3  C2  UNL d   1       1.013  -1.434  -0.419  0.00  0.00    -0.080 A 
ATOM      4  C3  UNL d   1      -0.222  -1.309  -1.048  0.00  0.00     0.150 A 
ATOM      5  C4  UNL d   1      -0.918  -0.105  -1.020  0.00  0.00    -0.007 A 
ATOM      6  C5  UNL d   1      -0.375   0.991  -0.350  0.00  0.00     0.039 A 
ENDROOT
BRANCH   4   7
ATOM      7  O   UNL d   1      -0.794  -2.355  -1.710  0.00  0.00    -0.526 OA
ATOM      8  H5  UNL d   1      -0.214  -3.129  -1.621  0.00  0.00     0.418 HD
ENDBRANCH   4   7
TORSDOF 1
ENDMDL
