MODEL 1
REMARK minimizedAffinity -2.88461924
REMARK minimizedRMSD -1
REMARK  1 active torsions:
REMARK  status: ('A' for Active; 'I' for Inactive)
REMARK    1  A    between atoms: C3_4  and  O_7 
ROOT
ATOM      1  C   UNL d   1      -0.732   0.729  -0.458  0.00  0.00    -0.033 A 
ATOM      2  C1  UNL d   1       0.470   1.095   0.151  0.00  0.00     0.039 A 
ATOM      3  C2  UNL d   1       1.497   0.159   0.289  0.00  0.00    -0.080 A 
ATOM      4  C3  UNL d   1       1.311  -1.136  -0.187  0.00  0.00     0.150 A 
ATOM      5  C4  UNL d   1       0.117  -1.505  -0.798  0.00  0.00    -0.007 A 
ATOM      6  C5  UNL d   1      -0.908  -0.570  -0.934  0.00  0.00     0.039 A 
ENDROOT
BRANCH   4   7
ATOM      7  O   UNL d   1       2.283  -2.085  -0.071  0.00  0.00    -0.526 OA
ATOM      8  H5  UNL d   1       3.040  -1.694   0.397  0.00  0.00     0.418 HD
ENDBRANCH   4   7
TORSDOF 1
ENDMDL
