MODEL 1
REMARK minimizedAffinity -2.1389153
REMARK minimizedRMSD -1
REMARK  1 active torsions:
REMARK  status: ('A' for Active; 'I' for Inactive)
REMARK    1  A    between atoms: C3_4  and  O_7 
ROOT
ATOM      1  C   UNL d   1       0.367  -1.581  -0.470  0.00  0.00    -0.033 A 
ATOM      2  C1  UNL d   1      -0.686  -0.769  -0.895  0.00  0.00     0.039 A 
ATOM      3  C2  UNL d   1      -0.611   0.616  -0.733  0.00  0.00    -0.080 A 
ATOM      4  C3  UNL d   1       0.520   1.175  -0.145  0.00  0.00     0.150 A 
ATOM      5  C4  UNL d   1       1.575   0.372   0.277  0.00  0.00    -0.007 A 
ATOM      6  C5  UNL d   1       1.498  -1.011   0.115  0.00  0.00     0.039 A 
ENDROOT
BRANCH   4   7
ATOM      7  O   UNL d   1       0.637   2.521   0.039  0.00  0.00    -0.526 OA
ATOM      8  H5  UNL d   1      -0.179   2.946  -0.274  0.00  0.00     0.418 HD
ENDBRANCH   4   7
TORSDOF 1
ENDMDL
