MODEL 1
REMARK minimizedAffinity 5.69366741
REMARK minimizedRMSD -1
REMARK  1 active torsions:
REMARK  status: ('A' for Active; 'I' for Inactive)
REMARK    1  A    between atoms: C3_4  and  O_7 
ROOT
ATOM      1  C   UNL d   1      -0.263  -3.995  -0.726  0.00  0.00    -0.033 A 
ATOM      2  C1  UNL d   1      -0.576  -5.349  -0.595  0.00  0.00     0.039 A 
ATOM      3  C2  UNL d   1      -1.301  -6.000  -1.595  0.00  0.00    -0.080 A 
ATOM      4  C3  UNL d   1      -1.705  -5.287  -2.720  0.00  0.00     0.150 A 
ATOM      5  C4  UNL d   1      -1.393  -3.938  -2.859  0.00  0.00    -0.007 A 
ATOM      6  C5  UNL d   1      -0.670  -3.290  -1.859  0.00  0.00     0.039 A 
ENDROOT
BRANCH   4   7
ATOM      7  O   UNL d   1      -2.419  -5.877  -3.720  0.00  0.00    -0.526 OA
ATOM      8  H5  UNL d   1      -2.585  -6.803  -3.474  0.00  0.00     0.418 HD
ENDBRANCH   4   7
TORSDOF 1
ENDMDL
