MODEL 1
REMARK minimizedAffinity -5.35436583
REMARK minimizedRMSD -1
REMARK  2 active torsions:
REMARK  status: ('A' for Active; 'I' for Inactive)
REMARK    1  A    between atoms: C2'_3  and  C1'_4 
REMARK    2  A    between atoms: C1'_4  and  C1_5 
ROOT
ATOM      1  C1  I4B d   1      -0.060   0.021  -0.024  0.00  0.00    -0.075 A 
ATOM      2  C2  I4B d   1      -0.441   1.320  -0.251  0.00  0.00     0.003 A 
ATOM      3  C3  I4B d   1      -1.268   1.993   0.680  0.00  0.00     0.002 A 
ATOM      4  C4  I4B d   1      -1.730   1.318   1.792  0.00  0.00    -0.004 A 
ATOM      5  C5  I4B d   1      -1.324   0.009   2.032  0.00  0.00     0.002 A 
ATOM      6  C6  I4B d   1      -0.474  -0.641   1.125  0.00  0.00     0.003 A 
ENDROOT
BRANCH   1   7
ATOM      7  C1' I4B d   1       0.787  -0.671  -1.044  0.00  0.00     0.060 C 
BRANCH   7   8
ATOM      8  C2' I4B d   1       0.149  -2.010  -1.351  0.00  0.00    -0.013 C 
ATOM      9  C4' I4B d   1      -0.423  -2.036  -2.744  0.00  0.00     0.013 C 
ATOM     10  C3' I4B d   1       1.194  -3.072  -1.175  0.00  0.00     0.013 C 
ENDBRANCH   7   8
ENDBRANCH   1   7
TORSDOF 2
ENDMDL
