MODEL 1
REMARK minimizedAffinity -1.24165106
REMARK minimizedRMSD -1
REMARK  2 active torsions:
REMARK  status: ('A' for Active; 'I' for Inactive)
REMARK    1  A    between atoms: C2'_3  and  C1'_4 
REMARK    2  A    between atoms: C1'_4  and  C1_5 
ROOT
ATOM      1  C1  I4B d   1       0.565  -0.525   0.090  0.00  0.00    -0.075 A 
ATOM      2  C2  I4B d   1       0.148  -1.230   1.192  0.00  0.00     0.003 A 
ATOM      3  C3  I4B d   1      -0.771  -0.653   2.101  0.00  0.00     0.002 A 
ATOM      4  C4  I4B d   1      -1.206   0.641   1.900  0.00  0.00    -0.004 A 
ATOM      5  C5  I4B d   1      -0.799   1.346   0.770  0.00  0.00     0.002 A 
ATOM      6  C6  I4B d   1       0.082   0.755  -0.147  0.00  0.00     0.003 A 
ENDROOT
BRANCH   1   7
ATOM      7  C1' I4B d   1       1.562  -1.152  -0.832  0.00  0.00     0.060 C 
BRANCH   7   8
ATOM      8  C2' I4B d   1       1.179  -2.607  -1.014  0.00  0.00    -0.013 C 
ATOM      9  C4' I4B d   1       0.671  -2.867  -2.408  0.00  0.00     0.013 C 
ATOM     10  C3' I4B d   1       2.385  -3.444  -0.712  0.00  0.00     0.013 C 
ENDBRANCH   7   8
ENDBRANCH   1   7
TORSDOF 2
ENDMDL
