MODEL 1
REMARK minimizedAffinity -4.88149786
REMARK minimizedRMSD -1
REMARK  2 active torsions:
REMARK  status: ('A' for Active; 'I' for Inactive)
REMARK    1  A    between atoms: C2'_3  and  C1'_4 
REMARK    2  A    between atoms: C1'_4  and  C1_5 
ROOT
ATOM      1  C1  I4B d   1       0.141  -0.058   0.003  0.00  0.00    -0.075 A 
ATOM      2  C2  I4B d   1      -0.479   1.031  -0.558  0.00  0.00     0.003 A 
ATOM      3  C3  I4B d   1      -1.424   1.776   0.188  0.00  0.00     0.002 A 
ATOM      4  C4  I4B d   1      -1.754   1.369   1.465  0.00  0.00    -0.004 A 
ATOM      5  C5  I4B d   1      -1.108   0.279   2.040  0.00  0.00     0.002 A 
ATOM      6  C6  I4B d   1      -0.145  -0.432   1.309  0.00  0.00     0.003 A 
ENDROOT
BRANCH   1   7
ATOM      7  C1' I4B d   1       1.110  -0.842  -0.825  0.00  0.00     0.060 C 
BRANCH   7   8
ATOM      8  C2' I4B d   1       0.469  -2.173  -1.159  0.00  0.00    -0.013 C 
ATOM      9  C4' I4B d   1      -0.159  -2.148  -2.527  0.00  0.00     0.013 C 
ATOM     10  C3' I4B d   1       1.526  -3.232  -1.067  0.00  0.00     0.013 C 
ENDBRANCH   7   8
ENDBRANCH   1   7
TORSDOF 2
ENDMDL
