MODEL 1
REMARK minimizedAffinity -3.525527
REMARK minimizedRMSD -1
REMARK  2 active torsions:
REMARK  status: ('A' for Active; 'I' for Inactive)
REMARK    1  A    between atoms: C2'_3  and  C1'_4 
REMARK    2  A    between atoms: C1'_4  and  C1_5 
ROOT
ATOM      1  C1  I4B d   1       0.554  -0.888  -0.502  0.00  0.00    -0.075 A 
ATOM      2  C2  I4B d   1       0.716   0.272  -1.219  0.00  0.00     0.003 A 
ATOM      3  C3  I4B d   1       0.059   1.458  -0.813  0.00  0.00     0.002 A 
ATOM      4  C4  I4B d   1      -0.784   1.429   0.279  0.00  0.00    -0.004 A 
ATOM      5  C5  I4B d   1      -0.929   0.259   1.018  0.00  0.00     0.002 A 
ATOM      6  C6  I4B d   1      -0.247  -0.904   0.633  0.00  0.00     0.003 A 
ENDROOT
BRANCH   1   7
ATOM      7  C1' I4B d   1       1.236  -2.131  -0.978  0.00  0.00     0.060 C 
BRANCH   7   8
ATOM      8  C2' I4B d   1       0.221  -2.957  -1.742  0.00  0.00    -0.013 C 
ATOM      9  C4' I4B d   1       0.412  -2.816  -3.229  0.00  0.00     0.013 C 
ATOM     10  C3' I4B d   1       0.368  -4.386  -1.310  0.00  0.00     0.013 C 
ENDBRANCH   7   8
ENDBRANCH   1   7
TORSDOF 2
ENDMDL
