MODEL 1
REMARK minimizedAffinity -3.63332725
REMARK minimizedRMSD -1
REMARK  2 active torsions:
REMARK  status: ('A' for Active; 'I' for Inactive)
REMARK    1  A    between atoms: C2'_3  and  C1'_4 
REMARK    2  A    between atoms: C1'_4  and  C1_5 
ROOT
ATOM      1  C1  I4B d   1       0.258  -0.159  -0.249  0.00  0.00    -0.075 A 
ATOM      2  C2  I4B d   1       0.087  -0.519   1.065  0.00  0.00     0.003 A 
ATOM      3  C3  I4B d   1      -0.752   0.247   1.910  0.00  0.00     0.002 A 
ATOM      4  C4  I4B d   1      -1.355   1.386   1.418  0.00  0.00    -0.004 A 
ATOM      5  C5  I4B d   1      -1.198   1.737   0.080  0.00  0.00     0.002 A 
ATOM      6  C6  I4B d   1      -0.396   0.953  -0.762  0.00  0.00     0.003 A 
ENDROOT
BRANCH   1   7
ATOM      7  C1' I4B d   1       1.177  -0.971  -1.105  0.00  0.00     0.060 C 
BRANCH   7   8
ATOM      8  C2' I4B d   1       0.522  -2.316  -1.347  0.00  0.00    -0.013 C 
ATOM      9  C4' I4B d   1      -0.144  -2.362  -2.697  0.00  0.00     0.013 C 
ATOM     10  C3' I4B d   1       1.578  -3.374  -1.228  0.00  0.00     0.013 C 
ENDBRANCH   7   8
ENDBRANCH   1   7
TORSDOF 2
ENDMDL
