MODEL 1
REMARK minimizedAffinity -3.30613232
REMARK minimizedRMSD -1
REMARK  2 active torsions:
REMARK  status: ('A' for Active; 'I' for Inactive)
REMARK    1  A    between atoms: C2'_3  and  C1'_4 
REMARK    2  A    between atoms: C1'_4  and  C1_5 
ROOT
ATOM      1  C1  I4B d   1       0.113  -0.341  -0.144  0.00  0.00    -0.075 A 
ATOM      2  C2  I4B d   1      -0.096   0.778  -0.912  0.00  0.00     0.003 A 
ATOM      3  C3  I4B d   1      -0.903   1.835  -0.425  0.00  0.00     0.002 A 
ATOM      4  C4  I4B d   1      -1.517   1.711   0.804  0.00  0.00    -0.004 A 
ATOM      5  C5  I4B d   1      -1.285   0.586   1.590  0.00  0.00     0.002 A 
ATOM      6  C6  I4B d   1      -0.455  -0.441   1.119  0.00  0.00     0.003 A 
ENDROOT
BRANCH   1   7
ATOM      7  C1' I4B d   1       0.944  -1.453  -0.703  0.00  0.00     0.060 C 
BRANCH   7   8
ATOM      8  C2' I4B d   1       0.060  -2.287  -1.608  0.00  0.00    -0.013 C 
ATOM      9  C4' I4B d   1       0.504  -2.189  -3.044  0.00  0.00     0.013 C 
ATOM     10  C3' I4B d   1       0.107  -3.704  -1.122  0.00  0.00     0.013 C 
ENDBRANCH   7   8
ENDBRANCH   1   7
TORSDOF 2
ENDMDL
