MODEL 1
REMARK minimizedAffinity -4.79382515
REMARK minimizedRMSD -1
REMARK  2 active torsions:
REMARK  status: ('A' for Active; 'I' for Inactive)
REMARK    1  A    between atoms: C2'_3  and  C1'_4 
REMARK    2  A    between atoms: C1'_4  and  C1_5 
ROOT
ATOM      1  C1  I4B d   1       0.186  -0.184  -0.335  0.00  0.00    -0.075 A 
ATOM      2  C2  I4B d   1       0.034  -0.511   0.989  0.00  0.00     0.003 A 
ATOM      3  C3  I4B d   1      -0.741   0.311   1.843  0.00  0.00     0.002 A 
ATOM      4  C4  I4B d   1      -1.300   1.471   1.345  0.00  0.00    -0.004 A 
ATOM      5  C5  I4B d   1      -1.164   1.789  -0.003  0.00  0.00     0.002 A 
ATOM      6  C6  I4B d   1      -0.426   0.950  -0.852  0.00  0.00     0.003 A 
ENDROOT
BRANCH   1   7
ATOM      7  C1' I4B d   1       1.039  -1.057  -1.200  0.00  0.00     0.060 C 
BRANCH   7   8
ATOM      8  C2' I4B d   1       0.222  -2.275  -1.582  0.00  0.00    -0.013 C 
ATOM      9  C4' I4B d   1      -0.317  -2.152  -2.983  0.00  0.00     0.013 C 
ATOM     10  C3' I4B d   1       1.100  -3.483  -1.444  0.00  0.00     0.013 C 
ENDBRANCH   7   8
ENDBRANCH   1   7
TORSDOF 2
ENDMDL
