MODEL 1
REMARK minimizedAffinity -3.55709147
REMARK minimizedRMSD -1
REMARK  2 active torsions:
REMARK  status: ('A' for Active; 'I' for Inactive)
REMARK    1  A    between atoms: C2'_3  and  C1'_4 
REMARK    2  A    between atoms: C1'_4  and  C1_5 
ROOT
ATOM      1  C1  I4B d   1      -0.180   1.065   0.583  0.00  0.00    -0.075 A 
ATOM      2  C2  I4B d   1      -1.070   1.774   1.350  0.00  0.00     0.003 A 
ATOM      3  C3  I4B d   1      -1.378   3.118   1.027  0.00  0.00     0.002 A 
ATOM      4  C4  I4B d   1      -0.740   3.725  -0.035  0.00  0.00    -0.004 A 
ATOM      5  C5  I4B d   1       0.145   2.997  -0.826  0.00  0.00     0.002 A 
ATOM      6  C6  I4B d   1       0.418   1.656  -0.523  0.00  0.00     0.003 A 
ENDROOT
BRANCH   1   7
ATOM      7  C1' I4B d   1       0.148  -0.341   0.972  0.00  0.00     0.060 C 
BRANCH   7   8
ATOM      8  C2' I4B d   1       0.137  -0.421   2.486  0.00  0.00    -0.013 C 
ATOM      9  C4' I4B d   1      -1.085  -1.145   2.985  0.00  0.00     0.013 C 
ATOM     10  C3' I4B d   1       1.394  -1.114   2.921  0.00  0.00     0.013 C 
ENDBRANCH   7   8
ENDBRANCH   1   7
TORSDOF 2
ENDMDL
