MODEL 1
REMARK minimizedAffinity -3.85519505
REMARK minimizedRMSD -1
REMARK  2 active torsions:
REMARK  status: ('A' for Active; 'I' for Inactive)
REMARK    1  A    between atoms: C2'_3  and  C1'_4 
REMARK    2  A    between atoms: C1'_4  and  C1_5 
ROOT
ATOM      1  C1  I4B d   1       0.623  -0.900  -0.419  0.00  0.00    -0.075 A 
ATOM      2  C2  I4B d   1       0.303   0.298  -1.008  0.00  0.00     0.003 A 
ATOM      3  C3  I4B d   1      -0.374   1.298  -0.268  0.00  0.00     0.002 A 
ATOM      4  C4  I4B d   1      -0.753   1.040   1.034  0.00  0.00    -0.004 A 
ATOM      5  C5  I4B d   1      -0.407  -0.166   1.636  0.00  0.00     0.002 A 
ATOM      6  C6  I4B d   1       0.296  -1.138   0.910  0.00  0.00     0.003 A 
ENDROOT
BRANCH   1   7
ATOM      7  C1' I4B d   1       1.308  -1.946  -1.240  0.00  0.00     0.060 C 
BRANCH   7   8
ATOM      8  C2' I4B d   1       0.244  -2.721  -1.991  0.00  0.00    -0.013 C 
ATOM      9  C4' I4B d   1       0.237  -2.360  -3.453  0.00  0.00     0.013 C 
ATOM     10  C3' I4B d   1       0.512  -4.183  -1.795  0.00  0.00     0.013 C 
ENDBRANCH   7   8
ENDBRANCH   1   7
TORSDOF 2
ENDMDL
