MODEL 1
REMARK minimizedAffinity -4.10342693
REMARK minimizedRMSD -1
REMARK  2 active torsions:
REMARK  status: ('A' for Active; 'I' for Inactive)
REMARK    1  A    between atoms: C2'_3  and  C1'_4 
REMARK    2  A    between atoms: C1'_4  and  C1_5 
ROOT
ATOM      1  C1  I4B d   1       0.341   0.091  -0.042  0.00  0.00    -0.075 A 
ATOM      2  C2  I4B d   1       0.303  -0.490   1.201  0.00  0.00     0.003 A 
ATOM      3  C3  I4B d   1      -0.433   0.116   2.249  0.00  0.00     0.002 A 
ATOM      4  C4  I4B d   1      -1.069   1.320   2.024  0.00  0.00    -0.004 A 
ATOM      5  C5  I4B d   1      -1.049   1.895   0.757  0.00  0.00     0.002 A 
ATOM      6  C6  I4B d   1      -0.349   1.271  -0.286  0.00  0.00     0.003 A 
ENDROOT
BRANCH   1   7
ATOM      7  C1' I4B d   1       1.155  -0.558  -1.116  0.00  0.00     0.060 C 
BRANCH   7   8
ATOM      8  C2' I4B d   1       0.504  -1.883  -1.459  0.00  0.00    -0.013 C 
ATOM      9  C4' I4B d   1      -0.120  -1.844  -2.829  0.00  0.00     0.013 C 
ATOM     10  C3' I4B d   1       1.552  -2.951  -1.371  0.00  0.00     0.013 C 
ENDBRANCH   7   8
ENDBRANCH   1   7
TORSDOF 2
ENDMDL
