MODEL 1
REMARK minimizedAffinity -4.54294443
REMARK minimizedRMSD -1
REMARK  2 active torsions:
REMARK  status: ('A' for Active; 'I' for Inactive)
REMARK    1  A    between atoms: C2'_3  and  C1'_4 
REMARK    2  A    between atoms: C1'_4  and  C1_5 
ROOT
ATOM      1  C1  I4B d   1      -0.052  -0.158  -0.378  0.00  0.00    -0.075 A 
ATOM      2  C2  I4B d   1      -0.205  -0.267   0.982  0.00  0.00     0.003 A 
ATOM      3  C3  I4B d   1      -0.972   0.689   1.691  0.00  0.00     0.002 A 
ATOM      4  C4  I4B d   1      -1.522   1.757   1.014  0.00  0.00    -0.004 A 
ATOM      5  C5  I4B d   1      -1.385   1.853  -0.368  0.00  0.00     0.002 A 
ATOM      6  C6  I4B d   1      -0.656   0.883  -1.071  0.00  0.00     0.003 A 
ENDROOT
BRANCH   1   7
ATOM      7  C1' I4B d   1       0.792  -1.167  -1.091  0.00  0.00     0.060 C 
BRANCH   7   8
ATOM      8  C2' I4B d   1      -0.129  -2.226  -1.661  0.00  0.00    -0.013 C 
ATOM      9  C4' I4B d   1      -0.500  -1.916  -3.087  0.00  0.00     0.013 C 
ATOM     10  C3' I4B d   1       0.569  -3.550  -1.559  0.00  0.00     0.013 C 
ENDBRANCH   7   8
ENDBRANCH   1   7
TORSDOF 2
ENDMDL
