MODEL 1
REMARK minimizedAffinity -2.87224054
REMARK minimizedRMSD -1
REMARK  2 active torsions:
REMARK  status: ('A' for Active; 'I' for Inactive)
REMARK    1  A    between atoms: C2'_3  and  C1'_4 
REMARK    2  A    between atoms: C1'_4  and  C1_5 
ROOT
ATOM      1  C1  I4B d   1      -0.182   0.029  -0.003  0.00  0.00    -0.075 A 
ATOM      2  C2  I4B d   1      -0.313   1.229  -0.658  0.00  0.00     0.003 A 
ATOM      3  C3  I4B d   1      -0.959   2.319  -0.025  0.00  0.00     0.002 A 
ATOM      4  C4  I4B d   1      -1.498   2.151   1.234  0.00  0.00    -0.004 A 
ATOM      5  C5  I4B d   1      -1.343   0.941   1.905  0.00  0.00     0.002 A 
ATOM      6  C6  I4B d   1      -0.670  -0.123   1.288  0.00  0.00     0.003 A 
ENDROOT
BRANCH   1   7
ATOM      7  C1' I4B d   1       0.476  -1.111  -0.714  0.00  0.00     0.060 C 
BRANCH   7   8
ATOM      8  C2' I4B d   1      -0.610  -1.950  -1.355  0.00  0.00    -0.013 C 
ATOM      9  C4' I4B d   1      -0.771  -1.611  -2.814  0.00  0.00     0.013 C 
ATOM     10  C3' I4B d   1      -0.248  -3.394  -1.172  0.00  0.00     0.013 C 
ENDBRANCH   7   8
ENDBRANCH   1   7
TORSDOF 2
ENDMDL
