MODEL 1
REMARK minimizedAffinity 7.40252924
REMARK minimizedRMSD -1
REMARK  1 active torsions:
REMARK  status: ('A' for Active; 'I' for Inactive)
REMARK    1  A    between atoms: C1_2  and  C2_3 
ROOT
ATOM      1  C2  UNL d   1       1.549  -1.250   2.351  0.00  0.00    -0.073 A 
ATOM      2  C3  UNL d   1       1.918  -1.007   3.679  0.00  0.00    -0.002 A 
ATOM      3  C4  UNL d   1       2.558   0.183   4.026  0.00  0.00     0.004 A 
ATOM      4  C5  UNL d   1       2.829   1.144   3.052  0.00  0.00    -0.004 A 
ATOM      5  C6  UNL d   1       2.457   0.925   1.722  0.00  0.00    -0.075 A 
ATOM      6  C7  UNL d   1       2.743   1.948   0.662  0.00  0.00     0.076 C 
ATOM      7  C8  UNL d   1       1.817  -0.274   1.381  0.00  0.00     0.001 A 
ENDROOT
BRANCH   1   8
ATOM      8  C1  UNL d   1       0.852  -2.531   1.973  0.00  0.00     0.053 C 
ATOM      9  C   UNL d   1       0.243  -2.459   0.582  0.00  0.00     0.018 C 
ENDBRANCH   1   8
TORSDOF 1
ENDMDL
