MODEL 1
REMARK minimizedAffinity 12.3462658
REMARK minimizedRMSD -1
REMARK  1 active torsions:
REMARK  status: ('A' for Active; 'I' for Inactive)
REMARK    1  A    between atoms: C1_2  and  C2_3 
ROOT
ATOM      1  C2  UNL d   1       0.416  -2.080   0.996  0.00  0.00    -0.073 A 
ATOM      2  C3  UNL d   1       0.620  -2.729   2.218  0.00  0.00    -0.002 A 
ATOM      3  C4  UNL d   1       1.466  -2.174   3.179  0.00  0.00     0.004 A 
ATOM      4  C5  UNL d   1       2.109  -0.961   2.931  0.00  0.00    -0.004 A 
ATOM      5  C6  UNL d   1       1.909  -0.291   1.720  0.00  0.00    -0.075 A 
ATOM      6  C7  UNL d   1       2.595   1.013   1.437  0.00  0.00     0.076 C 
ATOM      7  C8  UNL d   1       1.060  -0.857   0.759  0.00  0.00     0.001 A 
ENDROOT
BRANCH   1   8
ATOM      8  C1  UNL d   1      -0.501  -2.673  -0.043  0.00  0.00     0.053 C 
ATOM      9  C   UNL d   1      -1.618  -1.717  -0.429  0.00  0.00     0.018 C 
ENDBRANCH   1   8
TORSDOF 1
ENDMDL
