MODEL 1
REMARK minimizedAffinity 0.795525134
REMARK minimizedRMSD -1
REMARK  1 active torsions:
REMARK  status: ('A' for Active; 'I' for Inactive)
REMARK    1  A    between atoms: C1_2  and  C2_3 
ROOT
ATOM      1  C2  UNL d   1       0.530  -3.139   0.154  0.00  0.00    -0.073 A 
ATOM      2  C3  UNL d   1       0.374  -2.690   1.470  0.00  0.00    -0.002 A 
ATOM      3  C4  UNL d   1       1.058  -3.314   2.514  0.00  0.00     0.004 A 
ATOM      4  C5  UNL d   1       1.909  -4.388   2.252  0.00  0.00    -0.004 A 
ATOM      5  C6  UNL d   1       2.088  -4.843   0.942  0.00  0.00    -0.075 A 
ATOM      6  C7  UNL d   1       2.998  -5.998   0.643  0.00  0.00     0.076 C 
ATOM      7  C8  UNL d   1       1.395  -4.212  -0.101  0.00  0.00     0.001 A 
ENDROOT
BRANCH   1   8
ATOM      8  C1  UNL d   1      -0.202  -2.463  -0.977  0.00  0.00     0.053 C 
ATOM      9  C   UNL d   1      -1.547  -1.909  -0.536  0.00  0.00     0.018 C 
ENDBRANCH   1   8
TORSDOF 1
ENDMDL
