MODEL 1
REMARK minimizedAffinity 0.508523226
REMARK minimizedRMSD -1
REMARK  1 active torsions:
REMARK  status: ('A' for Active; 'I' for Inactive)
REMARK    1  A    between atoms: C1_2  and  C2_3 
ROOT
ATOM      1  C2  UNL d   1       1.822  -0.565   2.476  0.00  0.00    -0.073 A 
ATOM      2  C3  UNL d   1       1.940  -1.335   3.638  0.00  0.00    -0.002 A 
ATOM      3  C4  UNL d   1       1.305  -2.574   3.731  0.00  0.00     0.004 A 
ATOM      4  C5  UNL d   1       0.552  -3.059   2.661  0.00  0.00    -0.004 A 
ATOM      5  C6  UNL d   1       0.432  -2.309   1.486  0.00  0.00    -0.075 A 
ATOM      6  C7  UNL d   1      -0.375  -2.816   0.327  0.00  0.00     0.076 C 
ATOM      7  C8  UNL d   1       1.071  -1.065   1.402  0.00  0.00     0.001 A 
ENDROOT
BRANCH   1   8
ATOM      8  C1  UNL d   1       2.511   0.771   2.369  0.00  0.00     0.053 C 
ATOM      9  C   UNL d   1       3.083   1.008   0.980  0.00  0.00     0.018 C 
ENDBRANCH   1   8
TORSDOF 1
ENDMDL
