MODEL 1
REMARK minimizedAffinity 4.59294844
REMARK minimizedRMSD -1
REMARK  1 active torsions:
REMARK  status: ('A' for Active; 'I' for Inactive)
REMARK    1  A    between atoms: C1_2  and  C2_3 
ROOT
ATOM      1  C2  UNL d   1       1.196  -2.778   3.182  0.00  0.00    -0.073 A 
ATOM      2  C3  UNL d   1       1.863  -1.548   3.198  0.00  0.00    -0.002 A 
ATOM      3  C4  UNL d   1       1.679  -0.633   2.161  0.00  0.00     0.004 A 
ATOM      4  C5  UNL d   1       0.822  -0.934   1.103  0.00  0.00    -0.004 A 
ATOM      5  C6  UNL d   1       0.137  -2.153   1.075  0.00  0.00    -0.075 A 
ATOM      6  C7  UNL d   1      -0.787  -2.494  -0.057  0.00  0.00     0.076 C 
ATOM      7  C8  UNL d   1       0.330  -3.068   2.119  0.00  0.00     0.001 A 
ENDROOT
BRANCH   1   8
ATOM      8  C1  UNL d   1       1.387  -3.767   4.303  0.00  0.00     0.053 C 
ATOM      9  C   UNL d   1       2.664  -3.502   5.085  0.00  0.00     0.018 C 
ENDBRANCH   1   8
TORSDOF 1
ENDMDL
