MODEL 1
REMARK minimizedAffinity 4.06469917
REMARK minimizedRMSD -1
REMARK  1 active torsions:
REMARK  status: ('A' for Active; 'I' for Inactive)
REMARK    1  A    between atoms: C1_2  and  C2_3 
ROOT
ATOM      1  C2  UNL d   1       2.306  -2.174   3.085  0.00  0.00    -0.073 A 
ATOM      2  C3  UNL d   1       1.664  -3.257   3.696  0.00  0.00    -0.002 A 
ATOM      3  C4  UNL d   1       2.384  -4.143   4.498  0.00  0.00     0.004 A 
ATOM      4  C5  UNL d   1       3.751  -3.952   4.702  0.00  0.00    -0.004 A 
ATOM      5  C6  UNL d   1       4.408  -2.869   4.109  0.00  0.00    -0.075 A 
ATOM      6  C7  UNL d   1       5.878  -2.651   4.317  0.00  0.00     0.076 C 
ATOM      7  C8  UNL d   1       3.678  -1.985   3.304  0.00  0.00     0.001 A 
ENDROOT
BRANCH   1   8
ATOM      8  C1  UNL d   1       1.531  -1.211   2.224  0.00  0.00     0.053 C 
ATOM      9  C   UNL d   1       0.539  -1.926   1.320  0.00  0.00     0.018 C 
ENDBRANCH   1   8
TORSDOF 1
ENDMDL
