MODEL 1
REMARK minimizedAffinity 0.366173089
REMARK minimizedRMSD -1
REMARK  1 active torsions:
REMARK  status: ('A' for Active; 'I' for Inactive)
REMARK    1  A    between atoms: C1_2  and  C2_3 
ROOT
ATOM      1  C2  UNL d   1      -0.181  -0.621   0.409  0.00  0.00    -0.073 A 
ATOM      2  C3  UNL d   1      -0.909   0.475  -0.068  0.00  0.00    -0.002 A 
ATOM      3  C4  UNL d   1      -0.344   1.751  -0.065  0.00  0.00     0.004 A 
ATOM      4  C5  UNL d   1       0.954   1.943   0.406  0.00  0.00    -0.004 A 
ATOM      5  C6  UNL d   1       1.702   0.859   0.875  0.00  0.00    -0.075 A 
ATOM      6  C7  UNL d   1       3.099   1.049   1.387  0.00  0.00     0.076 C 
ATOM      7  C8  UNL d   1       1.127  -0.419   0.872  0.00  0.00     0.001 A 
ENDROOT
BRANCH   1   8
ATOM      8  C1  UNL d   1      -0.784  -2.002   0.402  0.00  0.00     0.053 C 
ATOM      9  C   UNL d   1      -0.034  -2.947  -0.522  0.00  0.00     0.018 C 
ENDBRANCH   1   8
TORSDOF 1
ENDMDL
