MODEL 1
REMARK minimizedAffinity 3.22034717
REMARK minimizedRMSD -1
REMARK  1 active torsions:
REMARK  status: ('A' for Active; 'I' for Inactive)
REMARK    1  A    between atoms: C1_2  and  C2_3 
ROOT
ATOM      1  C2  UNL d   1       1.613  -0.214   1.953  0.00  0.00    -0.073 A 
ATOM      2  C3  UNL d   1       2.514   0.768   2.380  0.00  0.00    -0.002 A 
ATOM      3  C4  UNL d   1       2.697   1.930   1.630  0.00  0.00     0.004 A 
ATOM      4  C5  UNL d   1       1.977   2.125   0.451  0.00  0.00    -0.004 A 
ATOM      5  C6  UNL d   1       1.064   1.161   0.014  0.00  0.00    -0.075 A 
ATOM      6  C7  UNL d   1       0.284   1.354  -1.253  0.00  0.00     0.076 C 
ATOM      7  C8  UNL d   1       0.888  -0.005   0.772  0.00  0.00     0.001 A 
ENDROOT
BRANCH   1   8
ATOM      8  C1  UNL d   1       1.407  -1.468   2.764  0.00  0.00     0.053 C 
ATOM      9  C   UNL d   1       2.287  -1.496   4.003  0.00  0.00     0.018 C 
ENDBRANCH   1   8
TORSDOF 1
ENDMDL
