MODEL 1
REMARK minimizedAffinity 1.34606242
REMARK minimizedRMSD -1
REMARK  1 active torsions:
REMARK  status: ('A' for Active; 'I' for Inactive)
REMARK    1  A    between atoms: C1_2  and  C2_3 
ROOT
ATOM      1  C2  UNL d   1       1.273   0.936   0.786  0.00  0.00    -0.073 A 
ATOM      2  C3  UNL d   1       0.507   2.028   0.362  0.00  0.00    -0.002 A 
ATOM      3  C4  UNL d   1      -0.798   1.838  -0.093  0.00  0.00     0.004 A 
ATOM      4  C5  UNL d   1      -1.353   0.559  -0.122  0.00  0.00    -0.004 A 
ATOM      5  C6  UNL d   1      -0.607  -0.543   0.309  0.00  0.00    -0.075 A 
ATOM      6  C7  UNL d   1      -1.188  -1.926   0.282  0.00  0.00     0.076 C 
ATOM      7  C8  UNL d   1       0.704  -0.345   0.762  0.00  0.00     0.001 A 
ENDROOT
BRANCH   1   8
ATOM      8  C1  UNL d   1       2.681   1.137   1.284  0.00  0.00     0.053 C 
ATOM      9  C   UNL d   1       2.716   1.857   2.622  0.00  0.00     0.018 C 
ENDBRANCH   1   8
TORSDOF 1
ENDMDL
