MODEL 1
REMARK minimizedAffinity -2.40513778
REMARK minimizedRMSD -1
REMARK  1 active torsions:
REMARK  status: ('A' for Active; 'I' for Inactive)
REMARK    1  A    between atoms: C1_2  and  C2_3 
ROOT
ATOM      1  C2  UNL d   1       0.235  -1.880   1.248  0.00  0.00    -0.073 A 
ATOM      2  C3  UNL d   1       0.543  -2.581   2.419  0.00  0.00    -0.002 A 
ATOM      3  C4  UNL d   1       1.464  -2.061   3.331  0.00  0.00     0.004 A 
ATOM      4  C5  UNL d   1       2.079  -0.834   3.084  0.00  0.00    -0.004 A 
ATOM      5  C6  UNL d   1       1.775  -0.112   1.925  0.00  0.00    -0.075 A 
ATOM      6  C7  UNL d   1       2.430   1.208   1.645  0.00  0.00     0.076 C 
ATOM      7  C8  UNL d   1       0.852  -0.642   1.014  0.00  0.00     0.001 A 
ENDROOT
BRANCH   1   8
ATOM      8  C1  UNL d   1      -0.763  -2.434   0.264  0.00  0.00     0.053 C 
ATOM      9  C   UNL d   1      -0.129  -3.437  -0.686  0.00  0.00     0.018 C 
ENDBRANCH   1   8
TORSDOF 1
ENDMDL
