MODEL 1
REMARK minimizedAffinity -3.04330015
REMARK minimizedRMSD -1
REMARK  1 active torsions:
REMARK  status: ('A' for Active; 'I' for Inactive)
REMARK    1  A    between atoms: C1_2  and  C2_3 
ROOT
ATOM      1  C2  UNL d   1       0.388  -1.812   1.050  0.00  0.00    -0.073 A 
ATOM      2  C3  UNL d   1       0.733  -2.410   2.268  0.00  0.00    -0.002 A 
ATOM      3  C4  UNL d   1       1.691  -1.821   3.096  0.00  0.00     0.004 A 
ATOM      4  C5  UNL d   1       2.307  -0.628   2.719  0.00  0.00    -0.004 A 
ATOM      5  C6  UNL d   1       1.967  -0.010   1.511  0.00  0.00    -0.075 A 
ATOM      6  C7  UNL d   1       2.622   1.273   1.090  0.00  0.00     0.076 C 
ATOM      7  C8  UNL d   1       1.007  -0.608   0.684  0.00  0.00     0.001 A 
ENDROOT
BRANCH   1   8
ATOM      8  C1  UNL d   1      -0.649  -2.441   0.156  0.00  0.00     0.053 C 
ATOM      9  C   UNL d   1      -0.028  -3.381  -0.864  0.00  0.00     0.018 C 
ENDBRANCH   1   8
TORSDOF 1
ENDMDL
