MODEL 1
REMARK minimizedAffinity 6.90179634
REMARK minimizedRMSD -1
REMARK  0 active torsions:
REMARK  status: ('A' for Active; 'I' for Inactive)
ROOT
ATOM      1  C1  DEN d   1      -0.961   3.076   2.210  0.00  0.00     0.130 A 
ATOM      2  C2  DEN d   1      -0.150   2.103   1.483  0.00  0.00    -0.031 A 
ATOM      3  C3  DEN d   1      -0.775   0.775   1.646  0.00  0.00     0.027 A 
ATOM      4  C4  DEN d   1      -2.911   0.135   2.942  0.00  0.00     0.027 A 
ATOM      5  C5  DEN d   1      -3.934   0.617   3.729  0.00  0.00    -0.003 A 
ATOM      6  C6  DEN d   1      -4.018   1.936   4.090  0.00  0.00     0.001 A 
ATOM      7  C7  DEN d   1      -3.087   2.827   3.626  0.00  0.00     0.017 A 
ATOM      8  C8  DEN d   1      -2.049   2.347   2.838  0.00  0.00    -0.094 A 
ATOM      9  C9  DEN d   1      -1.988   1.013   2.474  0.00  0.00    -0.072 A 
ENDROOT
TORSDOF 0
ENDMDL
