MODEL 1
REMARK minimizedAffinity -7.32932281
REMARK minimizedRMSD -1
REMARK  0 active torsions:
REMARK  status: ('A' for Active; 'I' for Inactive)
ROOT
ATOM      1  C1  DEN d   1      -3.080  -0.389   2.560  0.00  0.00     0.130 A 
ATOM      2  C2  DEN d   1      -3.397   0.849   3.267  0.00  0.00    -0.031 A 
ATOM      3  C3  DEN d   1      -2.307   1.812   3.013  0.00  0.00     0.027 A 
ATOM      4  C4  DEN d   1      -0.173   1.510   1.596  0.00  0.00     0.027 A 
ATOM      5  C5  DEN d   1       0.539   0.629   0.812  0.00  0.00    -0.003 A 
ATOM      6  C6  DEN d   1       0.115  -0.654   0.586  0.00  0.00     0.001 A 
ATOM      7  C7  DEN d   1      -1.077  -1.078   1.112  0.00  0.00     0.017 A 
ATOM      8  C8  DEN d   1      -1.796  -0.197   1.910  0.00  0.00    -0.094 A 
ATOM      9  C9  DEN d   1      -1.357   1.099   2.116  0.00  0.00    -0.072 A 
ENDROOT
TORSDOF 0
ENDMDL
