MODEL 1
REMARK minimizedAffinity -2.24593544
REMARK minimizedRMSD -1
REMARK  0 active torsions:
REMARK  status: ('A' for Active; 'I' for Inactive)
ROOT
ATOM      1  C1  DEN d   1      -0.270   2.198   1.592  0.00  0.00     0.130 A 
ATOM      2  C2  DEN d   1       0.907   1.369   1.346  0.00  0.00    -0.031 A 
ATOM      3  C3  DEN d   1       0.579  -0.017   1.736  0.00  0.00     0.027 A 
ATOM      4  C4  DEN d   1      -1.628  -0.956   2.686  0.00  0.00     0.027 A 
ATOM      5  C5  DEN d   1      -2.908  -0.633   3.079  0.00  0.00    -0.003 A 
ATOM      6  C6  DEN d   1      -3.383   0.651   3.037  0.00  0.00     0.001 A 
ATOM      7  C7  DEN d   1      -2.588   1.653   2.548  0.00  0.00     0.017 A 
ATOM      8  C8  DEN d   1      -1.293   1.337   2.157  0.00  0.00    -0.094 A 
ATOM      9  C9  DEN d   1      -0.835   0.031   2.196  0.00  0.00    -0.072 A 
ENDROOT
TORSDOF 0
ENDMDL
