MODEL 1
REMARK minimizedAffinity -3.64420509
REMARK minimizedRMSD -1
REMARK  0 active torsions:
REMARK  status: ('A' for Active; 'I' for Inactive)
ROOT
ATOM      1  C1  DEN d   1      -2.119   2.616   2.521  0.00  0.00     0.130 A 
ATOM      2  C2  DEN d   1      -3.072   1.768   3.231  0.00  0.00    -0.031 A 
ATOM      3  C3  DEN d   1      -2.674   0.361   3.024  0.00  0.00     0.027 A 
ATOM      4  C4  DEN d   1      -0.683  -0.581   1.683  0.00  0.00     0.027 A 
ATOM      5  C5  DEN d   1       0.398  -0.250   0.895  0.00  0.00    -0.003 A 
ATOM      6  C6  DEN d   1       0.693   1.047   0.569  0.00  0.00     0.001 A 
ATOM      7  C7  DEN d   1      -0.076   2.065   1.070  0.00  0.00     0.017 A 
ATOM      8  C8  DEN d   1      -1.171   1.738   1.858  0.00  0.00    -0.094 A 
ATOM      9  C9  DEN d   1      -1.446   0.422   2.187  0.00  0.00    -0.072 A 
ENDROOT
TORSDOF 0
ENDMDL
