MODEL 1
REMARK minimizedAffinity 1.48811471
REMARK minimizedRMSD -1
REMARK  0 active torsions:
REMARK  status: ('A' for Active; 'I' for Inactive)
ROOT
ATOM      1  C1  DEN d   1      -1.739   2.749   2.292  0.00  0.00     0.130 A 
ATOM      2  C2  DEN d   1      -2.727   2.125   3.169  0.00  0.00    -0.031 A 
ATOM      3  C3  DEN d   1      -2.452   0.675   3.207  0.00  0.00     0.027 A 
ATOM      4  C4  DEN d   1      -0.599  -0.658   2.006  0.00  0.00     0.027 A 
ATOM      5  C5  DEN d   1       0.471  -0.565   1.144  0.00  0.00    -0.003 A 
ATOM      6  C6  DEN d   1       0.856   0.624   0.582  0.00  0.00     0.001 A 
ATOM      7  C7  DEN d   1       0.192   1.776   0.912  0.00  0.00     0.017 A 
ATOM      8  C8  DEN d   1      -0.893   1.689   1.774  0.00  0.00    -0.094 A 
ATOM      9  C9  DEN d   1      -1.258   0.480   2.341  0.00  0.00    -0.072 A 
ENDROOT
TORSDOF 0
ENDMDL
