MODEL 1
REMARK minimizedAffinity -2.13144493
REMARK minimizedRMSD -1
REMARK  0 active torsions:
REMARK  status: ('A' for Active; 'I' for Inactive)
ROOT
ATOM      1  C1  DEN d   1      -2.574  -0.072   2.427  0.00  0.00     0.130 A 
ATOM      2  C2  DEN d   1      -3.490   0.935   2.954  0.00  0.00    -0.031 A 
ATOM      3  C3  DEN d   1      -2.801   2.241   2.920  0.00  0.00     0.027 A 
ATOM      4  C4  DEN d   1      -0.419   2.798   2.103  0.00  0.00     0.027 A 
ATOM      5  C5  DEN d   1       0.740   2.270   1.579  0.00  0.00    -0.003 A 
ATOM      6  C6  DEN d   1       0.887   0.930   1.335  0.00  0.00     0.001 A 
ATOM      7  C7  DEN d   1      -0.159   0.078   1.573  0.00  0.00     0.017 A 
ATOM      8  C8  DEN d   1      -1.329   0.602   2.108  0.00  0.00    -0.094 A 
ATOM      9  C9  DEN d   1      -1.462   1.961   2.336  0.00  0.00    -0.072 A 
ENDROOT
TORSDOF 0
ENDMDL
