MODEL 1
REMARK minimizedAffinity -1.64391863
REMARK minimizedRMSD -1
REMARK  0 active torsions:
REMARK  status: ('A' for Active; 'I' for Inactive)
ROOT
ATOM      1  C1  DEN d   1      -1.643   1.431   2.872  0.00  0.00     0.130 A 
ATOM      2  C2  DEN d   1      -2.002   2.765   2.400  0.00  0.00    -0.031 A 
ATOM      3  C3  DEN d   1      -1.004   3.177   1.392  0.00  0.00     0.027 A 
ATOM      4  C4  DEN d   1       1.050   1.884   0.519  0.00  0.00     0.027 A 
ATOM      5  C5  DEN d   1       1.772   0.716   0.632  0.00  0.00    -0.003 A 
ATOM      6  C6  DEN d   1       1.429  -0.272   1.515  0.00  0.00     0.001 A 
ATOM      7  C7  DEN d   1       0.308  -0.131   2.291  0.00  0.00     0.017 A 
ATOM      8  C8  DEN d   1      -0.421   1.046   2.188  0.00  0.00    -0.094 A 
ATOM      9  C9  DEN d   1      -0.065   2.029   1.280  0.00  0.00    -0.072 A 
ENDROOT
TORSDOF 0
ENDMDL
