MODEL 1
REMARK minimizedAffinity 3.58659315
REMARK minimizedRMSD -1
REMARK  0 active torsions:
REMARK  status: ('A' for Active; 'I' for Inactive)
ROOT
ATOM      1  C1  DEN d   1      -0.060  -2.126   2.469  0.00  0.00     0.130 A 
ATOM      2  C2  DEN d   1      -1.446  -2.011   2.913  0.00  0.00    -0.031 A 
ATOM      3  C3  DEN d   1      -1.969  -0.712   2.443  0.00  0.00     0.027 A 
ATOM      4  C4  DEN d   1      -0.775   1.119   1.075  0.00  0.00     0.027 A 
ATOM      5  C5  DEN d   1       0.412   1.478   0.475  0.00  0.00    -0.003 A 
ATOM      6  C6  DEN d   1       1.526   0.683   0.527  0.00  0.00     0.001 A 
ATOM      7  C7  DEN d   1       1.463  -0.534   1.155  0.00  0.00     0.017 A 
ATOM      8  C8  DEN d   1       0.272  -0.899   1.767  0.00  0.00    -0.094 A 
ATOM      9  C9  DEN d   1      -0.847  -0.087   1.693  0.00  0.00    -0.072 A 
ENDROOT
TORSDOF 0
ENDMDL
