MODEL 1
REMARK minimizedAffinity -0.949032485
REMARK minimizedRMSD -1
REMARK  0 active torsions:
REMARK  status: ('A' for Active; 'I' for Inactive)
ROOT
ATOM      1  C1  DEN d   1      -3.044   1.418   3.082  0.00  0.00     0.130 A 
ATOM      2  C2  DEN d   1      -2.725   2.828   3.288  0.00  0.00    -0.031 A 
ATOM      3  C3  DEN d   1      -1.416   3.096   2.658  0.00  0.00     0.027 A 
ATOM      4  C4  DEN d   1       0.136   1.474   1.387  0.00  0.00     0.027 A 
ATOM      5  C5  DEN d   1       0.296   0.173   0.966  0.00  0.00    -0.003 A 
ATOM      6  C6  DEN d   1      -0.621  -0.805   1.248  0.00  0.00     0.001 A 
ATOM      7  C7  DEN d   1      -1.764  -0.486   1.932  0.00  0.00     0.017 A 
ATOM      8  C8  DEN d   1      -1.930   0.823   2.367  0.00  0.00    -0.094 A 
ATOM      9  C9  DEN d   1      -0.997   1.799   2.061  0.00  0.00    -0.072 A 
ENDROOT
TORSDOF 0
ENDMDL
