MODEL 1
REMARK minimizedAffinity 6.5947361
REMARK minimizedRMSD -1
REMARK  0 active torsions:
REMARK  status: ('A' for Active; 'I' for Inactive)
ROOT
ATOM      1  C1  DEN d   1      -2.264   1.733   2.616  0.00  0.00     0.130 A 
ATOM      2  C2  DEN d   1      -2.510   3.166   2.489  0.00  0.00    -0.031 A 
ATOM      3  C3  DEN d   1      -1.353   3.769   1.798  0.00  0.00     0.027 A 
ATOM      4  C4  DEN d   1       0.782   2.627   0.911  0.00  0.00     0.027 A 
ATOM      5  C5  DEN d   1       1.448   1.427   0.796  0.00  0.00    -0.003 A 
ATOM      6  C6  DEN d   1       0.944   0.260   1.306  0.00  0.00     0.001 A 
ATOM      7  C7  DEN d   1      -0.283   0.260   1.915  0.00  0.00     0.017 A 
ATOM      8  C8  DEN d   1      -0.958   1.467   2.041  0.00  0.00    -0.094 A 
ATOM      9  C9  DEN d   1      -0.436   2.634   1.508  0.00  0.00    -0.072 A 
ENDROOT
TORSDOF 0
ENDMDL
