MODEL 1
REMARK minimizedAffinity -5.57710886
REMARK minimizedRMSD -1
REMARK  0 active torsions:
REMARK  status: ('A' for Active; 'I' for Inactive)
ROOT
ATOM      1  C1  DEN d   1       0.511  -0.846   0.837  0.00  0.00     0.130 A 
ATOM      2  C2  DEN d   1       1.401   0.201   0.343  0.00  0.00    -0.031 A 
ATOM      3  C3  DEN d   1       0.756   1.505   0.596  0.00  0.00     0.027 A 
ATOM      4  C4  DEN d   1      -1.519   2.003   1.704  0.00  0.00     0.027 A 
ATOM      5  C5  DEN d   1      -2.638   1.436   2.275  0.00  0.00    -0.003 A 
ATOM      6  C6  DEN d   1      -2.799   0.080   2.375  0.00  0.00     0.001 A 
ATOM      7  C7  DEN d   1      -1.805  -0.756   1.938  0.00  0.00     0.017 A 
ATOM      8  C8  DEN d   1      -0.678  -0.193   1.354  0.00  0.00    -0.094 A 
ATOM      9  C9  DEN d   1      -0.529   1.181   1.273  0.00  0.00    -0.072 A 
ENDROOT
TORSDOF 0
ENDMDL
