MODEL 1
REMARK minimizedAffinity -3.14577651
REMARK minimizedRMSD -1
REMARK  0 active torsions:
REMARK  status: ('A' for Active; 'I' for Inactive)
ROOT
ATOM      1  C1  DEN d   1      -2.229  -0.464   1.601  0.00  0.00     0.130 A 
ATOM      2  C2  DEN d   1      -2.940   0.238   2.666  0.00  0.00    -0.031 A 
ATOM      3  C3  DEN d   1      -2.120   1.395   3.077  0.00  0.00     0.027 A 
ATOM      4  C4  DEN d   1       0.168   2.166   2.170  0.00  0.00     0.027 A 
ATOM      5  C5  DEN d   1       1.174   1.882   1.272  0.00  0.00    -0.003 A 
ATOM      6  C6  DEN d   1       1.132   0.786   0.451  0.00  0.00     0.001 A 
ATOM      7  C7  DEN d   1       0.040  -0.042   0.480  0.00  0.00     0.017 A 
ATOM      8  C8  DEN d   1      -0.974   0.234   1.388  0.00  0.00    -0.094 A 
ATOM      9  C9  DEN d   1      -0.918   1.353   2.200  0.00  0.00    -0.072 A 
ENDROOT
TORSDOF 0
ENDMDL
