MODEL 1
REMARK minimizedAffinity -0.661577106
REMARK minimizedRMSD -1
REMARK  0 active torsions:
REMARK  status: ('A' for Active; 'I' for Inactive)
ROOT
ATOM      1  C1  DEN d   1      -0.154  -0.480   1.249  0.00  0.00     0.130 A 
ATOM      2  C2  DEN d   1       0.825   0.379   0.589  0.00  0.00    -0.031 A 
ATOM      3  C3  DEN d   1       0.490   1.781   0.907  0.00  0.00     0.027 A 
ATOM      4  C4  DEN d   1      -1.437   2.702   2.354  0.00  0.00     0.027 A 
ATOM      5  C5  DEN d   1      -2.533   2.358   3.113  0.00  0.00    -0.003 A 
ATOM      6  C6  DEN d   1      -2.930   1.057   3.275  0.00  0.00     0.001 A 
ATOM      7  C7  DEN d   1      -2.199   0.048   2.706  0.00  0.00     0.017 A 
ATOM      8  C8  DEN d   1      -1.096   0.387   1.933  0.00  0.00    -0.094 A 
ATOM      9  C9  DEN d   1      -0.704   1.707   1.791  0.00  0.00    -0.072 A 
ENDROOT
TORSDOF 0
ENDMDL
