MODEL 1
REMARK minimizedAffinity 0.504618406
REMARK minimizedRMSD -1
REMARK  0 active torsions:
REMARK  status: ('A' for Active; 'I' for Inactive)
ROOT
ATOM      1  C1  DEN d   1       0.298  -0.811   1.101  0.00  0.00     0.130 A 
ATOM      2  C2  DEN d   1      -1.026  -1.304   1.472  0.00  0.00    -0.031 A 
ATOM      3  C3  DEN d   1      -1.859  -0.142   1.840  0.00  0.00     0.027 A 
ATOM      4  C4  DEN d   1      -1.233   2.360   1.866  0.00  0.00     0.027 A 
ATOM      5  C5  DEN d   1      -0.220   3.266   1.642  0.00  0.00    -0.003 A 
ATOM      6  C6  DEN d   1       1.036   2.877   1.258  0.00  0.00     0.001 A 
ATOM      7  C7  DEN d   1       1.300   1.550   1.043  0.00  0.00     0.017 A 
ATOM      8  C8  DEN d   1       0.285   0.630   1.274  0.00  0.00    -0.094 A 
ATOM      9  C9  DEN d   1      -0.981   1.044   1.649  0.00  0.00    -0.072 A 
ENDROOT
TORSDOF 0
ENDMDL
