MODEL 1
REMARK minimizedAffinity -1.68569934
REMARK minimizedRMSD -1
REMARK  0 active torsions:
REMARK  status: ('A' for Active; 'I' for Inactive)
ROOT
ATOM      1  C1  DEN d   1      -1.494  -3.666  -1.215  0.00  0.00     0.130 A 
ATOM      2  C2  DEN d   1      -2.582  -2.794  -1.648  0.00  0.00    -0.031 A 
ATOM      3  C3  DEN d   1      -2.358  -2.455  -3.068  0.00  0.00     0.027 A 
ATOM      4  C4  DEN d   1      -0.445  -3.196  -4.631  0.00  0.00     0.027 A 
ATOM      5  C5  DEN d   1       0.718  -3.929  -4.712  0.00  0.00    -0.003 A 
ATOM      6  C6  DEN d   1       1.240  -4.592  -3.633  0.00  0.00     0.001 A 
ATOM      7  C7  DEN d   1       0.572  -4.573  -2.437  0.00  0.00     0.017 A 
ATOM      8  C8  DEN d   1      -0.598  -3.831  -2.346  0.00  0.00    -0.094 A 
ATOM      9  C9  DEN d   1      -1.115  -3.177  -3.451  0.00  0.00    -0.072 A 
ENDROOT
TORSDOF 0
ENDMDL
