MODEL 1
REMARK minimizedAffinity -1.57891798
REMARK minimizedRMSD -1
REMARK  0 active torsions:
REMARK  status: ('A' for Active; 'I' for Inactive)
ROOT
ATOM      1  C1  DEN d   1      -0.997  -0.837   1.500  0.00  0.00     0.130 A 
ATOM      2  C2  DEN d   1       0.023  -0.266   0.625  0.00  0.00    -0.031 A 
ATOM      3  C3  DEN d   1       0.048   1.194   0.845  0.00  0.00     0.027 A 
ATOM      4  C4  DEN d   1      -1.384   2.617   2.451  0.00  0.00     0.027 A 
ATOM      5  C5  DEN d   1      -2.392   2.579   3.389  0.00  0.00    -0.003 A 
ATOM      6  C6  DEN d   1      -3.024   1.414   3.735  0.00  0.00     0.001 A 
ATOM      7  C7  DEN d   1      -2.623   0.231   3.172  0.00  0.00     0.017 A 
ATOM      8  C8  DEN d   1      -1.612   0.263   2.220  0.00  0.00    -0.094 A 
ATOM      9  C9  DEN d   1      -0.977   1.449   1.893  0.00  0.00    -0.072 A 
ENDROOT
TORSDOF 0
ENDMDL
