MODEL 1
REMARK minimizedAffinity 1.10037673
REMARK minimizedRMSD -1
REMARK  0 active torsions:
REMARK  status: ('A' for Active; 'I' for Inactive)
ROOT
ATOM      1  C1  DEN d   1      -1.018   3.181   1.362  0.00  0.00     0.130 A 
ATOM      2  C2  DEN d   1      -0.045   2.429   0.575  0.00  0.00    -0.031 A 
ATOM      3  C3  DEN d   1      -0.220   0.995   0.883  0.00  0.00     0.027 A 
ATOM      4  C4  DEN d   1      -1.898  -0.127   2.489  0.00  0.00     0.027 A 
ATOM      5  C5  DEN d   1      -2.917   0.102   3.387  0.00  0.00    -0.003 A 
ATOM      6  C6  DEN d   1      -3.348   1.365   3.696  0.00  0.00     0.001 A 
ATOM      7  C7  DEN d   1      -2.788   2.446   3.068  0.00  0.00     0.017 A 
ATOM      8  C8  DEN d   1      -1.755   2.224   2.167  0.00  0.00    -0.094 A 
ATOM      9  C9  DEN d   1      -1.342   0.939   1.859  0.00  0.00    -0.072 A 
ENDROOT
TORSDOF 0
ENDMDL
