MODEL 1
REMARK minimizedAffinity 12.4279127
REMARK minimizedRMSD -1
REMARK  0 active torsions:
REMARK  status: ('A' for Active; 'I' for Inactive)
ROOT
ATOM      1  C   UNL d   1      -3.088   3.027   1.262  0.00  0.00     0.124 A 
ATOM      2  C1  UNL d   1      -2.541   2.242   0.257  0.00  0.00     0.062 A 
ATOM      3  C2  UNL d   1      -3.158   2.169  -0.988  0.00  0.00     0.162 A 
ATOM      4  C3  UNL d   1      -4.329   2.884  -1.237  0.00  0.00    -0.034 A 
ATOM      5  C4  UNL d   1      -4.874   3.670  -0.220  0.00  0.00     0.162 A 
ATOM      6  C5  UNL d   1      -4.254   3.740   1.023  0.00  0.00     0.062 A 
ATOM      7  F   UNL d   1      -4.785   4.499   1.993  0.00  0.00    -0.097 F 
ATOM      8  F1  UNL d   1      -6.000   4.371  -0.425  0.00  0.00    -0.096 F 
ATOM      9  I   UNL d   1      -5.254   2.777  -3.098  0.00  0.00    -0.060 I 
ATOM     10  F2  UNL d   1      -2.606   1.402  -1.941  0.00  0.00    -0.096 F 
ATOM     11  F3  UNL d   1      -1.415   1.550   0.487  0.00  0.00    -0.097 F 
ATOM     12  F4  UNL d   1      -2.493   3.094   2.460  0.00  0.00    -0.092 F 
ENDROOT
TORSDOF 0
ENDMDL
