MODEL 1
REMARK minimizedAffinity 24.3814335
REMARK minimizedRMSD -1
REMARK  0 active torsions:
REMARK  status: ('A' for Active; 'I' for Inactive)
ROOT
ATOM      1  C   UNL d   1       2.270  -1.775   4.141  0.00  0.00     0.124 A 
ATOM      2  C1  UNL d   1       1.958  -1.776   2.788  0.00  0.00     0.062 A 
ATOM      3  C2  UNL d   1       2.326  -2.853   1.986  0.00  0.00     0.162 A 
ATOM      4  C3  UNL d   1       3.010  -3.938   2.535  0.00  0.00    -0.034 A 
ATOM      5  C4  UNL d   1       3.321  -3.928   3.895  0.00  0.00     0.162 A 
ATOM      6  C5  UNL d   1       2.951  -2.850   4.693  0.00  0.00     0.062 A 
ATOM      7  F   UNL d   1       3.253  -2.851   5.999  0.00  0.00    -0.097 F 
ATOM      8  F1  UNL d   1       3.978  -4.955   4.455  0.00  0.00    -0.096 F 
ATOM      9  I   UNL d   1       3.563  -5.549   1.339  0.00  0.00    -0.060 I 
ATOM     10  F2  UNL d   1       2.012  -2.827   0.682  0.00  0.00    -0.096 F 
ATOM     11  F3  UNL d   1       1.301  -0.738   2.252  0.00  0.00    -0.097 F 
ATOM     12  F4  UNL d   1       1.915  -0.738   4.910  0.00  0.00    -0.092 F 
ENDROOT
TORSDOF 0
ENDMDL
