MODEL 1
REMARK minimizedAffinity 13.2169752
REMARK minimizedRMSD -1
REMARK  0 active torsions:
REMARK  status: ('A' for Active; 'I' for Inactive)
ROOT
ATOM      1  C   UNL d   1       4.914   1.815  -5.206  0.00  0.00     0.124 A 
ATOM      2  C1  UNL d   1       5.048   0.434  -5.232  0.00  0.00     0.062 A 
ATOM      3  C2  UNL d   1       4.206  -0.365  -4.464  0.00  0.00     0.162 A 
ATOM      4  C3  UNL d   1       3.222   0.215  -3.664  0.00  0.00    -0.034 A 
ATOM      5  C4  UNL d   1       3.094   1.605  -3.643  0.00  0.00     0.162 A 
ATOM      6  C5  UNL d   1       3.938   2.399  -4.412  0.00  0.00     0.062 A 
ATOM      7  F   UNL d   1       3.807   3.734  -4.386  0.00  0.00    -0.097 F 
ATOM      8  F1  UNL d   1       2.158   2.195  -2.885  0.00  0.00    -0.096 F 
ATOM      9  I   UNL d   1       1.961  -0.977  -2.514  0.00  0.00    -0.060 I 
ATOM     10  F2  UNL d   1       4.358  -1.697  -4.508  0.00  0.00    -0.096 F 
ATOM     11  F3  UNL d   1       5.992  -0.133  -5.997  0.00  0.00    -0.097 F 
ATOM     12  F4  UNL d   1       5.727   2.582  -5.945  0.00  0.00    -0.092 F 
ENDROOT
TORSDOF 0
ENDMDL
