MODEL 1
REMARK minimizedAffinity 15.939909
REMARK minimizedRMSD -1
REMARK  0 active torsions:
REMARK  status: ('A' for Active; 'I' for Inactive)
ROOT
ATOM      1  C   UNL d   1       4.785  -1.428   3.628  0.00  0.00     0.124 A 
ATOM      2  C1  UNL d   1       3.565  -1.532   4.281  0.00  0.00     0.062 A 
ATOM      3  C2  UNL d   1       2.381  -1.259   3.602  0.00  0.00     0.162 A 
ATOM      4  C3  UNL d   1       2.411  -0.882   2.259  0.00  0.00    -0.034 A 
ATOM      5  C4  UNL d   1       3.642  -0.779   1.609  0.00  0.00     0.162 A 
ATOM      6  C5  UNL d   1       4.822  -1.052   2.292  0.00  0.00     0.062 A 
ATOM      7  F   UNL d   1       6.000  -0.951   1.659  0.00  0.00    -0.097 F 
ATOM      8  F1  UNL d   1       3.707  -0.418   0.318  0.00  0.00    -0.096 F 
ATOM      9  I   UNL d   1       0.643  -0.474   1.240  0.00  0.00    -0.060 I 
ATOM     10  F2  UNL d   1       1.217  -1.368   4.259  0.00  0.00    -0.096 F 
ATOM     11  F3  UNL d   1       3.526  -1.894   5.572  0.00  0.00    -0.097 F 
ATOM     12  F4  UNL d   1       5.922  -1.690   4.284  0.00  0.00    -0.092 F 
ENDROOT
TORSDOF 0
ENDMDL
