MODEL 1
REMARK minimizedAffinity 8.31719589
REMARK minimizedRMSD -1
REMARK  0 active torsions:
REMARK  status: ('A' for Active; 'I' for Inactive)
ROOT
ATOM      1  C   UNL d   1       2.921   1.143   1.955  0.00  0.00     0.124 A 
ATOM      2  C1  UNL d   1       3.328  -0.174   1.795  0.00  0.00     0.062 A 
ATOM      3  C2  UNL d   1       3.137  -1.096   2.820  0.00  0.00     0.162 A 
ATOM      4  C3  UNL d   1       2.535  -0.703   4.016  0.00  0.00    -0.034 A 
ATOM      5  C4  UNL d   1       2.129   0.623   4.170  0.00  0.00     0.162 A 
ATOM      6  C5  UNL d   1       2.322   1.540   3.142  0.00  0.00     0.062 A 
ATOM      7  F   UNL d   1       1.928   2.813   3.299  0.00  0.00    -0.097 F 
ATOM      8  F1  UNL d   1       1.548   1.034   5.307  0.00  0.00    -0.096 F 
ATOM      9  I   UNL d   1       2.248  -2.078   5.552  0.00  0.00    -0.060 I 
ATOM     10  F2  UNL d   1       3.540  -2.362   2.638  0.00  0.00    -0.096 F 
ATOM     11  F3  UNL d   1       3.907  -0.561   0.649  0.00  0.00    -0.097 F 
ATOM     12  F4  UNL d   1       3.106   2.027   0.967  0.00  0.00    -0.092 F 
ENDROOT
TORSDOF 0
ENDMDL
