MODEL 1
REMARK minimizedAffinity -4.80202866
REMARK minimizedRMSD -1
REMARK  3 active torsions:
REMARK  status: ('A' for Active; 'I' for Inactive)
REMARK    1  A    between atoms: C3'_2  and  C2'_3 
REMARK    2  A    between atoms: C2'_3  and  C1'_4 
REMARK    3  A    between atoms: C1'_4  and  C1_5 
ROOT
ATOM      1  C1  N4B d   1       1.099  -0.047   0.227  0.00  0.00    -0.075 A 
ATOM      2  C2  N4B d   1       1.065  -1.182   1.066  0.00  0.00     0.002 A 
ATOM      3  C3  N4B d   1      -0.037  -2.001   1.069  0.00  0.00     0.002 A 
ATOM      4  C4  N4B d   1      -1.121  -1.695   0.260  0.00  0.00    -0.004 A 
ATOM      5  C5  N4B d   1      -1.070  -0.611  -0.567  0.00  0.00     0.002 A 
ATOM      6  C6  N4B d   1       0.034   0.219  -0.583  0.00  0.00     0.002 A 
ENDROOT
BRANCH   1   7
ATOM      7  C1' N4B d   1       2.247   0.925   0.253  0.00  0.00     0.057 C 
BRANCH   7   8
ATOM      8  C2' N4B d   1       2.277   1.630   1.605  0.00  0.00     0.009 C 
BRANCH   8   9
ATOM      9  C3' N4B d   1       2.615   3.105   1.470  0.00  0.00     0.004 C 
ATOM     10  C4' N4B d   1       2.573   3.583   0.050  0.00  0.00     0.003 C 
ENDBRANCH   8   9
ENDBRANCH   7   8
ENDBRANCH   1   7
TORSDOF 3
ENDMDL
