MODEL 1
REMARK minimizedAffinity -5.97515059
REMARK minimizedRMSD -1
REMARK  3 active torsions:
REMARK  status: ('A' for Active; 'I' for Inactive)
REMARK    1  A    between atoms: C3'_2  and  C2'_3 
REMARK    2  A    between atoms: C2'_3  and  C1'_4 
REMARK    3  A    between atoms: C1'_4  and  C1_5 
ROOT
ATOM      1  C1  N4B d   1       0.346  -0.088  -0.016  0.00  0.00    -0.075 A 
ATOM      2  C2  N4B d   1       0.138   0.314  -1.354  0.00  0.00     0.002 A 
ATOM      3  C3  N4B d   1      -1.124   0.277  -1.894  0.00  0.00     0.002 A 
ATOM      4  C4  N4B d   1      -2.186  -0.174  -1.125  0.00  0.00    -0.004 A 
ATOM      5  C5  N4B d   1      -1.981  -0.537   0.174  0.00  0.00     0.002 A 
ATOM      6  C6  N4B d   1      -0.719  -0.501   0.731  0.00  0.00     0.002 A 
ENDROOT
BRANCH   1   7
ATOM      7  C1' N4B d   1       1.721  -0.146   0.591  0.00  0.00     0.057 C 
BRANCH   7   8
ATOM      8  C2' N4B d   1       1.920   1.065   1.497  0.00  0.00     0.009 C 
BRANCH   8   9
ATOM      9  C3' N4B d   1       3.050   1.957   1.013  0.00  0.00     0.004 C 
ATOM     10  C4' N4B d   1       2.560   3.243   0.416  0.00  0.00     0.003 C 
ENDBRANCH   8   9
ENDBRANCH   7   8
ENDBRANCH   1   7
TORSDOF 3
ENDMDL
