MODEL 1
REMARK minimizedAffinity -6.69975996
REMARK minimizedRMSD -1
REMARK  3 active torsions:
REMARK  status: ('A' for Active; 'I' for Inactive)
REMARK    1  A    between atoms: C3'_2  and  C2'_3 
REMARK    2  A    between atoms: C2'_3  and  C1'_4 
REMARK    3  A    between atoms: C1'_4  and  C1_5 
ROOT
ATOM      1  C1  N4B d   1       0.068  -0.367   0.211  0.00  0.00    -0.075 A 
ATOM      2  C2  N4B d   1      -0.239  -0.028  -1.125  0.00  0.00     0.002 A 
ATOM      3  C3  N4B d   1      -1.540  -0.074  -1.563  0.00  0.00     0.002 A 
ATOM      4  C4  N4B d   1      -2.543  -0.473  -0.693  0.00  0.00    -0.004 A 
ATOM      5  C5  N4B d   1      -2.241  -0.774   0.603  0.00  0.00     0.002 A 
ATOM      6  C6  N4B d   1      -0.939  -0.729   1.058  0.00  0.00     0.002 A 
ENDROOT
BRANCH   1   7
ATOM      7  C1' N4B d   1       1.486  -0.415   0.712  0.00  0.00     0.057 C 
BRANCH   7   8
ATOM      8  C2' N4B d   1       2.200   0.875   0.319  0.00  0.00     0.009 C 
BRANCH   8   9
ATOM      9  C3' N4B d   1       2.203   1.890   1.449  0.00  0.00     0.004 C 
ATOM     10  C4' N4B d   1       2.211   3.306   0.958  0.00  0.00     0.003 C 
ENDBRANCH   8   9
ENDBRANCH   7   8
ENDBRANCH   1   7
TORSDOF 3
ENDMDL
