MODEL 1
REMARK minimizedAffinity -6.41021299
REMARK minimizedRMSD -1
REMARK  3 active torsions:
REMARK  status: ('A' for Active; 'I' for Inactive)
REMARK    1  A    between atoms: C3'_2  and  C2'_3 
REMARK    2  A    between atoms: C2'_3  and  C1'_4 
REMARK    3  A    between atoms: C1'_4  and  C1_5 
ROOT
ATOM      1  C1  N4B d   1      -0.412  -0.411   0.194  0.00  0.00    -0.075 A 
ATOM      2  C2  N4B d   1      -1.482   0.166  -0.525  0.00  0.00     0.002 A 
ATOM      3  C3  N4B d   1      -2.742  -0.372  -0.430  0.00  0.00     0.002 A 
ATOM      4  C4  N4B d   1      -2.952  -1.493   0.360  0.00  0.00    -0.004 A 
ATOM      5  C5  N4B d   1      -1.918  -2.029   1.071  0.00  0.00     0.002 A 
ATOM      6  C6  N4B d   1      -0.647  -1.496   0.988  0.00  0.00     0.002 A 
ENDROOT
BRANCH   1   7
ATOM      7  C1' N4B d   1       1.000   0.089   0.055  0.00  0.00     0.057 C 
BRANCH   7   8
ATOM      8  C2' N4B d   1       1.246   1.186   1.086  0.00  0.00     0.009 C 
BRANCH   8   9
ATOM      9  C3' N4B d   1       2.500   1.985   0.777  0.00  0.00     0.004 C 
ATOM     10  C4' N4B d   1       2.329   3.454   1.026  0.00  0.00     0.003 C 
ENDBRANCH   8   9
ENDBRANCH   7   8
ENDBRANCH   1   7
TORSDOF 3
ENDMDL
