MODEL 1
REMARK minimizedAffinity -3.08521032
REMARK minimizedRMSD -1
REMARK  3 active torsions:
REMARK  status: ('A' for Active; 'I' for Inactive)
REMARK    1  A    between atoms: C3'_2  and  C2'_3 
REMARK    2  A    between atoms: C2'_3  and  C1'_4 
REMARK    3  A    between atoms: C1'_4  and  C1_5 
ROOT
ATOM      1  C1  N4B d   1      -0.829  -0.231  -0.594  0.00  0.00    -0.075 A 
ATOM      2  C2  N4B d   1      -1.220  -0.267   0.763  0.00  0.00     0.002 A 
ATOM      3  C3  N4B d   1      -2.463  -0.740   1.107  0.00  0.00     0.002 A 
ATOM      4  C4  N4B d   1      -3.335  -1.163   0.115  0.00  0.00    -0.004 A 
ATOM      5  C5  N4B d   1      -2.940  -1.149  -1.191  0.00  0.00     0.002 A 
ATOM      6  C6  N4B d   1      -1.692  -0.680  -1.551  0.00  0.00     0.002 A 
ENDROOT
BRANCH   1   7
ATOM      7  C1' N4B d   1       0.486   0.357  -1.026  0.00  0.00     0.057 C 
BRANCH   7   8
ATOM      8  C2' N4B d   1       1.296   0.735   0.211  0.00  0.00     0.009 C 
BRANCH   8   9
ATOM      9  C3' N4B d   1       2.301   1.835  -0.082  0.00  0.00     0.004 C 
ATOM     10  C4' N4B d   1       2.304   2.912   0.961  0.00  0.00     0.003 C 
ENDBRANCH   8   9
ENDBRANCH   7   8
ENDBRANCH   1   7
TORSDOF 3
ENDMDL
