MODEL 1
REMARK minimizedAffinity -5.58358288
REMARK minimizedRMSD -1
REMARK  3 active torsions:
REMARK  status: ('A' for Active; 'I' for Inactive)
REMARK    1  A    between atoms: C3'_2  and  C2'_3 
REMARK    2  A    between atoms: C2'_3  and  C1'_4 
REMARK    3  A    between atoms: C1'_4  and  C1_5 
ROOT
ATOM      1  C1  N4B d   1      -0.628  -0.329   0.064  0.00  0.00    -0.075 A 
ATOM      2  C2  N4B d   1      -1.110  -0.052  -1.234  0.00  0.00     0.002 A 
ATOM      3  C3  N4B d   1      -2.458  -0.109  -1.492  0.00  0.00     0.002 A 
ATOM      4  C4  N4B d   1      -3.337  -0.457  -0.477  0.00  0.00    -0.004 A 
ATOM      5  C5  N4B d   1      -2.865  -0.699   0.780  0.00  0.00     0.002 A 
ATOM      6  C6  N4B d   1      -1.513  -0.641   1.055  0.00  0.00     0.002 A 
ENDROOT
BRANCH   1   7
ATOM      7  C1' N4B d   1       0.844  -0.363   0.374  0.00  0.00     0.057 C 
BRANCH   7   8
ATOM      8  C2' N4B d   1       1.421   1.041   0.220  0.00  0.00     0.009 C 
BRANCH   8   9
ATOM      9  C3' N4B d   1       1.667   1.704   1.564  0.00  0.00     0.004 C 
ATOM     10  C4' N4B d   1       2.742   2.748   1.508  0.00  0.00     0.003 C 
ENDBRANCH   8   9
ENDBRANCH   7   8
ENDBRANCH   1   7
TORSDOF 3
ENDMDL
