MODEL 1
REMARK minimizedAffinity -3.45607758
REMARK minimizedRMSD -1
REMARK  3 active torsions:
REMARK  status: ('A' for Active; 'I' for Inactive)
REMARK    1  A    between atoms: C3'_2  and  C2'_3 
REMARK    2  A    between atoms: C2'_3  and  C1'_4 
REMARK    3  A    between atoms: C1'_4  and  C1_5 
ROOT
ATOM      1  C1  N4B d   1       0.030   0.112  -0.355  0.00  0.00    -0.075 A 
ATOM      2  C2  N4B d   1      -0.669   0.838  -1.344  0.00  0.00     0.002 A 
ATOM      3  C3  N4B d   1      -2.013   0.624  -1.531  0.00  0.00     0.002 A 
ATOM      4  C4  N4B d   1      -2.671  -0.322  -0.759  0.00  0.00    -0.004 A 
ATOM      5  C5  N4B d   1      -1.993  -1.001   0.211  0.00  0.00     0.002 A 
ATOM      6  C6  N4B d   1      -0.644  -0.793   0.413  0.00  0.00     0.002 A 
ENDROOT
BRANCH   1   7
ATOM      7  C1' N4B d   1       1.517   0.250  -0.171  0.00  0.00     0.057 C 
BRANCH   7   8
ATOM      8  C2' N4B d   1       1.801   1.453   0.723  0.00  0.00     0.009 C 
BRANCH   8   9
ATOM      9  C3' N4B d   1       2.976   2.272   0.216  0.00  0.00     0.004 C 
ATOM     10  C4' N4B d   1       2.952   3.688   0.708  0.00  0.00     0.003 C 
ENDBRANCH   8   9
ENDBRANCH   7   8
ENDBRANCH   1   7
TORSDOF 3
ENDMDL
