MODEL 1
REMARK minimizedAffinity -0.647824287
REMARK minimizedRMSD -1
REMARK  0 active torsions:
REMARK  status: ('A' for Active; 'I' for Inactive)
ROOT
ATOM      1  C4' PXY d   1       4.182  -0.356  -2.275  0.00  0.00     0.077 C 
ATOM      2  C1' PXY d   1      -0.030  -0.646   1.673  0.00  0.00     0.077 C 
ATOM      3  C1  PXY d   1       1.083  -0.576   0.646  0.00  0.00    -0.082 A 
ATOM      4  C2  PXY d   1       1.077   0.387  -0.261  0.00  0.00     0.003 A 
ATOM      5  C3  PXY d   1       2.058   0.446  -1.217  0.00  0.00     0.003 A 
ATOM      6  C4  PXY d   1       3.085  -0.460  -1.213  0.00  0.00    -0.082 A 
ATOM      7  C5  PXY d   1       3.104  -1.439  -0.284  0.00  0.00     0.003 A 
ATOM      8  C6  PXY d   1       2.077  -1.506   0.653  0.00  0.00     0.003 A 
ENDROOT
TORSDOF 0
ENDMDL
