MODEL 1
REMARK minimizedAffinity -2.07239628
REMARK minimizedRMSD -1
REMARK  0 active torsions:
REMARK  status: ('A' for Active; 'I' for Inactive)
ROOT
ATOM      1  C4' PXY d   1       5.989  -0.143  -2.829  0.00  0.00     0.077 C 
ATOM      2  C1' PXY d   1       1.094  -0.232   0.244  0.00  0.00     0.077 C 
ATOM      3  C1  PXY d   1       2.374  -0.198  -0.568  0.00  0.00    -0.082 A 
ATOM      4  C2  PXY d   1       3.038  -1.320  -0.789  0.00  0.00     0.003 A 
ATOM      5  C3  PXY d   1       4.214  -1.302  -1.494  0.00  0.00     0.003 A 
ATOM      6  C4  PXY d   1       4.687  -0.131  -2.023  0.00  0.00    -0.082 A 
ATOM      7  C5  PXY d   1       4.009   1.016  -1.811  0.00  0.00     0.003 A 
ATOM      8  C6  PXY d   1       2.839   0.983  -1.058  0.00  0.00     0.003 A 
ENDROOT
TORSDOF 0
ENDMDL
