MODEL 1
REMARK minimizedAffinity -1.09718311
REMARK minimizedRMSD -1
REMARK  0 active torsions:
REMARK  status: ('A' for Active; 'I' for Inactive)
ROOT
ATOM      1  C4' PXY d   1       4.870  -0.714  -2.368  0.00  0.00     0.077 C 
ATOM      2  C1' PXY d   1       0.222  -0.251   1.038  0.00  0.00     0.077 C 
ATOM      3  C1  PXY d   1       1.438  -0.361   0.140  0.00  0.00    -0.082 A 
ATOM      4  C2  PXY d   1       1.938  -1.553  -0.143  0.00  0.00     0.003 A 
ATOM      5  C3  PXY d   1       3.056  -1.669  -0.928  0.00  0.00     0.003 A 
ATOM      6  C4  PXY d   1       3.638  -0.556  -1.473  0.00  0.00    -0.082 A 
ATOM      7  C5  PXY d   1       3.128   0.664  -1.199  0.00  0.00     0.003 A 
ATOM      8  C6  PXY d   1       2.017   0.762  -0.366  0.00  0.00     0.003 A 
ENDROOT
TORSDOF 0
ENDMDL
