MODEL 1
REMARK minimizedAffinity -2.02476168
REMARK minimizedRMSD -1
REMARK  0 active torsions:
REMARK  status: ('A' for Active; 'I' for Inactive)
ROOT
ATOM      1  C4' PXY d   1       4.305   0.123  -2.513  0.00  0.00     0.077 C 
ATOM      2  C1' PXY d   1       0.162  -1.037   1.347  0.00  0.00     0.077 C 
ATOM      3  C1  PXY d   1       1.255  -0.742   0.340  0.00  0.00    -0.082 A 
ATOM      4  C2  PXY d   1       1.340   0.462  -0.201  0.00  0.00     0.003 A 
ATOM      5  C3  PXY d   1       2.303   0.736  -1.137  0.00  0.00     0.003 A 
ATOM      6  C4  PXY d   1       3.222  -0.217  -1.485  0.00  0.00    -0.082 A 
ATOM      7  C5  PXY d   1       3.149  -1.445  -0.930  0.00  0.00     0.003 A 
ATOM      8  C6  PXY d   1       2.139  -1.716  -0.012  0.00  0.00     0.003 A 
ENDROOT
TORSDOF 0
ENDMDL
