MODEL 1
REMARK minimizedAffinity 0.673922896
REMARK minimizedRMSD -1
REMARK  0 active torsions:
REMARK  status: ('A' for Active; 'I' for Inactive)
ROOT
ATOM      1  C4' PXY d   1       5.237  -5.998   5.968  0.00  0.00     0.077 C 
ATOM      2  C1' PXY d   1       0.379  -5.980   2.836  0.00  0.00     0.077 C 
ATOM      3  C1  PXY d   1       1.646  -5.979   3.668  0.00  0.00    -0.082 A 
ATOM      4  C2  PXY d   1       2.824  -5.968   3.065  0.00  0.00     0.003 A 
ATOM      5  C3  PXY d   1       3.980  -6.000   3.801  0.00  0.00     0.003 A 
ATOM      6  C4  PXY d   1       3.931  -5.990   5.169  0.00  0.00    -0.082 A 
ATOM      7  C5  PXY d   1       2.733  -5.990   5.792  0.00  0.00     0.003 A 
ATOM      8  C6  PXY d   1       1.571  -6.000   5.026  0.00  0.00     0.003 A 
ENDROOT
TORSDOF 0
ENDMDL
