MODEL 1
REMARK minimizedAffinity -1.93197155
REMARK minimizedRMSD -1
REMARK  0 active torsions:
REMARK  status: ('A' for Active; 'I' for Inactive)
ROOT
ATOM      1  C4' PXY d   1       0.322  -0.794   0.458  0.00  0.00     0.077 C 
ATOM      2  C1' PXY d   1       4.963   0.230  -2.834  0.00  0.00     0.077 C 
ATOM      3  C1  PXY d   1       3.747  -0.027  -1.965  0.00  0.00    -0.082 A 
ATOM      4  C2  PXY d   1       3.406  -1.270  -1.668  0.00  0.00     0.003 A 
ATOM      5  C3  PXY d   1       2.291  -1.521  -0.910  0.00  0.00     0.003 A 
ATOM      6  C4  PXY d   1       1.548  -0.488  -0.408  0.00  0.00    -0.082 A 
ATOM      7  C5  PXY d   1       1.895   0.784  -0.698  0.00  0.00     0.003 A 
ATOM      8  C6  PXY d   1       3.006   1.017  -1.503  0.00  0.00     0.003 A 
ENDROOT
TORSDOF 0
ENDMDL
