MODEL 1
REMARK minimizedAffinity 2.09747696
REMARK minimizedRMSD -1
REMARK  0 active torsions:
REMARK  status: ('A' for Active; 'I' for Inactive)
ROOT
ATOM      1  C4' PXY d   1       4.931  -1.150  -1.703  0.00  0.00     0.077 C 
ATOM      2  C1' PXY d   1       0.023  -0.057   1.149  0.00  0.00     0.077 C 
ATOM      3  C1  PXY d   1       1.309  -0.357   0.404  0.00  0.00    -0.082 A 
ATOM      4  C2  PXY d   1       2.187   0.612   0.199  0.00  0.00     0.003 A 
ATOM      5  C3  PXY d   1       3.340   0.366  -0.501  0.00  0.00     0.003 A 
ATOM      6  C4  PXY d   1       3.623  -0.896  -0.948  0.00  0.00    -0.082 A 
ATOM      7  C5  PXY d   1       2.738  -1.892  -0.734  0.00  0.00     0.003 A 
ATOM      8  C6  PXY d   1       1.554  -1.613  -0.058  0.00  0.00     0.003 A 
ENDROOT
TORSDOF 0
ENDMDL
