MODEL 1
REMARK minimizedAffinity -1.80805445
REMARK minimizedRMSD -1
REMARK  0 active torsions:
REMARK  status: ('A' for Active; 'I' for Inactive)
ROOT
ATOM      1  C4' PXY d   1       5.523  -0.008  -2.716  0.00  0.00     0.077 C 
ATOM      2  C1' PXY d   1       0.772  -0.773   0.487  0.00  0.00     0.077 C 
ATOM      3  C1  PXY d   1       2.013  -0.561  -0.357  0.00  0.00    -0.082 A 
ATOM      4  C2  PXY d   1       2.740  -1.604  -0.725  0.00  0.00     0.003 A 
ATOM      5  C3  PXY d   1       3.883  -1.427  -1.461  0.00  0.00     0.003 A 
ATOM      6  C4  PXY d   1       4.257  -0.176  -1.871  0.00  0.00    -0.082 A 
ATOM      7  C5  PXY d   1       3.514   0.892  -1.510  0.00  0.00     0.003 A 
ATOM      8  C6  PXY d   1       2.380   0.696  -0.727  0.00  0.00     0.003 A 
ENDROOT
TORSDOF 0
ENDMDL
