MODEL 1
REMARK minimizedAffinity 5.86589718
REMARK minimizedRMSD -1
REMARK  0 active torsions:
REMARK  status: ('A' for Active; 'I' for Inactive)
ROOT
ATOM      1  C4' PXY d   1      -1.286   6.000  -1.511  0.00  0.00     0.077 C 
ATOM      2  C1' PXY d   1       0.126   1.218  -4.436  0.00  0.00     0.077 C 
ATOM      3  C1  PXY d   1      -0.257   2.472  -3.674  0.00  0.00    -0.082 A 
ATOM      4  C2  PXY d   1       0.679   3.347  -3.343  0.00  0.00     0.003 A 
ATOM      5  C3  PXY d   1       0.355   4.470  -2.626  0.00  0.00     0.003 A 
ATOM      6  C4  PXY d   1      -0.947   4.726  -2.289  0.00  0.00    -0.082 A 
ATOM      7  C5  PXY d   1      -1.909   3.842  -2.632  0.00  0.00     0.003 A 
ATOM      8  C6  PXY d   1      -1.554   2.688  -3.324  0.00  0.00     0.003 A 
ENDROOT
TORSDOF 0
ENDMDL
