MODEL 1
REMARK minimizedAffinity 2.0024631
REMARK minimizedRMSD -1
REMARK  0 active torsions:
REMARK  status: ('A' for Active; 'I' for Inactive)
ROOT
ATOM      1  C4' PXY d   1       3.121  -1.103  -0.503  0.00  0.00     0.077 C 
ATOM      2  C1' PXY d   1      -1.633  -0.315   2.690  0.00  0.00     0.077 C 
ATOM      3  C1  PXY d   1      -0.386  -0.509   1.852  0.00  0.00    -0.082 A 
ATOM      4  C2  PXY d   1      -0.195  -1.654   1.217  0.00  0.00     0.003 A 
ATOM      5  C3  PXY d   1       0.943  -1.858   0.480  0.00  0.00     0.003 A 
ATOM      6  C4  PXY d   1       1.871  -0.859   0.348  0.00  0.00    -0.082 A 
ATOM      7  C5  PXY d   1       1.679   0.316   0.984  0.00  0.00     0.003 A 
ATOM      8  C6  PXY d   1       0.536   0.488   1.760  0.00  0.00     0.003 A 
ENDROOT
TORSDOF 0
ENDMDL
