MODEL 1
REMARK minimizedAffinity 1.2004509
REMARK minimizedRMSD -1
REMARK  0 active torsions:
REMARK  status: ('A' for Active; 'I' for Inactive)
ROOT
ATOM      1  C4' PXY d   1       0.165  -0.888   0.937  0.00  0.00     0.077 C 
ATOM      2  C1' PXY d   1       4.803  -0.254  -2.454  0.00  0.00     0.077 C 
ATOM      3  C1  PXY d   1       3.588  -0.408  -1.561  0.00  0.00    -0.082 A 
ATOM      4  C2  PXY d   1       3.239  -1.610  -1.132  0.00  0.00     0.003 A 
ATOM      5  C3  PXY d   1       2.125  -1.771  -0.349  0.00  0.00     0.003 A 
ATOM      6  C4  PXY d   1       1.390  -0.684   0.041  0.00  0.00    -0.082 A 
ATOM      7  C5  PXY d   1       1.745   0.547  -0.383  0.00  0.00     0.003 A 
ATOM      8  C6  PXY d   1       2.856   0.684  -1.211  0.00  0.00     0.003 A 
ENDROOT
TORSDOF 0
ENDMDL
