MODEL 1
REMARK minimizedAffinity -1.46912563
REMARK minimizedRMSD -1
REMARK  0 active torsions:
REMARK  status: ('A' for Active; 'I' for Inactive)
ROOT
ATOM      1  C4' PXY d   1       4.037  -1.302  -1.053  0.00  0.00     0.077 C 
ATOM      2  C1' PXY d   1      -0.809  -0.429   1.975  0.00  0.00     0.077 C 
ATOM      3  C1  PXY d   1       0.459  -0.647   1.174  0.00  0.00    -0.082 A 
ATOM      4  C2  PXY d   1       0.961  -1.866   1.062  0.00  0.00     0.003 A 
ATOM      5  C3  PXY d   1       2.125  -2.077   0.368  0.00  0.00     0.003 A 
ATOM      6  C4  PXY d   1       2.753  -1.036  -0.262  0.00  0.00    -0.082 A 
ATOM      7  C5  PXY d   1       2.242   0.209  -0.162  0.00  0.00     0.003 A 
ATOM      8  C6  PXY d   1       1.082   0.408   0.582  0.00  0.00     0.003 A 
ENDROOT
TORSDOF 0
ENDMDL
