MODEL 1
REMARK minimizedAffinity -2.0815115
REMARK minimizedRMSD -1
REMARK  0 active torsions:
REMARK  status: ('A' for Active; 'I' for Inactive)
ROOT
ATOM      1  C4' PXY d   1       3.803  -1.122  -0.626  0.00  0.00     0.077 C 
ATOM      2  C1' PXY d   1      -1.263  -0.667   2.120  0.00  0.00     0.077 C 
ATOM      3  C1  PXY d   1       0.065  -0.774   1.396  0.00  0.00    -0.082 A 
ATOM      4  C2  PXY d   1       0.485  -1.954   0.971  0.00  0.00     0.003 A 
ATOM      5  C3  PXY d   1       1.698  -2.074   0.343  0.00  0.00     0.003 A 
ATOM      6  C4  PXY d   1       2.465  -0.966   0.101  0.00  0.00    -0.082 A 
ATOM      7  C5  PXY d   1       2.038   0.244   0.523  0.00  0.00     0.003 A 
ATOM      8  C6  PXY d   1       0.823   0.338   1.194  0.00  0.00     0.003 A 
ENDROOT
TORSDOF 0
ENDMDL
