MODEL 1
REMARK minimizedAffinity -1.5109762
REMARK minimizedRMSD -1
REMARK  0 active torsions:
REMARK  status: ('A' for Active; 'I' for Inactive)
ROOT
ATOM      1  C4' PXY d   1       4.412  -0.482  -2.710  0.00  0.00     0.077 C 
ATOM      2  C1' PXY d   1       0.210  -0.432   1.259  0.00  0.00     0.077 C 
ATOM      3  C1  PXY d   1       1.306  -0.435   0.212  0.00  0.00    -0.082 A 
ATOM      4  C2  PXY d   1       1.995  -1.543  -0.011  0.00  0.00     0.003 A 
ATOM      5  C3  PXY d   1       3.011  -1.554  -0.931  0.00  0.00     0.003 A 
ATOM      6  C4  PXY d   1       3.290  -0.435  -1.669  0.00  0.00    -0.082 A 
ATOM      7  C5  PXY d   1       2.585   0.696  -1.456  0.00  0.00     0.003 A 
ATOM      8  C6  PXY d   1       1.585   0.698  -0.487  0.00  0.00     0.003 A 
ENDROOT
TORSDOF 0
ENDMDL
