MODEL 1
REMARK minimizedAffinity -1.22943032
REMARK minimizedRMSD -1
REMARK  0 active torsions:
REMARK  status: ('A' for Active; 'I' for Inactive)
ROOT
ATOM      1  C4' PXY d   1       0.916  -0.163   1.284  0.00  0.00     0.077 C 
ATOM      2  C1' PXY d   1       5.047   0.142  -2.748  0.00  0.00     0.077 C 
ATOM      3  C1  PXY d   1       3.965   0.075  -1.688  0.00  0.00    -0.082 A 
ATOM      4  C2  PXY d   1       3.664  -1.088  -1.134  0.00  0.00     0.003 A 
ATOM      5  C3  PXY d   1       2.667  -1.172  -0.196  0.00  0.00     0.003 A 
ATOM      6  C4  PXY d   1       2.007  -0.046   0.216  0.00  0.00    -0.082 A 
ATOM      7  C5  PXY d   1       2.316   1.146  -0.337  0.00  0.00     0.003 A 
ATOM      8  C6  PXY d   1       3.303   1.204  -1.316  0.00  0.00     0.003 A 
ENDROOT
TORSDOF 0
ENDMDL
