MODEL 1
REMARK minimizedAffinity 0.177721664
REMARK minimizedRMSD -1
REMARK  0 active torsions:
REMARK  status: ('A' for Active; 'I' for Inactive)
ROOT
ATOM      1  C4' PXY d   1       3.313  -1.207  -0.274  0.00  0.00     0.077 C 
ATOM      2  C1' PXY d   1      -1.679  -0.300   2.496  0.00  0.00     0.077 C 
ATOM      3  C1  PXY d   1      -0.373  -0.528   1.761  0.00  0.00    -0.082 A 
ATOM      4  C2  PXY d   1       0.235  -1.700   1.855  0.00  0.00     0.003 A 
ATOM      5  C3  PXY d   1       1.433  -1.913   1.223  0.00  0.00     0.003 A 
ATOM      6  C4  PXY d   1       1.988  -0.934   0.443  0.00  0.00    -0.082 A 
ATOM      7  C5  PXY d   1       1.369   0.260   0.333  0.00  0.00     0.003 A 
ATOM      8  C6  PXY d   1       0.175   0.470   1.016  0.00  0.00     0.003 A 
ENDROOT
TORSDOF 0
ENDMDL
