MODEL 1
REMARK minimizedAffinity -2.49725509
REMARK minimizedRMSD -1
REMARK  0 active torsions:
REMARK  status: ('A' for Active; 'I' for Inactive)
ROOT
ATOM      1  C4' PXY d   1       4.607  -0.179  -2.707  0.00  0.00     0.077 C 
ATOM      2  C1' PXY d   1       0.405  -0.580   1.243  0.00  0.00     0.077 C 
ATOM      3  C1  PXY d   1       1.503  -0.463   0.204  0.00  0.00    -0.082 A 
ATOM      4  C2  PXY d   1       2.065  -1.559  -0.280  0.00  0.00     0.003 A 
ATOM      5  C3  PXY d   1       3.081  -1.470  -1.196  0.00  0.00     0.003 A 
ATOM      6  C4  PXY d   1       3.489  -0.249  -1.663  0.00  0.00    -0.082 A 
ATOM      7  C5  PXY d   1       2.912   0.873  -1.183  0.00  0.00     0.003 A 
ATOM      8  C6  PXY d   1       1.911   0.763  -0.222  0.00  0.00     0.003 A 
ENDROOT
TORSDOF 0
ENDMDL
