MODEL 1
REMARK minimizedAffinity -1.18102336
REMARK minimizedRMSD -1
REMARK  0 active torsions:
REMARK  status: ('A' for Active; 'I' for Inactive)
ROOT
ATOM      1  C4' PXY d   1       2.218  -0.645   2.278  0.00  0.00     0.077 C 
ATOM      2  C1' PXY d   1      -3.383  -1.806   1.439  0.00  0.00     0.077 C 
ATOM      3  C1  PXY d   1      -1.912  -1.514   1.660  0.00  0.00    -0.082 A 
ATOM      4  C2  PXY d   1      -1.544  -0.344   2.158  0.00  0.00     0.003 A 
ATOM      5  C3  PXY d   1      -0.216  -0.052   2.333  0.00  0.00     0.003 A 
ATOM      6  C4  PXY d   1       0.743  -0.987   2.047  0.00  0.00    -0.082 A 
ATOM      7  C5  PXY d   1       0.375  -2.186   1.549  0.00  0.00     0.003 A 
ATOM      8  C6  PXY d   1      -0.976  -2.448   1.339  0.00  0.00     0.003 A 
ENDROOT
TORSDOF 0
ENDMDL
