MODEL 1
REMARK minimizedAffinity -5.67686605
REMARK minimizedRMSD -1
REMARK  0 active torsions:
REMARK  status: ('A' for Active; 'I' for Inactive)
ROOT
ATOM      1  C4' PXY d   1       4.902   0.154  -2.900  0.00  0.00     0.077 C 
ATOM      2  C1' PXY d   1       0.483  -0.447   0.776  0.00  0.00     0.077 C 
ATOM      3  C1  PXY d   1       1.647  -0.300  -0.183  0.00  0.00    -0.082 A 
ATOM      4  C2  PXY d   1       1.929   0.888  -0.692  0.00  0.00     0.003 A 
ATOM      5  C3  PXY d   1       2.959   1.033  -1.586  0.00  0.00     0.003 A 
ATOM      6  C4  PXY d   1       3.742  -0.039  -1.921  0.00  0.00    -0.082 A 
ATOM      7  C5  PXY d   1       3.467  -1.253  -1.397  0.00  0.00     0.003 A 
ATOM      8  C6  PXY d   1       2.392  -1.387  -0.524  0.00  0.00     0.003 A 
ENDROOT
TORSDOF 0
ENDMDL
