MODEL 1
REMARK minimizedAffinity -0.275846034
REMARK minimizedRMSD -1
REMARK  0 active torsions:
REMARK  status: ('A' for Active; 'I' for Inactive)
ROOT
ATOM      1  C1  BNZ d   1      -3.154   2.665  -6.000  0.00  0.00     0.000 A 
ATOM      2  C2  BNZ d   1      -3.559   3.973  -5.999  0.00  0.00     0.000 A 
ATOM      3  C3  BNZ d   1      -2.895   4.911  -5.259  0.00  0.00     0.000 A 
ATOM      4  C4  BNZ d   1      -1.853   4.534  -4.490  0.00  0.00     0.000 A 
ATOM      5  C5  BNZ d   1      -1.438   3.217  -4.473  0.00  0.00     0.000 A 
ATOM      6  C6  BNZ d   1      -2.085   2.283  -5.249  0.00  0.00     0.000 A 
ENDROOT
TORSDOF 0
ENDMDL
