MODEL 1
REMARK minimizedAffinity -0.699006319
REMARK minimizedRMSD -1
REMARK  0 active torsions:
REMARK  status: ('A' for Active; 'I' for Inactive)
ROOT
ATOM      1  C1  BNZ d   1      -0.714   0.122   0.456  0.00  0.00     0.000 A 
ATOM      2  C2  BNZ d   1      -1.629   1.120   0.664  0.00  0.00     0.000 A 
ATOM      3  C3  BNZ d   1      -1.223   2.386   0.980  0.00  0.00     0.000 A 
ATOM      4  C4  BNZ d   1       0.092   2.644   1.127  0.00  0.00     0.000 A 
ATOM      5  C5  BNZ d   1       1.026   1.646   0.929  0.00  0.00     0.000 A 
ATOM      6  C6  BNZ d   1       0.616   0.382   0.573  0.00  0.00     0.000 A 
ENDROOT
TORSDOF 0
ENDMDL
