MODEL 1
REMARK minimizedAffinity -1.52929688
REMARK minimizedRMSD -1
REMARK  0 active torsions:
REMARK  status: ('A' for Active; 'I' for Inactive)
ROOT
ATOM      1  C1  BNZ d   1      -0.306  -0.159  -0.849  0.00  0.00     0.000 A 
ATOM      2  C2  BNZ d   1      -1.146   0.922  -0.826  0.00  0.00     0.000 A 
ATOM      3  C3  BNZ d   1      -1.776   1.294   0.328  0.00  0.00     0.000 A 
ATOM      4  C4  BNZ d   1      -1.598   0.561   1.447  0.00  0.00     0.000 A 
ATOM      5  C5  BNZ d   1      -0.762  -0.537   1.437  0.00  0.00     0.000 A 
ATOM      6  C6  BNZ d   1      -0.098  -0.886   0.283  0.00  0.00     0.000 A 
ENDROOT
TORSDOF 0
ENDMDL
