MODEL 1
REMARK minimizedAffinity -1.57252109
REMARK minimizedRMSD -1
REMARK  0 active torsions:
REMARK  status: ('A' for Active; 'I' for Inactive)
ROOT
ATOM      1  C1  BNZ d   1      -0.768   2.358   0.878  0.00  0.00     0.000 A 
ATOM      2  C2  BNZ d   1      -2.035   1.841   0.936  0.00  0.00     0.000 A 
ATOM      3  C3  BNZ d   1      -2.239   0.490   0.954  0.00  0.00     0.000 A 
ATOM      4  C4  BNZ d   1      -1.180  -0.342   0.873  0.00  0.00     0.000 A 
ATOM      5  C5  BNZ d   1       0.102   0.164   0.804  0.00  0.00     0.000 A 
ATOM      6  C6  BNZ d   1       0.307   1.525   0.826  0.00  0.00     0.000 A 
ENDROOT
TORSDOF 0
ENDMDL
