MODEL 1
REMARK minimizedAffinity -1.00633216
REMARK minimizedRMSD -1
REMARK  0 active torsions:
REMARK  status: ('A' for Active; 'I' for Inactive)
ROOT
ATOM      1  C1  BNZ d   1      -1.984   2.626  -5.490  0.00  0.00     0.000 A 
ATOM      2  C2  BNZ d   1      -1.141   3.567  -4.962  0.00  0.00     0.000 A 
ATOM      3  C3  BNZ d   1      -1.498   4.886  -4.927  0.00  0.00     0.000 A 
ATOM      4  C4  BNZ d   1      -2.679   5.267  -5.456  0.00  0.00     0.000 A 
ATOM      5  C5  BNZ d   1      -3.536   4.331  -6.000  0.00  0.00     0.000 A 
ATOM      6  C6  BNZ d   1      -3.190   2.999  -5.998  0.00  0.00     0.000 A 
ENDROOT
TORSDOF 0
ENDMDL
