MODEL 1
REMARK minimizedAffinity -2.8529458
REMARK minimizedRMSD -1
REMARK  0 active torsions:
REMARK  status: ('A' for Active; 'I' for Inactive)
ROOT
ATOM      1  C1  BNZ d   1       0.337   0.555   0.641  0.00  0.00     0.000 A 
ATOM      2  C2  BNZ d   1       1.494   1.140   1.082  0.00  0.00     0.000 A 
ATOM      3  C3  BNZ d   1       1.494   2.424   1.551  0.00  0.00     0.000 A 
ATOM      4  C4  BNZ d   1       0.347   3.134   1.540  0.00  0.00     0.000 A 
ATOM      5  C5  BNZ d   1      -0.825   2.561   1.089  0.00  0.00     0.000 A 
ATOM      6  C6  BNZ d   1      -0.829   1.255   0.655  0.00  0.00     0.000 A 
ENDROOT
TORSDOF 0
ENDMDL
