MODEL 1
REMARK minimizedAffinity 1.13822019
REMARK minimizedRMSD -1
REMARK  0 active torsions:
REMARK  status: ('A' for Active; 'I' for Inactive)
ROOT
ATOM      1  C1  BNZ d   1      -1.624   2.388   1.143  0.00  0.00     0.000 A 
ATOM      2  C2  BNZ d   1      -2.414   1.272   1.215  0.00  0.00     0.000 A 
ATOM      3  C3  BNZ d   1      -1.868   0.021   1.135  0.00  0.00     0.000 A 
ATOM      4  C4  BNZ d   1      -0.539  -0.111   0.942  0.00  0.00     0.000 A 
ATOM      5  C5  BNZ d   1       0.269   1.005   0.858  0.00  0.00     0.000 A 
ATOM      6  C6  BNZ d   1      -0.279   2.261   0.978  0.00  0.00     0.000 A 
ENDROOT
TORSDOF 0
ENDMDL
