MODEL 1
REMARK minimizedAffinity -1.13581383
REMARK minimizedRMSD -1
REMARK  0 active torsions:
REMARK  status: ('A' for Active; 'I' for Inactive)
ROOT
ATOM      1  C1  BNZ d   1       1.169   1.321   0.478  0.00  0.00     0.000 A 
ATOM      2  C2  BNZ d   1      -0.163   1.615   0.365  0.00  0.00     0.000 A 
ATOM      3  C3  BNZ d   1      -0.770   2.468   1.244  0.00  0.00     0.000 A 
ATOM      4  C4  BNZ d   1      -0.053   2.994   2.258  0.00  0.00     0.000 A 
ATOM      5  C5  BNZ d   1       1.289   2.700   2.392  0.00  0.00     0.000 A 
ATOM      6  C6  BNZ d   1       1.905   1.871   1.482  0.00  0.00     0.000 A 
ENDROOT
TORSDOF 0
ENDMDL
