MODEL 1
REMARK minimizedAffinity -3.26554871
REMARK minimizedRMSD -1
REMARK  0 active torsions:
REMARK  status: ('A' for Active; 'I' for Inactive)
ROOT
ATOM      1  C1  BNZ d   1      -3.663   3.009  -5.842  0.00  0.00     0.000 A 
ATOM      2  C2  BNZ d   1      -2.413   3.547  -5.994  0.00  0.00     0.000 A 
ATOM      3  C3  BNZ d   1      -2.159   4.840  -5.631  0.00  0.00     0.000 A 
ATOM      4  C4  BNZ d   1      -3.163   5.604  -5.155  0.00  0.00     0.000 A 
ATOM      5  C5  BNZ d   1      -4.431   5.079  -5.004  0.00  0.00     0.000 A 
ATOM      6  C6  BNZ d   1      -4.674   3.765  -5.334  0.00  0.00     0.000 A 
ENDROOT
TORSDOF 0
ENDMDL
