MODEL 1
REMARK minimizedAffinity 0.418509275
REMARK minimizedRMSD -1
REMARK  0 active torsions:
REMARK  status: ('A' for Active; 'I' for Inactive)
ROOT
ATOM      1  C1  BNZ d   1      -0.596  -0.916   0.985  0.00  0.00     0.000 A 
ATOM      2  C2  BNZ d   1      -1.789  -0.285   1.216  0.00  0.00     0.000 A 
ATOM      3  C3  BNZ d   1      -1.875   1.079   1.190  0.00  0.00     0.000 A 
ATOM      4  C4  BNZ d   1      -0.763   1.810   0.974  0.00  0.00     0.000 A 
ATOM      5  C5  BNZ d   1       0.449   1.189   0.748  0.00  0.00     0.000 A 
ATOM      6  C6  BNZ d   1       0.525  -0.185   0.736  0.00  0.00     0.000 A 
ENDROOT
TORSDOF 0
ENDMDL
