MODEL 1
REMARK minimizedAffinity 0.0584585667
REMARK minimizedRMSD -1
REMARK  0 active torsions:
REMARK  status: ('A' for Active; 'I' for Inactive)
ROOT
ATOM      1  C1  BNZ d   1      -1.104   2.232   1.101  0.00  0.00     0.000 A 
ATOM      2  C2  BNZ d   1      -2.097   1.296   1.202  0.00  0.00     0.000 A 
ATOM      3  C3  BNZ d   1      -1.806  -0.040   1.182  0.00  0.00     0.000 A 
ATOM      4  C4  BNZ d   1      -0.527  -0.436   1.022  0.00  0.00     0.000 A 
ATOM      5  C5  BNZ d   1       0.486   0.496   0.909  0.00  0.00     0.000 A 
ATOM      6  C6  BNZ d   1       0.192   1.839   0.968  0.00  0.00     0.000 A 
ENDROOT
TORSDOF 0
ENDMDL
