MODEL 1
REMARK minimizedAffinity 1.47342587
REMARK minimizedRMSD -1
REMARK  0 active torsions:
REMARK  status: ('A' for Active; 'I' for Inactive)
ROOT
ATOM      1  C1  BNZ d   1      -0.948  -0.058   1.146  0.00  0.00     0.000 A 
ATOM      2  C2  BNZ d   1      -0.179   1.068   1.026  0.00  0.00     0.000 A 
ATOM      3  C3  BNZ d   1      -0.747   2.276   0.730  0.00  0.00     0.000 A 
ATOM      4  C4  BNZ d   1      -2.077   2.348   0.515  0.00  0.00     0.000 A 
ATOM      5  C5  BNZ d   1      -2.865   1.219   0.624  0.00  0.00     0.000 A 
ATOM      6  C6  BNZ d   1      -2.295   0.013   0.960  0.00  0.00     0.000 A 
ENDROOT
TORSDOF 0
ENDMDL
