MODEL 1
REMARK minimizedAffinity 0.237810478
REMARK minimizedRMSD -1
REMARK  0 active torsions:
REMARK  status: ('A' for Active; 'I' for Inactive)
ROOT
ATOM      1  C1  BNZ d   1       2.720  -0.192  -3.617  0.00  0.00     0.000 A 
ATOM      2  C2  BNZ d   1       1.771   0.218  -2.720  0.00  0.00     0.000 A 
ATOM      3  C3  BNZ d   1       1.755  -0.273  -1.444  0.00  0.00     0.000 A 
ATOM      4  C4  BNZ d   1       2.662  -1.202  -1.080  0.00  0.00     0.000 A 
ATOM      5  C5  BNZ d   1       3.620  -1.633  -1.976  0.00  0.00     0.000 A 
ATOM      6  C6  BNZ d   1       3.657  -1.108  -3.248  0.00  0.00     0.000 A 
ENDROOT
TORSDOF 0
ENDMDL
