MODEL 1
REMARK minimizedAffinity 3.24838257
REMARK minimizedRMSD -1
REMARK  0 active torsions:
REMARK  status: ('A' for Active; 'I' for Inactive)
ROOT
ATOM      1  C1  BNZ d   1      -2.630   2.432   0.898  0.00  0.00     0.000 A 
ATOM      2  C2  BNZ d   1      -3.072   1.140   0.799  0.00  0.00     0.000 A 
ATOM      3  C3  BNZ d   1      -2.191   0.095   0.822  0.00  0.00     0.000 A 
ATOM      4  C4  BNZ d   1      -0.868   0.344   0.903  0.00  0.00     0.000 A 
ATOM      5  C5  BNZ d   1      -0.406   1.642   0.994  0.00  0.00     0.000 A 
ATOM      6  C6  BNZ d   1      -1.298   2.690   1.010  0.00  0.00     0.000 A 
ENDROOT
TORSDOF 0
ENDMDL
