MODEL 1
REMARK minimizedAffinity 8.32314014
REMARK minimizedRMSD -1
REMARK  0 active torsions:
REMARK  status: ('A' for Active; 'I' for Inactive)
ROOT
ATOM      1  C1  BNZ d   1      -0.221   2.351  -3.740  0.00  0.00     0.000 A 
ATOM      2  C2  BNZ d   1       0.067   1.233  -3.004  0.00  0.00     0.000 A 
ATOM      3  C3  BNZ d   1       1.292   0.633  -3.093  0.00  0.00     0.000 A 
ATOM      4  C4  BNZ d   1       2.211   1.127  -3.947  0.00  0.00     0.000 A 
ATOM      5  C5  BNZ d   1       1.933   2.248  -4.703  0.00  0.00     0.000 A 
ATOM      6  C6  BNZ d   1       0.713   2.872  -4.582  0.00  0.00     0.000 A 
ENDROOT
TORSDOF 0
ENDMDL
