MODEL 1
REMARK minimizedAffinity -1.17377162
REMARK minimizedRMSD -1
REMARK  0 active torsions:
REMARK  status: ('A' for Active; 'I' for Inactive)
ROOT
ATOM      1  C   UNL d   1       0.049   1.380  -0.162  0.00  0.00     0.077 C 
ATOM      2  C1  UNL d   1       0.304  -0.084   0.038  0.00  0.00    -0.074 A 
ATOM      3  C2  UNL d   1       1.586  -0.619  -0.126  0.00  0.00    -0.005 A 
ATOM      4  C3  UNL d   1       1.809  -1.982   0.073  0.00  0.00     0.006 A 
ATOM      5  C4  UNL d   1       0.756  -2.821   0.436  0.00  0.00    -0.005 A 
ATOM      6  C5  UNL d   1      -0.532  -2.304   0.605  0.00  0.00    -0.074 A 
ATOM      7  C6  UNL d   1      -1.674  -3.191   1.005  0.00  0.00     0.077 C 
ATOM      8  C7  UNL d   1      -0.748  -0.933   0.411  0.00  0.00    -0.001 A 
ENDROOT
TORSDOF 0
ENDMDL
