MODEL 1
REMARK minimizedAffinity 8.34533501
REMARK minimizedRMSD -1
REMARK  0 active torsions:
REMARK  status: ('A' for Active; 'I' for Inactive)
ROOT
ATOM      1  C   UNL d   1      -0.413   0.101  -3.643  0.00  0.00     0.077 C 
ATOM      2  C1  UNL d   1      -0.345   1.585  -3.852  0.00  0.00    -0.074 A 
ATOM      3  C2  UNL d   1      -1.187   2.450  -3.145  0.00  0.00    -0.005 A 
ATOM      4  C3  UNL d   1      -1.105   3.828  -3.343  0.00  0.00     0.006 A 
ATOM      5  C4  UNL d   1      -0.183   4.355  -4.248  0.00  0.00    -0.005 A 
ATOM      6  C5  UNL d   1       0.668   3.506  -4.963  0.00  0.00    -0.074 A 
ATOM      7  C6  UNL d   1       1.672   4.056  -5.932  0.00  0.00     0.077 C 
ATOM      8  C7  UNL d   1       0.585   2.122  -4.753  0.00  0.00    -0.001 A 
ENDROOT
TORSDOF 0
ENDMDL
