MODEL 1
REMARK minimizedAffinity 10.0468912
REMARK minimizedRMSD -1
REMARK  0 active torsions:
REMARK  status: ('A' for Active; 'I' for Inactive)
ROOT
ATOM      1  C   UNL d   1       0.472   3.418  -0.705  0.00  0.00     0.077 C 
ATOM      2  C1  UNL d   1      -0.185   3.557  -2.046  0.00  0.00    -0.074 A 
ATOM      3  C2  UNL d   1       0.450   4.236  -3.091  0.00  0.00    -0.005 A 
ATOM      4  C3  UNL d   1      -0.169   4.348  -4.336  0.00  0.00     0.006 A 
ATOM      5  C4  UNL d   1      -1.428   3.783  -4.548  0.00  0.00    -0.005 A 
ATOM      6  C5  UNL d   1      -2.077   3.100  -3.515  0.00  0.00    -0.074 A 
ATOM      7  C6  UNL d   1      -3.425   2.478  -3.730  0.00  0.00     0.077 C 
ATOM      8  C7  UNL d   1      -1.445   2.985  -2.269  0.00  0.00    -0.001 A 
ENDROOT
TORSDOF 0
ENDMDL
