MODEL 1
REMARK minimizedAffinity 3.33923221
REMARK minimizedRMSD -1
REMARK  0 active torsions:
REMARK  status: ('A' for Active; 'I' for Inactive)
ROOT
ATOM      1  C   UNL d   1      -5.853  -5.953  -1.226  0.00  0.00     0.077 C 
ATOM      2  C1  UNL d   1      -5.313  -5.295   0.008  0.00  0.00    -0.074 A 
ATOM      3  C2  UNL d   1      -4.651  -4.065  -0.063  0.00  0.00    -0.005 A 
ATOM      4  C3  UNL d   1      -4.162  -3.461   1.095  0.00  0.00     0.006 A 
ATOM      5  C4  UNL d   1      -4.330  -4.079   2.335  0.00  0.00    -0.005 A 
ATOM      6  C5  UNL d   1      -4.991  -5.308   2.426  0.00  0.00    -0.074 A 
ATOM      7  C6  UNL d   1      -5.189  -5.982   3.752  0.00  0.00     0.077 C 
ATOM      8  C7  UNL d   1      -5.485  -5.906   1.258  0.00  0.00    -0.001 A 
ENDROOT
TORSDOF 0
ENDMDL
