MODEL 1
REMARK minimizedAffinity -1.60816014
REMARK minimizedRMSD -1
REMARK  0 active torsions:
REMARK  status: ('A' for Active; 'I' for Inactive)
ROOT
ATOM      1  C   UNL d   1       3.702   1.483  -1.230  0.00  0.00     0.077 C 
ATOM      2  C1  UNL d   1       2.275   1.502  -0.770  0.00  0.00    -0.074 A 
ATOM      3  C2  UNL d   1       1.505   2.666  -0.864  0.00  0.00    -0.005 A 
ATOM      4  C3  UNL d   1       0.176   2.666  -0.441  0.00  0.00     0.006 A 
ATOM      5  C4  UNL d   1      -0.396   1.504   0.078  0.00  0.00    -0.005 A 
ATOM      6  C5  UNL d   1       0.358   0.331   0.178  0.00  0.00    -0.074 A 
ATOM      7  C6  UNL d   1      -0.245  -0.929   0.725  0.00  0.00     0.077 C 
ATOM      8  C7  UNL d   1       1.691   0.337  -0.255  0.00  0.00    -0.001 A 
ENDROOT
TORSDOF 0
ENDMDL
