MODEL 1
REMARK minimizedAffinity 5.94992924
REMARK minimizedRMSD -1
REMARK  0 active torsions:
REMARK  status: ('A' for Active; 'I' for Inactive)
ROOT
ATOM      1  C   UNL d   1       5.402  -1.854  -4.129  0.00  0.00     0.077 C 
ATOM      2  C1  UNL d   1       5.145  -3.289  -4.481  0.00  0.00    -0.074 A 
ATOM      3  C2  UNL d   1       5.993  -3.979  -5.353  0.00  0.00    -0.005 A 
ATOM      4  C3  UNL d   1       5.746  -5.316  -5.663  0.00  0.00     0.006 A 
ATOM      5  C4  UNL d   1       4.650  -5.976  -5.107  0.00  0.00    -0.005 A 
ATOM      6  C5  UNL d   1       3.791  -5.302  -4.232  0.00  0.00    -0.074 A 
ATOM      7  C6  UNL d   1       2.614  -6.000  -3.617  0.00  0.00     0.077 C 
ATOM      8  C7  UNL d   1       4.050  -3.961  -3.919  0.00  0.00    -0.001 A 
ENDROOT
TORSDOF 0
ENDMDL
