MODEL 1
REMARK minimizedAffinity 11.2350492
REMARK minimizedRMSD -1
REMARK  0 active torsions:
REMARK  status: ('A' for Active; 'I' for Inactive)
ROOT
ATOM      1  C   UNL d   1       0.491  -5.174  -2.367  0.00  0.00     0.077 C 
ATOM      2  C1  UNL d   1       1.277  -5.468  -3.611  0.00  0.00    -0.074 A 
ATOM      3  C2  UNL d   1       0.639  -5.610  -4.847  0.00  0.00    -0.005 A 
ATOM      4  C3  UNL d   1       1.384  -5.874  -5.996  0.00  0.00     0.006 A 
ATOM      5  C4  UNL d   1       2.772  -6.000  -5.921  0.00  0.00    -0.005 A 
ATOM      6  C5  UNL d   1       3.427  -5.861  -4.693  0.00  0.00    -0.074 A 
ATOM      7  C6  UNL d   1       4.919  -5.983  -4.596  0.00  0.00     0.077 C 
ATOM      8  C7  UNL d   1       2.672  -5.588  -3.544  0.00  0.00    -0.001 A 
ENDROOT
TORSDOF 0
ENDMDL
