MODEL 1
REMARK minimizedAffinity -3.00862122
REMARK minimizedRMSD -1
REMARK  0 active torsions:
REMARK  status: ('A' for Active; 'I' for Inactive)
ROOT
ATOM      1  C   UNL d   1       5.985  -1.083  -3.338  0.00  0.00     0.077 C 
ATOM      2  C1  UNL d   1       5.487  -2.221  -4.178  0.00  0.00    -0.074 A 
ATOM      3  C2  UNL d   1       4.582  -2.003  -5.221  0.00  0.00    -0.005 A 
ATOM      4  C3  UNL d   1       4.135  -3.071  -5.999  0.00  0.00     0.006 A 
ATOM      5  C4  UNL d   1       4.588  -4.366  -5.742  0.00  0.00    -0.005 A 
ATOM      6  C5  UNL d   1       5.495  -4.603  -4.704  0.00  0.00    -0.074 A 
ATOM      7  C6  UNL d   1       5.999  -5.987  -4.421  0.00  0.00     0.077 C 
ATOM      8  C7  UNL d   1       5.944  -3.524  -3.931  0.00  0.00    -0.001 A 
ENDROOT
TORSDOF 0
ENDMDL
