MODEL 1
REMARK minimizedAffinity 9.15942383
REMARK minimizedRMSD -1
REMARK  0 active torsions:
REMARK  status: ('A' for Active; 'I' for Inactive)
ROOT
ATOM      1  C   UNL d   1       0.811   3.651  -0.925  0.00  0.00     0.077 C 
ATOM      2  C1  UNL d   1       1.709   2.450  -0.970  0.00  0.00    -0.074 A 
ATOM      3  C2  UNL d   1       2.856   2.440  -1.770  0.00  0.00    -0.005 A 
ATOM      4  C3  UNL d   1       3.686   1.320  -1.795  0.00  0.00     0.006 A 
ATOM      5  C4  UNL d   1       3.378   0.199  -1.022  0.00  0.00    -0.005 A 
ATOM      6  C5  UNL d   1       2.236   0.191  -0.216  0.00  0.00    -0.074 A 
ATOM      7  C6  UNL d   1       1.895  -1.001   0.629  0.00  0.00     0.077 C 
ATOM      8  C7  UNL d   1       1.410   1.324  -0.191  0.00  0.00    -0.001 A 
ENDROOT
TORSDOF 0
ENDMDL
