MODEL 1
REMARK minimizedAffinity 5.4851408
REMARK minimizedRMSD -1
REMARK  0 active torsions:
REMARK  status: ('A' for Active; 'I' for Inactive)
ROOT
ATOM      1  C   UNL d   1       4.683   1.553  -1.854  0.00  0.00     0.077 C 
ATOM      2  C1  UNL d   1       3.693   2.440  -1.158  0.00  0.00    -0.074 A 
ATOM      3  C2  UNL d   1       4.068   3.203  -0.048  0.00  0.00    -0.005 A 
ATOM      4  C3  UNL d   1       3.139   4.031   0.583  0.00  0.00     0.006 A 
ATOM      5  C4  UNL d   1       1.829   4.104   0.110  0.00  0.00    -0.005 A 
ATOM      6  C5  UNL d   1       1.436   3.349  -1.000  0.00  0.00    -0.074 A 
ATOM      7  C6  UNL d   1       0.033   3.424  -1.527  0.00  0.00     0.077 C 
ATOM      8  C7  UNL d   1       2.377   2.525  -1.632  0.00  0.00    -0.001 A 
ENDROOT
TORSDOF 0
ENDMDL
