MODEL 1
REMARK minimizedAffinity 10.9512587
REMARK minimizedRMSD -1
REMARK  0 active torsions:
REMARK  status: ('A' for Active; 'I' for Inactive)
ROOT
ATOM      1  C   UNL d   1       0.742  -0.844   2.303  0.00  0.00     0.077 C 
ATOM      2  C1  UNL d   1       1.991  -0.182   1.802  0.00  0.00    -0.074 A 
ATOM      3  C2  UNL d   1       3.190  -0.275   2.516  0.00  0.00    -0.005 A 
ATOM      4  C3  UNL d   1       4.346   0.338   2.032  0.00  0.00     0.006 A 
ATOM      5  C4  UNL d   1       4.314   1.050   0.833  0.00  0.00    -0.005 A 
ATOM      6  C5  UNL d   1       3.125   1.153   0.105  0.00  0.00    -0.074 A 
ATOM      7  C6  UNL d   1       3.076   1.906  -1.192  0.00  0.00     0.077 C 
ATOM      8  C7  UNL d   1       1.969   0.528   0.593  0.00  0.00    -0.001 A 
ENDROOT
TORSDOF 0
ENDMDL
