MODEL 1
REMARK minimizedAffinity 5.53538656
REMARK minimizedRMSD -1
REMARK  0 active torsions:
REMARK  status: ('A' for Active; 'I' for Inactive)
ROOT
ATOM      1  C   UNL d   1       0.472   5.213  -3.086  0.00  0.00     0.077 C 
ATOM      2  C1  UNL d   1       0.999   4.040  -2.315  0.00  0.00    -0.074 A 
ATOM      3  C2  UNL d   1       0.138   3.213  -1.586  0.00  0.00    -0.005 A 
ATOM      4  C3  UNL d   1       0.642   2.119  -0.882  0.00  0.00     0.006 A 
ATOM      5  C4  UNL d   1       2.010   1.843  -0.898  0.00  0.00    -0.005 A 
ATOM      6  C5  UNL d   1       2.886   2.658  -1.621  0.00  0.00    -0.074 A 
ATOM      7  C6  UNL d   1       4.357   2.369  -1.657  0.00  0.00     0.077 C 
ATOM      8  C7  UNL d   1       2.371   3.751  -2.332  0.00  0.00    -0.001 A 
ENDROOT
TORSDOF 0
ENDMDL
