MODEL 1
REMARK minimizedAffinity 8.68794155
REMARK minimizedRMSD -1
REMARK  0 active torsions:
REMARK  status: ('A' for Active; 'I' for Inactive)
ROOT
ATOM      1  C   UNL d   1      -3.887   2.367  -0.252  0.00  0.00     0.077 C 
ATOM      2  C1  UNL d   1      -2.432   2.646  -0.484  0.00  0.00    -0.074 A 
ATOM      3  C2  UNL d   1      -1.448   2.018   0.286  0.00  0.00    -0.005 A 
ATOM      4  C3  UNL d   1      -0.098   2.280   0.053  0.00  0.00     0.006 A 
ATOM      5  C4  UNL d   1       0.281   3.171  -0.952  0.00  0.00    -0.005 A 
ATOM      6  C5  UNL d   1      -0.689   3.807  -1.734  0.00  0.00    -0.074 A 
ATOM      7  C6  UNL d   1      -0.298   4.760  -2.824  0.00  0.00     0.077 C 
ATOM      8  C7  UNL d   1      -2.043   3.534  -1.497  0.00  0.00    -0.001 A 
ENDROOT
TORSDOF 0
ENDMDL
