MODEL 1
REMARK minimizedAffinity -4.68041801
REMARK minimizedRMSD -1
REMARK  0 active torsions:
REMARK  status: ('A' for Active; 'I' for Inactive)
ROOT
ATOM      1  C   UNL d   1      -1.342  -2.761   4.346  0.00  0.00     0.077 C 
ATOM      2  C1  UNL d   1      -1.162  -2.360   2.912  0.00  0.00    -0.074 A 
ATOM      3  C2  UNL d   1      -0.168  -1.450   2.540  0.00  0.00    -0.005 A 
ATOM      4  C3  UNL d   1      -0.006  -1.094   1.201  0.00  0.00     0.006 A 
ATOM      5  C4  UNL d   1      -0.835  -1.644   0.223  0.00  0.00    -0.005 A 
ATOM      6  C5  UNL d   1      -1.834  -2.557   0.576  0.00  0.00    -0.074 A 
ATOM      7  C6  UNL d   1      -2.727  -3.165  -0.464  0.00  0.00     0.077 C 
ATOM      8  C7  UNL d   1      -1.986  -2.915   1.923  0.00  0.00    -0.001 A 
ENDROOT
TORSDOF 0
ENDMDL
