MODEL 1
REMARK minimizedAffinity 4.77687073
REMARK minimizedRMSD -1
REMARK  0 active torsions:
REMARK  status: ('A' for Active; 'I' for Inactive)
ROOT
ATOM      1  C   UNL d   1      -5.678  -5.984   0.494  0.00  0.00     0.077 C 
ATOM      2  C1  UNL d   1      -5.140  -5.322  -0.740  0.00  0.00    -0.074 A 
ATOM      3  C2  UNL d   1      -4.437  -4.116  -0.661  0.00  0.00    -0.005 A 
ATOM      4  C3  UNL d   1      -3.934  -3.518  -1.816  0.00  0.00     0.006 A 
ATOM      5  C4  UNL d   1      -4.129  -4.118  -3.060  0.00  0.00    -0.005 A 
ATOM      6  C5  UNL d   1      -4.829  -5.325  -3.159  0.00  0.00    -0.074 A 
ATOM      7  C6  UNL d   1      -5.039  -5.989  -4.488  0.00  0.00     0.077 C 
ATOM      8  C7  UNL d   1      -5.325  -5.924  -1.993  0.00  0.00    -0.001 A 
ENDROOT
TORSDOF 0
ENDMDL
