MODEL 1
REMARK minimizedAffinity -1.73232293
REMARK minimizedRMSD -1
REMARK  0 active torsions:
REMARK  status: ('A' for Active; 'I' for Inactive)
ROOT
ATOM      1  O1  BZF d   1       2.479   0.972   0.941  0.00  0.00    -0.204 OA
ATOM      2  C2  BZF d   1       2.175  -0.295   0.483  0.00  0.00     0.174 A 
ATOM      3  C3  BZF d   1       0.998  -0.717   0.987  0.00  0.00    -0.012 A 
ATOM      4  C3A BZF d   1       0.492   0.391   1.738  0.00  0.00    -0.107 A 
ATOM      5  C4  BZF d   1      -0.649   0.592   2.462  0.00  0.00     0.055 A 
ATOM      6  C5  BZF d   1      -0.806   1.761   3.136  0.00  0.00    -0.016 A 
ATOM      7  C6  BZF d   1       0.158   2.747   3.113  0.00  0.00     0.022 A 
ATOM      8  C7  BZF d   1       1.304   2.596   2.405  0.00  0.00     0.029 A 
ATOM      9  C7A BZF d   1       1.451   1.429   1.696  0.00  0.00     0.058 A 
ENDROOT
TORSDOF 0
ENDMDL
