MODEL 1
REMARK minimizedAffinity -4.03122616
REMARK minimizedRMSD -1
REMARK  0 active torsions:
REMARK  status: ('A' for Active; 'I' for Inactive)
ROOT
ATOM      1  O1  BZF d   1       1.971   0.391   0.094  0.00  0.00    -0.204 OA
ATOM      2  C2  BZF d   1       0.987  -0.549   0.330  0.00  0.00     0.174 A 
ATOM      3  C3  BZF d   1       0.232  -0.737  -0.771  0.00  0.00    -0.012 A 
ATOM      4  C3A BZF d   1       0.835   0.073  -1.784  0.00  0.00    -0.107 A 
ATOM      5  C4  BZF d   1       0.550   0.297  -3.101  0.00  0.00     0.055 A 
ATOM      6  C5  BZF d   1       1.291   1.203  -3.793  0.00  0.00    -0.016 A 
ATOM      7  C6  BZF d   1       2.319   1.904  -3.199  0.00  0.00     0.022 A 
ATOM      8  C7  BZF d   1       2.643   1.713  -1.897  0.00  0.00     0.029 A 
ATOM      9  C7A BZF d   1       1.917   0.774  -1.204  0.00  0.00     0.058 A 
ENDROOT
TORSDOF 0
ENDMDL
