MODEL 1
REMARK minimizedAffinity 2.65623856
REMARK minimizedRMSD -1
REMARK  0 active torsions:
REMARK  status: ('A' for Active; 'I' for Inactive)
ROOT
ATOM      1  O1  BZF d   1      -0.931   1.957  -2.905  0.00  0.00    -0.204 OA
ATOM      2  C2  BZF d   1       0.030   1.270  -3.621  0.00  0.00     0.174 A 
ATOM      3  C3  BZF d   1       0.413   0.157  -2.962  0.00  0.00    -0.012 A 
ATOM      4  C3A BZF d   1      -0.424   0.100  -1.803  0.00  0.00    -0.107 A 
ATOM      5  C4  BZF d   1      -0.533  -0.783  -0.767  0.00  0.00     0.055 A 
ATOM      6  C5  BZF d   1      -1.400  -0.511   0.244  0.00  0.00    -0.016 A 
ATOM      7  C6  BZF d   1      -2.168   0.635   0.253  0.00  0.00     0.022 A 
ATOM      8  C7  BZF d   1      -2.098   1.538  -0.755  0.00  0.00     0.029 A 
ATOM      9  C7A BZF d   1      -1.247   1.249  -1.794  0.00  0.00     0.058 A 
ENDROOT
TORSDOF 0
ENDMDL
