MODEL 1
REMARK minimizedAffinity 4.49058867
REMARK minimizedRMSD -1
REMARK  0 active torsions:
REMARK  status: ('A' for Active; 'I' for Inactive)
ROOT
ATOM      1  O1  BZF d   1       1.352   1.249  -0.310  0.00  0.00    -0.204 OA
ATOM      2  C2  BZF d   1       2.179   0.149  -0.182  0.00  0.00     0.174 A 
ATOM      3  C3  BZF d   1       1.455  -0.977  -0.022  0.00  0.00    -0.012 A 
ATOM      4  C3A BZF d   1       0.089  -0.568  -0.145  0.00  0.00    -0.107 A 
ATOM      5  C4  BZF d   1      -1.100  -1.238  -0.095  0.00  0.00     0.055 A 
ATOM      6  C5  BZF d   1      -2.259  -0.533  -0.178  0.00  0.00    -0.016 A 
ATOM      7  C6  BZF d   1      -2.266   0.840  -0.306  0.00  0.00     0.022 A 
ATOM      8  C7  BZF d   1      -1.111   1.548  -0.365  0.00  0.00     0.029 A 
ATOM      9  C7A BZF d   1       0.062   0.836  -0.314  0.00  0.00     0.058 A 
ENDROOT
TORSDOF 0
ENDMDL
