MODEL 1
REMARK minimizedAffinity -2.72054958
REMARK minimizedRMSD -1
REMARK  0 active torsions:
REMARK  status: ('A' for Active; 'I' for Inactive)
ROOT
ATOM      1  O1  BZF d   1       0.479   0.707  -0.468  0.00  0.00    -0.204 OA
ATOM      2  C2  BZF d   1      -0.743   1.057  -1.008  0.00  0.00     0.174 A 
ATOM      3  C3  BZF d   1      -1.704   1.051  -0.061  0.00  0.00    -0.012 A 
ATOM      4  C3A BZF d   1      -1.023   0.764   1.164  0.00  0.00    -0.107 A 
ATOM      5  C4  BZF d   1      -1.435   0.641   2.460  0.00  0.00     0.055 A 
ATOM      6  C5  BZF d   1      -0.531   0.282   3.409  0.00  0.00    -0.016 A 
ATOM      7  C6  BZF d   1       0.790   0.035   3.097  0.00  0.00     0.022 A 
ATOM      8  C7  BZF d   1       1.247   0.150   1.826  0.00  0.00     0.029 A 
ATOM      9  C7A BZF d   1       0.342   0.544   0.870  0.00  0.00     0.058 A 
ENDROOT
TORSDOF 0
ENDMDL
