MODEL 1
REMARK minimizedAffinity -4.2193203
REMARK minimizedRMSD -1
REMARK  0 active torsions:
REMARK  status: ('A' for Active; 'I' for Inactive)
ROOT
ATOM      1  O1  BZF d   1       1.069  -0.998  -0.300  0.00  0.00    -0.204 OA
ATOM      2  C2  BZF d   1      -0.033  -0.769  -1.102  0.00  0.00     0.174 A 
ATOM      3  C3  BZF d   1      -1.061  -0.285  -0.376  0.00  0.00    -0.012 A 
ATOM      4  C3A BZF d   1      -0.542  -0.119   0.947  0.00  0.00    -0.107 A 
ATOM      5  C4  BZF d   1      -1.080   0.341   2.115  0.00  0.00     0.055 A 
ATOM      6  C5  BZF d   1      -0.329   0.305   3.247  0.00  0.00    -0.016 A 
ATOM      7  C6  BZF d   1       0.960  -0.189   3.248  0.00  0.00     0.022 A 
ATOM      8  C7  BZF d   1       1.537  -0.652   2.113  0.00  0.00     0.029 A 
ATOM      9  C7A BZF d   1       0.792  -0.586   0.961  0.00  0.00     0.058 A 
ENDROOT
TORSDOF 0
ENDMDL
