MODEL 1
REMARK minimizedAffinity 9.15660858
REMARK minimizedRMSD -1
REMARK  0 active torsions:
REMARK  status: ('A' for Active; 'I' for Inactive)
ROOT
ATOM      1  C2' OXE d   1       3.414  -0.557   1.057  0.00  0.00     0.078 C 
ATOM      2  C1' OXE d   1       2.723  -3.248   1.456  0.00  0.00     0.078 C 
ATOM      3  C1  OXE d   1       3.872  -2.947   0.526  0.00  0.00    -0.078 A 
ATOM      4  C2  OXE d   1       4.173  -1.626   0.300  0.00  0.00    -0.078 A 
ATOM      5  C3  OXE d   1       5.258  -1.294  -0.506  0.00  0.00     0.003 A 
ATOM      6  C4  OXE d   1       5.948  -2.288  -1.210  0.00  0.00    -0.002 A 
ATOM      7  C5  OXE d   1       5.632  -3.638  -1.025  0.00  0.00    -0.002 A 
ATOM      8  C6  OXE d   1       4.626  -3.986  -0.130  0.00  0.00     0.003 A 
ENDROOT
TORSDOF 0
ENDMDL
