MODEL 1
REMARK minimizedAffinity 10.3173914
REMARK minimizedRMSD -1
REMARK  0 active torsions:
REMARK  status: ('A' for Active; 'I' for Inactive)
ROOT
ATOM      1  C2' OXE d   1       5.965  -1.972  -1.100  0.00  0.00     0.078 C 
ATOM      2  C1' OXE d   1       5.665  -4.490   0.103  0.00  0.00     0.078 C 
ATOM      3  C1  OXE d   1       5.057  -4.286  -1.262  0.00  0.00    -0.078 A 
ATOM      4  C2  OXE d   1       5.168  -3.036  -1.823  0.00  0.00    -0.078 A 
ATOM      5  C3  OXE d   1       4.673  -2.809  -3.104  0.00  0.00     0.003 A 
ATOM      6  C4  OXE d   1       3.929  -3.796  -3.761  0.00  0.00    -0.002 A 
ATOM      7  C5  OXE d   1       3.769  -5.063  -3.190  0.00  0.00    -0.002 A 
ATOM      8  C6  OXE d   1       4.362  -5.337  -1.963  0.00  0.00     0.003 A 
ENDROOT
TORSDOF 0
ENDMDL
