MODEL 1
REMARK minimizedAffinity 2.10029912
REMARK minimizedRMSD -1
REMARK  0 active torsions:
REMARK  status: ('A' for Active; 'I' for Inactive)
ROOT
ATOM      1  C2' OXE d   1       0.500  -4.749  -1.561  0.00  0.00     0.078 C 
ATOM      2  C1' OXE d   1       2.467  -5.914  -3.190  0.00  0.00     0.078 C 
ATOM      3  C1  OXE d   1       2.924  -5.010  -2.072  0.00  0.00    -0.078 A 
ATOM      4  C2  OXE d   1       1.953  -4.407  -1.309  0.00  0.00    -0.078 A 
ATOM      5  C3  OXE d   1       2.320  -3.608  -0.231  0.00  0.00     0.003 A 
ATOM      6  C4  OXE d   1       3.666  -3.289  -0.011  0.00  0.00    -0.002 A 
ATOM      7  C5  OXE d   1       4.669  -3.861  -0.800  0.00  0.00    -0.002 A 
ATOM      8  C6  OXE d   1       4.318  -4.755  -1.806  0.00  0.00     0.003 A 
ENDROOT
TORSDOF 0
ENDMDL
