MODEL 1
REMARK minimizedAffinity 10.7489862
REMARK minimizedRMSD -1
REMARK  0 active torsions:
REMARK  status: ('A' for Active; 'I' for Inactive)
ROOT
ATOM      1  C2' OXE d   1       0.679   1.575   3.946  0.00  0.00     0.078 C 
ATOM      2  C1' OXE d   1      -1.990   2.109   3.259  0.00  0.00     0.078 C 
ATOM      3  C1  OXE d   1      -0.907   2.722   2.406  0.00  0.00    -0.078 A 
ATOM      4  C2  OXE d   1       0.396   2.494   2.777  0.00  0.00    -0.078 A 
ATOM      5  C3  OXE d   1       1.433   2.991   1.993  0.00  0.00     0.003 A 
ATOM      6  C4  OXE d   1       1.163   3.848   0.920  0.00  0.00    -0.002 A 
ATOM      7  C5  OXE d   1      -0.157   4.126   0.548  0.00  0.00    -0.002 A 
ATOM      8  C6  OXE d   1      -1.202   3.538   1.253  0.00  0.00     0.003 A 
ENDROOT
TORSDOF 0
ENDMDL
