MODEL 1
REMARK minimizedAffinity 6.74695587
REMARK minimizedRMSD -1
REMARK  0 active torsions:
REMARK  status: ('A' for Active; 'I' for Inactive)
ROOT
ATOM      1  C2' OXE d   1       3.494  -0.688   1.359  0.00  0.00     0.078 C 
ATOM      2  C1' OXE d   1       2.883  -3.288   2.223  0.00  0.00     0.078 C 
ATOM      3  C1  OXE d   1       3.864  -3.137   1.088  0.00  0.00    -0.078 A 
ATOM      4  C2  OXE d   1       4.122  -1.863   0.640  0.00  0.00    -0.078 A 
ATOM      5  C3  OXE d   1       5.061  -1.663  -0.367  0.00  0.00     0.003 A 
ATOM      6  C4  OXE d   1       5.630  -2.756  -1.033  0.00  0.00    -0.002 A 
ATOM      7  C5  OXE d   1       5.351  -4.063  -0.620  0.00  0.00    -0.002 A 
ATOM      8  C6  OXE d   1       4.505  -4.269   0.465  0.00  0.00     0.003 A 
ENDROOT
TORSDOF 0
ENDMDL
