MODEL 1
REMARK minimizedAffinity 9.28919029
REMARK minimizedRMSD -1
REMARK  0 active torsions:
REMARK  status: ('A' for Active; 'I' for Inactive)
ROOT
ATOM      1  C2' OXE d   1       2.907  -1.096  -0.347  0.00  0.00     0.078 C 
ATOM      2  C1' OXE d   1       2.428  -3.603   0.821  0.00  0.00     0.078 C 
ATOM      3  C1  OXE d   1       3.698  -3.428   0.027  0.00  0.00    -0.078 A 
ATOM      4  C2  OXE d   1       3.902  -2.213  -0.581  0.00  0.00    -0.078 A 
ATOM      5  C3  OXE d   1       5.083  -1.981  -1.280  0.00  0.00     0.003 A 
ATOM      6  C4  OXE d   1       5.992  -3.023  -1.500  0.00  0.00    -0.002 A 
ATOM      7  C5  OXE d   1       5.784  -4.280  -0.923  0.00  0.00    -0.002 A 
ATOM      8  C6  OXE d   1       4.665  -4.487  -0.124  0.00  0.00     0.003 A 
ENDROOT
TORSDOF 0
ENDMDL
