MODEL 1
REMARK minimizedAffinity 5.66751337
REMARK minimizedRMSD -1
REMARK  0 active torsions:
REMARK  status: ('A' for Active; 'I' for Inactive)
ROOT
ATOM      1  C2' OXE d   1       2.813  -4.885  -2.256  0.00  0.00     0.078 C 
ATOM      2  C1' OXE d   1       5.216  -4.204  -3.538  0.00  0.00     0.078 C 
ATOM      3  C1  OXE d   1       4.927  -3.570  -2.200  0.00  0.00    -0.078 A 
ATOM      4  C2  OXE d   1       3.728  -3.873  -1.602  0.00  0.00    -0.078 A 
ATOM      5  C3  OXE d   1       3.436  -3.357  -0.342  0.00  0.00     0.003 A 
ATOM      6  C4  OXE d   1       4.283  -2.414   0.251  0.00  0.00    -0.002 A 
ATOM      7  C5  OXE d   1       5.491  -2.061  -0.359  0.00  0.00    -0.002 A 
ATOM      8  C6  OXE d   1       5.847  -2.661  -1.562  0.00  0.00     0.003 A 
ENDROOT
TORSDOF 0
ENDMDL
