MODEL 1
REMARK minimizedAffinity 1.51921308
REMARK minimizedRMSD -1
REMARK  0 active torsions:
REMARK  status: ('A' for Active; 'I' for Inactive)
ROOT
ATOM      1  C   UNL d   1       5.199  -4.276  -0.966  0.00  0.00     0.020 A 
ATOM      2  C1  UNL d   1       4.703  -5.510  -1.387  0.00  0.00     0.020 A 
ATOM      3  C2  UNL d   1       3.786  -5.571  -2.438  0.00  0.00     0.034 A 
ATOM      4  C3  UNL d   1       3.362  -4.398  -3.072  0.00  0.00     0.017 A 
ATOM      5  C4  UNL d   1       3.861  -3.160  -2.649  0.00  0.00     0.017 A 
ATOM      6  C5  UNL d   1       4.779  -3.104  -1.596  0.00  0.00     0.034 A 
ATOM      7 Cl   UNL d   1       3.386  -1.669  -3.383  0.00  0.00    -0.070 Cl
ATOM      8 Cl1  UNL d   1       2.227  -4.548  -4.366  0.00  0.00    -0.070 Cl
ENDROOT
TORSDOF 0
ENDMDL
