MODEL 1
REMARK minimizedAffinity 1.26684129
REMARK minimizedRMSD -1
REMARK  0 active torsions:
REMARK  status: ('A' for Active; 'I' for Inactive)
ROOT
ATOM      1  C   UNL d   1       3.575  -6.000  -1.928  0.00  0.00     0.020 A 
ATOM      2  C1  UNL d   1       4.267  -5.848  -0.727  0.00  0.00     0.020 A 
ATOM      3  C2  UNL d   1       4.946  -4.658  -0.459  0.00  0.00     0.034 A 
ATOM      4  C3  UNL d   1       4.935  -3.615  -1.392  0.00  0.00     0.017 A 
ATOM      5  C4  UNL d   1       4.240  -3.768  -2.597  0.00  0.00     0.017 A 
ATOM      6  C5  UNL d   1       3.561  -4.962  -2.861  0.00  0.00     0.034 A 
ATOM      7 Cl   UNL d   1       4.181  -2.526  -3.797  0.00  0.00    -0.070 Cl
ATOM      8 Cl1  UNL d   1       5.796  -2.171  -0.993  0.00  0.00    -0.070 Cl
ENDROOT
TORSDOF 0
ENDMDL
