MODEL 1
REMARK minimizedAffinity -1.97059369
REMARK minimizedRMSD -1
REMARK  0 active torsions:
REMARK  status: ('A' for Active; 'I' for Inactive)
ROOT
ATOM      1  C   UNL d   1       3.679  -2.914  -3.526  0.00  0.00     0.020 A 
ATOM      2  C1  UNL d   1       4.036  -4.262  -3.544  0.00  0.00     0.020 A 
ATOM      3  C2  UNL d   1       4.612  -4.847  -2.414  0.00  0.00     0.034 A 
ATOM      4  C3  UNL d   1       4.832  -4.084  -1.262  0.00  0.00     0.017 A 
ATOM      5  C4  UNL d   1       4.473  -2.732  -1.244  0.00  0.00     0.017 A 
ATOM      6  C5  UNL d   1       3.897  -2.151  -2.378  0.00  0.00     0.034 A 
ATOM      7 Cl   UNL d   1       4.714  -1.727   0.141  0.00  0.00    -0.070 Cl
ATOM      8 Cl1  UNL d   1       5.547  -4.873   0.099  0.00  0.00    -0.070 Cl
ENDROOT
TORSDOF 0
ENDMDL
