MODEL 1
REMARK minimizedAffinity 3.13927555
REMARK minimizedRMSD -1
REMARK  0 active torsions:
REMARK  status: ('A' for Active; 'I' for Inactive)
ROOT
ATOM      1  C   UNL d   1       4.947  -2.288  -0.829  0.00  0.00     0.020 A 
ATOM      2  C1  UNL d   1       3.765  -2.069  -0.123  0.00  0.00     0.020 A 
ATOM      3  C2  UNL d   1       2.719  -2.991  -0.210  0.00  0.00     0.034 A 
ATOM      4  C3  UNL d   1       2.854  -4.136  -1.003  0.00  0.00     0.017 A 
ATOM      5  C4  UNL d   1       4.042  -4.354  -1.711  0.00  0.00     0.017 A 
ATOM      6  C5  UNL d   1       5.085  -3.428  -1.621  0.00  0.00     0.034 A 
ATOM      7 Cl   UNL d   1       4.282  -5.744  -2.711  0.00  0.00    -0.070 Cl
ATOM      8 Cl1  UNL d   1       1.521  -5.233  -1.064  0.00  0.00    -0.070 Cl
ENDROOT
TORSDOF 0
ENDMDL
