MODEL 1
REMARK minimizedAffinity 0.426682591
REMARK minimizedRMSD -1
REMARK  0 active torsions:
REMARK  status: ('A' for Active; 'I' for Inactive)
ROOT
ATOM      1  C   UNL d   1       3.300  -3.785  -3.467  0.00  0.00     0.020 A 
ATOM      2  C1  UNL d   1       4.049  -4.962  -3.457  0.00  0.00     0.020 A 
ATOM      3  C2  UNL d   1       4.876  -5.253  -2.370  0.00  0.00     0.034 A 
ATOM      4  C3  UNL d   1       4.957  -4.368  -1.290  0.00  0.00     0.017 A 
ATOM      5  C4  UNL d   1       4.204  -3.188  -1.301  0.00  0.00     0.017 A 
ATOM      6  C5  UNL d   1       3.378  -2.900  -2.391  0.00  0.00     0.034 A 
ATOM      7 Cl   UNL d   1       4.251  -2.046  -0.003  0.00  0.00    -0.070 Cl
ATOM      8 Cl1  UNL d   1       6.000  -4.792   0.021  0.00  0.00    -0.070 Cl
ENDROOT
TORSDOF 0
ENDMDL
