MODEL 1
REMARK minimizedAffinity -1.69227397
REMARK minimizedRMSD -1
REMARK  0 active torsions:
REMARK  status: ('A' for Active; 'I' for Inactive)
ROOT
ATOM      1  C   UNL d   1       4.824  -4.355  -2.100  0.00  0.00     0.020 A 
ATOM      2  C1  UNL d   1       4.967  -3.001  -2.402  0.00  0.00     0.020 A 
ATOM      3  C2  UNL d   1       4.264  -2.044  -1.669  0.00  0.00     0.034 A 
ATOM      4  C3  UNL d   1       3.415  -2.438  -0.628  0.00  0.00     0.017 A 
ATOM      5  C4  UNL d   1       3.272  -3.797  -0.325  0.00  0.00     0.017 A 
ATOM      6  C5  UNL d   1       3.978  -4.751  -1.063  0.00  0.00     0.034 A 
ATOM      7 Cl   UNL d   1       2.242  -4.360   0.944  0.00  0.00    -0.070 Cl
ATOM      8 Cl1  UNL d   1       2.577  -1.199   0.237  0.00  0.00    -0.070 Cl
ENDROOT
TORSDOF 0
ENDMDL
