MODEL 1
REMARK minimizedAffinity -0.498558819
REMARK minimizedRMSD -1
REMARK  0 active torsions:
REMARK  status: ('A' for Active; 'I' for Inactive)
ROOT
ATOM      1  C   UNL d   1       3.357  -2.365   0.152  0.00  0.00     0.020 A 
ATOM      2  C1  UNL d   1       4.575  -2.004  -0.422  0.00  0.00     0.020 A 
ATOM      3  C2  UNL d   1       5.138  -2.799  -1.422  0.00  0.00     0.034 A 
ATOM      4  C3  UNL d   1       4.483  -3.958  -1.852  0.00  0.00     0.017 A 
ATOM      5  C4  UNL d   1       3.260  -4.319  -1.276  0.00  0.00     0.017 A 
ATOM      6  C5  UNL d   1       2.700  -3.520  -0.275  0.00  0.00     0.034 A 
ATOM      7 Cl   UNL d   1       2.392  -5.736  -1.755  0.00  0.00    -0.070 Cl
ATOM      8 Cl1  UNL d   1       5.237  -4.894  -3.094  0.00  0.00    -0.070 Cl
ENDROOT
TORSDOF 0
ENDMDL
