MODEL 1
REMARK minimizedAffinity -0.756922364
REMARK minimizedRMSD -1
REMARK  0 active torsions:
REMARK  status: ('A' for Active; 'I' for Inactive)
ROOT
ATOM      1  C   UNL d   1      -3.573   5.626   1.430  0.00  0.00     0.020 A 
ATOM      2  C1  UNL d   1      -4.439   5.999   0.404  0.00  0.00     0.020 A 
ATOM      3  C2  UNL d   1      -3.999   5.986  -0.922  0.00  0.00     0.034 A 
ATOM      4  C3  UNL d   1      -2.688   5.598  -1.224  0.00  0.00     0.017 A 
ATOM      5  C4  UNL d   1      -1.819   5.223  -0.193  0.00  0.00     0.017 A 
ATOM      6  C5  UNL d   1      -2.265   5.239   1.132  0.00  0.00     0.034 A 
ATOM      7 Cl   UNL d   1      -0.188   4.733  -0.488  0.00  0.00    -0.070 Cl
ATOM      8 Cl1  UNL d   1      -2.211   5.605  -2.885  0.00  0.00    -0.070 Cl
ENDROOT
TORSDOF 0
ENDMDL
