MODEL 1
REMARK minimizedAffinity -4.26331091
REMARK minimizedRMSD -1
REMARK  1 active torsions:
REMARK  status: ('A' for Active; 'I' for Inactive)
REMARK    1  A    between atoms: N_2  and  C1_3 
ROOT
ATOM      1  C1  UNL d   1       0.190  -0.309   0.338  0.00  0.00     0.143 A 
ATOM      2  C2  UNL d   1       0.967   0.141   1.411  0.00  0.00    -0.057 A 
ATOM      3  C3  UNL d   1       0.602   1.274   2.147  0.00  0.00     0.033 A 
ATOM      4  C4  UNL d   1      -0.536   1.998   1.804  0.00  0.00    -0.042 A 
ATOM      5  C5  UNL d   1      -1.310   1.583   0.726  0.00  0.00     0.033 A 
ATOM      6  C6  UNL d   1      -0.943   0.447  -0.002  0.00  0.00    -0.057 A 
ENDROOT
BRANCH   1   7
ATOM      7  N   UNL d   1       0.553  -1.371  -0.494  0.00  0.00    -0.732 N 
ATOM      8  C   UNL d   1      -0.427  -2.355  -0.903  0.00  0.00     0.284 C 
ATOM      9  H3  UNL d   1       1.188  -1.084  -1.235  0.00  0.00     0.395 HD
ENDBRANCH   1   7
TORSDOF 1
ENDMDL
