MODEL 1
REMARK minimizedAffinity -4.77957106
REMARK minimizedRMSD -1
REMARK  1 active torsions:
REMARK  status: ('A' for Active; 'I' for Inactive)
REMARK    1  A    between atoms: N_2  and  C1_3 
ROOT
ATOM      1  C1  UNL d   1       0.351  -0.070  -0.022  0.00  0.00     0.143 A 
ATOM      2  C2  UNL d   1       0.702  -0.594   1.227  0.00  0.00    -0.057 A 
ATOM      3  C3  UNL d   1       0.475   0.126   2.406  0.00  0.00     0.033 A 
ATOM      4  C4  UNL d   1      -0.082   1.399   2.354  0.00  0.00    -0.042 A 
ATOM      5  C5  UNL d   1      -0.416   1.950   1.122  0.00  0.00     0.033 A 
ATOM      6  C6  UNL d   1      -0.193   1.224  -0.051  0.00  0.00    -0.057 A 
ENDROOT
BRANCH   1   7
ATOM      7  N   UNL d   1       0.641  -0.695  -1.237  0.00  0.00    -0.732 N 
ATOM      8  C   UNL d   1       0.424  -2.116  -1.406  0.00  0.00     0.284 C 
ATOM      9  H3  UNL d   1       0.362  -0.134  -2.039  0.00  0.00     0.395 HD
ENDBRANCH   1   7
TORSDOF 1
ENDMDL
