MODEL 1
REMARK minimizedAffinity -4.35144329
REMARK minimizedRMSD -1
REMARK  1 active torsions:
REMARK  status: ('A' for Active; 'I' for Inactive)
REMARK    1  A    between atoms: N_2  and  C1_3 
ROOT
ATOM      1  C1  UNL d   1       0.060  -0.072   0.096  0.00  0.00     0.143 A 
ATOM      2  C2  UNL d   1      -0.637   1.065   0.517  0.00  0.00    -0.057 A 
ATOM      3  C3  UNL d   1      -0.360   1.672   1.748  0.00  0.00     0.033 A 
ATOM      4  C4  UNL d   1       0.603   1.133   2.595  0.00  0.00    -0.042 A 
ATOM      5  C5  UNL d   1       1.291  -0.011   2.208  0.00  0.00     0.033 A 
ATOM      6  C6  UNL d   1       1.014  -0.609   0.974  0.00  0.00    -0.057 A 
ENDROOT
BRANCH   1   7
ATOM      7  N   UNL d   1      -0.238  -0.779  -1.072  0.00  0.00    -0.732 N 
ATOM      8  C   UNL d   1      -0.305  -2.224  -1.062  0.00  0.00     0.284 C 
ATOM      9  H3  UNL d   1      -0.970  -0.333  -1.620  0.00  0.00     0.395 HD
ENDBRANCH   1   7
TORSDOF 1
ENDMDL
