MODEL 1
REMARK minimizedAffinity -4.75261688
REMARK minimizedRMSD -1
REMARK  1 active torsions:
REMARK  status: ('A' for Active; 'I' for Inactive)
REMARK    1  A    between atoms: N_2  and  C1_3 
ROOT
ATOM      1  C1  UNL d   1       0.187   0.584   0.087  0.00  0.00     0.143 A 
ATOM      2  C2  UNL d   1      -0.720   1.499  -0.458  0.00  0.00    -0.057 A 
ATOM      3  C3  UNL d   1      -1.364   2.449   0.344  0.00  0.00     0.033 A 
ATOM      4  C4  UNL d   1      -1.132   2.482   1.715  0.00  0.00    -0.042 A 
ATOM      5  C5  UNL d   1      -0.253   1.566   2.282  0.00  0.00     0.033 A 
ATOM      6  C6  UNL d   1       0.391   0.624   1.475  0.00  0.00    -0.057 A 
ENDROOT
BRANCH   1   7
ATOM      7  N   UNL d   1       0.784  -0.448  -0.642  0.00  0.00    -0.732 N 
ATOM      8  C   UNL d   1       0.196  -1.770  -0.665  0.00  0.00     0.284 C 
ATOM      9  H3  UNL d   1       1.135  -0.133  -1.544  0.00  0.00     0.395 HD
ENDBRANCH   1   7
TORSDOF 1
ENDMDL
