MODEL 1
REMARK minimizedAffinity 4.98808193
REMARK minimizedRMSD -1
REMARK  1 active torsions:
REMARK  status: ('A' for Active; 'I' for Inactive)
REMARK    1  A    between atoms: C3_4  and  O_7 
ROOT
ATOM      1  C   UNL d   1      -2.439   1.145  -4.870  0.00  0.00    -0.033 A 
ATOM      2  C1  UNL d   1      -3.558   1.516  -4.121  0.00  0.00     0.039 A 
ATOM      3  C2  UNL d   1      -4.141   2.771  -4.308  0.00  0.00    -0.080 A 
ATOM      4  C3  UNL d   1      -3.597   3.644  -5.246  0.00  0.00     0.150 A 
ATOM      5  C4  UNL d   1      -2.485   3.279  -5.999  0.00  0.00    -0.007 A 
ATOM      6  C5  UNL d   1      -1.904   2.026  -5.810  0.00  0.00     0.039 A 
ENDROOT
BRANCH   4   7
ATOM      7  O   UNL d   1      -4.128   4.881  -5.460  0.00  0.00    -0.526 OA
ATOM      8  H5  UNL d   1      -4.874   5.005  -4.850  0.00  0.00     0.418 HD
ENDBRANCH   4   7
TORSDOF 1
ENDMDL
