MODEL 1
REMARK minimizedAffinity 7.39194632
REMARK minimizedRMSD -1
REMARK  1 active torsions:
REMARK  status: ('A' for Active; 'I' for Inactive)
REMARK    1  A    between atoms: C3_4  and  O_7 
ROOT
ATOM      1  C   UNL d   1      -0.747   3.545   0.366  0.00  0.00    -0.033 A 
ATOM      2  C1  UNL d   1       0.619   3.374   0.599  0.00  0.00     0.039 A 
ATOM      3  C2  UNL d   1       1.547   4.193  -0.047  0.00  0.00    -0.080 A 
ATOM      4  C3  UNL d   1       1.096   5.178  -0.922  0.00  0.00     0.150 A 
ATOM      5  C4  UNL d   1      -0.263   5.356  -1.156  0.00  0.00    -0.007 A 
ATOM      6  C5  UNL d   1      -1.188   4.537  -0.510  0.00  0.00     0.039 A 
ENDROOT
BRANCH   4   7
ATOM      7  O   UNL d   1       1.964   5.999  -1.580  0.00  0.00    -0.526 OA
ATOM      8  H5  UNL d   1       2.870   5.741  -1.343  0.00  0.00     0.418 HD
ENDBRANCH   4   7
TORSDOF 1
ENDMDL
