MODEL 1
REMARK minimizedAffinity 4.77438688
REMARK minimizedRMSD -1
REMARK  1 active torsions:
REMARK  status: ('A' for Active; 'I' for Inactive)
REMARK    1  A    between atoms: C3_4  and  O_7 
ROOT
ATOM      1  C   UNL d   1      -4.773   1.239  -4.120  0.00  0.00    -0.033 A 
ATOM      2  C1  UNL d   1      -3.570   1.861  -4.460  0.00  0.00     0.039 A 
ATOM      3  C2  UNL d   1      -3.580   3.106  -5.093  0.00  0.00    -0.080 A 
ATOM      4  C3  UNL d   1      -4.798   3.717  -5.379  0.00  0.00     0.150 A 
ATOM      5  C4  UNL d   1      -6.000   3.104  -5.040  0.00  0.00    -0.007 A 
ATOM      6  C5  UNL d   1      -5.988   1.861  -4.409  0.00  0.00     0.039 A 
ENDROOT
BRANCH   4   7
ATOM      7  O   UNL d   1      -4.858   4.929  -6.000  0.00  0.00    -0.526 OA
ATOM      8  H5  UNL d   1      -3.952   5.218  -6.200  0.00  0.00     0.418 HD
ENDBRANCH   4   7
TORSDOF 1
ENDMDL
