MODEL 1
REMARK minimizedAffinity 12.007884
REMARK minimizedRMSD -1
REMARK  1 active torsions:
REMARK  status: ('A' for Active; 'I' for Inactive)
REMARK    1  A    between atoms: C3_4  and  O_7 
ROOT
ATOM      1  C   UNL d   1      -3.904   5.978   2.246  0.00  0.00    -0.033 A 
ATOM      2  C1  UNL d   1      -3.201   4.829   1.880  0.00  0.00     0.039 A 
ATOM      3  C2  UNL d   1      -3.890   3.696   1.444  0.00  0.00    -0.080 A 
ATOM      4  C3  UNL d   1      -5.281   3.726   1.377  0.00  0.00     0.150 A 
ATOM      5  C4  UNL d   1      -5.987   4.869   1.736  0.00  0.00    -0.007 A 
ATOM      6  C5  UNL d   1      -5.297   5.999   2.172  0.00  0.00     0.039 A 
ENDROOT
BRANCH   4   7
ATOM      7  O   UNL d   1      -5.997   2.643   0.961  0.00  0.00    -0.526 OA
ATOM      8  H5  UNL d   1      -5.378   1.918   0.774  0.00  0.00     0.418 HD
ENDBRANCH   4   7
TORSDOF 1
ENDMDL
