MODEL 1
REMARK minimizedAffinity 6.91869974
REMARK minimizedRMSD -1
REMARK  1 active torsions:
REMARK  status: ('A' for Active; 'I' for Inactive)
REMARK    1  A    between atoms: C3_4  and  O_7 
ROOT
ATOM      1  C   UNL d   1      -3.497   2.496   0.784  0.00  0.00    -0.033 A 
ATOM      2  C1  UNL d   1      -4.862   2.612   0.515  0.00  0.00     0.039 A 
ATOM      3  C2  UNL d   1      -5.574   3.722   0.973  0.00  0.00    -0.080 A 
ATOM      4  C3  UNL d   1      -4.910   4.709   1.697  0.00  0.00     0.150 A 
ATOM      5  C4  UNL d   1      -3.549   4.602   1.965  0.00  0.00    -0.007 A 
ATOM      6  C5  UNL d   1      -2.840   3.492   1.508  0.00  0.00     0.039 A 
ENDROOT
BRANCH   4   7
ATOM      7  O   UNL d   1      -5.563   5.809   2.168  0.00  0.00    -0.526 OA
ATOM      8  H5  UNL d   1      -6.503   5.733   1.932  0.00  0.00     0.418 HD
ENDBRANCH   4   7
TORSDOF 1
ENDMDL
