MODEL 1
REMARK minimizedAffinity -1.65721357
REMARK minimizedRMSD -1
REMARK  1 active torsions:
REMARK  status: ('A' for Active; 'I' for Inactive)
REMARK    1  A    between atoms: C3_4  and  O_7 
ROOT
ATOM      1  C   UNL d   1       5.507  -3.207   2.149  0.00  0.00    -0.033 A 
ATOM      2  C1  UNL d   1       5.366  -2.875   3.498  0.00  0.00     0.039 A 
ATOM      3  C2  UNL d   1       4.431  -1.914   3.888  0.00  0.00    -0.080 A 
ATOM      4  C3  UNL d   1       3.644  -1.295   2.921  0.00  0.00     0.150 A 
ATOM      5  C4  UNL d   1       3.776  -1.624   1.576  0.00  0.00    -0.007 A 
ATOM      6  C5  UNL d   1       4.711  -2.583   1.188  0.00  0.00     0.039 A 
ENDROOT
BRANCH   4   7
ATOM      7  O   UNL d   1       2.721  -0.348   3.253  0.00  0.00    -0.526 OA
ATOM      8  H5  UNL d   1       2.761  -0.202   4.213  0.00  0.00     0.418 HD
ENDBRANCH   4   7
TORSDOF 1
ENDMDL
