MODEL 1
REMARK minimizedAffinity -5.57384586
REMARK minimizedRMSD -1
REMARK  0 active torsions:
REMARK  status: ('A' for Active; 'I' for Inactive)
ROOT
ATOM      1  C4' PXY d   1      -3.027  -2.397  -6.000  0.00  0.00     0.077 C 
ATOM      2  C1' PXY d   1       1.148   0.759  -3.547  0.00  0.00     0.077 C 
ATOM      3  C1  PXY d   1       0.047  -0.057  -4.193  0.00  0.00    -0.082 A 
ATOM      4  C2  PXY d   1      -0.143  -1.312  -3.819  0.00  0.00     0.003 A 
ATOM      5  C3  PXY d   1      -1.113  -2.075  -4.415  0.00  0.00     0.003 A 
ATOM      6  C4  PXY d   1      -1.934  -1.532  -5.368  0.00  0.00    -0.082 A 
ATOM      7  C5  PXY d   1      -1.753  -0.249  -5.748  0.00  0.00     0.003 A 
ATOM      8  C6  PXY d   1      -0.736   0.496  -5.159  0.00  0.00     0.003 A 
ENDROOT
TORSDOF 0
ENDMDL
