MODEL 1
REMARK minimizedAffinity -5.37267303
REMARK minimizedRMSD -1
REMARK  0 active torsions:
REMARK  status: ('A' for Active; 'I' for Inactive)
ROOT
ATOM      1  C4' PXY d   1      -3.543  -1.301  -5.643  0.00  0.00     0.077 C 
ATOM      2  C1' PXY d   1       1.232   0.830  -3.177  0.00  0.00     0.077 C 
ATOM      3  C1  PXY d   1      -0.025   0.283  -3.826  0.00  0.00    -0.082 A 
ATOM      4  C2  PXY d   1      -0.456  -0.925  -3.501  0.00  0.00     0.003 A 
ATOM      5  C3  PXY d   1      -1.573  -1.447  -4.102  0.00  0.00     0.003 A 
ATOM      6  C4  PXY d   1      -2.285  -0.705  -5.006  0.00  0.00    -0.082 A 
ATOM      7  C5  PXY d   1      -1.857   0.532  -5.335  0.00  0.00     0.003 A 
ATOM      8  C6  PXY d   1      -0.698   1.028  -4.744  0.00  0.00     0.003 A 
ENDROOT
TORSDOF 0
ENDMDL
