MODEL 1
REMARK minimizedAffinity -4.55439949
REMARK minimizedRMSD -1
REMARK  0 active torsions:
REMARK  status: ('A' for Active; 'I' for Inactive)
ROOT
ATOM      1  C4' PXY d   1       0.730  -0.743  -3.034  0.00  0.00     0.077 C 
ATOM      2  C1' PXY d   1      -0.566   0.662   2.421  0.00  0.00     0.077 C 
ATOM      3  C1  PXY d   1      -0.215   0.288   0.995  0.00  0.00    -0.082 A 
ATOM      4  C2  PXY d   1      -0.743   0.970  -0.009  0.00  0.00     0.003 A 
ATOM      5  C3  PXY d   1      -0.461   0.625  -1.306  0.00  0.00     0.003 A 
ATOM      6  C4  PXY d   1       0.411  -0.394  -1.578  0.00  0.00    -0.082 A 
ATOM      7  C5  PXY d   1       0.962  -1.088  -0.559  0.00  0.00     0.003 A 
ATOM      8  C6  PXY d   1       0.632  -0.749   0.750  0.00  0.00     0.003 A 
ENDROOT
TORSDOF 0
ENDMDL
