MODEL 1
REMARK minimizedAffinity -2.41821218
REMARK minimizedRMSD -1
REMARK  0 active torsions:
REMARK  status: ('A' for Active; 'I' for Inactive)
ROOT
ATOM      1  C4' PXY d   1       1.071  -0.067   2.037  0.00  0.00     0.077 C 
ATOM      2  C1' PXY d   1      -0.270  -0.672  -3.553  0.00  0.00     0.077 C 
ATOM      3  C1  PXY d   1       0.074  -0.503  -2.086  0.00  0.00    -0.082 A 
ATOM      4  C2  PXY d   1       1.203  -1.009  -1.616  0.00  0.00     0.003 A 
ATOM      5  C3  PXY d   1       1.514  -0.893  -0.286  0.00  0.00     0.003 A 
ATOM      6  C4  PXY d   1       0.687  -0.206   0.562  0.00  0.00    -0.082 A 
ATOM      7  C5  PXY d   1      -0.461   0.323   0.088  0.00  0.00     0.003 A 
ATOM      8  C6  PXY d   1      -0.779   0.158  -1.258  0.00  0.00     0.003 A 
ENDROOT
TORSDOF 0
ENDMDL
