MODEL 1
REMARK minimizedAffinity -3.85616398
REMARK minimizedRMSD -1
REMARK  0 active torsions:
REMARK  status: ('A' for Active; 'I' for Inactive)
ROOT
ATOM      1  C4' PXY d   1      -2.686   0.042   0.643  0.00  0.00     0.077 C 
ATOM      2  C1' PXY d   1       2.662   0.466   2.795  0.00  0.00     0.077 C 
ATOM      3  C1  PXY d   1       1.264   0.353   2.219  0.00  0.00    -0.082 A 
ATOM      4  C2  PXY d   1       0.247   0.906   2.859  0.00  0.00     0.003 A 
ATOM      5  C3  PXY d   1      -1.028   0.786   2.368  0.00  0.00     0.003 A 
ATOM      6  C4  PXY d   1      -1.257   0.139   1.183  0.00  0.00    -0.082 A 
ATOM      7  C5  PXY d   1      -0.222  -0.418   0.519  0.00  0.00     0.003 A 
ATOM      8  C6  PXY d   1       1.059  -0.321   1.055  0.00  0.00     0.003 A 
ENDROOT
TORSDOF 0
ENDMDL
