MODEL 1
REMARK minimizedAffinity -1.69537461
REMARK minimizedRMSD -1
REMARK  0 active torsions:
REMARK  status: ('A' for Active; 'I' for Inactive)
ROOT
ATOM      1  C4' PXY d   1       0.768   0.042  -1.998  0.00  0.00     0.077 C 
ATOM      2  C1' PXY d   1      -0.804   1.501   3.370  0.00  0.00     0.077 C 
ATOM      3  C1  PXY d   1      -0.392   1.106   1.966  0.00  0.00    -0.082 A 
ATOM      4  C2  PXY d   1       0.231   1.983   1.196  0.00  0.00     0.003 A 
ATOM      5  C3  PXY d   1       0.583   1.652  -0.088  0.00  0.00     0.003 A 
ATOM      6  C4  PXY d   1       0.342   0.394  -0.570  0.00  0.00    -0.082 A 
ATOM      7  C5  PXY d   1      -0.284  -0.510   0.213  0.00  0.00     0.003 A 
ATOM      8  C6  PXY d   1      -0.670  -0.142   1.499  0.00  0.00     0.003 A 
ENDROOT
TORSDOF 0
ENDMDL
