MODEL 1
REMARK minimizedAffinity 1.1847856
REMARK minimizedRMSD -1
REMARK  0 active torsions:
REMARK  status: ('A' for Active; 'I' for Inactive)
ROOT
ATOM      1  C4' PXY d   1       2.477  -0.534   1.392  0.00  0.00     0.077 C 
ATOM      2  C1' PXY d   1      -3.221   0.329   0.940  0.00  0.00     0.077 C 
ATOM      3  C1  PXY d   1      -1.727   0.110   1.070  0.00  0.00    -0.082 A 
ATOM      4  C2  PXY d   1      -1.007  -0.148  -0.010  0.00  0.00     0.003 A 
ATOM      5  C3  PXY d   1       0.340  -0.380   0.093  0.00  0.00     0.003 A 
ATOM      6  C4  PXY d   1       0.967  -0.296   1.307  0.00  0.00    -0.082 A 
ATOM      7  C5  PXY d   1       0.241  -0.024   2.413  0.00  0.00     0.003 A 
ATOM      8  C6  PXY d   1      -1.132   0.169   2.292  0.00  0.00     0.003 A 
ENDROOT
TORSDOF 0
ENDMDL
