MODEL 1
REMARK minimizedAffinity -4.61980915
REMARK minimizedRMSD -1
REMARK  0 active torsions:
REMARK  status: ('A' for Active; 'I' for Inactive)
ROOT
ATOM      1  C4' PXY d   1       0.203  -0.958  -1.781  0.00  0.00     0.077 C 
ATOM      2  C1' PXY d   1      -0.675   1.495   3.379  0.00  0.00     0.077 C 
ATOM      3  C1  PXY d   1      -0.432   0.855   2.026  0.00  0.00    -0.082 A 
ATOM      4  C2  PXY d   1      -1.433   0.738   1.169  0.00  0.00     0.003 A 
ATOM      5  C3  PXY d   1      -1.238   0.133  -0.046  0.00  0.00     0.003 A 
ATOM      6  C4  PXY d   1       0.006  -0.309  -0.408  0.00  0.00    -0.082 A 
ATOM      7  C5  PXY d   1       1.035  -0.184   0.457  0.00  0.00     0.003 A 
ATOM      8  C6  PXY d   1       0.807   0.396   1.702  0.00  0.00     0.003 A 
ENDROOT
TORSDOF 0
ENDMDL
