MODEL 1
REMARK minimizedAffinity -3.87242746
REMARK minimizedRMSD -1
REMARK  0 active torsions:
REMARK  status: ('A' for Active; 'I' for Inactive)
ROOT
ATOM      1  C4' PXY d   1       0.264  -0.907  -0.734  0.00  0.00     0.077 C 
ATOM      2  C1' PXY d   1       0.788   1.426  -5.997  0.00  0.00     0.077 C 
ATOM      3  C1  PXY d   1       0.638   0.815  -4.618  0.00  0.00    -0.082 A 
ATOM      4  C2  PXY d   1       1.628   0.916  -3.746  0.00  0.00     0.003 A 
ATOM      5  C3  PXY d   1       1.521   0.342  -2.505  0.00  0.00     0.003 A 
ATOM      6  C4  PXY d   1       0.368  -0.297  -2.135  0.00  0.00    -0.082 A 
ATOM      7  C5  PXY d   1      -0.650  -0.396  -3.015  0.00  0.00     0.003 A 
ATOM      8  C6  PXY d   1      -0.506   0.158  -4.284  0.00  0.00     0.003 A 
ENDROOT
TORSDOF 0
ENDMDL
