MODEL 1
REMARK minimizedAffinity 12.6074896
REMARK minimizedRMSD -1
REMARK  2 active torsions:
REMARK  status: ('A' for Active; 'I' for Inactive)
REMARK    1  A    between atoms: C2'_3  and  C1'_4 
REMARK    2  A    between atoms: C1'_4  and  C1_5 
ROOT
ATOM      1  C1  I4B d   1      -1.434   3.086  -2.604  0.00  0.00    -0.075 A 
ATOM      2  C2  I4B d   1      -2.528   2.276  -2.429  0.00  0.00     0.003 A 
ATOM      3  C3  I4B d   1      -3.817   2.842  -2.283  0.00  0.00     0.002 A 
ATOM      4  C4  I4B d   1      -3.960   4.214  -2.268  0.00  0.00    -0.004 A 
ATOM      5  C5  I4B d   1      -2.852   5.034  -2.468  0.00  0.00     0.002 A 
ATOM      6  C6  I4B d   1      -1.583   4.466  -2.650  0.00  0.00     0.003 A 
ENDROOT
BRANCH   1   7
ATOM      7  C1' I4B d   1      -0.082   2.456  -2.722  0.00  0.00     0.060 C 
BRANCH   7   8
ATOM      8  C2' I4B d   1       0.893   3.287  -1.912  0.00  0.00    -0.013 C 
ATOM      9  C4' I4B d   1       0.807   2.952  -0.446  0.00  0.00     0.013 C 
ATOM     10  C3' I4B d   1       2.271   3.034  -2.445  0.00  0.00     0.013 C 
ENDBRANCH   7   8
ENDBRANCH   1   7
TORSDOF 2
ENDMDL
