MODEL 1
REMARK minimizedAffinity 20.0125389
REMARK minimizedRMSD -1
REMARK  2 active torsions:
REMARK  status: ('A' for Active; 'I' for Inactive)
REMARK    1  A    between atoms: C2'_3  and  C1'_4 
REMARK    2  A    between atoms: C1'_4  and  C1_5 
ROOT
ATOM      1  C1  I4B d   1      -2.527   4.040  -2.896  0.00  0.00    -0.075 A 
ATOM      2  C2  I4B d   1      -3.250   5.002  -2.236  0.00  0.00     0.003 A 
ATOM      3  C3  I4B d   1      -4.221   4.630  -1.275  0.00  0.00     0.002 A 
ATOM      4  C4  I4B d   1      -4.470   3.292  -1.043  0.00  0.00    -0.004 A 
ATOM      5  C5  I4B d   1      -3.720   2.319  -1.697  0.00  0.00     0.002 A 
ATOM      6  C6  I4B d   1      -2.733   2.695  -2.620  0.00  0.00     0.003 A 
ENDROOT
BRANCH   1   7
ATOM      7  C1' I4B d   1      -1.533   4.468  -3.928  0.00  0.00     0.060 C 
BRANCH   7   8
ATOM      8  C2' I4B d   1      -2.299   4.973  -5.134  0.00  0.00    -0.013 C 
ATOM      9  C4' I4B d   1      -1.504   6.000  -5.895  0.00  0.00     0.013 C 
ATOM     10  C3' I4B d   1      -2.629   3.793  -5.999  0.00  0.00     0.013 C 
ENDBRANCH   7   8
ENDBRANCH   1   7
TORSDOF 2
ENDMDL
