MODEL 1
REMARK minimizedAffinity 19.0913639
REMARK minimizedRMSD -1
REMARK  2 active torsions:
REMARK  status: ('A' for Active; 'I' for Inactive)
REMARK    1  A    between atoms: C2'_3  and  C1'_4 
REMARK    2  A    between atoms: C1'_4  and  C1_5 
ROOT
ATOM      1  C1  I4B d   1      -2.860   4.182  -2.633  0.00  0.00    -0.075 A 
ATOM      2  C2  I4B d   1      -3.146   5.404  -2.075  0.00  0.00     0.003 A 
ATOM      3  C3  I4B d   1      -4.096   5.505  -1.030  0.00  0.00     0.002 A 
ATOM      4  C4  I4B d   1      -4.768   4.375  -0.610  0.00  0.00    -0.004 A 
ATOM      5  C5  I4B d   1      -4.460   3.134  -1.161  0.00  0.00     0.002 A 
ATOM      6  C6  I4B d   1      -3.491   3.035  -2.170  0.00  0.00     0.003 A 
ENDROOT
BRANCH   1   7
ATOM      7  C1' I4B d   1      -1.876   4.117  -3.758  0.00  0.00     0.060 C 
BRANCH   7   8
ATOM      8  C2' I4B d   1      -2.567   4.613  -5.012  0.00  0.00    -0.013 C 
ATOM      9  C4' I4B d   1      -1.854   5.806  -5.591  0.00  0.00     0.013 C 
ATOM     10  C3' I4B d   1      -2.613   3.481  -5.994  0.00  0.00     0.013 C 
ENDBRANCH   7   8
ENDBRANCH   1   7
TORSDOF 2
ENDMDL
