MODEL 1
REMARK minimizedAffinity 17.6096249
REMARK minimizedRMSD -1
REMARK  2 active torsions:
REMARK  status: ('A' for Active; 'I' for Inactive)
REMARK    1  A    between atoms: C2'_3  and  C1'_4 
REMARK    2  A    between atoms: C1'_4  and  C1_5 
ROOT
ATOM      1  C1  I4B d   1       1.002   3.215  -0.196  0.00  0.00    -0.075 A 
ATOM      2  C2  I4B d   1       0.783   3.965   0.933  0.00  0.00     0.003 A 
ATOM      3  C3  I4B d   1       0.819   5.379   0.867  0.00  0.00     0.002 A 
ATOM      4  C4  I4B d   1       1.126   5.997  -0.328  0.00  0.00    -0.004 A 
ATOM      5  C5  I4B d   1       1.325   5.235  -1.476  0.00  0.00     0.002 A 
ATOM      6  C6  I4B d   1       1.251   3.836  -1.413  0.00  0.00     0.003 A 
ENDROOT
BRANCH   1   7
ATOM      7  C1' I4B d   1       0.989   1.724  -0.084  0.00  0.00     0.060 C 
BRANCH   7   8
ATOM      8  C2' I4B d   1       1.948   1.330   1.021  0.00  0.00    -0.013 C 
ATOM      9  C4' I4B d   1       1.769  -0.114   1.409  0.00  0.00     0.013 C 
ATOM     10  C3' I4B d   1       3.343   1.592   0.538  0.00  0.00     0.013 C 
ENDBRANCH   7   8
ENDBRANCH   1   7
TORSDOF 2
ENDMDL
