MODEL 1
REMARK minimizedAffinity 13.0771589
REMARK minimizedRMSD -1
REMARK  2 active torsions:
REMARK  status: ('A' for Active; 'I' for Inactive)
REMARK    1  A    between atoms: C2'_3  and  C1'_4 
REMARK    2  A    between atoms: C1'_4  and  C1_5 
ROOT
ATOM      1  C1  I4B d   1      -2.126   3.349  -2.222  0.00  0.00    -0.075 A 
ATOM      2  C2  I4B d   1      -3.281   2.998  -1.568  0.00  0.00     0.003 A 
ATOM      3  C3  I4B d   1      -4.325   3.941  -1.408  0.00  0.00     0.002 A 
ATOM      4  C4  I4B d   1      -4.153   5.230  -1.870  0.00  0.00    -0.004 A 
ATOM      5  C5  I4B d   1      -2.991   5.578  -2.553  0.00  0.00     0.002 A 
ATOM      6  C6  I4B d   1      -1.976   4.628  -2.741  0.00  0.00     0.003 A 
ENDROOT
BRANCH   1   7
ATOM      7  C1' I4B d   1      -1.031   2.338  -2.344  0.00  0.00     0.060 C 
BRANCH   7   8
ATOM      8  C2' I4B d   1       0.167   2.852  -1.572  0.00  0.00    -0.013 C 
ATOM      9  C4' I4B d   1       0.108   2.428  -0.128  0.00  0.00     0.013 C 
ATOM     10  C3' I4B d   1       1.406   2.332  -2.238  0.00  0.00     0.013 C 
ENDBRANCH   7   8
ENDBRANCH   1   7
TORSDOF 2
ENDMDL
