MODEL 1
REMARK minimizedAffinity 11.9075136
REMARK minimizedRMSD -1
REMARK  2 active torsions:
REMARK  status: ('A' for Active; 'I' for Inactive)
REMARK    1  A    between atoms: C2'_3  and  C1'_4 
REMARK    2  A    between atoms: C1'_4  and  C1_5 
ROOT
ATOM      1  C1  I4B d   1       2.364  -0.586   1.004  0.00  0.00    -0.075 A 
ATOM      2  C2  I4B d   1       1.521  -0.337   2.057  0.00  0.00     0.003 A 
ATOM      3  C3  I4B d   1       0.836  -1.402   2.689  0.00  0.00     0.002 A 
ATOM      4  C4  I4B d   1       0.984  -2.687   2.207  0.00  0.00    -0.004 A 
ATOM      5  C5  I4B d   1       1.857  -2.940   1.153  0.00  0.00     0.002 A 
ATOM      6  C6  I4B d   1       2.562  -1.885   0.555  0.00  0.00     0.003 A 
ENDROOT
BRANCH   1   7
ATOM      7  C1' I4B d   1       3.046   0.567   0.338  0.00  0.00     0.060 C 
BRANCH   7   8
ATOM      8  C2' I4B d   1       2.407   1.844   0.846  0.00  0.00    -0.013 C 
ATOM      9  C4' I4B d   1       3.435   2.928   1.041  0.00  0.00     0.013 C 
ATOM     10  C3' I4B d   1       1.360   2.262  -0.143  0.00  0.00     0.013 C 
ENDBRANCH   7   8
ENDBRANCH   1   7
TORSDOF 2
ENDMDL
