MODEL 1
REMARK minimizedAffinity 12.8254566
REMARK minimizedRMSD -1
REMARK  2 active torsions:
REMARK  status: ('A' for Active; 'I' for Inactive)
REMARK    1  A    between atoms: C2'_3  and  C1'_4 
REMARK    2  A    between atoms: C1'_4  and  C1_5 
ROOT
ATOM      1  C1  I4B d   1       0.295  -2.076   2.506  0.00  0.00    -0.075 A 
ATOM      2  C2  I4B d   1       0.128  -1.055   3.409  0.00  0.00     0.003 A 
ATOM      3  C3  I4B d   1      -1.039  -0.995   4.208  0.00  0.00     0.002 A 
ATOM      4  C4  I4B d   1      -2.029  -1.941   4.038  0.00  0.00    -0.004 A 
ATOM      5  C5  I4B d   1      -1.848  -2.987   3.139  0.00  0.00     0.002 A 
ATOM      6  C6  I4B d   1      -0.673  -3.063   2.377  0.00  0.00     0.003 A 
ENDROOT
BRANCH   1   7
ATOM      7  C1' I4B d   1       1.525  -2.091   1.654  0.00  0.00     0.060 C 
BRANCH   7   8
ATOM      8  C2' I4B d   1       2.124  -0.699   1.676  0.00  0.00    -0.013 C 
ATOM      9  C4' I4B d   1       3.519  -0.697   1.107  0.00  0.00     0.013 C 
ATOM     10  C3' I4B d   1       1.219   0.207   0.895  0.00  0.00     0.013 C 
ENDBRANCH   7   8
ENDBRANCH   1   7
TORSDOF 2
ENDMDL
