MODEL 1
REMARK minimizedAffinity 14.4845228
REMARK minimizedRMSD -1
REMARK  2 active torsions:
REMARK  status: ('A' for Active; 'I' for Inactive)
REMARK    1  A    between atoms: C2'_3  and  C1'_4 
REMARK    2  A    between atoms: C1'_4  and  C1_5 
ROOT
ATOM      1  C1  I4B d   1      -2.727   4.020  -3.306  0.00  0.00    -0.075 A 
ATOM      2  C2  I4B d   1      -2.861   3.378  -4.512  0.00  0.00     0.003 A 
ATOM      3  C3  I4B d   1      -2.524   4.043  -5.715  0.00  0.00     0.002 A 
ATOM      4  C4  I4B d   1      -2.107   5.358  -5.671  0.00  0.00    -0.004 A 
ATOM      5  C5  I4B d   1      -1.950   6.000  -4.446  0.00  0.00     0.002 A 
ATOM      6  C6  I4B d   1      -2.250   5.323  -3.255  0.00  0.00     0.003 A 
ENDROOT
BRANCH   1   7
ATOM      7  C1' I4B d   1      -3.123   3.298  -2.057  0.00  0.00     0.060 C 
BRANCH   7   8
ATOM      8  C2' I4B d   1      -4.631   3.376  -1.931  0.00  0.00    -0.013 C 
ATOM      9  C4' I4B d   1      -5.278   2.070  -2.308  0.00  0.00     0.013 C 
ATOM     10  C3' I4B d   1      -4.958   3.755  -0.518  0.00  0.00     0.013 C 
ENDBRANCH   7   8
ENDBRANCH   1   7
TORSDOF 2
ENDMDL
