MODEL 1
REMARK minimizedAffinity 12.7788544
REMARK minimizedRMSD -1
REMARK  2 active torsions:
REMARK  status: ('A' for Active; 'I' for Inactive)
REMARK    1  A    between atoms: C2'_3  and  C1'_4 
REMARK    2  A    between atoms: C1'_4  and  C1_5 
ROOT
ATOM      1  C1  I4B d   1      -2.132   3.469  -2.232  0.00  0.00    -0.075 A 
ATOM      2  C2  I4B d   1      -3.275   3.005  -1.630  0.00  0.00     0.003 A 
ATOM      3  C3  I4B d   1      -4.335   3.896  -1.333  0.00  0.00     0.002 A 
ATOM      4  C4  I4B d   1      -4.190   5.240  -1.607  0.00  0.00    -0.004 A 
ATOM      5  C5  I4B d   1      -3.040   5.705  -2.238  0.00  0.00     0.002 A 
ATOM      6  C6  I4B d   1      -2.009   4.812  -2.565  0.00  0.00     0.003 A 
ENDROOT
BRANCH   1   7
ATOM      7  C1' I4B d   1      -1.018   2.507  -2.502  0.00  0.00     0.060 C 
BRANCH   7   8
ATOM      8  C2' I4B d   1       0.095   2.793  -1.515  0.00  0.00    -0.013 C 
ATOM      9  C4' I4B d   1       0.109   1.780  -0.400  0.00  0.00     0.013 C 
ATOM     10  C3' I4B d   1       1.393   2.788  -2.267  0.00  0.00     0.013 C 
ENDBRANCH   7   8
ENDBRANCH   1   7
TORSDOF 2
ENDMDL
