MODEL 1
REMARK minimizedAffinity 8.02505779
REMARK minimizedRMSD -1
REMARK  2 active torsions:
REMARK  status: ('A' for Active; 'I' for Inactive)
REMARK    1  A    between atoms: C2'_3  and  C1'_4 
REMARK    2  A    between atoms: C1'_4  and  C1_5 
ROOT
ATOM      1  C1  I4B d   1       0.264  -2.124   2.821  0.00  0.00    -0.075 A 
ATOM      2  C2  I4B d   1       0.432  -1.022   3.622  0.00  0.00     0.003 A 
ATOM      3  C3  I4B d   1      -0.465  -0.774   4.690  0.00  0.00     0.002 A 
ATOM      4  C4  I4B d   1      -1.537  -1.619   4.888  0.00  0.00    -0.004 A 
ATOM      5  C5  I4B d   1      -1.693  -2.748   4.089  0.00  0.00     0.002 A 
ATOM      6  C6  I4B d   1      -0.780  -3.009   3.056  0.00  0.00     0.003 A 
ENDROOT
BRANCH   1   7
ATOM      7  C1' I4B d   1       1.210  -2.338   1.682  0.00  0.00     0.060 C 
BRANCH   7   8
ATOM      8  C2' I4B d   1       2.098  -1.115   1.577  0.00  0.00    -0.013 C 
ATOM      9  C4' I4B d   1       3.326  -1.403   0.755  0.00  0.00     0.013 C 
ATOM     10  C3' I4B d   1       1.290  -0.006   0.974  0.00  0.00     0.013 C 
ENDBRANCH   7   8
ENDBRANCH   1   7
TORSDOF 2
ENDMDL
