MODEL 1
REMARK minimizedAffinity 5.73548746
REMARK minimizedRMSD -1
REMARK  2 active torsions:
REMARK  status: ('A' for Active; 'I' for Inactive)
REMARK    1  A    between atoms: C2'_3  and  C1'_4 
REMARK    2  A    between atoms: C1'_4  and  C1_5 
ROOT
ATOM      1  C1  I4B d   1      -1.502  -2.686   2.796  0.00  0.00    -0.075 A 
ATOM      2  C2  I4B d   1      -1.892  -1.881   3.836  0.00  0.00     0.003 A 
ATOM      3  C3  I4B d   1      -1.045  -0.841   4.290  0.00  0.00     0.002 A 
ATOM      4  C4  I4B d   1       0.197  -0.676   3.712  0.00  0.00    -0.004 A 
ATOM      5  C5  I4B d   1       0.582  -1.478   2.642  0.00  0.00     0.002 A 
ATOM      6  C6  I4B d   1      -0.278  -2.482   2.172  0.00  0.00     0.003 A 
ENDROOT
BRANCH   1   7
ATOM      7  C1' I4B d   1      -2.407  -3.795   2.363  0.00  0.00     0.060 C 
BRANCH   7   8
ATOM      8  C2' I4B d   1      -3.300  -3.266   1.260  0.00  0.00    -0.013 C 
ATOM      9  C4' I4B d   1      -3.484  -4.288   0.169  0.00  0.00     0.013 C 
ATOM     10  C3' I4B d   1      -4.615  -2.884   1.871  0.00  0.00     0.013 C 
ENDBRANCH   7   8
ENDBRANCH   1   7
TORSDOF 2
ENDMDL
