MODEL 1
REMARK minimizedAffinity 14.7101765
REMARK minimizedRMSD -1
REMARK  2 active torsions:
REMARK  status: ('A' for Active; 'I' for Inactive)
REMARK    1  A    between atoms: C2'_3  and  C1'_4 
REMARK    2  A    between atoms: C1'_4  and  C1_5 
ROOT
ATOM      1  C1  I4B d   1       0.245  -0.956   2.691  0.00  0.00    -0.075 A 
ATOM      2  C2  I4B d   1       1.314  -0.181   2.316  0.00  0.00     0.003 A 
ATOM      3  C3  I4B d   1       2.302  -0.701   1.446  0.00  0.00     0.002 A 
ATOM      4  C4  I4B d   1       2.209  -2.009   1.016  0.00  0.00    -0.004 A 
ATOM      5  C5  I4B d   1       1.113  -2.787   1.378  0.00  0.00     0.002 A 
ATOM      6  C6  I4B d   1       0.118  -2.253   2.211  0.00  0.00     0.003 A 
ENDROOT
BRANCH   1   7
ATOM      7  C1' I4B d   1      -0.762  -0.386   3.638  0.00  0.00     0.060 C 
BRANCH   7   8
ATOM      8  C2' I4B d   1      -0.307  -0.700   5.048  0.00  0.00    -0.013 C 
ATOM      9  C4' I4B d   1       1.034  -0.080   5.339  0.00  0.00     0.013 C 
ATOM     10  C3' I4B d   1      -1.354  -0.195   5.996  0.00  0.00     0.013 C 
ENDBRANCH   7   8
ENDBRANCH   1   7
TORSDOF 2
ENDMDL
