MODEL 1
REMARK minimizedAffinity 17.0180073
REMARK minimizedRMSD -1
REMARK  2 active torsions:
REMARK  status: ('A' for Active; 'I' for Inactive)
REMARK    1  A    between atoms: C2'_3  and  C1'_4 
REMARK    2  A    between atoms: C1'_4  and  C1_5 
ROOT
ATOM      1  C1  I4B d   1      -2.206   4.008  -3.307  0.00  0.00    -0.075 A 
ATOM      2  C2  I4B d   1      -2.357   5.191  -2.629  0.00  0.00     0.003 A 
ATOM      3  C3  I4B d   1      -3.312   5.301  -1.590  0.00  0.00     0.002 A 
ATOM      4  C4  I4B d   1      -4.125   4.225  -1.298  0.00  0.00    -0.004 A 
ATOM      5  C5  I4B d   1      -3.956   3.018  -1.971  0.00  0.00     0.002 A 
ATOM      6  C6  I4B d   1      -2.982   2.905  -2.974  0.00  0.00     0.003 A 
ENDROOT
BRANCH   1   7
ATOM      7  C1' I4B d   1      -1.211   3.937  -4.422  0.00  0.00     0.060 C 
BRANCH   7   8
ATOM      8  C2' I4B d   1      -1.849   4.541  -5.656  0.00  0.00    -0.013 C 
ATOM      9  C4' I4B d   1      -3.139   3.843  -6.000  0.00  0.00     0.013 C 
ATOM     10  C3' I4B d   1      -2.075   6.000  -5.395  0.00  0.00     0.013 C 
ENDBRANCH   7   8
ENDBRANCH   1   7
TORSDOF 2
ENDMDL
