MODEL 1
REMARK minimizedAffinity -1.33678591
REMARK minimizedRMSD -1
REMARK  0 active torsions:
REMARK  status: ('A' for Active; 'I' for Inactive)
ROOT
ATOM      1  C1  BNZ d   1      -1.016  -0.392   1.756  0.00  0.00     0.000 A 
ATOM      2  C2  BNZ d   1       0.211   0.132   1.448  0.00  0.00     0.000 A 
ATOM      3  C3  BNZ d   1       1.345  -0.344   2.045  0.00  0.00     0.000 A 
ATOM      4  C4  BNZ d   1       1.247  -1.313   2.977  0.00  0.00     0.000 A 
ATOM      5  C5  BNZ d   1       0.016  -1.845   3.305  0.00  0.00     0.000 A 
ATOM      6  C6  BNZ d   1      -1.119  -1.391   2.674  0.00  0.00     0.000 A 
ENDROOT
TORSDOF 0
ENDMDL
