MODEL 1
REMARK minimizedAffinity -0.69409889
REMARK minimizedRMSD -1
REMARK  0 active torsions:
REMARK  status: ('A' for Active; 'I' for Inactive)
ROOT
ATOM      1  C1  BNZ d   1       1.327  -0.868   2.205  0.00  0.00     0.000 A 
ATOM      2  C2  BNZ d   1       0.236  -0.324   1.582  0.00  0.00     0.000 A 
ATOM      3  C3  BNZ d   1      -1.015  -0.457   2.118  0.00  0.00     0.000 A 
ATOM      4  C4  BNZ d   1      -1.177  -1.167   3.253  0.00  0.00     0.000 A 
ATOM      5  C5  BNZ d   1      -0.087  -1.730   3.888  0.00  0.00     0.000 A 
ATOM      6  C6  BNZ d   1       1.174  -1.561   3.366  0.00  0.00     0.000 A 
ENDROOT
TORSDOF 0
ENDMDL
