MODEL 1
REMARK minimizedAffinity 2.23114681
REMARK minimizedRMSD -1
REMARK  0 active torsions:
REMARK  status: ('A' for Active; 'I' for Inactive)
ROOT
ATOM      1  C1  BNZ d   1      -1.905  -0.530   2.188  0.00  0.00     0.000 A 
ATOM      2  C2  BNZ d   1      -0.679   0.078   2.232  0.00  0.00     0.000 A 
ATOM      3  C3  BNZ d   1       0.417  -0.588   2.706  0.00  0.00     0.000 A 
ATOM      4  C4  BNZ d   1       0.278  -1.846   3.171  0.00  0.00     0.000 A 
ATOM      5  C5  BNZ d   1      -0.954  -2.470   3.142  0.00  0.00     0.000 A 
ATOM      6  C6  BNZ d   1      -2.046  -1.810   2.629  0.00  0.00     0.000 A 
ENDROOT
TORSDOF 0
ENDMDL
