MODEL 1
REMARK minimizedAffinity -4.45514536
REMARK minimizedRMSD -1
REMARK  0 active torsions:
REMARK  status: ('A' for Active; 'I' for Inactive)
ROOT
ATOM      1  C1  BNZ d   1       1.439  -0.718   2.231  0.00  0.00     0.000 A 
ATOM      2  C2  BNZ d   1       0.452  -0.100   1.511  0.00  0.00     0.000 A 
ATOM      3  C3  BNZ d   1      -0.851  -0.152   1.920  0.00  0.00     0.000 A 
ATOM      4  C4  BNZ d   1      -1.171  -0.856   3.025  0.00  0.00     0.000 A 
ATOM      5  C5  BNZ d   1      -0.189  -1.493   3.757  0.00  0.00     0.000 A 
ATOM      6  C6  BNZ d   1       1.127  -1.405   3.364  0.00  0.00     0.000 A 
ENDROOT
TORSDOF 0
ENDMDL
