MODEL 1
REMARK minimizedAffinity -1.26411057
REMARK minimizedRMSD -1
REMARK  0 active torsions:
REMARK  status: ('A' for Active; 'I' for Inactive)
ROOT
ATOM      1  C1  BNZ d   1      -1.154  -0.889   3.218  0.00  0.00     0.000 A 
ATOM      2  C2  BNZ d   1      -0.082  -0.570   2.429  0.00  0.00     0.000 A 
ATOM      3  C3  BNZ d   1       1.185  -0.940   2.786  0.00  0.00     0.000 A 
ATOM      4  C4  BNZ d   1       1.382  -1.593   3.949  0.00  0.00     0.000 A 
ATOM      5  C5  BNZ d   1       0.312  -1.914   4.760  0.00  0.00     0.000 A 
ATOM      6  C6  BNZ d   1      -0.966  -1.574   4.379  0.00  0.00     0.000 A 
ENDROOT
TORSDOF 0
ENDMDL
