MODEL 1
REMARK minimizedAffinity -1.67773747
REMARK minimizedRMSD -1
REMARK  0 active torsions:
REMARK  status: ('A' for Active; 'I' for Inactive)
ROOT
ATOM      1  C1  BNZ d   1      -1.631  -0.354   1.630  0.00  0.00     0.000 A 
ATOM      2  C2  BNZ d   1      -0.371   0.120   1.883  0.00  0.00     0.000 A 
ATOM      3  C3  BNZ d   1       0.496  -0.584   2.671  0.00  0.00     0.000 A 
ATOM      4  C4  BNZ d   1       0.090  -1.738   3.238  0.00  0.00     0.000 A 
ATOM      5  C5  BNZ d   1      -1.181  -2.224   3.000  0.00  0.00     0.000 A 
ATOM      6  C6  BNZ d   1      -2.038  -1.533   2.175  0.00  0.00     0.000 A 
ENDROOT
TORSDOF 0
ENDMDL
