MODEL 1
REMARK minimizedAffinity -1.82118452
REMARK minimizedRMSD -1
REMARK  0 active torsions:
REMARK  status: ('A' for Active; 'I' for Inactive)
ROOT
ATOM      1  C1  BNZ d   1       0.268  -0.761   3.421  0.00  0.00     0.000 A 
ATOM      2  C2  BNZ d   1      -0.836  -0.257   2.785  0.00  0.00     0.000 A 
ATOM      3  C3  BNZ d   1      -2.064  -0.834   2.952  0.00  0.00     0.000 A 
ATOM      4  C4  BNZ d   1      -2.179  -1.936   3.722  0.00  0.00     0.000 A 
ATOM      5  C5  BNZ d   1      -1.075  -2.460   4.362  0.00  0.00     0.000 A 
ATOM      6  C6  BNZ d   1       0.153  -1.854   4.223  0.00  0.00     0.000 A 
ENDROOT
TORSDOF 0
ENDMDL
