MODEL 1
REMARK minimizedAffinity 0.567022443
REMARK minimizedRMSD -1
REMARK  0 active torsions:
REMARK  status: ('A' for Active; 'I' for Inactive)
ROOT
ATOM      1  C1  BNZ d   1       3.422   0.141   4.287  0.00  0.00     0.000 A 
ATOM      2  C2  BNZ d   1       4.241   1.237   4.264  0.00  0.00     0.000 A 
ATOM      3  C3  BNZ d   1       4.243   2.088   3.194  0.00  0.00     0.000 A 
ATOM      4  C4  BNZ d   1       3.456   1.819   2.133  0.00  0.00     0.000 A 
ATOM      5  C5  BNZ d   1       2.631   0.712   2.137  0.00  0.00     0.000 A 
ATOM      6  C6  BNZ d   1       2.603  -0.121   3.232  0.00  0.00     0.000 A 
ENDROOT
TORSDOF 0
ENDMDL
