MODEL 1
REMARK minimizedAffinity -3.35314465
REMARK minimizedRMSD -1
REMARK  0 active torsions:
REMARK  status: ('A' for Active; 'I' for Inactive)
ROOT
ATOM      1  C1  BNZ d   1       0.013  -5.987  -5.311  0.00  0.00     0.000 A 
ATOM      2  C2  BNZ d   1      -0.626  -5.649  -4.148  0.00  0.00     0.000 A 
ATOM      3  C3  BNZ d   1       0.084  -5.286  -3.038  0.00  0.00     0.000 A 
ATOM      4  C4  BNZ d   1       1.432  -5.300  -3.080  0.00  0.00     0.000 A 
ATOM      5  C5  BNZ d   1       2.092  -5.648  -4.242  0.00  0.00     0.000 A 
ATOM      6  C6  BNZ d   1       1.373  -5.975  -5.369  0.00  0.00     0.000 A 
ENDROOT
TORSDOF 0
ENDMDL
