MODEL 1
REMARK minimizedAffinity -5.07924414
REMARK minimizedRMSD -1
REMARK  1 active torsions:
REMARK  status: ('A' for Active; 'I' for Inactive)
REMARK    1  A    between atoms: C1_2  and  C2_3 
ROOT
ATOM      1  C2  UNL d   1      -1.545  -0.245   0.894  0.00  0.00    -0.081 A 
ATOM      2  C3  UNL d   1      -1.434   1.134   1.109  0.00  0.00     0.006 A 
ATOM      3  C4  UNL d   1      -0.479   1.884   0.418  0.00  0.00     0.002 A 
ATOM      4  C5  UNL d   1       0.375   1.269  -0.504  0.00  0.00    -0.080 A 
ATOM      5  C6  UNL d   1       1.384   2.068  -1.274  0.00  0.00     0.076 C 
ATOM      6  C7  UNL d   1       0.276  -0.111  -0.706  0.00  0.00     0.002 A 
ATOM      7  C8  UNL d   1      -0.678  -0.862  -0.015  0.00  0.00     0.006 A 
ENDROOT
BRANCH   1   8
ATOM      8  C1  UNL d   1      -2.617  -1.046   1.589  0.00  0.00     0.054 C 
ATOM      9  C   UNL d   1      -2.322  -2.538   1.524  0.00  0.00     0.018 C 
ENDBRANCH   1   8
TORSDOF 1
ENDMDL
