MODEL 1
REMARK minimizedAffinity -5.43536282
REMARK minimizedRMSD -1
REMARK  1 active torsions:
REMARK  status: ('A' for Active; 'I' for Inactive)
REMARK    1  A    between atoms: C1_2  and  C2_3 
ROOT
ATOM      1  C2  UNL d   1       0.254   0.594  -0.373  0.00  0.00    -0.081 A 
ATOM      2  C3  UNL d   1       0.641  -0.724  -0.101  0.00  0.00     0.006 A 
ATOM      3  C4  UNL d   1      -0.247  -1.609   0.515  0.00  0.00     0.002 A 
ATOM      4  C5  UNL d   1      -1.537  -1.195   0.861  0.00  0.00    -0.080 A 
ATOM      5  C6  UNL d   1      -2.510  -2.144   1.496  0.00  0.00     0.076 C 
ATOM      6  C7  UNL d   1      -1.918   0.127   0.605  0.00  0.00     0.002 A 
ATOM      7  C8  UNL d   1      -1.031   1.013  -0.010  0.00  0.00     0.006 A 
ENDROOT
BRANCH   1   8
ATOM      8  C1  UNL d   1       1.186   1.533  -1.096  0.00  0.00     0.054 C 
ATOM      9  C   UNL d   1       0.743   1.753  -2.535  0.00  0.00     0.018 C 
ENDBRANCH   1   8
TORSDOF 1
ENDMDL
