MODEL 1
REMARK minimizedAffinity -5.02111006
REMARK minimizedRMSD -1
REMARK  1 active torsions:
REMARK  status: ('A' for Active; 'I' for Inactive)
REMARK    1  A    between atoms: C1_2  and  C2_3 
ROOT
ATOM      1  C2  UNL d   1      -0.165   0.134   0.556  0.00  0.00    -0.081 A 
ATOM      2  C3  UNL d   1       0.286  -1.183   0.710  0.00  0.00     0.006 A 
ATOM      3  C4  UNL d   1      -0.591  -2.187   1.128  0.00  0.00     0.002 A 
ATOM      4  C5  UNL d   1      -1.934  -1.893   1.390  0.00  0.00    -0.080 A 
ATOM      5  C6  UNL d   1      -2.893  -2.967   1.810  0.00  0.00     0.076 C 
ATOM      6  C7  UNL d   1      -2.380  -0.574   1.253  0.00  0.00     0.002 A 
ATOM      7  C8  UNL d   1      -1.503   0.430   0.836  0.00  0.00     0.006 A 
ENDROOT
BRANCH   1   8
ATOM      8  C1  UNL d   1       0.763   1.206   0.043  0.00  0.00     0.054 C 
ATOM      9  C   UNL d   1       0.415   1.602  -1.384  0.00  0.00     0.018 C 
ENDBRANCH   1   8
TORSDOF 1
ENDMDL
