MODEL 1
REMARK minimizedAffinity -3.69833112
REMARK minimizedRMSD -1
REMARK  1 active torsions:
REMARK  status: ('A' for Active; 'I' for Inactive)
REMARK    1  A    between atoms: C1_2  and  C2_3 
ROOT
ATOM      1  C2  UNL d   1       0.500   1.004  -1.272  0.00  0.00    -0.081 A 
ATOM      2  C3  UNL d   1      -0.242   1.255  -0.112  0.00  0.00     0.006 A 
ATOM      3  C4  UNL d   1      -0.428   0.251   0.842  0.00  0.00     0.002 A 
ATOM      4  C5  UNL d   1       0.132  -1.018   0.655  0.00  0.00    -0.080 A 
ATOM      5  C6  UNL d   1      -0.034  -2.095   1.684  0.00  0.00     0.076 C 
ATOM      6  C7  UNL d   1       0.859  -1.274  -0.513  0.00  0.00     0.002 A 
ATOM      7  C8  UNL d   1       1.044  -0.271  -1.467  0.00  0.00     0.006 A 
ENDROOT
BRANCH   1   8
ATOM      8  C1  UNL d   1       0.757   2.103  -2.271  0.00  0.00     0.054 C 
ATOM      9  C   UNL d   1       1.727   1.652  -3.353  0.00  0.00     0.018 C 
ENDBRANCH   1   8
TORSDOF 1
ENDMDL
