MODEL 1
REMARK minimizedAffinity -4.46472168
REMARK minimizedRMSD -1
REMARK  1 active torsions:
REMARK  status: ('A' for Active; 'I' for Inactive)
REMARK    1  A    between atoms: C1_2  and  C2_3 
ROOT
ATOM      1  C2  UNL d   1      -0.676  -0.304   0.733  0.00  0.00    -0.081 A 
ATOM      2  C3  UNL d   1       0.359  -0.841  -0.043  0.00  0.00     0.006 A 
ATOM      3  C4  UNL d   1       1.122  -0.016  -0.872  0.00  0.00     0.002 A 
ATOM      4  C5  UNL d   1       0.870   1.358  -0.934  0.00  0.00    -0.080 A 
ATOM      5  C6  UNL d   1       1.702   2.259  -1.798  0.00  0.00     0.076 C 
ATOM      6  C7  UNL d   1      -0.175   1.892  -0.172  0.00  0.00     0.002 A 
ATOM      7  C8  UNL d   1      -0.940   1.068   0.657  0.00  0.00     0.006 A 
ENDROOT
BRANCH   1   8
ATOM      8  C1  UNL d   1      -1.459  -1.180   1.678  0.00  0.00     0.054 C 
ATOM      9  C   UNL d   1      -1.079  -2.645   1.517  0.00  0.00     0.018 C 
ENDBRANCH   1   8
TORSDOF 1
ENDMDL
