MODEL 1
REMARK minimizedAffinity 0.177649796
REMARK minimizedRMSD -1
REMARK  1 active torsions:
REMARK  status: ('A' for Active; 'I' for Inactive)
REMARK    1  A    between atoms: C1_2  and  C2_3 
ROOT
ATOM      1  C2  UNL d   1       1.159   1.215  -1.042  0.00  0.00    -0.081 A 
ATOM      2  C3  UNL d   1       1.998   0.120  -0.802  0.00  0.00     0.006 A 
ATOM      3  C4  UNL d   1       1.586  -0.918   0.036  0.00  0.00     0.002 A 
ATOM      4  C5  UNL d   1       0.325  -0.884   0.641  0.00  0.00    -0.080 A 
ATOM      5  C6  UNL d   1      -0.142  -2.007   1.519  0.00  0.00     0.076 C 
ATOM      6  C7  UNL d   1      -0.507   0.218   0.415  0.00  0.00     0.002 A 
ATOM      7  C8  UNL d   1      -0.095   1.257  -0.422  0.00  0.00     0.006 A 
ENDROOT
BRANCH   1   8
ATOM      8  C1  UNL d   1       1.575   2.305  -1.997  0.00  0.00     0.054 C 
ATOM      9  C   UNL d   1       0.689   2.325  -3.234  0.00  0.00     0.018 C 
ENDBRANCH   1   8
TORSDOF 1
ENDMDL
