MODEL 1
REMARK minimizedAffinity -3.22110939
REMARK minimizedRMSD -1
REMARK  1 active torsions:
REMARK  status: ('A' for Active; 'I' for Inactive)
REMARK    1  A    between atoms: C1_2  and  C2_3 
ROOT
ATOM      1  C2  UNL d   1       0.931   1.182  -1.274  0.00  0.00    -0.081 A 
ATOM      2  C3  UNL d   1       1.600  -0.048  -1.270  0.00  0.00     0.006 A 
ATOM      3  C4  UNL d   1       1.220  -1.057  -0.382  0.00  0.00     0.002 A 
ATOM      4  C5  UNL d   1       0.162  -0.857   0.510  0.00  0.00    -0.080 A 
ATOM      5  C6  UNL d   1      -0.275  -1.943   1.448  0.00  0.00     0.076 C 
ATOM      6  C7  UNL d   1      -0.495   0.379   0.518  0.00  0.00     0.002 A 
ATOM      7  C8  UNL d   1      -0.116   1.388  -0.369  0.00  0.00     0.006 A 
ENDROOT
BRANCH   1   8
ATOM      8  C1  UNL d   1       1.296   2.249  -2.275  0.00  0.00     0.054 C 
ATOM      9  C   UNL d   1       0.165   2.489  -3.265  0.00  0.00     0.018 C 
ENDBRANCH   1   8
TORSDOF 1
ENDMDL
