MODEL 1
REMARK minimizedAffinity -4.26781082
REMARK minimizedRMSD -1
REMARK  1 active torsions:
REMARK  status: ('A' for Active; 'I' for Inactive)
REMARK    1  A    between atoms: C1_2  and  C2_3 
ROOT
ATOM      1  C2  UNL d   1       0.696   1.266  -1.511  0.00  0.00    -0.081 A 
ATOM      2  C3  UNL d   1       0.698  -0.102  -1.812  0.00  0.00     0.006 A 
ATOM      3  C4  UNL d   1       0.362  -1.042  -0.835  0.00  0.00     0.002 A 
ATOM      4  C5  UNL d   1       0.012  -0.631   0.455  0.00  0.00    -0.080 A 
ATOM      5  C6  UNL d   1      -0.380  -1.628   1.505  0.00  0.00     0.076 C 
ATOM      6  C7  UNL d   1       0.027   0.734   0.761  0.00  0.00     0.002 A 
ATOM      7  C8  UNL d   1       0.363   1.675  -0.215  0.00  0.00     0.006 A 
ENDROOT
BRANCH   1   8
ATOM      8  C1  UNL d   1       0.994   2.286  -2.580  0.00  0.00     0.054 C 
ATOM      9  C   UNL d   1       1.344   1.617  -3.902  0.00  0.00     0.018 C 
ENDBRANCH   1   8
TORSDOF 1
ENDMDL
