MODEL 1
REMARK minimizedAffinity -3.88627195
REMARK minimizedRMSD -1
REMARK  1 active torsions:
REMARK  status: ('A' for Active; 'I' for Inactive)
REMARK    1  A    between atoms: C1_2  and  C2_3 
ROOT
ATOM      1  C2  UNL d   1      -0.968  -0.501   0.688  0.00  0.00    -0.081 A 
ATOM      2  C3  UNL d   1      -2.149  -0.081   1.310  0.00  0.00     0.006 A 
ATOM      3  C4  UNL d   1      -3.031  -1.014   1.861  0.00  0.00     0.002 A 
ATOM      4  C5  UNL d   1      -2.742  -2.382   1.806  0.00  0.00    -0.080 A 
ATOM      5  C6  UNL d   1      -3.664  -3.392   2.421  0.00  0.00     0.076 C 
ATOM      6  C7  UNL d   1      -1.569  -2.803   1.169  0.00  0.00     0.002 A 
ATOM      7  C8  UNL d   1      -0.688  -1.871   0.618  0.00  0.00     0.006 A 
ENDROOT
BRANCH   1   8
ATOM      8  C1  UNL d   1       0.016   0.506   0.150  0.00  0.00     0.054 C 
ATOM      9  C   UNL d   1       1.451   0.068   0.404  0.00  0.00     0.018 C 
ENDBRANCH   1   8
TORSDOF 1
ENDMDL
