MODEL 1
REMARK minimizedAffinity -5.25644922
REMARK minimizedRMSD -1
REMARK  1 active torsions:
REMARK  status: ('A' for Active; 'I' for Inactive)
REMARK    1  A    between atoms: C1_2  and  C2_3 
ROOT
ATOM      1  C2  UNL d   1      -0.159  -1.079   0.890  0.00  0.00    -0.081 A 
ATOM      2  C3  UNL d   1      -0.911  -0.469  -0.121  0.00  0.00     0.006 A 
ATOM      3  C4  UNL d   1      -0.333   0.497  -0.949  0.00  0.00     0.002 A 
ATOM      4  C5  UNL d   1       1.007   0.863  -0.784  0.00  0.00    -0.080 A 
ATOM      5  C6  UNL d   1       1.648   1.876  -1.685  0.00  0.00     0.076 C 
ATOM      6  C7  UNL d   1       1.754   0.267   0.238  0.00  0.00     0.002 A 
ATOM      7  C8  UNL d   1       1.176  -0.699   1.066  0.00  0.00     0.006 A 
ENDROOT
BRANCH   1   8
ATOM      8  C1  UNL d   1      -0.760  -2.167   1.742  0.00  0.00     0.054 C 
ATOM      9  C   UNL d   1      -2.264  -2.266   1.533  0.00  0.00     0.018 C 
ENDBRANCH   1   8
TORSDOF 1
ENDMDL
