MODEL 1
REMARK minimizedAffinity -5.42440367
REMARK minimizedRMSD -1
REMARK  1 active torsions:
REMARK  status: ('A' for Active; 'I' for Inactive)
REMARK    1  A    between atoms: C1_2  and  C2_3 
ROOT
ATOM      1  C2  UNL d   1      -0.366  -0.977   0.233  0.00  0.00    -0.081 A 
ATOM      2  C3  UNL d   1      -1.462  -1.427  -0.513  0.00  0.00     0.006 A 
ATOM      3  C4  UNL d   1      -2.449  -2.215   0.083  0.00  0.00     0.002 A 
ATOM      4  C5  UNL d   1      -2.362  -2.559   1.437  0.00  0.00    -0.080 A 
ATOM      5  C6  UNL d   1      -3.430  -3.378   2.097  0.00  0.00     0.076 C 
ATOM      6  C7  UNL d   1      -1.258  -2.124   2.178  0.00  0.00     0.002 A 
ATOM      7  C8  UNL d   1      -0.270  -1.337   1.582  0.00  0.00     0.006 A 
ENDROOT
BRANCH   1   8
ATOM      8  C1  UNL d   1       0.667  -0.074  -0.391  0.00  0.00     0.054 C 
ATOM      9  C   UNL d   1       0.328   1.393  -0.166  0.00  0.00     0.018 C 
ENDBRANCH   1   8
TORSDOF 1
ENDMDL
