MODEL 1
REMARK minimizedAffinity -5.54291916
REMARK minimizedRMSD -1
REMARK  1 active torsions:
REMARK  status: ('A' for Active; 'I' for Inactive)
REMARK    1  A    between atoms: C1_2  and  C2_3 
ROOT
ATOM      1  C2  UNL d   1      -0.799  -1.436   0.599  0.00  0.00    -0.081 A 
ATOM      2  C3  UNL d   1       0.565  -1.675   0.390  0.00  0.00     0.006 A 
ATOM      3  C4  UNL d   1       1.344  -0.757  -0.319  0.00  0.00     0.002 A 
ATOM      4  C5  UNL d   1       0.774   0.416  -0.824  0.00  0.00    -0.080 A 
ATOM      5  C6  UNL d   1       1.606   1.424  -1.561  0.00  0.00     0.076 C 
ATOM      6  C7  UNL d   1      -0.592   0.646  -0.631  0.00  0.00     0.002 A 
ATOM      7  C8  UNL d   1      -1.371  -0.271   0.078  0.00  0.00     0.006 A 
ENDROOT
BRANCH   1   8
ATOM      8  C1  UNL d   1      -1.627  -2.392   1.419  0.00  0.00     0.054 C 
ATOM      9  C   UNL d   1      -2.731  -1.663   2.171  0.00  0.00     0.018 C 
ENDBRANCH   1   8
TORSDOF 1
ENDMDL
