MODEL 1
REMARK minimizedAffinity -4.83089495
REMARK minimizedRMSD -1
REMARK  0 active torsions:
REMARK  status: ('A' for Active; 'I' for Inactive)
ROOT
ATOM      1  O1  BZF d   1      -0.463   0.999  -0.256  0.00  0.00    -0.204 OA
ATOM      2  C2  BZF d   1      -0.742  -0.176   0.415  0.00  0.00     0.174 A 
ATOM      3  C3  BZF d   1       0.187  -1.115   0.142  0.00  0.00    -0.012 A 
ATOM      4  C3A BZF d   1       1.155  -0.458  -0.683  0.00  0.00    -0.107 A 
ATOM      5  C4  BZF d   1       2.322  -0.863  -1.264  0.00  0.00     0.055 A 
ATOM      6  C5  BZF d   1       2.993   0.001  -2.070  0.00  0.00    -0.016 A 
ATOM      7  C6  BZF d   1       2.523   1.274  -2.320  0.00  0.00     0.022 A 
ATOM      8  C7  BZF d   1       1.373   1.723  -1.761  0.00  0.00     0.029 A 
ATOM      9  C7A BZF d   1       0.710   0.863  -0.920  0.00  0.00     0.058 A 
ENDROOT
TORSDOF 0
ENDMDL
