MODEL 1
REMARK minimizedAffinity -5.26033115
REMARK minimizedRMSD -1
REMARK  0 active torsions:
REMARK  status: ('A' for Active; 'I' for Inactive)
ROOT
ATOM      1  O1  BZF d   1      -0.674   0.680  -0.240  0.00  0.00    -0.204 OA
ATOM      2  C2  BZF d   1      -1.116  -0.376   0.534  0.00  0.00     0.174 A 
ATOM      3  C3  BZF d   1      -0.228  -1.391   0.510  0.00  0.00    -0.012 A 
ATOM      4  C3A BZF d   1       0.878  -0.905  -0.256  0.00  0.00    -0.107 A 
ATOM      5  C4  BZF d   1       2.078  -1.446  -0.620  0.00  0.00     0.055 A 
ATOM      6  C5  BZF d   1       2.903  -0.736  -1.434  0.00  0.00    -0.016 A 
ATOM      7  C6  BZF d   1       2.559   0.513  -1.905  0.00  0.00     0.022 A 
ATOM      8  C7  BZF d   1       1.382   1.094  -1.567  0.00  0.00     0.029 A 
ATOM      9  C7A BZF d   1       0.560   0.392  -0.719  0.00  0.00     0.058 A 
ENDROOT
TORSDOF 0
ENDMDL
