MODEL 1
REMARK minimizedAffinity -4.46451187
REMARK minimizedRMSD -1
REMARK  0 active torsions:
REMARK  status: ('A' for Active; 'I' for Inactive)
ROOT
ATOM      1  O1  BZF d   1       2.464  -1.598  -1.141  0.00  0.00    -0.204 OA
ATOM      2  C2  BZF d   1       3.000  -0.492  -1.772  0.00  0.00     0.174 A 
ATOM      3  C3  BZF d   1       2.164   0.562  -1.681  0.00  0.00    -0.012 A 
ATOM      4  C3A BZF d   1       1.077   0.112  -0.867  0.00  0.00    -0.107 A 
ATOM      5  C4  BZF d   1      -0.060   0.710  -0.405  0.00  0.00     0.055 A 
ATOM      6  C5  BZF d   1      -0.952  -0.028   0.307  0.00  0.00    -0.016 A 
ATOM      7  C6  BZF d   1      -0.742  -1.366   0.570  0.00  0.00     0.022 A 
ATOM      8  C7  BZF d   1       0.374  -2.002   0.136  0.00  0.00     0.029 A 
ATOM      9  C7A BZF d   1       1.293  -1.250  -0.555  0.00  0.00     0.058 A 
ENDROOT
TORSDOF 0
ENDMDL
