MODEL 1
REMARK minimizedAffinity -3.66890311
REMARK minimizedRMSD -1
REMARK  0 active torsions:
REMARK  status: ('A' for Active; 'I' for Inactive)
ROOT
ATOM      1  O1  BZF d   1       2.399   0.688  -1.482  0.00  0.00    -0.204 OA
ATOM      2  C2  BZF d   1       3.228  -0.403  -1.662  0.00  0.00     0.174 A 
ATOM      3  C3  BZF d   1       2.698  -1.505  -1.094  0.00  0.00    -0.012 A 
ATOM      4  C3A BZF d   1       1.417  -1.097  -0.603  0.00  0.00    -0.107 A 
ATOM      5  C4  BZF d   1       0.409  -1.750   0.047  0.00  0.00     0.055 A 
ATOM      6  C5  BZF d   1      -0.680  -1.046   0.453  0.00  0.00    -0.016 A 
ATOM      7  C6  BZF d   1      -0.792   0.311   0.231  0.00  0.00     0.022 A 
ATOM      8  C7  BZF d   1       0.180   1.001  -0.414  0.00  0.00     0.029 A 
ATOM      9  C7A BZF d   1       1.267   0.287  -0.854  0.00  0.00     0.058 A 
ENDROOT
TORSDOF 0
ENDMDL
