MODEL 1
REMARK minimizedAffinity -4.91680098
REMARK minimizedRMSD -1
REMARK  0 active torsions:
REMARK  status: ('A' for Active; 'I' for Inactive)
ROOT
ATOM      1  O1  BZF d   1       2.733  -1.667  -1.120  0.00  0.00    -0.204 OA
ATOM      2  C2  BZF d   1       3.317  -0.613  -1.795  0.00  0.00     0.174 A 
ATOM      3  C3  BZF d   1       2.563   0.501  -1.687  0.00  0.00    -0.012 A 
ATOM      4  C3A BZF d   1       1.484   0.142  -0.818  0.00  0.00    -0.107 A 
ATOM      5  C4  BZF d   1       0.414   0.827  -0.319  0.00  0.00     0.055 A 
ATOM      6  C5  BZF d   1      -0.495   0.166   0.445  0.00  0.00    -0.016 A 
ATOM      7  C6  BZF d   1      -0.369  -1.179   0.724  0.00  0.00     0.022 A 
ATOM      8  C7  BZF d   1       0.679  -1.899   0.255  0.00  0.00     0.029 A 
ATOM      9  C7A BZF d   1       1.617  -1.227  -0.490  0.00  0.00     0.058 A 
ENDROOT
TORSDOF 0
ENDMDL
