MODEL 1
REMARK minimizedAffinity -1.57174575
REMARK minimizedRMSD -1
REMARK  0 active torsions:
REMARK  status: ('A' for Active; 'I' for Inactive)
ROOT
ATOM      1  O1  BZF d   1       0.800   0.448   1.440  0.00  0.00    -0.204 OA
ATOM      2  C2  BZF d   1      -0.542   0.160   1.282  0.00  0.00     0.174 A 
ATOM      3  C3  BZF d   1      -0.759  -0.478   0.113  0.00  0.00    -0.012 A 
ATOM      4  C3A BZF d   1       0.539  -0.678  -0.453  0.00  0.00    -0.107 A 
ATOM      5  C4  BZF d   1       0.981  -1.271  -1.601  0.00  0.00     0.055 A 
ATOM      6  C5  BZF d   1       2.307  -1.234  -1.896  0.00  0.00    -0.016 A 
ATOM      7  C6  BZF d   1       3.217  -0.610  -1.068  0.00  0.00     0.022 A 
ATOM      8  C7  BZF d   1       2.827  -0.012   0.084  0.00  0.00     0.029 A 
ATOM      9  C7A BZF d   1       1.492  -0.076   0.401  0.00  0.00     0.058 A 
ENDROOT
TORSDOF 0
ENDMDL
