MODEL 1
REMARK minimizedAffinity -3.63499951
REMARK minimizedRMSD -1
REMARK  0 active torsions:
REMARK  status: ('A' for Active; 'I' for Inactive)
ROOT
ATOM      1  O1  BZF d   1       2.169   0.259  -0.350  0.00  0.00    -0.204 OA
ATOM      2  C2  BZF d   1       2.564  -0.990  -0.788  0.00  0.00     0.174 A 
ATOM      3  C3  BZF d   1       1.537  -1.862  -0.738  0.00  0.00    -0.012 A 
ATOM      4  C3A BZF d   1       0.406  -1.089  -0.324  0.00  0.00    -0.107 A 
ATOM      5  C4  BZF d   1      -0.908  -1.389  -0.106  0.00  0.00     0.055 A 
ATOM      6  C5  BZF d   1      -1.737  -0.421   0.364  0.00  0.00    -0.016 A 
ATOM      7  C6  BZF d   1      -1.286   0.855   0.632  0.00  0.00     0.022 A 
ATOM      8  C7  BZF d   1       0.008   1.202   0.427  0.00  0.00     0.029 A 
ATOM      9  C7A BZF d   1       0.841   0.234  -0.079  0.00  0.00     0.058 A 
ENDROOT
TORSDOF 0
ENDMDL
