MODEL 1
REMARK minimizedAffinity -1.14994001
REMARK minimizedRMSD -1
REMARK  0 active torsions:
REMARK  status: ('A' for Active; 'I' for Inactive)
ROOT
ATOM      1  O1  BZF d   1       0.672   2.196  -2.163  0.00  0.00    -0.204 OA
ATOM      2  C2  BZF d   1      -0.237   2.284  -1.126  0.00  0.00     0.174 A 
ATOM      3  C3  BZF d   1      -0.275   1.133  -0.424  0.00  0.00    -0.012 A 
ATOM      4  C3A BZF d   1       0.737   0.305  -1.004  0.00  0.00    -0.107 A 
ATOM      5  C4  BZF d   1       1.191  -0.954  -0.731  0.00  0.00     0.055 A 
ATOM      6  C5  BZF d   1       2.141  -1.502  -1.533  0.00  0.00    -0.016 A 
ATOM      7  C6  BZF d   1       2.655  -0.824  -2.618  0.00  0.00     0.022 A 
ATOM      8  C7  BZF d   1       2.240   0.429  -2.926  0.00  0.00     0.029 A 
ATOM      9  C7A BZF d   1       1.303   0.999  -2.098  0.00  0.00     0.058 A 
ENDROOT
TORSDOF 0
ENDMDL
