MODEL 1
REMARK minimizedAffinity -5.59431839
REMARK minimizedRMSD -1
REMARK  0 active torsions:
REMARK  status: ('A' for Active; 'I' for Inactive)
ROOT
ATOM      1  O1  BZF d   1      -0.311   0.857  -0.354  0.00  0.00    -0.204 OA
ATOM      2  C2  BZF d   1      -0.583  -0.326   0.305  0.00  0.00     0.174 A 
ATOM      3  C3  BZF d   1       0.350  -1.257   0.022  0.00  0.00    -0.012 A 
ATOM      4  C3A BZF d   1       1.314  -0.587  -0.797  0.00  0.00    -0.107 A 
ATOM      5  C4  BZF d   1       2.483  -0.980  -1.383  0.00  0.00     0.055 A 
ATOM      6  C5  BZF d   1       3.149  -0.104  -2.180  0.00  0.00    -0.016 A 
ATOM      7  C6  BZF d   1       2.673   1.169  -2.417  0.00  0.00     0.022 A 
ATOM      8  C7  BZF d   1       1.521   1.606  -1.853  0.00  0.00     0.029 A 
ATOM      9  C7A BZF d   1       0.862   0.734  -1.021  0.00  0.00     0.058 A 
ENDROOT
TORSDOF 0
ENDMDL
