MODEL 1
REMARK minimizedAffinity -5.78223181
REMARK minimizedRMSD -1
REMARK  0 active torsions:
REMARK  status: ('A' for Active; 'I' for Inactive)
ROOT
ATOM      1  O1  BZF d   1      -0.140   0.749  -0.313  0.00  0.00    -0.204 OA
ATOM      2  C2  BZF d   1      -0.329  -0.404   0.425  0.00  0.00     0.174 A 
ATOM      3  C3  BZF d   1       0.690  -1.267   0.234  0.00  0.00    -0.012 A 
ATOM      4  C3A BZF d   1       1.616  -0.574  -0.609  0.00  0.00    -0.107 A 
ATOM      5  C4  BZF d   1       2.832  -0.903  -1.136  0.00  0.00     0.055 A 
ATOM      6  C5  BZF d   1       3.444  -0.030  -1.979  0.00  0.00    -0.016 A 
ATOM      7  C6  BZF d   1       2.867   1.176  -2.319  0.00  0.00     0.022 A 
ATOM      8  C7  BZF d   1       1.665   1.548  -1.818  0.00  0.00     0.029 A 
ATOM      9  C7A BZF d   1       1.059   0.683  -0.940  0.00  0.00     0.058 A 
ENDROOT
TORSDOF 0
ENDMDL
