MODEL 1
REMARK minimizedAffinity -3.41504645
REMARK minimizedRMSD -1
REMARK  0 active torsions:
REMARK  status: ('A' for Active; 'I' for Inactive)
ROOT
ATOM      1  O1  BZF d   1       2.272  -1.772  -0.776  0.00  0.00    -0.204 OA
ATOM      2  C2  BZF d   1       3.219  -0.859  -1.201  0.00  0.00     0.174 A 
ATOM      3  C3  BZF d   1       2.718   0.393  -1.181  0.00  0.00    -0.012 A 
ATOM      4  C3A BZF d   1       1.405   0.264  -0.627  0.00  0.00    -0.107 A 
ATOM      5  C4  BZF d   1       0.415   1.160  -0.340  0.00  0.00     0.055 A 
ATOM      6  C5  BZF d   1      -0.776   0.702   0.126  0.00  0.00    -0.016 A 
ATOM      7  C6  BZF d   1      -1.014  -0.645   0.311  0.00  0.00     0.022 A 
ATOM      8  C7  BZF d   1      -0.061  -1.571   0.044  0.00  0.00     0.029 A 
ATOM      9  C7A BZF d   1       1.155  -1.108  -0.395  0.00  0.00     0.058 A 
ENDROOT
TORSDOF 0
ENDMDL
