MODEL 1
REMARK minimizedAffinity -3.96538472
REMARK minimizedRMSD -1
REMARK  0 active torsions:
REMARK  status: ('A' for Active; 'I' for Inactive)
ROOT
ATOM      1  O1  BZF d   1      -0.468   1.599  -1.038  0.00  0.00    -0.204 OA
ATOM      2  C2  BZF d   1      -1.328   1.189  -0.038  0.00  0.00     0.174 A 
ATOM      3  C3  BZF d   1      -0.991  -0.037   0.410  0.00  0.00    -0.012 A 
ATOM      4  C3A BZF d   1       0.207  -0.379  -0.293  0.00  0.00    -0.107 A 
ATOM      5  C4  BZF d   1       1.031  -1.467  -0.270  0.00  0.00     0.055 A 
ATOM      6  C5  BZF d   1       2.078  -1.522  -1.134  0.00  0.00    -0.016 A 
ATOM      7  C6  BZF d   1       2.327  -0.510  -2.038  0.00  0.00     0.022 A 
ATOM      8  C7  BZF d   1       1.540   0.592  -2.096  0.00  0.00     0.029 A 
ATOM      9  C7A BZF d   1       0.500   0.665  -1.201  0.00  0.00     0.058 A 
ENDROOT
TORSDOF 0
ENDMDL
