MODEL 1
REMARK minimizedAffinity -2.27796221
REMARK minimizedRMSD -1
REMARK  0 active torsions:
REMARK  status: ('A' for Active; 'I' for Inactive)
ROOT
ATOM      1  O1  BZF d   1      -1.326   1.398  -0.589  0.00  0.00    -0.204 OA
ATOM      2  C2  BZF d   1      -1.708   0.460   0.350  0.00  0.00     0.174 A 
ATOM      3  C3  BZF d   1      -0.680  -0.358   0.656  0.00  0.00    -0.012 A 
ATOM      4  C3A BZF d   1       0.439   0.156  -0.074  0.00  0.00    -0.107 A 
ATOM      5  C4  BZF d   1       1.749  -0.217  -0.171  0.00  0.00     0.055 A 
ATOM      6  C5  BZF d   1       2.565   0.451  -1.028  0.00  0.00    -0.016 A 
ATOM      7  C6  BZF d   1       2.104   1.493  -1.805  0.00  0.00     0.022 A 
ATOM      8  C7  BZF d   1       0.814   1.903  -1.740  0.00  0.00     0.029 A 
ATOM      9  C7A BZF d   1      -0.005   1.251  -0.851  0.00  0.00     0.058 A 
ENDROOT
TORSDOF 0
ENDMDL
