MODEL 1
REMARK minimizedAffinity 4.02319813
REMARK minimizedRMSD -1
REMARK  1 active torsions:
REMARK  status: ('A' for Active; 'I' for Inactive)
REMARK    1  A    between atoms: N_2  and  C1_3 
ROOT
ATOM      1  C1  UNL d   1       0.277  -2.632   0.863  0.00  0.00     0.143 A 
ATOM      2  C2  UNL d   1       0.531  -1.602   1.775  0.00  0.00    -0.057 A 
ATOM      3  C3  UNL d   1       1.538  -1.719   2.741  0.00  0.00     0.033 A 
ATOM      4  C4  UNL d   1       2.292  -2.885   2.831  0.00  0.00    -0.042 A 
ATOM      5  C5  UNL d   1       2.040  -3.932   1.951  0.00  0.00     0.033 A 
ATOM      6  C6  UNL d   1       1.038  -3.806   0.984  0.00  0.00    -0.057 A 
ENDROOT
BRANCH   1   7
ATOM      7  N   UNL d   1      -0.775  -2.616  -0.056  0.00  0.00    -0.732 N 
ATOM      8  C   UNL d   1      -1.833  -3.600   0.017  0.00  0.00     0.284 C 
ATOM      9  H3  UNL d   1      -1.097  -1.673  -0.260  0.00  0.00     0.395 HD
ENDBRANCH   1   7
TORSDOF 1
ENDMDL
