MODEL 1
REMARK minimizedAffinity 8.19951344
REMARK minimizedRMSD -1
REMARK  1 active torsions:
REMARK  status: ('A' for Active; 'I' for Inactive)
REMARK    1  A    between atoms: N_2  and  C1_3 
ROOT
ATOM      1  C1  UNL d   1      -0.317  -1.117  -0.416  0.00  0.00     0.143 A 
ATOM      2  C2  UNL d   1      -0.728  -0.257   0.608  0.00  0.00    -0.057 A 
ATOM      3  C3  UNL d   1       0.149   0.127   1.629  0.00  0.00     0.033 A 
ATOM      4  C4  UNL d   1       1.449  -0.368   1.661  0.00  0.00    -0.042 A 
ATOM      5  C5  UNL d   1       1.871  -1.244   0.667  0.00  0.00     0.033 A 
ATOM      6  C6  UNL d   1       0.993  -1.618  -0.354  0.00  0.00    -0.057 A 
ENDROOT
BRANCH   1   7
ATOM      7  N   UNL d   1      -1.170  -1.613  -1.405  0.00  0.00    -0.732 N 
ATOM      8  C   UNL d   1      -2.054  -2.725  -1.126  0.00  0.00     0.284 C 
ATOM      9  H3  UNL d   1      -1.596  -0.873  -1.958  0.00  0.00     0.395 HD
ENDBRANCH   1   7
TORSDOF 1
ENDMDL
