MODEL 1
REMARK minimizedAffinity 4.20053339
REMARK minimizedRMSD -1
REMARK  1 active torsions:
REMARK  status: ('A' for Active; 'I' for Inactive)
REMARK    1  A    between atoms: N_2  and  C1_3 
ROOT
ATOM      1  C1  UNL d   1       3.557  -2.289   5.080  0.00  0.00     0.143 A 
ATOM      2  C2  UNL d   1       3.508  -1.511   3.918  0.00  0.00    -0.057 A 
ATOM      3  C3  UNL d   1       2.348  -1.445   3.137  0.00  0.00     0.033 A 
ATOM      4  C4  UNL d   1       1.222  -2.182   3.490  0.00  0.00    -0.042 A 
ATOM      5  C5  UNL d   1       1.256  -2.981   4.627  0.00  0.00     0.033 A 
ATOM      6  C6  UNL d   1       2.415  -3.038   5.406  0.00  0.00    -0.057 A 
ENDROOT
BRANCH   1   7
ATOM      7  N   UNL d   1       4.712  -2.473   5.845  0.00  0.00    -0.732 N 
ATOM      8  C   UNL d   1       6.000  -2.034   5.353  0.00  0.00     0.284 C 
ATOM      9  H3  UNL d   1       4.558  -2.283   6.833  0.00  0.00     0.395 HD
ENDBRANCH   1   7
TORSDOF 1
ENDMDL
