MODEL 1
REMARK minimizedAffinity 5.14160013
REMARK minimizedRMSD -1
REMARK  0 active torsions:
REMARK  status: ('A' for Active; 'I' for Inactive)
ROOT
ATOM      1  C   UNL d   1       4.000  -0.255  -1.123  0.00  0.00     0.172 C 
ATOM      2  N   UNL d   1       2.943  -1.231  -0.994  0.00  0.00    -0.070 N 
ATOM      3  C1  UNL d   1       2.552  -2.117  -1.963  0.00  0.00    -0.004 A 
ATOM      4  C2  UNL d   1       1.520  -2.873  -1.451  0.00  0.00    -0.047 A 
ATOM      5  C3  UNL d   1       1.281  -2.425  -0.130  0.00  0.00    -0.047 A 
ATOM      6  C4  UNL d   1       2.177  -1.409   0.127  0.00  0.00    -0.004 A 
ENDROOT
TORSDOF 0
ENDMDL
