MODEL 1
REMARK minimizedAffinity 4.21984482
REMARK minimizedRMSD -1
REMARK  0 active torsions:
REMARK  status: ('A' for Active; 'I' for Inactive)
ROOT
ATOM      1  C   UNL d   1       2.012   1.008   3.649  0.00  0.00     0.172 C 
ATOM      2  N   UNL d   1       3.240   1.750   3.809  0.00  0.00    -0.070 N 
ATOM      3  C1  UNL d   1       4.063   1.706   4.903  0.00  0.00    -0.004 A 
ATOM      4  C2  UNL d   1       5.125   2.552   4.667  0.00  0.00    -0.047 A 
ATOM      5  C3  UNL d   1       4.933   3.125   3.387  0.00  0.00    -0.047 A 
ATOM      6  C4  UNL d   1       3.759   2.612   2.879  0.00  0.00    -0.004 A 
ENDROOT
TORSDOF 0
ENDMDL
