MODEL 1
REMARK minimizedAffinity -0.904424489
REMARK minimizedRMSD -1
REMARK  0 active torsions:
REMARK  status: ('A' for Active; 'I' for Inactive)
ROOT
ATOM      1  C   UNL d   1       1.523  -2.360  -0.354  0.00  0.00     0.172 C 
ATOM      2  N   UNL d   1       0.598  -1.285  -0.620  0.00  0.00    -0.070 N 
ATOM      3  C1  UNL d   1      -0.463  -1.340  -1.485  0.00  0.00    -0.004 A 
ATOM      4  C2  UNL d   1      -1.096  -0.116  -1.455  0.00  0.00    -0.047 A 
ATOM      5  C3  UNL d   1      -0.392   0.703  -0.541  0.00  0.00    -0.047 A 
ATOM      6  C4  UNL d   1       0.652  -0.045  -0.039  0.00  0.00    -0.004 A 
ENDROOT
TORSDOF 0
ENDMDL
