MODEL 1
REMARK minimizedAffinity 0.778440714
REMARK minimizedRMSD -1
REMARK  0 active torsions:
REMARK  status: ('A' for Active; 'I' for Inactive)
ROOT
ATOM      1  C   UNL d   1      -1.051  -2.661  -4.097  0.00  0.00     0.172 C 
ATOM      2  N   UNL d   1      -0.586  -2.114  -2.845  0.00  0.00    -0.070 N 
ATOM      3  C1  UNL d   1      -0.799  -0.835  -2.403  0.00  0.00    -0.004 A 
ATOM      4  C2  UNL d   1      -0.198  -0.709  -1.170  0.00  0.00    -0.047 A 
ATOM      5  C3  UNL d   1       0.398  -1.954  -0.859  0.00  0.00    -0.047 A 
ATOM      6  C4  UNL d   1       0.143  -2.806  -1.913  0.00  0.00    -0.004 A 
ENDROOT
TORSDOF 0
ENDMDL
