MODEL 1
REMARK minimizedAffinity 2.56653118
REMARK minimizedRMSD -1
REMARK  0 active torsions:
REMARK  status: ('A' for Active; 'I' for Inactive)
ROOT
ATOM      1  C   UNL d   1       3.390   0.362  -1.243  0.00  0.00     0.172 C 
ATOM      2  N   UNL d   1       2.168  -0.394  -1.105  0.00  0.00    -0.070 N 
ATOM      3  C1  UNL d   1       0.927   0.131  -0.861  0.00  0.00    -0.004 A 
ATOM      4  C2  UNL d   1       0.031  -0.914  -0.799  0.00  0.00    -0.047 A 
ATOM      5  C3  UNL d   1       0.758  -2.109  -1.013  0.00  0.00    -0.047 A 
ATOM      6  C4  UNL d   1       2.079  -1.758  -1.200  0.00  0.00    -0.004 A 
ENDROOT
TORSDOF 0
ENDMDL
