MODEL 1
REMARK minimizedAffinity -1.54122317
REMARK minimizedRMSD -1
REMARK  0 active torsions:
REMARK  status: ('A' for Active; 'I' for Inactive)
ROOT
ATOM      1  C   UNL d   1       2.481  -1.095  -1.106  0.00  0.00     0.172 C 
ATOM      2  N   UNL d   1       1.218  -0.680  -0.542  0.00  0.00    -0.070 N 
ATOM      3  C1  UNL d   1      -0.011  -1.176  -0.885  0.00  0.00    -0.004 A 
ATOM      4  C2  UNL d   1      -0.957  -0.524  -0.123  0.00  0.00    -0.047 A 
ATOM      5  C3  UNL d   1      -0.272   0.396   0.706  0.00  0.00    -0.047 A 
ATOM      6  C4  UNL d   1       1.073   0.278   0.427  0.00  0.00    -0.004 A 
ENDROOT
TORSDOF 0
ENDMDL
