MODEL 1
REMARK minimizedAffinity 15.1156092
REMARK minimizedRMSD -1
REMARK  1 active torsions:
REMARK  status: ('A' for Active; 'I' for Inactive)
REMARK    1  A    between atoms: C1_2  and  C2_3 
ROOT
ATOM      1  C2  UNL d   1      -3.469   1.102   3.592  0.00  0.00    -0.076 A 
ATOM      2  C3  UNL d   1      -3.735   1.187   2.214  0.00  0.00     0.004 A 
ATOM      3  C4  UNL d   1      -4.987   1.585   1.748  0.00  0.00    -0.003 A 
ATOM      4  C5  UNL d   1      -5.993   1.906   2.652  0.00  0.00     0.000 A 
ATOM      5  C6  UNL d   1      -5.742   1.845   4.022  0.00  0.00     0.000 A 
ATOM      6  C7  UNL d   1      -4.480   1.461   4.509  0.00  0.00    -0.073 A 
ATOM      7  C8  UNL d   1      -4.266   1.406   5.997  0.00  0.00     0.078 C 
ENDROOT
BRANCH   1   8
ATOM      8  C1  UNL d   1      -2.101   0.638   4.038  0.00  0.00     0.053 C 
ATOM      9  C   UNL d   1      -1.620  -0.582   3.268  0.00  0.00     0.018 C 
ENDBRANCH   1   8
TORSDOF 1
ENDMDL
