MODEL 1
REMARK minimizedAffinity 15.0813236
REMARK minimizedRMSD -1
REMARK  1 active torsions:
REMARK  status: ('A' for Active; 'I' for Inactive)
REMARK    1  A    between atoms: C1_2  and  C2_3 
ROOT
ATOM      1  C2  UNL d   1       3.509  -3.755   2.247  0.00  0.00    -0.076 A 
ATOM      2  C3  UNL d   1       2.324  -3.055   2.532  0.00  0.00     0.004 A 
ATOM      3  C4  UNL d   1       1.594  -2.438   1.518  0.00  0.00    -0.003 A 
ATOM      4  C5  UNL d   1       2.037  -2.510   0.202  0.00  0.00     0.000 A 
ATOM      5  C6  UNL d   1       3.201  -3.215  -0.101  0.00  0.00     0.000 A 
ATOM      6  C7  UNL d   1       3.940  -3.858   0.907  0.00  0.00    -0.073 A 
ATOM      7  C8  UNL d   1       5.191  -4.599   0.524  0.00  0.00     0.078 C 
ENDROOT
BRANCH   1   8
ATOM      8  C1  UNL d   1       4.273  -4.382   3.392  0.00  0.00     0.053 C 
ATOM      9  C   UNL d   1       4.501  -3.412   4.540  0.00  0.00     0.018 C 
ENDBRANCH   1   8
TORSDOF 1
ENDMDL
