MODEL 1
REMARK minimizedAffinity 6.25585747
REMARK minimizedRMSD -1
REMARK  1 active torsions:
REMARK  status: ('A' for Active; 'I' for Inactive)
REMARK    1  A    between atoms: C1_2  and  C2_3 
ROOT
ATOM      1  C2  UNL d   1      -3.736   2.983  -4.886  0.00  0.00    -0.076 A 
ATOM      2  C3  UNL d   1      -3.870   4.340  -4.543  0.00  0.00     0.004 A 
ATOM      3  C4  UNL d   1      -4.992   5.070  -4.929  0.00  0.00    -0.003 A 
ATOM      4  C5  UNL d   1      -5.999   4.456  -5.665  0.00  0.00     0.000 A 
ATOM      5  C6  UNL d   1      -5.891   3.107  -6.000  0.00  0.00     0.000 A 
ATOM      6  C7  UNL d   1      -4.774   2.352  -5.604  0.00  0.00    -0.073 A 
ATOM      7  C8  UNL d   1      -4.707   0.901  -5.998  0.00  0.00     0.078 C 
ENDROOT
BRANCH   1   8
ATOM      8  C1  UNL d   1      -2.484   2.249  -4.463  0.00  0.00     0.053 C 
ATOM      9  C   UNL d   1      -2.255   2.305  -2.961  0.00  0.00     0.018 C 
ENDBRANCH   1   8
TORSDOF 1
ENDMDL
