MODEL 1
REMARK minimizedAffinity 4.50486565
REMARK minimizedRMSD -1
REMARK  1 active torsions:
REMARK  status: ('A' for Active; 'I' for Inactive)
REMARK    1  A    between atoms: C1_2  and  C2_3 
ROOT
ATOM      1  C2  UNL d   1      -3.714   0.554  -3.358  0.00  0.00    -0.076 A 
ATOM      2  C3  UNL d   1      -3.031  -0.190  -2.380  0.00  0.00     0.004 A 
ATOM      3  C4  UNL d   1      -3.500  -1.437  -1.970  0.00  0.00    -0.003 A 
ATOM      4  C5  UNL d   1      -4.659  -1.961  -2.532  0.00  0.00     0.000 A 
ATOM      5  C6  UNL d   1      -5.340  -1.244  -3.516  0.00  0.00     0.000 A 
ATOM      6  C7  UNL d   1      -4.871   0.007  -3.952  0.00  0.00    -0.073 A 
ATOM      7  C8  UNL d   1      -5.648   0.739  -5.012  0.00  0.00     0.078 C 
ENDROOT
BRANCH   1   8
ATOM      8  C1  UNL d   1      -3.174   1.913  -3.743  0.00  0.00     0.053 C 
ATOM      9  C   UNL d   1      -2.018   2.352  -2.857  0.00  0.00     0.018 C 
ENDBRANCH   1   8
TORSDOF 1
ENDMDL
