MODEL 1
REMARK minimizedAffinity 13.8537922
REMARK minimizedRMSD -1
REMARK  1 active torsions:
REMARK  status: ('A' for Active; 'I' for Inactive)
REMARK    1  A    between atoms: C1_2  and  C2_3 
ROOT
ATOM      1  C2  UNL d   1      -2.911   3.747  -0.137  0.00  0.00    -0.077 A 
ATOM      2  C3  UNL d   1      -3.987   3.733  -1.036  0.00  0.00     0.002 A 
ATOM      3  C4  UNL d   1      -4.918   4.773  -1.039  0.00  0.00     0.002 A 
ATOM      4  C5  UNL d   1      -4.782   5.836  -0.149  0.00  0.00    -0.004 A 
ATOM      5  C6  UNL d   1      -3.717   5.858   0.751  0.00  0.00     0.002 A 
ATOM      6  C7  UNL d   1      -2.785   4.819   0.756  0.00  0.00     0.002 A 
ENDROOT
BRANCH   1   7
ATOM      7  C1  UNL d   1      -1.878   2.652  -0.165  0.00  0.00     0.055 C 
ATOM      8  C   UNL d   1      -0.676   3.002   0.700  0.00  0.00     0.019 C 
ENDBRANCH   1   7
TORSDOF 1
ENDMDL
