MODEL 1
REMARK minimizedAffinity 11.0482635
REMARK minimizedRMSD -1
REMARK  1 active torsions:
REMARK  status: ('A' for Active; 'I' for Inactive)
REMARK    1  A    between atoms: C1_2  and  C2_3 
ROOT
ATOM      1  C2  UNL d   1       4.963  -3.298   5.212  0.00  0.00    -0.077 A 
ATOM      2  C3  UNL d   1       4.658  -3.663   3.893  0.00  0.00     0.002 A 
ATOM      3  C4  UNL d   1       3.737  -2.921   3.151  0.00  0.00     0.002 A 
ATOM      4  C5  UNL d   1       3.117  -1.808   3.717  0.00  0.00    -0.004 A 
ATOM      5  C6  UNL d   1       3.413  -1.439   5.029  0.00  0.00     0.002 A 
ATOM      6  C7  UNL d   1       4.332  -2.181   5.772  0.00  0.00     0.002 A 
ENDROOT
BRANCH   1   7
ATOM      7  C1  UNL d   1       5.993  -4.068   5.997  0.00  0.00     0.055 C 
ATOM      8  C   UNL d   1       5.687  -5.559   5.999  0.00  0.00     0.019 C 
ENDBRANCH   1   7
TORSDOF 1
ENDMDL
