MODEL 1
REMARK minimizedAffinity 14.3605633
REMARK minimizedRMSD -1
REMARK  1 active torsions:
REMARK  status: ('A' for Active; 'I' for Inactive)
REMARK    1  A    between atoms: C1_2  and  C2_3 
ROOT
ATOM      1  C2  UNL d   1      -1.968  -2.152   2.476  0.00  0.00    -0.077 A 
ATOM      2  C3  UNL d   1      -2.829  -1.497   1.584  0.00  0.00     0.002 A 
ATOM      3  C4  UNL d   1      -2.846  -1.847   0.233  0.00  0.00     0.002 A 
ATOM      4  C5  UNL d   1      -2.008  -2.856  -0.238  0.00  0.00    -0.004 A 
ATOM      5  C6  UNL d   1      -1.147  -3.512   0.641  0.00  0.00     0.002 A 
ATOM      6  C7  UNL d   1      -1.127  -3.163   1.992  0.00  0.00     0.002 A 
ENDROOT
BRANCH   1   7
ATOM      7  C1  UNL d   1      -1.983  -1.810   3.943  0.00  0.00     0.055 C 
ATOM      8  C   UNL d   1      -2.350  -0.350   4.167  0.00  0.00     0.019 C 
ENDBRANCH   1   7
TORSDOF 1
ENDMDL
