MODEL 1
REMARK minimizedAffinity 12.7861347
REMARK minimizedRMSD -1
REMARK  1 active torsions:
REMARK  status: ('A' for Active; 'I' for Inactive)
REMARK    1  A    between atoms: C1_2  and  C2_3 
ROOT
ATOM      1  C2  UNL d   1      -2.386  -1.418   2.935  0.00  0.00    -0.077 A 
ATOM      2  C3  UNL d   1      -2.740  -2.596   3.609  0.00  0.00     0.002 A 
ATOM      3  C4  UNL d   1      -3.058  -2.563   4.968  0.00  0.00     0.002 A 
ATOM      4  C5  UNL d   1      -3.031  -1.356   5.663  0.00  0.00    -0.004 A 
ATOM      5  C6  UNL d   1      -2.679  -0.180   5.003  0.00  0.00     0.002 A 
ATOM      6  C7  UNL d   1      -2.359  -0.211   3.645  0.00  0.00     0.002 A 
ENDROOT
BRANCH   1   7
ATOM      7  C1  UNL d   1      -2.090  -1.443   1.459  0.00  0.00     0.055 C 
ATOM      8  C   UNL d   1      -3.198  -0.771   0.661  0.00  0.00     0.019 C 
ENDBRANCH   1   7
TORSDOF 1
ENDMDL
