MODEL 1
REMARK minimizedAffinity 0.300311625
REMARK minimizedRMSD -1
REMARK  1 active torsions:
REMARK  status: ('A' for Active; 'I' for Inactive)
REMARK    1  A    between atoms: C1_2  and  C2_3 
ROOT
ATOM      1  C2  UNL d   1       5.097  -3.551  -4.829  0.00  0.00    -0.077 A 
ATOM      2  C3  UNL d   1       5.862  -3.907  -3.710  0.00  0.00     0.002 A 
ATOM      3  C4  UNL d   1       5.994  -3.025  -2.635  0.00  0.00     0.002 A 
ATOM      4  C5  UNL d   1       5.360  -1.785  -2.668  0.00  0.00    -0.004 A 
ATOM      5  C6  UNL d   1       4.598  -1.421  -3.777  0.00  0.00     0.002 A 
ATOM      6  C7  UNL d   1       4.466  -2.300  -4.853  0.00  0.00     0.002 A 
ENDROOT
BRANCH   1   7
ATOM      7  C1  UNL d   1       4.913  -4.520  -5.968  0.00  0.00     0.055 C 
ATOM      8  C   UNL d   1       5.873  -5.695  -5.855  0.00  0.00     0.019 C 
ENDBRANCH   1   7
TORSDOF 1
ENDMDL
