MODEL 1
REMARK minimizedAffinity 7.79753542
REMARK minimizedRMSD -1
REMARK  1 active torsions:
REMARK  status: ('A' for Active; 'I' for Inactive)
REMARK    1  A    between atoms: C1_2  and  C2_3 
ROOT
ATOM      1  C2  UNL d   1       3.784  -3.265  -4.335  0.00  0.00    -0.077 A 
ATOM      2  C3  UNL d   1       4.254  -4.432  -3.715  0.00  0.00     0.002 A 
ATOM      3  C4  UNL d   1       5.356  -5.113  -4.236  0.00  0.00     0.002 A 
ATOM      4  C5  UNL d   1       5.999  -4.633  -5.375  0.00  0.00    -0.004 A 
ATOM      5  C6  UNL d   1       5.537  -3.475  -6.000  0.00  0.00     0.002 A 
ATOM      6  C7  UNL d   1       4.435  -2.794  -5.481  0.00  0.00     0.002 A 
ENDROOT
BRANCH   1   7
ATOM      7  C1  UNL d   1       2.626  -2.502  -3.746  0.00  0.00     0.055 C 
ATOM      8  C   UNL d   1       2.256  -3.032  -2.368  0.00  0.00     0.019 C 
ENDBRANCH   1   7
TORSDOF 1
ENDMDL
