MODEL 1
REMARK minimizedAffinity 2.22203565
REMARK minimizedRMSD -1
REMARK  1 active torsions:
REMARK  status: ('A' for Active; 'I' for Inactive)
REMARK    1  A    between atoms: C1_2  and  C2_3 
ROOT
ATOM      1  C2  UNL d   1       4.749  -2.450  -4.553  0.00  0.00    -0.077 A 
ATOM      2  C3  UNL d   1       3.468  -3.021  -4.566  0.00  0.00     0.002 A 
ATOM      3  C4  UNL d   1       3.223  -4.190  -5.289  0.00  0.00     0.002 A 
ATOM      4  C5  UNL d   1       4.254  -4.801  -6.000  0.00  0.00    -0.004 A 
ATOM      5  C6  UNL d   1       5.531  -4.240  -5.995  0.00  0.00     0.002 A 
ATOM      6  C7  UNL d   1       5.777  -3.071  -5.274  0.00  0.00     0.002 A 
ENDROOT
BRANCH   1   7
ATOM      7  C1  UNL d   1       5.027  -1.217  -3.735  0.00  0.00     0.055 C 
ATOM      8  C   UNL d   1       5.985  -1.515  -2.591  0.00  0.00     0.019 C 
ENDBRANCH   1   7
TORSDOF 1
ENDMDL
