MODEL 1
REMARK minimizedAffinity 8.00191593
REMARK minimizedRMSD -1
REMARK  1 active torsions:
REMARK  status: ('A' for Active; 'I' for Inactive)
REMARK    1  A    between atoms: C1_2  and  C2_3 
ROOT
ATOM      1  C2  UNL d   1      -3.537  -0.096   5.333  0.00  0.00    -0.077 A 
ATOM      2  C3  UNL d   1      -2.643  -0.103   4.254  0.00  0.00     0.002 A 
ATOM      3  C4  UNL d   1      -2.032  -1.293   3.851  0.00  0.00     0.002 A 
ATOM      4  C5  UNL d   1      -2.313  -2.483   4.519  0.00  0.00    -0.004 A 
ATOM      5  C6  UNL d   1      -3.200  -2.485   5.595  0.00  0.00     0.002 A 
ATOM      6  C7  UNL d   1      -3.810  -1.297   6.000  0.00  0.00     0.002 A 
ENDROOT
BRANCH   1   7
ATOM      7  C1  UNL d   1      -4.234   1.177   5.738  0.00  0.00     0.055 C 
ATOM      8  C   UNL d   1      -5.715   0.939   5.999  0.00  0.00     0.019 C 
ENDBRANCH   1   7
TORSDOF 1
ENDMDL
