MODEL 1
REMARK minimizedAffinity 10.9187794
REMARK minimizedRMSD -1
REMARK  1 active torsions:
REMARK  status: ('A' for Active; 'I' for Inactive)
REMARK    1  A    between atoms: C1_2  and  C2_3 
ROOT
ATOM      1  C2  UNL d   1      -0.930   2.860   1.010  0.00  0.00    -0.077 A 
ATOM      2  C3  UNL d   1      -1.394   1.537   0.988  0.00  0.00     0.002 A 
ATOM      3  C4  UNL d   1      -2.629   1.230   0.414  0.00  0.00     0.002 A 
ATOM      4  C5  UNL d   1      -3.409   2.240  -0.146  0.00  0.00    -0.004 A 
ATOM      5  C6  UNL d   1      -2.957   3.559  -0.128  0.00  0.00     0.002 A 
ATOM      6  C7  UNL d   1      -1.724   3.868   0.447  0.00  0.00     0.002 A 
ENDROOT
BRANCH   1   7
ATOM      7  C1  UNL d   1       0.423   3.185   1.584  0.00  0.00     0.055 C 
ATOM      8  C   UNL d   1       0.885   4.573   1.163  0.00  0.00     0.019 C 
ENDBRANCH   1   7
TORSDOF 1
ENDMDL
