MODEL 1
REMARK minimizedAffinity 5.80841351
REMARK minimizedRMSD -1
REMARK  1 active torsions:
REMARK  status: ('A' for Active; 'I' for Inactive)
REMARK    1  A    between atoms: C1_2  and  C2_3 
ROOT
ATOM      1  C2  UNL d   1       4.243  -2.839   4.763  0.00  0.00    -0.077 A 
ATOM      2  C3  UNL d   1       5.532  -2.887   5.314  0.00  0.00     0.002 A 
ATOM      3  C4  UNL d   1       6.000  -4.057   5.914  0.00  0.00     0.002 A 
ATOM      4  C5  UNL d   1       5.189  -5.189   5.964  0.00  0.00    -0.004 A 
ATOM      5  C6  UNL d   1       3.905  -5.150   5.421  0.00  0.00     0.002 A 
ATOM      6  C7  UNL d   1       3.435  -3.981   4.822  0.00  0.00     0.002 A 
ENDROOT
BRANCH   1   7
ATOM      7  C1  UNL d   1       3.754  -1.592   4.072  0.00  0.00     0.055 C 
ATOM      8  C   UNL d   1       3.870  -1.716   2.560  0.00  0.00     0.019 C 
ENDBRANCH   1   7
TORSDOF 1
ENDMDL
