MODEL 1
REMARK minimizedAffinity -0.284988284
REMARK minimizedRMSD -1
REMARK  1 active torsions:
REMARK  status: ('A' for Active; 'I' for Inactive)
REMARK    1  A    between atoms: C1_2  and  C2_3 
ROOT
ATOM      1  C2  UNL d   1       4.999  -2.519  -4.415  0.00  0.00    -0.077 A 
ATOM      2  C3  UNL d   1       3.701  -3.048  -4.446  0.00  0.00     0.002 A 
ATOM      3  C4  UNL d   1       3.411  -4.161  -5.238  0.00  0.00     0.002 A 
ATOM      4  C5  UNL d   1       4.413  -4.756  -6.000  0.00  0.00    -0.004 A 
ATOM      5  C6  UNL d   1       5.707  -4.236  -5.977  0.00  0.00     0.002 A 
ATOM      6  C7  UNL d   1       5.998  -3.123  -5.188  0.00  0.00     0.002 A 
ENDROOT
BRANCH   1   7
ATOM      7  C1  UNL d   1       5.325  -1.348  -3.524  0.00  0.00     0.055 C 
ATOM      8  C   UNL d   1       6.000  -1.803  -2.238  0.00  0.00     0.019 C 
ENDBRANCH   1   7
TORSDOF 1
ENDMDL
