MODEL 1
REMARK minimizedAffinity 0.585736752
REMARK minimizedRMSD -1
REMARK  1 active torsions:
REMARK  status: ('A' for Active; 'I' for Inactive)
REMARK    1  A    between atoms: C1_2  and  C2_3 
ROOT
ATOM      1  C2  UNL d   1       5.251   4.013  -3.953  0.00  0.00    -0.077 A 
ATOM      2  C3  UNL d   1       5.975   4.805  -3.050  0.00  0.00     0.002 A 
ATOM      3  C4  UNL d   1       5.323   5.767  -2.275  0.00  0.00     0.002 A 
ATOM      4  C5  UNL d   1       3.946   5.943  -2.393  0.00  0.00    -0.004 A 
ATOM      5  C6  UNL d   1       3.218   5.161  -3.289  0.00  0.00     0.002 A 
ATOM      6  C7  UNL d   1       3.868   4.200  -4.065  0.00  0.00     0.002 A 
ENDROOT
BRANCH   1   7
ATOM      7  C1  UNL d   1       5.944   2.941  -4.753  0.00  0.00     0.055 C 
ATOM      8  C   UNL d   1       5.150   2.580  -5.999  0.00  0.00     0.019 C 
ENDBRANCH   1   7
TORSDOF 1
ENDMDL
