MODEL 1
REMARK minimizedAffinity -0.876975834
REMARK minimizedRMSD -1
REMARK  1 active torsions:
REMARK  status: ('A' for Active; 'I' for Inactive)
REMARK    1  A    between atoms: C1_2  and  C2_3 
ROOT
ATOM      1  C2  UNL d   1       3.493   5.359  -3.298  0.00  0.00    -0.077 A 
ATOM      2  C3  UNL d   1       3.722   4.096  -3.860  0.00  0.00     0.002 A 
ATOM      3  C4  UNL d   1       4.971   3.485  -3.740  0.00  0.00     0.002 A 
ATOM      4  C5  UNL d   1       6.000   4.127  -3.054  0.00  0.00    -0.004 A 
ATOM      5  C6  UNL d   1       5.783   5.385  -2.493  0.00  0.00     0.002 A 
ATOM      6  C7  UNL d   1       4.535   5.998  -2.613  0.00  0.00     0.002 A 
ENDROOT
BRANCH   1   7
ATOM      7  C1  UNL d   1       2.132   5.998  -3.384  0.00  0.00     0.055 C 
ATOM      8  C   UNL d   1       1.119   5.263  -2.518  0.00  0.00     0.019 C 
ENDBRANCH   1   7
TORSDOF 1
ENDMDL
