MODEL 1
REMARK minimizedAffinity 0.833202899
REMARK minimizedRMSD -1
REMARK  1 active torsions:
REMARK  status: ('A' for Active; 'I' for Inactive)
REMARK    1  A    between atoms: C1_2  and  C2_3 
ROOT
ATOM      1  C2  UNL d   1      -0.622  -2.604  -1.748  0.00  0.00    -0.077 A 
ATOM      2  C3  UNL d   1      -0.204  -2.653  -0.411  0.00  0.00     0.002 A 
ATOM      3  C4  UNL d   1      -1.143  -2.744   0.619  0.00  0.00     0.002 A 
ATOM      4  C5  UNL d   1      -2.503  -2.792   0.322  0.00  0.00    -0.004 A 
ATOM      5  C6  UNL d   1      -2.928  -2.742  -1.005  0.00  0.00     0.002 A 
ATOM      6  C7  UNL d   1      -1.992  -2.649  -2.036  0.00  0.00     0.002 A 
ENDROOT
BRANCH   1   7
ATOM      7  C1  UNL d   1       0.391  -2.555  -2.862  0.00  0.00     0.055 C 
ATOM      8  C   UNL d   1       0.390  -3.846  -3.668  0.00  0.00     0.019 C 
ENDBRANCH   1   7
TORSDOF 1
ENDMDL
