MODEL 1
REMARK minimizedAffinity -2.15703249
REMARK minimizedRMSD -1
REMARK  1 active torsions:
REMARK  status: ('A' for Active; 'I' for Inactive)
REMARK    1  A    between atoms: C1_2  and  C2_3 
ROOT
ATOM      1  C2  UNL d   1      -0.313  -1.336  -0.066  0.00  0.00    -0.077 A 
ATOM      2  C3  UNL d   1      -0.903  -0.327   0.708  0.00  0.00     0.002 A 
ATOM      3  C4  UNL d   1      -0.647   1.017   0.431  0.00  0.00     0.002 A 
ATOM      4  C5  UNL d   1       0.196   1.365  -0.622  0.00  0.00    -0.004 A 
ATOM      5  C6  UNL d   1       0.790   0.369  -1.397  0.00  0.00     0.002 A 
ATOM      6  C7  UNL d   1       0.536  -0.975  -1.121  0.00  0.00     0.002 A 
ENDROOT
BRANCH   1   7
ATOM      7  C1  UNL d   1      -0.627  -2.785   0.200  0.00  0.00     0.055 C 
ATOM      8  C   UNL d   1      -2.124  -3.007   0.359  0.00  0.00     0.019 C 
ENDBRANCH   1   7
TORSDOF 1
ENDMDL
