MODEL 1
REMARK minimizedAffinity 2.23217463
REMARK minimizedRMSD -1
REMARK  1 active torsions:
REMARK  status: ('A' for Active; 'I' for Inactive)
REMARK    1  A    between atoms: C1_2  and  C2_3 
ROOT
ATOM      1  C2  UNL d   1      -2.660  -4.042  -3.679  0.00  0.00    -0.077 A 
ATOM      2  C3  UNL d   1      -3.422  -5.218  -3.745  0.00  0.00     0.002 A 
ATOM      3  C4  UNL d   1      -3.416  -5.999  -4.902  0.00  0.00     0.002 A 
ATOM      4  C5  UNL d   1      -2.647  -5.617  -5.999  0.00  0.00    -0.004 A 
ATOM      5  C6  UNL d   1      -1.887  -4.449  -5.944  0.00  0.00     0.002 A 
ATOM      6  C7  UNL d   1      -1.893  -3.665  -4.789  0.00  0.00     0.002 A 
ENDROOT
BRANCH   1   7
ATOM      7  C1  UNL d   1      -2.627  -3.224  -2.414  0.00  0.00     0.055 C 
ATOM      8  C   UNL d   1      -1.360  -2.386  -2.330  0.00  0.00     0.019 C 
ENDBRANCH   1   7
TORSDOF 1
ENDMDL
