MODEL 1
REMARK minimizedAffinity -0.0201932508
REMARK minimizedRMSD -1
REMARK  1 active torsions:
REMARK  status: ('A' for Active; 'I' for Inactive)
REMARK    1  A    between atoms: C1_2  and  C2_3 
ROOT
ATOM      1  C2  UNL d   1      -3.131  -4.858   1.646  0.00  0.00    -0.081 A 
ATOM      2  C3  UNL d   1      -2.502  -4.898   0.396  0.00  0.00     0.006 A 
ATOM      3  C4  UNL d   1      -3.222  -5.251  -0.748  0.00  0.00     0.002 A 
ATOM      4  C5  UNL d   1      -4.583  -5.562  -0.662  0.00  0.00    -0.080 A 
ATOM      5  C6  UNL d   1      -5.375  -5.913  -1.887  0.00  0.00     0.076 C 
ATOM      6  C7  UNL d   1      -5.208  -5.539   0.589  0.00  0.00     0.002 A 
ATOM      7  C8  UNL d   1      -4.488  -5.187   1.734  0.00  0.00     0.006 A 
ENDROOT
BRANCH   1   8
ATOM      8  C1  UNL d   1      -2.373  -4.415   2.872  0.00  0.00     0.054 C 
ATOM      9  C   UNL d   1      -2.958  -5.028   4.136  0.00  0.00     0.018 C 
ENDBRANCH   1   8
TORSDOF 1
ENDMDL
