MODEL 1
REMARK minimizedAffinity -1.32416105
REMARK minimizedRMSD -1
REMARK  1 active torsions:
REMARK  status: ('A' for Active; 'I' for Inactive)
REMARK    1  A    between atoms: C1_2  and  C2_3 
ROOT
ATOM      1  C2  UNL d   1      -0.924   0.746  -1.222  0.00  0.00    -0.081 A 
ATOM      2  C3  UNL d   1       0.460   0.584  -1.366  0.00  0.00     0.006 A 
ATOM      3  C4  UNL d   1       1.171  -0.240  -0.490  0.00  0.00     0.002 A 
ATOM      4  C5  UNL d   1       0.511  -0.919   0.539  0.00  0.00    -0.080 A 
ATOM      5  C6  UNL d   1       1.258  -1.830   1.468  0.00  0.00     0.076 C 
ATOM      6  C7  UNL d   1      -0.869  -0.743   0.694  0.00  0.00     0.002 A 
ATOM      7  C8  UNL d   1      -1.580   0.080  -0.181  0.00  0.00     0.006 A 
ENDROOT
BRANCH   1   8
ATOM      8  C1  UNL d   1      -1.704   1.582  -2.204  0.00  0.00     0.054 C 
ATOM      9  C   UNL d   1      -1.092   1.515  -3.596  0.00  0.00     0.018 C 
ENDBRANCH   1   8
TORSDOF 1
ENDMDL
