MODEL 1
REMARK minimizedAffinity -4.66448355
REMARK minimizedRMSD -1
REMARK  1 active torsions:
REMARK  status: ('A' for Active; 'I' for Inactive)
REMARK    1  A    between atoms: C1_2  and  C2_3 
ROOT
ATOM      1  C2  UNL d   1      -0.362   0.356  -0.246  0.00  0.00    -0.081 A 
ATOM      2  C3  UNL d   1      -0.969  -0.239   0.866  0.00  0.00     0.006 A 
ATOM      3  C4  UNL d   1      -0.373  -1.333   1.498  0.00  0.00     0.002 A 
ATOM      4  C5  UNL d   1       0.844  -1.843   1.034  0.00  0.00    -0.080 A 
ATOM      5  C6  UNL d   1       1.511  -2.998   1.722  0.00  0.00     0.076 C 
ATOM      6  C7  UNL d   1       1.443  -1.260  -0.087  0.00  0.00     0.002 A 
ATOM      7  C8  UNL d   1       0.846  -0.167  -0.720  0.00  0.00     0.006 A 
ENDROOT
BRANCH   1   8
ATOM      8  C1  UNL d   1      -0.970   1.576  -0.891  0.00  0.00     0.054 C 
ATOM      9  C   UNL d   1      -1.845   1.197  -2.077  0.00  0.00     0.018 C 
ENDBRANCH   1   8
TORSDOF 1
ENDMDL
