MODEL 1
REMARK minimizedAffinity -5.15104723
REMARK minimizedRMSD -1
REMARK  1 active torsions:
REMARK  status: ('A' for Active; 'I' for Inactive)
REMARK    1  A    between atoms: C1_2  and  C2_3 
ROOT
ATOM      1  C2  UNL d   1      -0.194   1.030  -0.850  0.00  0.00    -0.081 A 
ATOM      2  C3  UNL d   1       1.143   0.616  -0.872  0.00  0.00     0.006 A 
ATOM      3  C4  UNL d   1       1.536  -0.545  -0.203  0.00  0.00     0.002 A 
ATOM      4  C5  UNL d   1       0.598  -1.316   0.491  0.00  0.00    -0.080 A 
ATOM      5  C6  UNL d   1       1.002  -2.582   1.188  0.00  0.00     0.076 C 
ATOM      6  C7  UNL d   1      -0.735  -0.894   0.528  0.00  0.00     0.002 A 
ATOM      7  C8  UNL d   1      -1.128   0.268  -0.140  0.00  0.00     0.006 A 
ENDROOT
BRANCH   1   8
ATOM      8  C1  UNL d   1      -0.633   2.247  -1.624  0.00  0.00     0.054 C 
ATOM      9  C   UNL d   1      -1.585   1.872  -2.751  0.00  0.00     0.018 C 
ENDBRANCH   1   8
TORSDOF 1
ENDMDL
