MODEL 1
REMARK minimizedAffinity -1.14212704
REMARK minimizedRMSD -1
REMARK  1 active torsions:
REMARK  status: ('A' for Active; 'I' for Inactive)
REMARK    1  A    between atoms: C1_2  and  C2_3 
ROOT
ATOM      1  C2  UNL d   1      -0.071   0.568  -0.657  0.00  0.00    -0.081 A 
ATOM      2  C3  UNL d   1       1.286   0.224  -0.610  0.00  0.00     0.006 A 
ATOM      3  C4  UNL d   1       1.694  -0.969  -0.007  0.00  0.00     0.002 A 
ATOM      4  C5  UNL d   1       0.752  -1.840   0.552  0.00  0.00    -0.080 A 
ATOM      5  C6  UNL d   1       1.174  -3.137   1.175  0.00  0.00     0.076 C 
ATOM      6  C7  UNL d   1      -0.602  -1.488   0.520  0.00  0.00     0.002 A 
ATOM      7  C8  UNL d   1      -1.010  -0.295  -0.082  0.00  0.00     0.006 A 
ENDROOT
BRANCH   1   8
ATOM      8  C1  UNL d   1      -0.519   1.821  -1.364  0.00  0.00     0.054 C 
ATOM      9  C   UNL d   1      -1.271   1.495  -2.646  0.00  0.00     0.018 C 
ENDBRANCH   1   8
TORSDOF 1
ENDMDL
