MODEL 1
REMARK minimizedAffinity -3.83066297
REMARK minimizedRMSD -1
REMARK  1 active torsions:
REMARK  status: ('A' for Active; 'I' for Inactive)
REMARK    1  A    between atoms: C1_2  and  C2_3 
ROOT
ATOM      1  C2  UNL d   1      -0.528   0.392  -0.196  0.00  0.00    -0.081 A 
ATOM      2  C3  UNL d   1      -1.158  -0.585   0.584  0.00  0.00     0.006 A 
ATOM      3  C4  UNL d   1      -0.424  -1.647   1.118  0.00  0.00     0.002 A 
ATOM      4  C5  UNL d   1       0.953  -1.746   0.886  0.00  0.00    -0.080 A 
ATOM      5  C6  UNL d   1       1.758  -2.864   1.478  0.00  0.00     0.076 C 
ATOM      6  C7  UNL d   1       1.579  -0.779   0.092  0.00  0.00     0.002 A 
ATOM      7  C8  UNL d   1       0.845   0.283  -0.442  0.00  0.00     0.006 A 
ENDROOT
BRANCH   1   8
ATOM      8  C1  UNL d   1      -1.305   1.573  -0.719  0.00  0.00     0.054 C 
ATOM      9  C   UNL d   1      -2.025   1.232  -2.016  0.00  0.00     0.018 C 
ENDBRANCH   1   8
TORSDOF 1
ENDMDL
