MODEL 1
REMARK minimizedAffinity -3.86862588
REMARK minimizedRMSD -1
REMARK  1 active torsions:
REMARK  status: ('A' for Active; 'I' for Inactive)
REMARK    1  A    between atoms: C1_2  and  C2_3 
ROOT
ATOM      1  C2  UNL d   1       0.563  -1.369   0.576  0.00  0.00    -0.081 A 
ATOM      2  C3  UNL d   1      -0.781  -1.023   0.767  0.00  0.00     0.006 A 
ATOM      3  C4  UNL d   1      -1.328   0.081   0.108  0.00  0.00     0.002 A 
ATOM      4  C5  UNL d   1      -0.544   0.851  -0.757  0.00  0.00    -0.080 A 
ATOM      5  C6  UNL d   1      -1.127   2.021  -1.494  0.00  0.00     0.076 C 
ATOM      6  C7  UNL d   1       0.803   0.516  -0.934  0.00  0.00     0.002 A 
ATOM      7  C8  UNL d   1       1.351  -0.587  -0.275  0.00  0.00     0.006 A 
ENDROOT
BRANCH   1   8
ATOM      8  C1  UNL d   1       1.139  -2.597   1.235  0.00  0.00     0.054 C 
ATOM      9  C   UNL d   1       2.339  -2.247   2.103  0.00  0.00     0.018 C 
ENDBRANCH   1   8
TORSDOF 1
ENDMDL
