MODEL 1
REMARK minimizedAffinity -4.16247416
REMARK minimizedRMSD -1
REMARK  1 active torsions:
REMARK  status: ('A' for Active; 'I' for Inactive)
REMARK    1  A    between atoms: C1_2  and  C2_3 
ROOT
ATOM      1  C2  UNL d   1       0.085   0.849   0.042  0.00  0.00    -0.081 A 
ATOM      2  C3  UNL d   1       1.318   0.371  -0.417  0.00  0.00     0.006 A 
ATOM      3  C4  UNL d   1       1.746  -0.917  -0.087  0.00  0.00     0.002 A 
ATOM      4  C5  UNL d   1       0.945  -1.752   0.700  0.00  0.00    -0.080 A 
ATOM      5  C6  UNL d   1       1.379  -3.147   1.036  0.00  0.00     0.076 C 
ATOM      6  C7  UNL d   1      -0.280  -1.268   1.173  0.00  0.00     0.002 A 
ATOM      7  C8  UNL d   1      -0.708   0.020   0.844  0.00  0.00     0.006 A 
ENDROOT
BRANCH   1   8
ATOM      8  C1  UNL d   1      -0.408   2.214  -0.365  0.00  0.00     0.054 C 
ATOM      9  C   UNL d   1      -1.502   2.115  -1.419  0.00  0.00     0.018 C 
ENDBRANCH   1   8
TORSDOF 1
ENDMDL
