MODEL 1
REMARK minimizedAffinity -3.70419502
REMARK minimizedRMSD -1
REMARK  1 active torsions:
REMARK  status: ('A' for Active; 'I' for Inactive)
REMARK    1  A    between atoms: C1_2  and  C2_3 
ROOT
ATOM      1  C2  UNL d   1      -0.386   0.514  -0.206  0.00  0.00    -0.081 A 
ATOM      2  C3  UNL d   1       0.919   0.112  -0.517  0.00  0.00     0.006 A 
ATOM      3  C4  UNL d   1       1.475  -1.019   0.086  0.00  0.00     0.002 A 
ATOM      4  C5  UNL d   1       0.733  -1.771   1.003  0.00  0.00    -0.080 A 
ATOM      5  C6  UNL d   1       1.307  -3.004   1.634  0.00  0.00     0.076 C 
ATOM      6  C7  UNL d   1      -0.564  -1.360   1.327  0.00  0.00     0.002 A 
ATOM      7  C8  UNL d   1      -1.120  -0.229   0.725  0.00  0.00     0.006 A 
ENDROOT
BRANCH   1   8
ATOM      8  C1  UNL d   1      -1.011   1.695  -0.903  0.00  0.00     0.054 C 
ATOM      9  C   UNL d   1      -2.158   1.262  -1.806  0.00  0.00     0.018 C 
ENDBRANCH   1   8
TORSDOF 1
ENDMDL
