MODEL 1
REMARK minimizedAffinity 5.41866779
REMARK minimizedRMSD -1
REMARK  1 active torsions:
REMARK  status: ('A' for Active; 'I' for Inactive)
REMARK    1  A    between atoms: C1_2  and  C2_3 
ROOT
ATOM      1  C2  UNL d   1       5.322   4.532  -4.298  0.00  0.00    -0.073 A 
ATOM      2  C3  UNL d   1       6.000   4.584  -3.075  0.00  0.00    -0.002 A 
ATOM      3  C4  UNL d   1       5.370   5.099  -1.941  0.00  0.00     0.004 A 
ATOM      4  C5  UNL d   1       4.056   5.560  -2.016  0.00  0.00    -0.004 A 
ATOM      5  C6  UNL d   1       3.358   5.505  -3.227  0.00  0.00    -0.075 A 
ATOM      6  C7  UNL d   1       1.944   5.999  -3.325  0.00  0.00     0.076 C 
ATOM      7  C8  UNL d   1       3.997   4.989  -4.362  0.00  0.00     0.001 A 
ENDROOT
BRANCH   1   8
ATOM      8  C1  UNL d   1       5.995   3.971  -5.524  0.00  0.00     0.053 C 
ATOM      9  C   UNL d   1       5.517   2.563  -5.843  0.00  0.00     0.018 C 
ENDBRANCH   1   8
TORSDOF 1
ENDMDL
