MODEL 1
REMARK minimizedAffinity 6.20651197
REMARK minimizedRMSD -1
REMARK  1 active torsions:
REMARK  status: ('A' for Active; 'I' for Inactive)
REMARK    1  A    between atoms: C1_2  and  C2_3 
ROOT
ATOM      1  C2  UNL d   1       5.171   5.392  -4.041  0.00  0.00    -0.073 A 
ATOM      2  C3  UNL d   1       3.792   5.158  -4.081  0.00  0.00    -0.002 A 
ATOM      3  C4  UNL d   1       3.041   5.163  -2.905  0.00  0.00     0.004 A 
ATOM      4  C5  UNL d   1       3.660   5.407  -1.679  0.00  0.00    -0.004 A 
ATOM      5  C6  UNL d   1       5.035   5.654  -1.619  0.00  0.00    -0.075 A 
ATOM      6  C7  UNL d   1       5.716   5.916  -0.308  0.00  0.00     0.076 C 
ATOM      7  C8  UNL d   1       5.782   5.645  -2.805  0.00  0.00     0.001 A 
ENDROOT
BRANCH   1   8
ATOM      8  C1  UNL d   1       5.984   5.394  -5.309  0.00  0.00     0.053 C 
ATOM      9  C   UNL d   1       5.971   4.039  -5.998  0.00  0.00     0.018 C 
ENDBRANCH   1   8
TORSDOF 1
ENDMDL
