MODEL 1
REMARK minimizedAffinity 5.01235342
REMARK minimizedRMSD -1
REMARK  1 active torsions:
REMARK  status: ('A' for Active; 'I' for Inactive)
REMARK    1  A    between atoms: C1_2  and  C2_3 
ROOT
ATOM      1  C2  UNL d   1       5.246   4.768  -2.898  0.00  0.00    -0.073 A 
ATOM      2  C3  UNL d   1       4.528   5.923  -3.227  0.00  0.00    -0.002 A 
ATOM      3  C4  UNL d   1       3.827   5.999  -4.431  0.00  0.00     0.004 A 
ATOM      4  C5  UNL d   1       3.830   4.920  -5.314  0.00  0.00    -0.004 A 
ATOM      5  C6  UNL d   1       4.531   3.752  -4.998  0.00  0.00    -0.075 A 
ATOM      6  C7  UNL d   1       4.546   2.582  -5.938  0.00  0.00     0.076 C 
ATOM      7  C8  UNL d   1       5.235   3.684  -3.788  0.00  0.00     0.001 A 
ENDROOT
BRANCH   1   8
ATOM      8  C1  UNL d   1       6.000   4.679  -1.596  0.00  0.00     0.053 C 
ATOM      9  C   UNL d   1       5.994   6.000  -0.843  0.00  0.00     0.018 C 
ENDBRANCH   1   8
TORSDOF 1
ENDMDL
