MODEL 1
REMARK minimizedAffinity 7.65899706
REMARK minimizedRMSD -1
REMARK  1 active torsions:
REMARK  status: ('A' for Active; 'I' for Inactive)
REMARK    1  A    between atoms: C1_2  and  C2_3 
ROOT
ATOM      1  C2  UNL d   1       3.273   5.725  -3.225  0.00  0.00    -0.073 A 
ATOM      2  C3  UNL d   1       4.211   5.999  -2.223  0.00  0.00    -0.002 A 
ATOM      3  C4  UNL d   1       5.567   5.752  -2.440  0.00  0.00     0.004 A 
ATOM      4  C5  UNL d   1       6.000   5.237  -3.662  0.00  0.00    -0.004 A 
ATOM      5  C6  UNL d   1       5.079   4.968  -4.680  0.00  0.00    -0.075 A 
ATOM      6  C7  UNL d   1       5.528   4.412  -6.000  0.00  0.00     0.076 C 
ATOM      7  C8  UNL d   1       3.719   5.216  -4.453  0.00  0.00     0.001 A 
ENDROOT
BRANCH   1   8
ATOM      8  C1  UNL d   1       1.808   5.995  -2.997  0.00  0.00     0.053 C 
ATOM      9  C   UNL d   1       1.331   5.459  -1.657  0.00  0.00     0.018 C 
ENDBRANCH   1   8
TORSDOF 1
ENDMDL
