MODEL 1
REMARK minimizedAffinity -0.309001118
REMARK minimizedRMSD -1
REMARK  1 active torsions:
REMARK  status: ('A' for Active; 'I' for Inactive)
REMARK    1  A    between atoms: C1_2  and  C2_3 
ROOT
ATOM      1  C2  UNL d   1       5.103   4.858  -2.351  0.00  0.00    -0.073 A 
ATOM      2  C3  UNL d   1       3.733   4.583  -2.435  0.00  0.00    -0.002 A 
ATOM      3  C4  UNL d   1       3.069   4.678  -3.659  0.00  0.00     0.004 A 
ATOM      4  C5  UNL d   1       3.767   5.043  -4.810  0.00  0.00    -0.004 A 
ATOM      5  C6  UNL d   1       5.138   5.311  -4.749  0.00  0.00    -0.075 A 
ATOM      6  C7  UNL d   1       5.903   5.707  -5.978  0.00  0.00     0.076 C 
ATOM      7  C8  UNL d   1       5.798   5.215  -3.516  0.00  0.00     0.001 A 
ENDROOT
BRANCH   1   8
ATOM      8  C1  UNL d   1       5.826   4.750  -1.034  0.00  0.00     0.053 C 
ATOM      9  C   UNL d   1       5.649   5.997  -0.182  0.00  0.00     0.018 C 
ENDBRANCH   1   8
TORSDOF 1
ENDMDL
