MODEL 1
REMARK minimizedAffinity 10.7692928
REMARK minimizedRMSD -1
REMARK  1 active torsions:
REMARK  status: ('A' for Active; 'I' for Inactive)
REMARK    1  A    between atoms: C1_2  and  C2_3 
ROOT
ATOM      1  C2  UNL d   1       5.087   4.382  -2.176  0.00  0.00    -0.073 A 
ATOM      2  C3  UNL d   1       5.504   3.637  -3.285  0.00  0.00    -0.002 A 
ATOM      3  C4  UNL d   1       4.659   3.477  -4.384  0.00  0.00     0.004 A 
ATOM      4  C5  UNL d   1       3.394   4.064  -4.389  0.00  0.00    -0.004 A 
ATOM      5  C6  UNL d   1       2.964   4.822  -3.295  0.00  0.00    -0.075 A 
ATOM      6  C7  UNL d   1       1.605   5.458  -3.283  0.00  0.00     0.076 C 
ATOM      7  C8  UNL d   1       3.817   4.976  -2.194  0.00  0.00     0.001 A 
ENDROOT
BRANCH   1   8
ATOM      8  C1  UNL d   1       5.998   4.563  -0.990  0.00  0.00     0.053 C 
ATOM      9  C   UNL d   1       5.999   5.997  -0.485  0.00  0.00     0.018 C 
ENDBRANCH   1   8
TORSDOF 1
ENDMDL
