MODEL 1
REMARK minimizedAffinity -4.01987171
REMARK minimizedRMSD -1
REMARK  1 active torsions:
REMARK  status: ('A' for Active; 'I' for Inactive)
REMARK    1  A    between atoms: C1_2  and  C2_3 
ROOT
ATOM      1  C2  UNL d   1       5.287   3.922  -5.012  0.00  0.00    -0.073 A 
ATOM      2  C3  UNL d   1       3.977   4.326  -5.295  0.00  0.00    -0.002 A 
ATOM      3  C4  UNL d   1       3.323   5.232  -4.459  0.00  0.00     0.004 A 
ATOM      4  C5  UNL d   1       3.973   5.748  -3.338  0.00  0.00    -0.004 A 
ATOM      5  C6  UNL d   1       5.286   5.366  -3.045  0.00  0.00    -0.075 A 
ATOM      6  C7  UNL d   1       5.998   5.910  -1.842  0.00  0.00     0.076 C 
ATOM      7  C8  UNL d   1       5.935   4.454  -3.888  0.00  0.00     0.001 A 
ENDROOT
BRANCH   1   8
ATOM      8  C1  UNL d   1       6.000   2.949  -5.916  0.00  0.00     0.053 C 
ATOM      9  C   UNL d   1       5.958   1.530  -5.371  0.00  0.00     0.018 C 
ENDBRANCH   1   8
TORSDOF 1
ENDMDL
