MODEL 1
REMARK minimizedAffinity -2.91545272
REMARK minimizedRMSD -1
REMARK  1 active torsions:
REMARK  status: ('A' for Active; 'I' for Inactive)
REMARK    1  A    between atoms: C1_2  and  C2_3 
ROOT
ATOM      1  C2  UNL d   1       4.761   4.581  -3.383  0.00  0.00    -0.073 A 
ATOM      2  C3  UNL d   1       4.123   5.297  -4.402  0.00  0.00    -0.002 A 
ATOM      3  C4  UNL d   1       4.096   4.796  -5.705  0.00  0.00     0.004 A 
ATOM      4  C5  UNL d   1       4.699   3.574  -6.000  0.00  0.00    -0.004 A 
ATOM      5  C6  UNL d   1       5.331   2.838  -4.993  0.00  0.00    -0.075 A 
ATOM      6  C7  UNL d   1       5.986   1.522  -5.294  0.00  0.00     0.076 C 
ATOM      7  C8  UNL d   1       5.356   3.348  -3.688  0.00  0.00     0.001 A 
ENDROOT
BRANCH   1   8
ATOM      8  C1  UNL d   1       4.788   5.114  -1.974  0.00  0.00     0.053 C 
ATOM      9  C   UNL d   1       6.000   5.997  -1.721  0.00  0.00     0.018 C 
ENDBRANCH   1   8
TORSDOF 1
ENDMDL
