MODEL 1
REMARK minimizedAffinity 0.944275856
REMARK minimizedRMSD -1
REMARK  1 active torsions:
REMARK  status: ('A' for Active; 'I' for Inactive)
REMARK    1  A    between atoms: C1_2  and  C2_3 
ROOT
ATOM      1  C2  UNL d   1       5.308   4.125  -4.960  0.00  0.00    -0.073 A 
ATOM      2  C3  UNL d   1       4.039   4.660  -5.209  0.00  0.00    -0.002 A 
ATOM      3  C4  UNL d   1       3.405   5.448  -4.247  0.00  0.00     0.004 A 
ATOM      4  C5  UNL d   1       4.035   5.713  -3.031  0.00  0.00    -0.004 A 
ATOM      5  C6  UNL d   1       5.308   5.197  -2.768  0.00  0.00    -0.075 A 
ATOM      6  C7  UNL d   1       5.998   5.472  -1.464  0.00  0.00     0.076 C 
ATOM      7  C8  UNL d   1       5.937   4.405  -3.738  0.00  0.00     0.001 A 
ENDROOT
BRANCH   1   8
ATOM      8  C1  UNL d   1       5.999   3.280  -5.998  0.00  0.00     0.053 C 
ATOM      9  C   UNL d   1       5.627   1.810  -5.877  0.00  0.00     0.018 C 
ENDBRANCH   1   8
TORSDOF 1
ENDMDL
