MODEL 1
REMARK minimizedAffinity -4.83906174
REMARK minimizedRMSD -1
REMARK  1 active torsions:
REMARK  status: ('A' for Active; 'I' for Inactive)
REMARK    1  A    between atoms: C1_2  and  C2_3 
ROOT
ATOM      1  C2  UNL d   1       5.280   3.415  -5.301  0.00  0.00    -0.073 A 
ATOM      2  C3  UNL d   1       4.319   4.158  -5.997  0.00  0.00    -0.002 A 
ATOM      3  C4  UNL d   1       3.662   5.220  -5.374  0.00  0.00     0.004 A 
ATOM      4  C5  UNL d   1       3.961   5.553  -4.053  0.00  0.00    -0.004 A 
ATOM      5  C6  UNL d   1       4.926   4.830  -3.345  0.00  0.00    -0.075 A 
ATOM      6  C7  UNL d   1       5.258   5.174  -1.923  0.00  0.00     0.076 C 
ATOM      7  C8  UNL d   1       5.581   3.764  -3.977  0.00  0.00     0.001 A 
ENDROOT
BRANCH   1   8
ATOM      8  C1  UNL d   1       5.997   2.273  -5.972  0.00  0.00     0.053 C 
ATOM      9  C   UNL d   1       5.665   0.935  -5.330  0.00  0.00     0.018 C 
ENDBRANCH   1   8
TORSDOF 1
ENDMDL
