MODEL 1
REMARK minimizedAffinity 1.04584622
REMARK minimizedRMSD -1
REMARK  1 active torsions:
REMARK  status: ('A' for Active; 'I' for Inactive)
REMARK    1  A    between atoms: C1_2  and  C2_3 
ROOT
ATOM      1  C2  UNL d   1       5.866   4.993  -3.280  0.00  0.00    -0.073 A 
ATOM      2  C3  UNL d   1       5.875   5.989  -4.264  0.00  0.00    -0.002 A 
ATOM      3  C4  UNL d   1       5.930   5.644  -5.615  0.00  0.00     0.004 A 
ATOM      4  C5  UNL d   1       5.970   4.303  -5.996  0.00  0.00    -0.004 A 
ATOM      5  C6  UNL d   1       5.950   3.293  -5.028  0.00  0.00    -0.075 A 
ATOM      6  C7  UNL d   1       5.994   1.846  -5.422  0.00  0.00     0.076 C 
ATOM      7  C8  UNL d   1       5.897   3.648  -3.674  0.00  0.00     0.001 A 
ENDROOT
BRANCH   1   8
ATOM      8  C1  UNL d   1       5.800   5.361  -1.821  0.00  0.00     0.053 C 
ATOM      9  C   UNL d   1       4.483   4.941  -1.186  0.00  0.00     0.018 C 
ENDBRANCH   1   8
TORSDOF 1
ENDMDL
