MODEL 1
REMARK minimizedAffinity -3.60981798
REMARK minimizedRMSD -1
REMARK  1 active torsions:
REMARK  status: ('A' for Active; 'I' for Inactive)
REMARK    1  A    between atoms: C1_2  and  C2_3 
ROOT
ATOM      1  C2  UNL d   1       4.577   5.107  -3.771  0.00  0.00    -0.073 A 
ATOM      2  C3  UNL d   1       5.288   5.999  -4.582  0.00  0.00    -0.002 A 
ATOM      3  C4  UNL d   1       5.999   5.532  -5.688  0.00  0.00     0.004 A 
ATOM      4  C5  UNL d   1       6.000   4.173  -6.000  0.00  0.00    -0.004 A 
ATOM      5  C6  UNL d   1       5.285   3.267  -5.209  0.00  0.00    -0.075 A 
ATOM      6  C7  UNL d   1       5.278   1.802  -5.529  0.00  0.00     0.076 C 
ATOM      7  C8  UNL d   1       4.577   3.743  -4.097  0.00  0.00     0.001 A 
ENDROOT
BRANCH   1   8
ATOM      8  C1  UNL d   1       3.803   5.607  -2.578  0.00  0.00     0.053 C 
ATOM      9  C   UNL d   1       2.379   5.994  -2.944  0.00  0.00     0.018 C 
ENDBRANCH   1   8
TORSDOF 1
ENDMDL
