MODEL 1
REMARK minimizedAffinity -2.65641212
REMARK minimizedRMSD -1
REMARK  0 active torsions:
REMARK  status: ('A' for Active; 'I' for Inactive)
ROOT
ATOM      1  C   UNL d   1       0.743   2.278  -0.148  0.00  0.00     0.077 C 
ATOM      2  C1  UNL d   1       0.399   0.868  -0.526  0.00  0.00    -0.074 A 
ATOM      3  C2  UNL d   1      -0.849   0.554  -1.073  0.00  0.00    -0.005 A 
ATOM      4  C3  UNL d   1      -1.151  -0.760  -1.427  0.00  0.00     0.006 A 
ATOM      5  C4  UNL d   1      -0.210  -1.773  -1.239  0.00  0.00    -0.005 A 
ATOM      6  C5  UNL d   1       1.044  -1.478  -0.695  0.00  0.00    -0.074 A 
ATOM      7  C6  UNL d   1       2.071  -2.553  -0.495  0.00  0.00     0.077 C 
ATOM      8  C7  UNL d   1       1.343  -0.154  -0.347  0.00  0.00    -0.001 A 
ENDROOT
TORSDOF 0
ENDMDL
