MODEL 1
REMARK minimizedAffinity 8.84554291
REMARK minimizedRMSD -1
REMARK  0 active torsions:
REMARK  status: ('A' for Active; 'I' for Inactive)
ROOT
ATOM      1  C   UNL d   1       0.192  -2.464   0.412  0.00  0.00     0.077 C 
ATOM      2  C1  UNL d   1       1.295  -2.238  -0.579  0.00  0.00    -0.074 A 
ATOM      3  C2  UNL d   1       1.386  -3.010  -1.742  0.00  0.00    -0.005 A 
ATOM      4  C3  UNL d   1       2.411  -2.782  -2.659  0.00  0.00     0.006 A 
ATOM      5  C4  UNL d   1       3.355  -1.781  -2.423  0.00  0.00    -0.005 A 
ATOM      6  C5  UNL d   1       3.280  -0.999  -1.267  0.00  0.00    -0.074 A 
ATOM      7  C6  UNL d   1       4.281   0.087  -1.003  0.00  0.00     0.077 C 
ATOM      8  C7  UNL d   1       2.242  -1.230  -0.353  0.00  0.00    -0.001 A 
ENDROOT
TORSDOF 0
ENDMDL
