MODEL 1
REMARK minimizedAffinity 0.813481569
REMARK minimizedRMSD -1
REMARK  0 active torsions:
REMARK  status: ('A' for Active; 'I' for Inactive)
ROOT
ATOM      1  C   UNL d   1      -1.157  -2.805  -4.402  0.00  0.00     0.077 C 
ATOM      2  C1  UNL d   1      -0.525  -2.214  -3.177  0.00  0.00    -0.074 A 
ATOM      3  C2  UNL d   1      -1.203  -1.265  -2.405  0.00  0.00    -0.005 A 
ATOM      4  C3  UNL d   1      -0.605  -0.732  -1.263  0.00  0.00     0.006 A 
ATOM      5  C4  UNL d   1       0.673  -1.141  -0.882  0.00  0.00    -0.005 A 
ATOM      6  C5  UNL d   1       1.366  -2.089  -1.641  0.00  0.00    -0.074 A 
ATOM      7  C6  UNL d   1       2.737  -2.547  -1.240  0.00  0.00     0.077 C 
ATOM      8  C7  UNL d   1       0.756  -2.626  -2.783  0.00  0.00    -0.001 A 
ENDROOT
TORSDOF 0
ENDMDL
