MODEL 1
REMARK minimizedAffinity 1.38614988
REMARK minimizedRMSD -1
REMARK  0 active torsions:
REMARK  status: ('A' for Active; 'I' for Inactive)
ROOT
ATOM      1  C   UNL d   1      -0.263   5.719   2.647  0.00  0.00     0.077 C 
ATOM      2  C1  UNL d   1      -1.361   4.697   2.640  0.00  0.00    -0.074 A 
ATOM      3  C2  UNL d   1      -1.210   3.475   3.304  0.00  0.00    -0.005 A 
ATOM      4  C3  UNL d   1      -2.244   2.539   3.296  0.00  0.00     0.006 A 
ATOM      5  C4  UNL d   1      -3.437   2.814   2.627  0.00  0.00    -0.005 A 
ATOM      6  C5  UNL d   1      -3.606   4.031   1.959  0.00  0.00    -0.074 A 
ATOM      7  C6  UNL d   1      -4.885   4.347   1.243  0.00  0.00     0.077 C 
ATOM      8  C7  UNL d   1      -2.565   4.970   1.977  0.00  0.00    -0.001 A 
ENDROOT
TORSDOF 0
ENDMDL
