MODEL 1
REMARK minimizedAffinity -0.503104866
REMARK minimizedRMSD -1
REMARK  0 active torsions:
REMARK  status: ('A' for Active; 'I' for Inactive)
ROOT
ATOM      1  C   UNL d   1      -0.264   0.753   2.129  0.00  0.00     0.077 C 
ATOM      2  C1  UNL d   1      -0.052   0.067   0.813  0.00  0.00    -0.074 A 
ATOM      3  C2  UNL d   1      -1.136  -0.284   0.002  0.00  0.00    -0.005 A 
ATOM      4  C3  UNL d   1      -0.922  -0.914  -1.224  0.00  0.00     0.006 A 
ATOM      5  C4  UNL d   1       0.375  -1.198  -1.651  0.00  0.00    -0.005 A 
ATOM      6  C5  UNL d   1       1.472  -0.854  -0.855  0.00  0.00    -0.074 A 
ATOM      7  C6  UNL d   1       2.873  -1.144  -1.303  0.00  0.00     0.077 C 
ATOM      8  C7  UNL d   1       1.249  -0.215   0.373  0.00  0.00    -0.001 A 
ENDROOT
TORSDOF 0
ENDMDL
