MODEL 1
REMARK minimizedAffinity -2.28782105
REMARK minimizedRMSD -1
REMARK  0 active torsions:
REMARK  status: ('A' for Active; 'I' for Inactive)
ROOT
ATOM      1  C   UNL d   1      -1.034  -0.416  -2.287  0.00  0.00     0.077 C 
ATOM      2  C1  UNL d   1       0.191  -0.783  -1.504  0.00  0.00    -0.074 A 
ATOM      3  C2  UNL d   1       0.279  -2.010  -0.839  0.00  0.00    -0.005 A 
ATOM      4  C3  UNL d   1       1.429  -2.341  -0.122  0.00  0.00     0.006 A 
ATOM      5  C4  UNL d   1       2.501  -1.451  -0.064  0.00  0.00    -0.005 A 
ATOM      6  C5  UNL d   1       2.432  -0.219  -0.724  0.00  0.00    -0.074 A 
ATOM      7  C6  UNL d   1       3.580   0.745  -0.679  0.00  0.00     0.077 C 
ATOM      8  C7  UNL d   1       1.276   0.104  -1.447  0.00  0.00    -0.001 A 
ENDROOT
TORSDOF 0
ENDMDL
