MODEL 1
REMARK minimizedAffinity -3.09024191
REMARK minimizedRMSD -1
REMARK  0 active torsions:
REMARK  status: ('A' for Active; 'I' for Inactive)
ROOT
ATOM      1  C   UNL d   1      -3.024   0.842  -0.794  0.00  0.00     0.077 C 
ATOM      2  C1  UNL d   1      -1.593   0.749  -0.352  0.00  0.00    -0.074 A 
ATOM      3  C2  UNL d   1      -0.945   1.848   0.220  0.00  0.00    -0.005 A 
ATOM      4  C3  UNL d   1       0.383   1.743   0.635  0.00  0.00     0.006 A 
ATOM      5  C4  UNL d   1       1.074   0.541   0.482  0.00  0.00    -0.005 A 
ATOM      6  C5  UNL d   1       0.442  -0.569  -0.087  0.00  0.00    -0.074 A 
ATOM      7  C6  UNL d   1       1.167  -1.872  -0.249  0.00  0.00     0.077 C 
ATOM      8  C7  UNL d   1      -0.895  -0.458  -0.495  0.00  0.00    -0.001 A 
ENDROOT
TORSDOF 0
ENDMDL
