MODEL 1
REMARK minimizedAffinity -3.12000036
REMARK minimizedRMSD -1
REMARK  3 active torsions:
REMARK  status: ('A' for Active; 'I' for Inactive)
REMARK    1  A    between atoms: C3'_2  and  C2'_3 
REMARK    2  A    between atoms: C2'_3  and  C1'_4 
REMARK    3  A    between atoms: C1'_4  and  C1_5 
ROOT
ATOM      1  C1  N4B d   1      -0.245  -0.188  -0.059  0.00  0.00    -0.075 A 
ATOM      2  C2  N4B d   1      -1.291  -0.144   0.889  0.00  0.00     0.002 A 
ATOM      3  C3  N4B d   1      -1.308   0.838   1.848  0.00  0.00     0.002 A 
ATOM      4  C4  N4B d   1      -0.284   1.772   1.891  0.00  0.00    -0.004 A 
ATOM      5  C5  N4B d   1       0.709   1.739   0.957  0.00  0.00     0.002 A 
ATOM      6  C6  N4B d   1       0.737   0.760  -0.016  0.00  0.00     0.002 A 
ENDROOT
BRANCH   1   7
ATOM      7  C1' N4B d   1      -0.138  -1.293  -1.073  0.00  0.00     0.057 C 
BRANCH   7   8
ATOM      8  C2' N4B d   1      -1.540  -1.731  -1.487  0.00  0.00     0.009 C 
BRANCH   8   9
ATOM      9  C3' N4B d   1      -1.828  -1.412  -2.944  0.00  0.00     0.004 C 
ATOM     10  C4' N4B d   1      -3.232  -0.937  -3.167  0.00  0.00     0.003 C 
ENDBRANCH   8   9
ENDBRANCH   7   8
ENDBRANCH   1   7
TORSDOF 3
ENDMDL
