MODEL 1
REMARK minimizedAffinity -6.15513897
REMARK minimizedRMSD -1
REMARK  3 active torsions:
REMARK  status: ('A' for Active; 'I' for Inactive)
REMARK    1  A    between atoms: C3'_2  and  C2'_3 
REMARK    2  A    between atoms: C2'_3  and  C1'_4 
REMARK    3  A    between atoms: C1'_4  and  C1_5 
ROOT
ATOM      1  C1  N4B d   1       0.368   0.128   0.126  0.00  0.00    -0.075 A 
ATOM      2  C2  N4B d   1      -0.321   1.069   0.923  0.00  0.00     0.002 A 
ATOM      3  C3  N4B d   1       0.362   2.110   1.502  0.00  0.00     0.002 A 
ATOM      4  C4  N4B d   1       1.732   2.218   1.316  0.00  0.00    -0.004 A 
ATOM      5  C5  N4B d   1       2.386   1.320   0.525  0.00  0.00     0.002 A 
ATOM      6  C6  N4B d   1       1.711   0.272  -0.067  0.00  0.00     0.002 A 
ENDROOT
BRANCH   1   7
ATOM      7  C1' N4B d   1      -0.322  -1.074  -0.458  0.00  0.00     0.057 C 
BRANCH   7   8
ATOM      8  C2' N4B d   1      -1.036  -0.667  -1.744  0.00  0.00     0.009 C 
BRANCH   8   9
ATOM      9  C3' N4B d   1      -1.844  -1.811  -2.332  0.00  0.00     0.004 C 
ATOM     10  C4' N4B d   1      -3.127  -1.353  -2.958  0.00  0.00     0.003 C 
ENDBRANCH   8   9
ENDBRANCH   7   8
ENDBRANCH   1   7
TORSDOF 3
ENDMDL
