MODEL 1
REMARK minimizedAffinity -4.12716484
REMARK minimizedRMSD -1
REMARK  3 active torsions:
REMARK  status: ('A' for Active; 'I' for Inactive)
REMARK    1  A    between atoms: C3'_2  and  C2'_3 
REMARK    2  A    between atoms: C2'_3  and  C1'_4 
REMARK    3  A    between atoms: C1'_4  and  C1_5 
ROOT
ATOM      1  C1  N4B d   1      -1.078  -1.259  -1.018  0.00  0.00    -0.075 A 
ATOM      2  C2  N4B d   1      -2.199  -2.067  -0.726  0.00  0.00     0.002 A 
ATOM      3  C3  N4B d   1      -3.111  -2.358  -1.711  0.00  0.00     0.002 A 
ATOM      4  C4  N4B d   1      -2.933  -1.840  -2.985  0.00  0.00    -0.004 A 
ATOM      5  C5  N4B d   1      -1.834  -1.082  -3.266  0.00  0.00     0.002 A 
ATOM      6  C6  N4B d   1      -0.908  -0.784  -2.286  0.00  0.00     0.002 A 
ENDROOT
BRANCH   1   7
ATOM      7  C1' N4B d   1      -0.101  -0.842   0.046  0.00  0.00     0.057 C 
BRANCH   7   8
ATOM      8  C2' N4B d   1      -0.721   0.268   0.889  0.00  0.00     0.009 C 
BRANCH   8   9
ATOM      9  C3' N4B d   1      -0.053   1.610   0.641  0.00  0.00     0.004 C 
ATOM     10  C4' N4B d   1       0.531   2.207   1.886  0.00  0.00     0.003 C 
ENDBRANCH   8   9
ENDBRANCH   7   8
ENDBRANCH   1   7
TORSDOF 3
ENDMDL
