MODEL 1
REMARK minimizedAffinity -6.51506329
REMARK minimizedRMSD -1
REMARK  3 active torsions:
REMARK  status: ('A' for Active; 'I' for Inactive)
REMARK    1  A    between atoms: C3'_2  and  C2'_3 
REMARK    2  A    between atoms: C2'_3  and  C1'_4 
REMARK    3  A    between atoms: C1'_4  and  C1_5 
ROOT
ATOM      1  C1  N4B d   1       0.432   0.380   0.776  0.00  0.00    -0.075 A 
ATOM      2  C2  N4B d   1       1.639   0.630   0.087  0.00  0.00     0.002 A 
ATOM      3  C3  N4B d   1       2.352   1.775   0.343  0.00  0.00     0.002 A 
ATOM      4  C4  N4B d   1       1.870   2.690   1.268  0.00  0.00    -0.004 A 
ATOM      5  C5  N4B d   1       0.717   2.429   1.948  0.00  0.00     0.002 A 
ATOM      6  C6  N4B d   1      -0.008   1.280   1.703  0.00  0.00     0.002 A 
ENDROOT
BRANCH   1   7
ATOM      7  C1' N4B d   1      -0.426  -0.816   0.467  0.00  0.00     0.057 C 
BRANCH   7   8
ATOM      8  C2' N4B d   1      -0.412  -1.068  -1.037  0.00  0.00     0.009 C 
BRANCH   8   9
ATOM      9  C3' N4B d   1      -1.630  -1.852  -1.494  0.00  0.00     0.004 C 
ATOM     10  C4' N4B d   1      -2.073  -1.484  -2.879  0.00  0.00     0.003 C 
ENDBRANCH   8   9
ENDBRANCH   7   8
ENDBRANCH   1   7
TORSDOF 3
ENDMDL
