MODEL 1
REMARK minimizedAffinity 5.84518003
REMARK minimizedRMSD -1
REMARK  1 active torsions:
REMARK  status: ('A' for Active; 'I' for Inactive)
REMARK    1  A    between atoms: C1_2  and  C2_3 
ROOT
ATOM      1  C2  UNL d   1       3.814  -5.901  -1.456  0.00  0.00    -0.073 A 
ATOM      2  C3  UNL d   1       2.511  -5.908  -1.967  0.00  0.00    -0.002 A 
ATOM      3  C4  UNL d   1       2.294  -5.933  -3.345  0.00  0.00     0.004 A 
ATOM      4  C5  UNL d   1       3.376  -5.960  -4.226  0.00  0.00    -0.004 A 
ATOM      5  C6  UNL d   1       4.685  -5.966  -3.735  0.00  0.00    -0.075 A 
ATOM      6  C7  UNL d   1       5.859  -5.992  -4.669  0.00  0.00     0.076 C 
ATOM      7  C8  UNL d   1       4.895  -5.937  -2.349  0.00  0.00     0.001 A 
ENDROOT
BRANCH   1   8
ATOM      8  C1  UNL d   1       4.054  -5.879   0.031  0.00  0.00     0.053 C 
ATOM      9  C   UNL d   1       2.756  -5.772   0.816  0.00  0.00     0.018 C 
ENDBRANCH   1   8
TORSDOF 1
ENDMDL
