MODEL 1
REMARK minimizedAffinity 9.16604996
REMARK minimizedRMSD -1
REMARK  1 active torsions:
REMARK  status: ('A' for Active; 'I' for Inactive)
REMARK    1  A    between atoms: C1_2  and  C2_3 
ROOT
ATOM      1  C2  UNL d   1       3.841  -5.988  -1.445  0.00  0.00    -0.073 A 
ATOM      2  C3  UNL d   1       5.107  -5.984  -2.041  0.00  0.00    -0.002 A 
ATOM      3  C4  UNL d   1       5.233  -5.992  -3.431  0.00  0.00     0.004 A 
ATOM      4  C5  UNL d   1       4.096  -5.998  -4.238  0.00  0.00    -0.004 A 
ATOM      5  C6  UNL d   1       2.821  -5.990  -3.662  0.00  0.00    -0.075 A 
ATOM      6  C7  UNL d   1       1.588  -5.999  -4.517  0.00  0.00     0.076 C 
ATOM      7  C8  UNL d   1       2.703  -5.985  -2.266  0.00  0.00     0.001 A 
ENDROOT
BRANCH   1   8
ATOM      8  C1  UNL d   1       3.700  -5.973   0.055  0.00  0.00     0.053 C 
ATOM      9  C   UNL d   1       2.793  -4.850   0.531  0.00  0.00     0.018 C 
ENDBRANCH   1   8
TORSDOF 1
ENDMDL
