MODEL 1
REMARK minimizedAffinity 4.3024025
REMARK minimizedRMSD -1
REMARK  1 active torsions:
REMARK  status: ('A' for Active; 'I' for Inactive)
REMARK    1  A    between atoms: C1_2  and  C2_3 
ROOT
ATOM      1  C2  UNL d   1       1.810  -1.041   2.355  0.00  0.00    -0.073 A 
ATOM      2  C3  UNL d   1       1.827  -0.354   3.575  0.00  0.00    -0.002 A 
ATOM      3  C4  UNL d   1       2.372   0.928   3.655  0.00  0.00     0.004 A 
ATOM      4  C5  UNL d   1       2.899   1.539   2.518  0.00  0.00    -0.004 A 
ATOM      5  C6  UNL d   1       2.881   0.874   1.287  0.00  0.00    -0.075 A 
ATOM      6  C7  UNL d   1       3.446   1.517   0.055  0.00  0.00     0.076 C 
ATOM      7  C8  UNL d   1       2.335  -0.414   1.215  0.00  0.00     0.001 A 
ENDROOT
BRANCH   1   8
ATOM      8  C1  UNL d   1       1.217  -2.423   2.262  0.00  0.00     0.053 C 
ATOM      9  C   UNL d   1       2.139  -3.479   2.849  0.00  0.00     0.018 C 
ENDBRANCH   1   8
TORSDOF 1
ENDMDL
