MODEL 1
REMARK minimizedAffinity -4.85956717
REMARK minimizedRMSD -1
REMARK  1 active torsions:
REMARK  status: ('A' for Active; 'I' for Inactive)
REMARK    1  A    between atoms: C1_2  and  C2_3 
ROOT
ATOM      1  C2  UNL d   1       0.231   0.721   0.443  0.00  0.00    -0.077 A 
ATOM      2  C3  UNL d   1      -0.253   2.014   0.685  0.00  0.00     0.002 A 
ATOM      3  C4  UNL d   1       0.627   3.050   1.003  0.00  0.00     0.002 A 
ATOM      4  C5  UNL d   1       1.997   2.804   1.078  0.00  0.00    -0.004 A 
ATOM      5  C6  UNL d   1       2.488   1.521   0.840  0.00  0.00     0.002 A 
ATOM      6  C7  UNL d   1       1.609   0.485   0.523  0.00  0.00     0.002 A 
ENDROOT
BRANCH   1   7
ATOM      7  C1  UNL d   1      -0.712  -0.386   0.051  0.00  0.00     0.055 C 
ATOM      8  C   UNL d   1       0.043  -1.665  -0.281  0.00  0.00     0.019 C 
ENDBRANCH   1   7
TORSDOF 1
ENDMDL
