MODEL 1
REMARK minimizedAffinity -4.06868505
REMARK minimizedRMSD -1
REMARK  1 active torsions:
REMARK  status: ('A' for Active; 'I' for Inactive)
REMARK    1  A    between atoms: C1_2  and  C2_3 
ROOT
ATOM      1  C2  UNL d   1      -0.388  -0.274   0.239  0.00  0.00    -0.077 A 
ATOM      2  C3  UNL d   1       0.639   0.669   0.388  0.00  0.00     0.002 A 
ATOM      3  C4  UNL d   1       0.341   2.030   0.470  0.00  0.00     0.002 A 
ATOM      4  C5  UNL d   1      -0.982   2.461   0.407  0.00  0.00    -0.004 A 
ATOM      5  C6  UNL d   1      -2.011   1.531   0.258  0.00  0.00     0.002 A 
ATOM      6  C7  UNL d   1      -1.715   0.170   0.175  0.00  0.00     0.002 A 
ENDROOT
BRANCH   1   7
ATOM      7  C1  UNL d   1      -0.072  -1.747   0.201  0.00  0.00     0.055 C 
ATOM      8  C   UNL d   1      -0.358  -2.338  -1.172  0.00  0.00     0.019 C 
ENDBRANCH   1   7
TORSDOF 1
ENDMDL
