MODEL 1
REMARK minimizedAffinity -1.27993512
REMARK minimizedRMSD -1
REMARK  1 active torsions:
REMARK  status: ('A' for Active; 'I' for Inactive)
REMARK    1  A    between atoms: C1_2  and  C2_3 
ROOT
ATOM      1  C2  UNL d   1      -0.272  -0.362   0.288  0.00  0.00    -0.077 A 
ATOM      2  C3  UNL d   1       0.714   0.570  -0.066  0.00  0.00     0.002 A 
ATOM      3  C4  UNL d   1       0.496   1.935   0.126  0.00  0.00     0.002 A 
ATOM      4  C5  UNL d   1      -0.705   2.380   0.676  0.00  0.00    -0.004 A 
ATOM      5  C6  UNL d   1      -1.692   1.461   1.029  0.00  0.00     0.002 A 
ATOM      6  C7  UNL d   1      -1.476   0.096   0.837  0.00  0.00     0.002 A 
ENDROOT
BRANCH   1   7
ATOM      7  C1  UNL d   1      -0.019  -1.839   0.127  0.00  0.00     0.055 C 
ATOM      8  C   UNL d   1      -0.129  -2.264  -1.330  0.00  0.00     0.019 C 
ENDBRANCH   1   7
TORSDOF 1
ENDMDL
