MODEL 1
REMARK minimizedAffinity -0.071627453
REMARK minimizedRMSD -1
REMARK  1 active torsions:
REMARK  status: ('A' for Active; 'I' for Inactive)
REMARK    1  A    between atoms: C1_2  and  C2_3 
ROOT
ATOM      1  C2  UNL d   1       1.089   1.275   0.989  0.00  0.00    -0.077 A 
ATOM      2  C3  UNL d   1       0.691   0.014   0.523  0.00  0.00     0.002 A 
ATOM      3  C4  UNL d   1      -0.648  -0.234   0.215  0.00  0.00     0.002 A 
ATOM      4  C5  UNL d   1      -1.598   0.774   0.366  0.00  0.00    -0.004 A 
ATOM      5  C6  UNL d   1      -1.212   2.031   0.831  0.00  0.00     0.002 A 
ATOM      6  C7  UNL d   1       0.126   2.280   1.140  0.00  0.00     0.002 A 
ENDROOT
BRANCH   1   7
ATOM      7  C1  UNL d   1       2.541   1.559   1.275  0.00  0.00     0.055 C 
ATOM      8  C   UNL d   1       2.709   2.864   2.041  0.00  0.00     0.019 C 
ENDBRANCH   1   7
TORSDOF 1
ENDMDL
