MODEL 1
REMARK minimizedAffinity -2.68677044
REMARK minimizedRMSD -1
REMARK  1 active torsions:
REMARK  status: ('A' for Active; 'I' for Inactive)
REMARK    1  A    between atoms: C1_2  and  C2_3 
ROOT
ATOM      1  C2  UNL d   1       0.281   1.182   0.298  0.00  0.00    -0.077 A 
ATOM      2  C3  UNL d   1      -0.702   0.182   0.312  0.00  0.00     0.002 A 
ATOM      3  C4  UNL d   1      -0.361  -1.147   0.055  0.00  0.00     0.002 A 
ATOM      4  C5  UNL d   1       0.963  -1.489  -0.213  0.00  0.00    -0.004 A 
ATOM      5  C6  UNL d   1       1.947  -0.502  -0.231  0.00  0.00     0.002 A 
ATOM      6  C7  UNL d   1       1.608   0.828   0.024  0.00  0.00     0.002 A 
ENDROOT
BRANCH   1   7
ATOM      7  C1  UNL d   1      -0.077   2.609   0.623  0.00  0.00     0.055 C 
ATOM      8  C   UNL d   1       1.137   3.387   1.108  0.00  0.00     0.019 C 
ENDBRANCH   1   7
TORSDOF 1
ENDMDL
