MODEL 1
REMARK minimizedAffinity -4.28249121
REMARK minimizedRMSD -1
REMARK  1 active torsions:
REMARK  status: ('A' for Active; 'I' for Inactive)
REMARK    1  A    between atoms: C1_2  and  C2_3 
ROOT
ATOM      1  C2  UNL d   1       0.702   0.351   0.671  0.00  0.00    -0.077 A 
ATOM      2  C3  UNL d   1       1.887   1.060   0.914  0.00  0.00     0.002 A 
ATOM      3  C4  UNL d   1       1.862   2.447   1.065  0.00  0.00     0.002 A 
ATOM      4  C5  UNL d   1       0.654   3.138   0.978  0.00  0.00    -0.004 A 
ATOM      5  C6  UNL d   1      -0.529   2.442   0.734  0.00  0.00     0.002 A 
ATOM      6  C7  UNL d   1      -0.506   1.055   0.582  0.00  0.00     0.002 A 
ENDROOT
BRANCH   1   7
ATOM      7  C1  UNL d   1       0.720  -1.151   0.557  0.00  0.00     0.055 C 
ATOM      8  C   UNL d   1      -0.417  -1.653  -0.320  0.00  0.00     0.019 C 
ENDBRANCH   1   7
TORSDOF 1
ENDMDL
