MODEL 1
REMARK minimizedAffinity -2.79372096
REMARK minimizedRMSD -1
REMARK  1 active torsions:
REMARK  status: ('A' for Active; 'I' for Inactive)
REMARK    1  A    between atoms: C1_2  and  C2_3 
ROOT
ATOM      1  C2  UNL d   1       0.055   0.347   0.370  0.00  0.00    -0.077 A 
ATOM      2  C3  UNL d   1      -1.168   0.864  -0.080  0.00  0.00     0.002 A 
ATOM      3  C4  UNL d   1      -1.438   2.230   0.022  0.00  0.00     0.002 A 
ATOM      4  C5  UNL d   1      -0.489   3.090   0.570  0.00  0.00    -0.004 A 
ATOM      5  C6  UNL d   1       0.729   2.585   1.023  0.00  0.00     0.002 A 
ATOM      6  C7  UNL d   1       1.000   1.220   0.922  0.00  0.00     0.002 A 
ENDROOT
BRANCH   1   7
ATOM      7  C1  UNL d   1       0.367  -1.119   0.216  0.00  0.00     0.055 C 
ATOM      8  C   UNL d   1      -0.430  -1.738  -0.923  0.00  0.00     0.019 C 
ENDBRANCH   1   7
TORSDOF 1
ENDMDL
