MODEL 1
REMARK minimizedAffinity -0.130387083
REMARK minimizedRMSD -1
REMARK  1 active torsions:
REMARK  status: ('A' for Active; 'I' for Inactive)
REMARK    1  A    between atoms: C1_2  and  C2_3 
ROOT
ATOM      1  C2  UNL d   1      -0.301  -0.331   0.042  0.00  0.00    -0.077 A 
ATOM      2  C3  UNL d   1      -1.588   0.162  -0.213  0.00  0.00     0.002 A 
ATOM      3  C4  UNL d   1      -1.894   1.501   0.038  0.00  0.00     0.002 A 
ATOM      4  C5  UNL d   1      -0.918   2.359   0.540  0.00  0.00    -0.004 A 
ATOM      5  C6  UNL d   1       0.365   1.877   0.799  0.00  0.00     0.002 A 
ATOM      6  C7  UNL d   1       0.672   0.539   0.550  0.00  0.00     0.002 A 
ENDROOT
BRANCH   1   7
ATOM      7  C1  UNL d   1       0.045  -1.762  -0.274  0.00  0.00     0.055 C 
ATOM      8  C   UNL d   1      -0.477  -2.168  -1.645  0.00  0.00     0.019 C 
ENDBRANCH   1   7
TORSDOF 1
ENDMDL
