MODEL 1
REMARK minimizedAffinity 10.7663383
REMARK minimizedRMSD -1
REMARK  0 active torsions:
REMARK  status: ('A' for Active; 'I' for Inactive)
ROOT
ATOM      1  C   UNL d   1       4.361   3.469  -3.415  0.00  0.00     0.124 A 
ATOM      2  C1  UNL d   1       3.025   3.270  -3.097  0.00  0.00     0.062 A 
ATOM      3  C2  UNL d   1       2.033   3.991  -3.756  0.00  0.00     0.162 A 
ATOM      4  C3  UNL d   1       2.375   4.919  -4.741  0.00  0.00    -0.034 A 
ATOM      5  C4  UNL d   1       3.721   5.114  -5.054  0.00  0.00     0.162 A 
ATOM      6  C5  UNL d   1       4.708   4.390  -4.393  0.00  0.00     0.062 A 
ATOM      7  F   UNL d   1       5.998   4.584  -4.701  0.00  0.00    -0.097 F 
ATOM      8  F1  UNL d   1       4.084   5.997  -5.996  0.00  0.00    -0.096 F 
ATOM      9  I   UNL d   1       0.896   6.000  -5.728  0.00  0.00    -0.060 I 
ATOM     10  F2  UNL d   1       0.750   3.779  -3.428  0.00  0.00    -0.096 F 
ATOM     11  F3  UNL d   1       2.687   2.381  -2.152  0.00  0.00    -0.097 F 
ATOM     12  F4  UNL d   1       5.313   2.774  -2.779  0.00  0.00    -0.092 F 
ENDROOT
TORSDOF 0
ENDMDL
