MODEL 1
REMARK minimizedAffinity 15.2605019
REMARK minimizedRMSD -1
REMARK  0 active torsions:
REMARK  status: ('A' for Active; 'I' for Inactive)
ROOT
ATOM      1  C   UNL d   1       2.433   3.370  -3.237  0.00  0.00     0.124 A 
ATOM      2  C1  UNL d   1       1.943   4.328  -4.113  0.00  0.00     0.062 A 
ATOM      3  C2  UNL d   1       2.819   5.081  -4.889  0.00  0.00     0.162 A 
ATOM      4  C3  UNL d   1       4.196   4.876  -4.794  0.00  0.00    -0.034 A 
ATOM      5  C4  UNL d   1       4.682   3.911  -3.911  0.00  0.00     0.162 A 
ATOM      6  C5  UNL d   1       3.801   3.162  -3.136  0.00  0.00     0.062 A 
ATOM      7  F   UNL d   1       4.277   2.236  -2.291  0.00  0.00    -0.097 F 
ATOM      8  F1  UNL d   1       5.999   3.689  -3.794  0.00  0.00    -0.096 F 
ATOM      9  I   UNL d   1       5.510   5.999  -5.954  0.00  0.00    -0.060 I 
ATOM     10  F2  UNL d   1       2.318   6.000  -5.727  0.00  0.00    -0.096 F 
ATOM     11  F3  UNL d   1       0.621   4.532  -4.211  0.00  0.00    -0.097 F 
ATOM     12  F4  UNL d   1       1.587   2.648  -2.490  0.00  0.00    -0.092 F 
ENDROOT
TORSDOF 0
ENDMDL
