MODEL 1
REMARK minimizedAffinity 5.73952055
REMARK minimizedRMSD -1
REMARK  0 active torsions:
REMARK  status: ('A' for Active; 'I' for Inactive)
ROOT
ATOM      1  C   UNL d   1       2.167  -2.576  -4.502  0.00  0.00     0.124 A 
ATOM      2  C1  UNL d   1       1.283  -3.587  -4.152  0.00  0.00     0.062 A 
ATOM      3  C2  UNL d   1      -0.090  -3.366  -4.209  0.00  0.00     0.162 A 
ATOM      4  C3  UNL d   1      -0.588  -2.129  -4.619  0.00  0.00    -0.034 A 
ATOM      5  C4  UNL d   1       0.308  -1.117  -4.969  0.00  0.00     0.162 A 
ATOM      6  C5  UNL d   1       1.680  -1.343  -4.910  0.00  0.00     0.062 A 
ATOM      7  F   UNL d   1       2.533  -0.365  -5.249  0.00  0.00    -0.097 F 
ATOM      8  F1  UNL d   1      -0.136   0.084  -5.367  0.00  0.00    -0.096 F 
ATOM      9  I   UNL d   1      -2.640  -1.794  -4.705  0.00  0.00    -0.060 I 
ATOM     10  F2  UNL d   1      -0.922  -4.360  -3.865  0.00  0.00    -0.096 F 
ATOM     11  F3  UNL d   1       1.751  -4.779  -3.757  0.00  0.00    -0.097 F 
ATOM     12  F4  UNL d   1       3.488  -2.791  -4.446  0.00  0.00    -0.092 F 
ENDROOT
TORSDOF 0
ENDMDL
