MODEL 1
REMARK minimizedAffinity 3.87000775
REMARK minimizedRMSD -1
REMARK  0 active torsions:
REMARK  status: ('A' for Active; 'I' for Inactive)
ROOT
ATOM      1  C   UNL d   1      -3.946   5.976  -2.468  0.00  0.00     0.124 A 
ATOM      2  C1  UNL d   1      -4.090   5.986  -3.848  0.00  0.00     0.062 A 
ATOM      3  C2  UNL d   1      -2.966   5.988  -4.669  0.00  0.00     0.162 A 
ATOM      4  C3  UNL d   1      -1.687   5.978  -4.112  0.00  0.00    -0.034 A 
ATOM      5  C4  UNL d   1      -1.550   5.969  -2.722  0.00  0.00     0.162 A 
ATOM      6  C5  UNL d   1      -2.677   5.967  -1.906  0.00  0.00     0.062 A 
ATOM      7  F   UNL d   1      -2.536   5.957  -0.573  0.00  0.00    -0.097 F 
ATOM      8  F1  UNL d   1      -0.336   5.959  -2.153  0.00  0.00    -0.096 F 
ATOM      9  I   UNL d   1      -0.004   5.981  -5.336  0.00  0.00    -0.060 I 
ATOM     10  F2  UNL d   1      -3.134   5.998  -6.000  0.00  0.00    -0.096 F 
ATOM     11  F3  UNL d   1      -5.315   5.995  -4.393  0.00  0.00    -0.097 F 
ATOM     12  F4  UNL d   1      -5.029   5.975  -1.680  0.00  0.00    -0.092 F 
ENDROOT
TORSDOF 0
ENDMDL
