MODEL 1
REMARK minimizedAffinity 6.6644063
REMARK minimizedRMSD -1
REMARK  0 active torsions:
REMARK  status: ('A' for Active; 'I' for Inactive)
ROOT
ATOM      1  C   UNL d   1      -2.989  -1.483   4.352  0.00  0.00     0.124 A 
ATOM      2  C1  UNL d   1      -2.154  -2.185   3.495  0.00  0.00     0.062 A 
ATOM      3  C2  UNL d   1      -1.267  -1.503   2.666  0.00  0.00     0.162 A 
ATOM      4  C3  UNL d   1      -1.211  -0.109   2.691  0.00  0.00    -0.034 A 
ATOM      5  C4  UNL d   1      -2.056   0.590   3.555  0.00  0.00     0.162 A 
ATOM      6  C5  UNL d   1      -2.940  -0.096   4.381  0.00  0.00     0.062 A 
ATOM      7  F   UNL d   1      -3.747   0.584   5.209  0.00  0.00    -0.097 F 
ATOM      8  F1  UNL d   1      -2.028   1.930   3.605  0.00  0.00    -0.096 F 
ATOM      9  I   UNL d   1       0.112   0.915   1.454  0.00  0.00    -0.060 I 
ATOM     10  F2  UNL d   1      -0.471  -2.207   1.848  0.00  0.00    -0.096 F 
ATOM     11  F3  UNL d   1      -2.200  -3.525   3.464  0.00  0.00    -0.097 F 
ATOM     12  F4  UNL d   1      -3.842  -2.142   5.147  0.00  0.00    -0.092 F 
ENDROOT
TORSDOF 0
ENDMDL
