MODEL 1
REMARK minimizedAffinity 18.1307602
REMARK minimizedRMSD -1
REMARK  0 active torsions:
REMARK  status: ('A' for Active; 'I' for Inactive)
ROOT
ATOM      1  C   UNL d   1       2.913   2.007   0.445  0.00  0.00     0.124 A 
ATOM      2  C1  UNL d   1       1.641   2.034  -0.109  0.00  0.00     0.062 A 
ATOM      3  C2  UNL d   1       0.575   1.436   0.557  0.00  0.00     0.162 A 
ATOM      4  C3  UNL d   1       0.776   0.807   1.786  0.00  0.00    -0.034 A 
ATOM      5  C4  UNL d   1       2.059   0.783   2.336  0.00  0.00     0.162 A 
ATOM      6  C5  UNL d   1       3.121   1.381   1.666  0.00  0.00     0.062 A 
ATOM      7  F   UNL d   1       4.350   1.354   2.202  0.00  0.00    -0.097 F 
ATOM      8  F1  UNL d   1       2.288   0.186   3.515  0.00  0.00    -0.096 F 
ATOM      9  I   UNL d   1      -0.815  -0.088   2.785  0.00  0.00    -0.060 I 
ATOM     10  F2  UNL d   1      -0.644   1.478  -0.001  0.00  0.00    -0.096 F 
ATOM     11  F3  UNL d   1       1.437   2.637  -1.289  0.00  0.00    -0.097 F 
ATOM     12  F4  UNL d   1       3.937   2.582  -0.199  0.00  0.00    -0.092 F 
ENDROOT
TORSDOF 0
ENDMDL
