MODEL 1
REMARK minimizedAffinity 18.4752121
REMARK minimizedRMSD -1
REMARK  0 active torsions:
REMARK  status: ('A' for Active; 'I' for Inactive)
ROOT
ATOM      1  C   UNL d   1       0.982   0.514   0.469  0.00  0.00     0.124 A 
ATOM      2  C1  UNL d   1       1.017  -0.742  -0.120  0.00  0.00     0.062 A 
ATOM      3  C2  UNL d   1       1.281  -0.870  -1.480  0.00  0.00     0.162 A 
ATOM      4  C3  UNL d   1       1.513   0.262  -2.262  0.00  0.00    -0.034 A 
ATOM      5  C4  UNL d   1       1.475   1.522  -1.662  0.00  0.00     0.162 A 
ATOM      6  C5  UNL d   1       1.211   1.645  -0.302  0.00  0.00     0.062 A 
ATOM      7  F   UNL d   1       1.177   2.859   0.265  0.00  0.00    -0.097 F 
ATOM      8  F1  UNL d   1       1.693   2.631  -2.384  0.00  0.00    -0.096 F 
ATOM      9  I   UNL d   1       1.908   0.075  -4.296  0.00  0.00    -0.060 I 
ATOM     10  F2  UNL d   1       1.309  -2.096  -2.023  0.00  0.00    -0.096 F 
ATOM     11  F3  UNL d   1       0.795  -1.836   0.623  0.00  0.00    -0.097 F 
ATOM     12  F4  UNL d   1       0.727   0.635   1.779  0.00  0.00    -0.092 F 
ENDROOT
TORSDOF 0
ENDMDL
