MODEL 1
REMARK minimizedAffinity 16.9012203
REMARK minimizedRMSD -1
REMARK  0 active torsions:
REMARK  status: ('A' for Active; 'I' for Inactive)
ROOT
ATOM      1  C   UNL d   1       0.559   0.803   0.812  0.00  0.00     0.124 A 
ATOM      2  C1  UNL d   1       0.878   1.796  -0.104  0.00  0.00     0.062 A 
ATOM      3  C2  UNL d   1       1.478   1.465  -1.315  0.00  0.00     0.162 A 
ATOM      4  C3  UNL d   1       1.762   0.134  -1.619  0.00  0.00    -0.034 A 
ATOM      5  C4  UNL d   1       1.440  -0.859  -0.692  0.00  0.00     0.162 A 
ATOM      6  C5  UNL d   1       0.840  -0.523   0.517  0.00  0.00     0.062 A 
ATOM      7  F   UNL d   1       0.533  -1.484   1.401  0.00  0.00    -0.097 F 
ATOM      8  F1  UNL d   1       1.700  -2.149  -0.952  0.00  0.00    -0.096 F 
ATOM      9  I   UNL d   1       2.659  -0.366  -3.429  0.00  0.00    -0.060 I 
ATOM     10  F2  UNL d   1       1.774   2.445  -2.181  0.00  0.00    -0.096 F 
ATOM     11  F3  UNL d   1       0.608   3.079   0.179  0.00  0.00    -0.097 F 
ATOM     12  F4  UNL d   1      -0.017   1.125   1.977  0.00  0.00    -0.092 F 
ENDROOT
TORSDOF 0
ENDMDL
