MODEL 1
REMARK minimizedAffinity 3.14736748
REMARK minimizedRMSD -1
REMARK  0 active torsions:
REMARK  status: ('A' for Active; 'I' for Inactive)
ROOT
ATOM      1  C   UNL d   1       2.369   3.648  -3.244  0.00  0.00     0.124 A 
ATOM      2  C1  UNL d   1       3.722   3.463  -2.995  0.00  0.00     0.062 A 
ATOM      3  C2  UNL d   1       4.672   4.134  -3.760  0.00  0.00     0.162 A 
ATOM      4  C3  UNL d   1       4.273   4.996  -4.781  0.00  0.00    -0.034 A 
ATOM      5  C4  UNL d   1       2.911   5.176  -5.026  0.00  0.00     0.162 A 
ATOM      6  C5  UNL d   1       1.965   4.504  -4.259  0.00  0.00     0.062 A 
ATOM      7  F   UNL d   1       0.658   4.684  -4.501  0.00  0.00    -0.097 F 
ATOM      8  F1  UNL d   1       2.493   5.998  -6.000  0.00  0.00    -0.096 F 
ATOM      9  I   UNL d   1       5.692   6.000  -5.926  0.00  0.00    -0.060 I 
ATOM     10  F2  UNL d   1       5.973   3.936  -3.497  0.00  0.00    -0.096 F 
ATOM     11  F3  UNL d   1       4.115   2.636  -2.016  0.00  0.00    -0.097 F 
ATOM     12  F4  UNL d   1       1.456   3.002  -2.508  0.00  0.00    -0.092 F 
ENDROOT
TORSDOF 0
ENDMDL
