MODEL 1
REMARK minimizedAffinity 13.0955114
REMARK minimizedRMSD -1
REMARK  0 active torsions:
REMARK  status: ('A' for Active; 'I' for Inactive)
ROOT
ATOM      1  C   UNL d   1       0.453   0.977   1.369  0.00  0.00     0.124 A 
ATOM      2  C1  UNL d   1       0.915   0.166   0.341  0.00  0.00     0.062 A 
ATOM      3  C2  UNL d   1       1.458   0.734  -0.808  0.00  0.00     0.162 A 
ATOM      4  C3  UNL d   1       1.543   2.120  -0.935  0.00  0.00    -0.034 A 
ATOM      5  C4  UNL d   1       1.076   2.929   0.102  0.00  0.00     0.162 A 
ATOM      6  C5  UNL d   1       0.535   2.357   1.249  0.00  0.00     0.062 A 
ATOM      7  F   UNL d   1       0.089   3.142   2.241  0.00  0.00    -0.097 F 
ATOM      8  F1  UNL d   1       1.144   4.266   0.013  0.00  0.00    -0.096 F 
ATOM      9  I   UNL d   1       2.355   2.973  -2.652  0.00  0.00    -0.060 I 
ATOM     10  F2  UNL d   1       1.896  -0.074  -1.785  0.00  0.00    -0.096 F 
ATOM     11  F3  UNL d   1       0.836  -1.167   0.455  0.00  0.00    -0.097 F 
ATOM     12  F4  UNL d   1      -0.070   0.428   2.473  0.00  0.00    -0.092 F 
ENDROOT
TORSDOF 0
ENDMDL
