MODEL 1
REMARK minimizedAffinity 19.5854397
REMARK minimizedRMSD -1
REMARK  0 active torsions:
REMARK  status: ('A' for Active; 'I' for Inactive)
ROOT
ATOM      1  C   UNL d   1       1.277   0.174  -2.584  0.00  0.00     0.124 A 
ATOM      2  C1  UNL d   1       1.013   1.441  -2.083  0.00  0.00     0.062 A 
ATOM      3  C2  UNL d   1       0.596   1.599  -0.765  0.00  0.00     0.162 A 
ATOM      4  C3  UNL d   1       0.441   0.487   0.063  0.00  0.00    -0.034 A 
ATOM      5  C4  UNL d   1       0.707  -0.784  -0.448  0.00  0.00     0.162 A 
ATOM      6  C5  UNL d   1       1.124  -0.937  -1.766  0.00  0.00     0.062 A 
ATOM      7  F   UNL d   1       1.378  -2.162  -2.249  0.00  0.00    -0.097 F 
ATOM      8  F1  UNL d   1       0.569  -1.875   0.320  0.00  0.00    -0.096 F 
ATOM      9  I   UNL d   1      -0.182   0.720   2.035  0.00  0.00    -0.060 I 
ATOM     10  F2  UNL d   1       0.348   2.836  -0.307  0.00  0.00    -0.096 F 
ATOM     11  F3  UNL d   1       1.159   2.516  -2.871  0.00  0.00    -0.097 F 
ATOM     12  F4  UNL d   1       1.677   0.024  -3.853  0.00  0.00    -0.092 F 
ENDROOT
TORSDOF 0
ENDMDL
