MODEL 1
REMARK minimizedAffinity 16.5606403
REMARK minimizedRMSD -1
REMARK  0 active torsions:
REMARK  status: ('A' for Active; 'I' for Inactive)
ROOT
ATOM      1  C   UNL d   1       1.591   2.389   0.073  0.00  0.00     0.124 A 
ATOM      2  C1  UNL d   1       1.237   1.492  -0.925  0.00  0.00     0.062 A 
ATOM      3  C2  UNL d   1       0.662   0.269  -0.596  0.00  0.00     0.162 A 
ATOM      4  C3  UNL d   1       0.436  -0.066   0.740  0.00  0.00    -0.034 A 
ATOM      5  C4  UNL d   1       0.796   0.840   1.739  0.00  0.00     0.162 A 
ATOM      6  C5  UNL d   1       1.371   2.062   1.404  0.00  0.00     0.062 A 
ATOM      7  F   UNL d   1       1.713   2.927   2.370  0.00  0.00    -0.097 F 
ATOM      8  F1  UNL d   1       0.594   0.550   3.032  0.00  0.00    -0.096 F 
ATOM      9  I   UNL d   1      -0.423  -1.895   1.237  0.00  0.00    -0.060 I 
ATOM     10  F2  UNL d   1       0.329  -0.578  -1.581  0.00  0.00    -0.096 F 
ATOM     11  F3  UNL d   1       1.449   1.806  -2.212  0.00  0.00    -0.097 F 
ATOM     12  F4  UNL d   1       2.145   3.565  -0.247  0.00  0.00    -0.092 F 
ENDROOT
TORSDOF 0
ENDMDL
