MODEL 1
REMARK minimizedAffinity 4.32690144
REMARK minimizedRMSD -1
REMARK  0 active torsions:
REMARK  status: ('A' for Active; 'I' for Inactive)
ROOT
ATOM      1  C   UNL d   1      -2.121   5.062  -1.321  0.00  0.00     0.124 A 
ATOM      2  C1  UNL d   1      -0.864   4.597  -1.680  0.00  0.00     0.062 A 
ATOM      3  C2  UNL d   1      -0.471   4.601  -3.016  0.00  0.00     0.162 A 
ATOM      4  C3  UNL d   1      -1.337   5.074  -4.002  0.00  0.00    -0.034 A 
ATOM      5  C4  UNL d   1      -2.600   5.539  -3.633  0.00  0.00     0.162 A 
ATOM      6  C5  UNL d   1      -2.988   5.532  -2.297  0.00  0.00     0.062 A 
ATOM      7  F   UNL d   1      -4.203   5.982  -1.951  0.00  0.00    -0.097 F 
ATOM      8  F1  UNL d   1      -3.458   6.000  -4.556  0.00  0.00    -0.096 F 
ATOM      9  I   UNL d   1      -0.754   5.082  -6.000  0.00  0.00    -0.060 I 
ATOM     10  F2  UNL d   1       0.750   4.146  -3.334  0.00  0.00    -0.096 F 
ATOM     11  F3  UNL d   1      -0.025   4.141  -0.739  0.00  0.00    -0.097 F 
ATOM     12  F4  UNL d   1      -2.496   5.056  -0.035  0.00  0.00    -0.092 F 
ENDROOT
TORSDOF 0
ENDMDL
