MODEL 1
REMARK minimizedAffinity 10.6362543
REMARK minimizedRMSD -1
REMARK  0 active torsions:
REMARK  status: ('A' for Active; 'I' for Inactive)
ROOT
ATOM      1  C   UNL d   1       3.152   2.449   0.344  0.00  0.00     0.124 A 
ATOM      2  C1  UNL d   1       2.032   2.503  -0.474  0.00  0.00     0.062 A 
ATOM      3  C2  UNL d   1       0.910   1.735  -0.176  0.00  0.00     0.162 A 
ATOM      4  C3  UNL d   1       0.902   0.907   0.946  0.00  0.00    -0.034 A 
ATOM      5  C4  UNL d   1       2.032   0.858   1.764  0.00  0.00     0.162 A 
ATOM      6  C5  UNL d   1       3.151   1.627   1.462  0.00  0.00     0.062 A 
ATOM      7  F   UNL d   1       4.232   1.574   2.253  0.00  0.00    -0.097 F 
ATOM      8  F1  UNL d   1       2.058   0.072   2.851  0.00  0.00    -0.096 F 
ATOM      9  I   UNL d   1      -0.774  -0.243   1.395  0.00  0.00    -0.060 I 
ATOM     10  F2  UNL d   1      -0.158   1.806  -0.985  0.00  0.00    -0.096 F 
ATOM     11  F3  UNL d   1       2.030   3.296  -1.556  0.00  0.00    -0.097 F 
ATOM     12  F4  UNL d   1       4.230   3.189   0.054  0.00  0.00    -0.092 F 
ENDROOT
TORSDOF 0
ENDMDL
