MODEL 1
REMARK minimizedAffinity 12.9747448
REMARK minimizedRMSD -1
REMARK  0 active torsions:
REMARK  status: ('A' for Active; 'I' for Inactive)
ROOT
ATOM      1  C   UNL d   1       1.057   2.552   0.011  0.00  0.00     0.124 A 
ATOM      2  C1  UNL d   1       0.822   2.227   1.339  0.00  0.00     0.062 A 
ATOM      3  C2  UNL d   1       0.302   0.980   1.674  0.00  0.00     0.162 A 
ATOM      4  C3  UNL d   1       0.014   0.047   0.677  0.00  0.00    -0.034 A 
ATOM      5  C4  UNL d   1       0.252   0.382  -0.657  0.00  0.00     0.162 A 
ATOM      6  C5  UNL d   1       0.772   1.630  -0.986  0.00  0.00     0.062 A 
ATOM      7  F   UNL d   1       0.998   1.942  -2.271  0.00  0.00    -0.097 F 
ATOM      8  F1  UNL d   1      -0.014  -0.491  -1.641  0.00  0.00    -0.096 F 
ATOM      9  I   UNL d   1      -0.763  -1.818   1.172  0.00  0.00    -0.060 I 
ATOM     10  F2  UNL d   1       0.086   0.693   2.966  0.00  0.00    -0.096 F 
ATOM     11  F3  UNL d   1       1.096   3.117   2.304  0.00  0.00    -0.097 F 
ATOM     12  F4  UNL d   1       1.557   3.753  -0.308  0.00  0.00    -0.092 F 
ENDROOT
TORSDOF 0
ENDMDL
