MODEL 1
REMARK minimizedAffinity -2.33049297
REMARK minimizedRMSD -1
REMARK  1 active torsions:
REMARK  status: ('A' for Active; 'I' for Inactive)
REMARK    1  A    between atoms: C1_2  and  C2_3 
ROOT
ATOM      1  C2  UNL d   1       0.048   4.876  -5.941  0.00  0.00    -0.081 A 
ATOM      2  C3  UNL d   1      -0.334   3.530  -5.894  0.00  0.00     0.006 A 
ATOM      3  C4  UNL d   1      -1.686   3.176  -5.900  0.00  0.00     0.002 A 
ATOM      4  C5  UNL d   1      -2.677   4.162  -5.962  0.00  0.00    -0.080 A 
ATOM      5  C6  UNL d   1      -4.130   3.795  -6.000  0.00  0.00     0.076 C 
ATOM      6  C7  UNL d   1      -2.295   5.508  -5.991  0.00  0.00     0.002 A 
ATOM      7  C8  UNL d   1      -0.944   5.861  -5.984  0.00  0.00     0.006 A 
ENDROOT
BRANCH   1   8
ATOM      8  C1  UNL d   1       1.505   5.257  -6.000  0.00  0.00     0.054 C 
ATOM      9  C   UNL d   1       2.400   4.026  -5.988  0.00  0.00     0.018 C 
ENDBRANCH   1   8
TORSDOF 1
ENDMDL
