MODEL 1
REMARK minimizedAffinity -1.76764858
REMARK minimizedRMSD -1
REMARK  1 active torsions:
REMARK  status: ('A' for Active; 'I' for Inactive)
REMARK    1  A    between atoms: C1_2  and  C2_3 
ROOT
ATOM      1  C2  UNL d   1       3.619   4.354  -5.994  0.00  0.00    -0.081 A 
ATOM      2  C3  UNL d   1       2.761   5.461  -5.999  0.00  0.00     0.006 A 
ATOM      3  C4  UNL d   1       1.376   5.284  -5.999  0.00  0.00     0.002 A 
ATOM      4  C5  UNL d   1       0.825   3.998  -5.987  0.00  0.00    -0.080 A 
ATOM      5  C6  UNL d   1      -0.661   3.794  -5.957  0.00  0.00     0.076 C 
ATOM      6  C7  UNL d   1       1.681   2.892  -6.000  0.00  0.00     0.002 A 
ATOM      7  C8  UNL d   1       3.067   3.068  -6.000  0.00  0.00     0.006 A 
ENDROOT
BRANCH   1   8
ATOM      8  C1  UNL d   1       5.113   4.542  -5.928  0.00  0.00     0.054 C 
ATOM      9  C   UNL d   1       5.490   5.630  -4.932  0.00  0.00     0.018 C 
ENDBRANCH   1   8
TORSDOF 1
ENDMDL
