MODEL 1
REMARK minimizedAffinity -0.943933368
REMARK minimizedRMSD -1
REMARK  1 active torsions:
REMARK  status: ('A' for Active; 'I' for Inactive)
REMARK    1  A    between atoms: C1_2  and  C2_3 
ROOT
ATOM      1  C2  UNL d   1       2.153   5.126  -6.000  0.00  0.00    -0.081 A 
ATOM      2  C3  UNL d   1       0.947   5.836  -5.982  0.00  0.00     0.006 A 
ATOM      3  C4  UNL d   1      -0.274   5.158  -5.953  0.00  0.00     0.002 A 
ATOM      4  C5  UNL d   1      -0.309   3.760  -5.934  0.00  0.00    -0.080 A 
ATOM      5  C6  UNL d   1      -1.612   3.020  -5.873  0.00  0.00     0.076 C 
ATOM      6  C7  UNL d   1       0.896   3.050  -5.970  0.00  0.00     0.002 A 
ATOM      7  C8  UNL d   1       2.117   3.727  -5.999  0.00  0.00     0.006 A 
ENDROOT
BRANCH   1   8
ATOM      8  C1  UNL d   1       3.473   5.854  -5.965  0.00  0.00     0.054 C 
ATOM      9  C   UNL d   1       4.642   4.880  -5.940  0.00  0.00     0.018 C 
ENDBRANCH   1   8
TORSDOF 1
ENDMDL
