MODEL 1
REMARK minimizedAffinity 1.43006647
REMARK minimizedRMSD -1
REMARK  1 active torsions:
REMARK  status: ('A' for Active; 'I' for Inactive)
REMARK    1  A    between atoms: C1_2  and  C2_3 
ROOT
ATOM      1  C2  UNL d   1       0.657   3.599  -5.998  0.00  0.00    -0.081 A 
ATOM      2  C3  UNL d   1       0.099   4.883  -6.000  0.00  0.00     0.006 A 
ATOM      3  C4  UNL d   1      -1.287   5.053  -5.954  0.00  0.00     0.002 A 
ATOM      4  C5  UNL d   1      -2.137   3.943  -5.898  0.00  0.00    -0.080 A 
ATOM      5  C6  UNL d   1      -3.625   4.113  -5.818  0.00  0.00     0.076 C 
ATOM      6  C7  UNL d   1      -1.580   2.660  -5.914  0.00  0.00     0.002 A 
ATOM      7  C8  UNL d   1      -0.195   2.489  -5.960  0.00  0.00     0.006 A 
ENDROOT
BRANCH   1   8
ATOM      8  C1  UNL d   1       2.153   3.414  -5.981  0.00  0.00     0.054 C 
ATOM      9  C   UNL d   1       2.877   4.752  -5.999  0.00  0.00     0.018 C 
ENDBRANCH   1   8
TORSDOF 1
ENDMDL
