MODEL 1
REMARK minimizedAffinity 2.6984756
REMARK minimizedRMSD -1
REMARK  1 active torsions:
REMARK  status: ('A' for Active; 'I' for Inactive)
REMARK    1  A    between atoms: C1_2  and  C2_3 
ROOT
ATOM      1  C2  UNL d   1      -0.555   3.955  -5.752  0.00  0.00    -0.081 A 
ATOM      2  C3  UNL d   1      -0.670   5.328  -6.000  0.00  0.00     0.006 A 
ATOM      3  C4  UNL d   1      -1.905   5.969  -5.879  0.00  0.00     0.002 A 
ATOM      4  C5  UNL d   1      -3.044   5.249  -5.501  0.00  0.00    -0.080 A 
ATOM      5  C6  UNL d   1      -4.370   5.931  -5.338  0.00  0.00     0.076 C 
ATOM      6  C7  UNL d   1      -2.933   3.874  -5.270  0.00  0.00     0.002 A 
ATOM      7  C8  UNL d   1      -1.698   3.233  -5.391  0.00  0.00     0.006 A 
ENDROOT
BRANCH   1   8
ATOM      8  C1  UNL d   1       0.788   3.273  -5.818  0.00  0.00     0.054 C 
ATOM      9  C   UNL d   1       1.916   4.285  -5.963  0.00  0.00     0.018 C 
ENDBRANCH   1   8
TORSDOF 1
ENDMDL
