MODEL 1
REMARK minimizedAffinity 4.46050549
REMARK minimizedRMSD -1
REMARK  1 active torsions:
REMARK  status: ('A' for Active; 'I' for Inactive)
REMARK    1  A    between atoms: C1_2  and  C2_3 
ROOT
ATOM      1  C2  UNL d   1      -3.983  -5.128  -0.991  0.00  0.00    -0.081 A 
ATOM      2  C3  UNL d   1      -4.801  -5.260  -2.120  0.00  0.00     0.006 A 
ATOM      3  C4  UNL d   1      -4.243  -5.529  -3.372  0.00  0.00     0.002 A 
ATOM      4  C5  UNL d   1      -2.859  -5.679  -3.514  0.00  0.00    -0.080 A 
ATOM      5  C6  UNL d   1      -2.249  -5.998  -4.847  0.00  0.00     0.076 C 
ATOM      6  C7  UNL d   1      -2.040  -5.530  -2.390  0.00  0.00     0.002 A 
ATOM      7  C8  UNL d   1      -2.598  -5.260  -1.138  0.00  0.00     0.006 A 
ENDROOT
BRANCH   1   8
ATOM      8  C1  UNL d   1      -4.587  -4.902   0.371  0.00  0.00     0.054 C 
ATOM      9  C   UNL d   1      -5.589  -5.994   0.720  0.00  0.00     0.018 C 
ENDBRANCH   1   8
TORSDOF 1
ENDMDL
