MODEL 1
REMARK minimizedAffinity 12.1674728
REMARK minimizedRMSD -1
REMARK  1 active torsions:
REMARK  status: ('A' for Active; 'I' for Inactive)
REMARK    1  A    between atoms: C1_2  and  C2_3 
ROOT
ATOM      1  C2  UNL d   1       1.669  -4.625  -3.146  0.00  0.00    -0.081 A 
ATOM      2  C3  UNL d   1       2.321  -3.559  -3.777  0.00  0.00     0.006 A 
ATOM      3  C4  UNL d   1       2.401  -2.310  -3.155  0.00  0.00     0.002 A 
ATOM      4  C5  UNL d   1       1.836  -2.109  -1.891  0.00  0.00    -0.080 A 
ATOM      5  C6  UNL d   1       1.941  -0.782  -1.200  0.00  0.00     0.076 C 
ATOM      6  C7  UNL d   1       1.169  -3.170  -1.269  0.00  0.00     0.002 A 
ATOM      7  C8  UNL d   1       1.089  -4.418  -1.890  0.00  0.00     0.006 A 
ENDROOT
BRANCH   1   8
ATOM      8  C1  UNL d   1       1.637  -5.990  -3.785  0.00  0.00     0.054 C 
ATOM      9  C   UNL d   1       2.390  -5.999  -5.108  0.00  0.00     0.018 C 
ENDBRANCH   1   8
TORSDOF 1
ENDMDL
