MODEL 1
REMARK minimizedAffinity 9.87781715
REMARK minimizedRMSD -1
REMARK  1 active torsions:
REMARK  status: ('A' for Active; 'I' for Inactive)
REMARK    1  A    between atoms: C1_2  and  C2_3 
ROOT
ATOM      1  C2  UNL d   1       3.836   4.445  -0.349  0.00  0.00    -0.081 A 
ATOM      2  C3  UNL d   1       2.447   4.277  -0.300  0.00  0.00     0.006 A 
ATOM      3  C4  UNL d   1       1.833   3.244  -1.013  0.00  0.00     0.002 A 
ATOM      4  C5  UNL d   1       2.598   2.358  -1.779  0.00  0.00    -0.080 A 
ATOM      5  C6  UNL d   1       1.954   1.227  -2.525  0.00  0.00     0.076 C 
ATOM      6  C7  UNL d   1       3.984   2.536  -1.841  0.00  0.00     0.002 A 
ATOM      7  C8  UNL d   1       4.598   3.569  -1.130  0.00  0.00     0.006 A 
ENDROOT
BRANCH   1   8
ATOM      8  C1  UNL d   1       4.507   5.517   0.470  0.00  0.00     0.054 C 
ATOM      9  C   UNL d   1       5.082   4.950   1.760  0.00  0.00     0.018 C 
ENDBRANCH   1   8
TORSDOF 1
ENDMDL
