MODEL 1
REMARK minimizedAffinity 4.76395178
REMARK minimizedRMSD -1
REMARK  1 active torsions:
REMARK  status: ('A' for Active; 'I' for Inactive)
REMARK    1  A    between atoms: C1_2  and  C2_3 
ROOT
ATOM      1  C2  UNL d   1      -3.236  -1.419   2.938  0.00  0.00    -0.081 A 
ATOM      2  C3  UNL d   1      -2.177  -2.316   2.756  0.00  0.00     0.006 A 
ATOM      3  C4  UNL d   1      -1.090  -1.973   1.948  0.00  0.00     0.002 A 
ATOM      4  C5  UNL d   1      -1.040  -0.726   1.317  0.00  0.00    -0.080 A 
ATOM      5  C6  UNL d   1       0.135  -0.333   0.472  0.00  0.00     0.076 C 
ATOM      6  C7  UNL d   1      -2.107   0.164   1.485  0.00  0.00     0.002 A 
ATOM      7  C8  UNL d   1      -3.194  -0.179   2.292  0.00  0.00     0.006 A 
ENDROOT
BRANCH   1   8
ATOM      8  C1  UNL d   1      -4.379  -1.760   3.860  0.00  0.00     0.054 C 
ATOM      9  C   UNL d   1      -4.068  -1.366   5.297  0.00  0.00     0.018 C 
ENDBRANCH   1   8
TORSDOF 1
ENDMDL
