MODEL 1
REMARK minimizedAffinity 8.31467724
REMARK minimizedRMSD -1
REMARK  1 active torsions:
REMARK  status: ('A' for Active; 'I' for Inactive)
REMARK    1  A    between atoms: C1_2  and  C2_3 
ROOT
ATOM      1  C2  UNL d   1      -4.677  -1.538   3.264  0.00  0.00    -0.081 A 
ATOM      2  C3  UNL d   1      -3.491  -2.280   3.296  0.00  0.00     0.006 A 
ATOM      3  C4  UNL d   1      -2.371  -1.856   2.577  0.00  0.00     0.002 A 
ATOM      4  C5  UNL d   1      -2.416  -0.680   1.821  0.00  0.00    -0.080 A 
ATOM      5  C6  UNL d   1      -1.212  -0.198   1.068  0.00  0.00     0.076 C 
ATOM      6  C7  UNL d   1      -3.607   0.052   1.775  0.00  0.00     0.002 A 
ATOM      7  C8  UNL d   1      -4.728  -0.371   2.493  0.00  0.00     0.006 A 
ENDROOT
BRANCH   1   8
ATOM      8  C1  UNL d   1      -5.866  -1.957   4.091  0.00  0.00     0.054 C 
ATOM      9  C   UNL d   1      -5.891  -1.237   5.431  0.00  0.00     0.018 C 
ENDBRANCH   1   8
TORSDOF 1
ENDMDL
