MODEL 1
REMARK minimizedAffinity 3.36065817
REMARK minimizedRMSD -1
REMARK  1 active torsions:
REMARK  status: ('A' for Active; 'I' for Inactive)
REMARK    1  A    between atoms: C1_2  and  C2_3 
ROOT
ATOM      1  C2  UNL d   1      -0.560   1.442   0.574  0.00  0.00    -0.081 A 
ATOM      2  C3  UNL d   1      -0.125   0.241  -0.000  0.00  0.00     0.006 A 
ATOM      3  C4  UNL d   1       0.766   0.252  -1.076  0.00  0.00     0.002 A 
ATOM      4  C5  UNL d   1       1.243   1.463  -1.590  0.00  0.00    -0.080 A 
ATOM      5  C6  UNL d   1       2.223   1.488  -2.725  0.00  0.00     0.076 C 
ATOM      6  C7  UNL d   1       0.795   2.663  -1.027  0.00  0.00     0.002 A 
ATOM      7  C8  UNL d   1      -0.096   2.653   0.048  0.00  0.00     0.006 A 
ENDROOT
BRANCH   1   8
ATOM      8  C1  UNL d   1      -1.470   1.431   1.775  0.00  0.00     0.054 C 
ATOM      9  C   UNL d   1      -2.926   1.259   1.365  0.00  0.00     0.018 C 
ENDBRANCH   1   8
TORSDOF 1
ENDMDL
