MODEL 1
REMARK minimizedAffinity 7.17520142
REMARK minimizedRMSD -1
REMARK  1 active torsions:
REMARK  status: ('A' for Active; 'I' for Inactive)
REMARK    1  A    between atoms: C1_2  and  C2_3 
ROOT
ATOM      1  C2  UNL d   1       0.556  -0.991  -2.667  0.00  0.00    -0.081 A 
ATOM      2  C3  UNL d   1       1.415  -1.806  -3.415  0.00  0.00     0.006 A 
ATOM      3  C4  UNL d   1       2.707  -2.077  -2.960  0.00  0.00     0.002 A 
ATOM      4  C5  UNL d   1       3.159  -1.547  -1.747  0.00  0.00    -0.080 A 
ATOM      5  C6  UNL d   1       4.534  -1.856  -1.232  0.00  0.00     0.076 C 
ATOM      6  C7  UNL d   1       2.307  -0.719  -1.008  0.00  0.00     0.002 A 
ATOM      7  C8  UNL d   1       1.015  -0.446  -1.463  0.00  0.00     0.006 A 
ENDROOT
BRANCH   1   8
ATOM      8  C1  UNL d   1      -0.860  -0.749  -3.123  0.00  0.00     0.054 C 
ATOM      9  C   UNL d   1      -1.844  -1.628  -2.364  0.00  0.00     0.018 C 
ENDBRANCH   1   8
TORSDOF 1
ENDMDL
