MODEL 1
REMARK minimizedAffinity 7.94632673
REMARK minimizedRMSD -1
REMARK  1 active torsions:
REMARK  status: ('A' for Active; 'I' for Inactive)
REMARK    1  A    between atoms: C1_2  and  C2_3 
ROOT
ATOM      1  C2  UNL d   1       0.993   0.532   1.542  0.00  0.00    -0.073 A 
ATOM      2  C3  UNL d   1       0.797   1.279   2.709  0.00  0.00    -0.002 A 
ATOM      3  C4  UNL d   1      -0.464   1.795   3.012  0.00  0.00     0.004 A 
ATOM      4  C5  UNL d   1      -1.541   1.564   2.156  0.00  0.00    -0.004 A 
ATOM      5  C6  UNL d   1      -1.367   0.810   0.991  0.00  0.00    -0.075 A 
ATOM      6  C7  UNL d   1      -2.515   0.554   0.059  0.00  0.00     0.076 C 
ATOM      7  C8  UNL d   1      -0.098   0.298   0.693  0.00  0.00     0.001 A 
ENDROOT
BRANCH   1   8
ATOM      8  C1  UNL d   1       2.351  -0.032   1.214  0.00  0.00     0.053 C 
ATOM      9  C   UNL d   1       2.983   0.661   0.017  0.00  0.00     0.018 C 
ENDBRANCH   1   8
TORSDOF 1
ENDMDL
