MODEL 1
REMARK minimizedAffinity 15.3318224
REMARK minimizedRMSD -1
REMARK  1 active torsions:
REMARK  status: ('A' for Active; 'I' for Inactive)
REMARK    1  A    between atoms: C1_2  and  C2_3 
ROOT
ATOM      1  C2  UNL d   1       1.015   0.195   1.752  0.00  0.00    -0.073 A 
ATOM      2  C3  UNL d   1       1.087   1.220   2.703  0.00  0.00    -0.002 A 
ATOM      3  C4  UNL d   1       0.002   2.074   2.903  0.00  0.00     0.004 A 
ATOM      4  C5  UNL d   1      -1.168   1.908   2.161  0.00  0.00    -0.004 A 
ATOM      5  C6  UNL d   1      -1.264   0.882   1.215  0.00  0.00    -0.075 A 
ATOM      6  C7  UNL d   1      -2.514   0.691   0.408  0.00  0.00     0.076 C 
ATOM      7  C8  UNL d   1      -0.168   0.030   1.018  0.00  0.00     0.001 A 
ENDROOT
BRANCH   1   8
ATOM      8  C1  UNL d   1       2.182  -0.733   1.537  0.00  0.00     0.053 C 
ATOM      9  C   UNL d   1       3.033  -0.313   0.350  0.00  0.00     0.018 C 
ENDBRANCH   1   8
TORSDOF 1
ENDMDL
