MODEL 1
REMARK minimizedAffinity 4.65629148
REMARK minimizedRMSD -1
REMARK  1 active torsions:
REMARK  status: ('A' for Active; 'I' for Inactive)
REMARK    1  A    between atoms: C1_2  and  C2_3 
ROOT
ATOM      1  C2  UNL d   1      -2.530   0.309   4.001  0.00  0.00    -0.073 A 
ATOM      2  C3  UNL d   1      -3.275   1.297   3.347  0.00  0.00    -0.002 A 
ATOM      3  C4  UNL d   1      -2.771   1.921   2.205  0.00  0.00     0.004 A 
ATOM      4  C5  UNL d   1      -1.521   1.560   1.702  0.00  0.00    -0.004 A 
ATOM      5  C6  UNL d   1      -0.766   0.567   2.335  0.00  0.00    -0.075 A 
ATOM      6  C7  UNL d   1       0.582   0.169   1.808  0.00  0.00     0.076 C 
ATOM      7  C8  UNL d   1      -1.278  -0.053   3.482  0.00  0.00     0.001 A 
ENDROOT
BRANCH   1   8
ATOM      8  C1  UNL d   1      -3.073  -0.372   5.230  0.00  0.00     0.053 C 
ATOM      9  C   UNL d   1      -4.279   0.358   5.800  0.00  0.00     0.018 C 
ENDBRANCH   1   8
TORSDOF 1
ENDMDL
