MODEL 1
REMARK minimizedAffinity 3.97526979
REMARK minimizedRMSD -1
REMARK  1 active torsions:
REMARK  status: ('A' for Active; 'I' for Inactive)
REMARK    1  A    between atoms: C1_2  and  C2_3 
ROOT
ATOM      1  C2  UNL d   1       2.662   1.075  -4.204  0.00  0.00    -0.073 A 
ATOM      2  C3  UNL d   1       2.873   1.491  -5.524  0.00  0.00    -0.002 A 
ATOM      3  C4  UNL d   1       2.280   2.662  -5.998  0.00  0.00     0.004 A 
ATOM      4  C5  UNL d   1       1.475   3.431  -5.157  0.00  0.00    -0.004 A 
ATOM      5  C6  UNL d   1       1.261   3.038  -3.832  0.00  0.00    -0.075 A 
ATOM      6  C7  UNL d   1       0.397   3.854  -2.916  0.00  0.00     0.076 C 
ATOM      7  C8  UNL d   1       1.859   1.860  -3.364  0.00  0.00     0.001 A 
ENDROOT
BRANCH   1   8
ATOM      8  C1  UNL d   1       3.306  -0.185  -3.686  0.00  0.00     0.053 C 
ATOM      9  C   UNL d   1       2.538  -1.430  -4.102  0.00  0.00     0.018 C 
ENDBRANCH   1   8
TORSDOF 1
ENDMDL
