MODEL 1
REMARK minimizedAffinity 4.80307674
REMARK minimizedRMSD -1
REMARK  1 active torsions:
REMARK  status: ('A' for Active; 'I' for Inactive)
REMARK    1  A    between atoms: C1_2  and  C2_3 
ROOT
ATOM      1  C2  UNL d   1       3.034   0.400  -4.288  0.00  0.00    -0.073 A 
ATOM      2  C3  UNL d   1       3.401   0.935  -5.528  0.00  0.00    -0.002 A 
ATOM      3  C4  UNL d   1       2.999   2.222  -5.888  0.00  0.00     0.004 A 
ATOM      4  C5  UNL d   1       2.234   2.990  -5.010  0.00  0.00    -0.004 A 
ATOM      5  C6  UNL d   1       1.867   2.478  -3.761  0.00  0.00    -0.075 A 
ATOM      6  C7  UNL d   1       1.042   3.290  -2.807  0.00  0.00     0.076 C 
ATOM      7  C8  UNL d   1       2.272   1.183  -3.409  0.00  0.00     0.001 A 
ENDROOT
BRANCH   1   8
ATOM      8  C1  UNL d   1       3.470  -0.987  -3.893  0.00  0.00     0.053 C 
ATOM      9  C   UNL d   1       2.690  -2.062  -4.632  0.00  0.00     0.018 C 
ENDBRANCH   1   8
TORSDOF 1
ENDMDL
