MODEL 1
REMARK minimizedAffinity 3.51715612
REMARK minimizedRMSD -1
REMARK  1 active torsions:
REMARK  status: ('A' for Active; 'I' for Inactive)
REMARK    1  A    between atoms: C1_2  and  C2_3 
ROOT
ATOM      1  C2  UNL d   1      -1.034   0.690   2.069  0.00  0.00    -0.073 A 
ATOM      2  C3  UNL d   1      -1.134  -0.685   2.306  0.00  0.00    -0.002 A 
ATOM      3  C4  UNL d   1      -0.003  -1.499   2.226  0.00  0.00     0.004 A 
ATOM      4  C5  UNL d   1       1.239  -0.945   1.915  0.00  0.00    -0.004 A 
ATOM      5  C6  UNL d   1       1.362   0.429   1.686  0.00  0.00    -0.075 A 
ATOM      6  C7  UNL d   1       2.690   1.039   1.348  0.00  0.00     0.076 C 
ATOM      7  C8  UNL d   1       0.221   1.239   1.766  0.00  0.00     0.001 A 
ENDROOT
BRANCH   1   8
ATOM      8  C1  UNL d   1      -2.251   1.574   2.161  0.00  0.00     0.053 C 
ATOM      9  C   UNL d   1      -3.391   0.898   2.906  0.00  0.00     0.018 C 
ENDBRANCH   1   8
TORSDOF 1
ENDMDL
