MODEL 1
REMARK minimizedAffinity 7.63571453
REMARK minimizedRMSD -1
REMARK  1 active torsions:
REMARK  status: ('A' for Active; 'I' for Inactive)
REMARK    1  A    between atoms: C1_2  and  C2_3 
ROOT
ATOM      1  C2  UNL d   1      -5.855  -0.138   3.236  0.00  0.00    -0.073 A 
ATOM      2  C3  UNL d   1      -5.999  -1.206   4.129  0.00  0.00    -0.002 A 
ATOM      3  C4  UNL d   1      -5.884  -0.996   5.503  0.00  0.00     0.004 A 
ATOM      4  C5  UNL d   1      -5.630   0.282   5.999  0.00  0.00    -0.004 A 
ATOM      5  C6  UNL d   1      -5.494   1.364   5.124  0.00  0.00    -0.075 A 
ATOM      6  C7  UNL d   1      -5.219   2.746   5.641  0.00  0.00     0.076 C 
ATOM      7  C8  UNL d   1      -5.609   1.145   3.744  0.00  0.00     0.001 A 
ENDROOT
BRANCH   1   8
ATOM      8  C1  UNL d   1      -5.985  -0.359   1.751  0.00  0.00     0.053 C 
ATOM      9  C   UNL d   1      -5.998  -1.837   1.393  0.00  0.00     0.018 C 
ENDBRANCH   1   8
TORSDOF 1
ENDMDL
