MODEL 1
REMARK minimizedAffinity -1.31202149
REMARK minimizedRMSD -1
REMARK  0 active torsions:
REMARK  status: ('A' for Active; 'I' for Inactive)
ROOT
ATOM      1  C2' OXE d   1       3.007   5.063  -3.736  0.00  0.00     0.078 C 
ATOM      2  C1' OXE d   1       1.870   2.611  -4.495  0.00  0.00     0.078 C 
ATOM      3  C1  OXE d   1       3.318   2.615  -4.075  0.00  0.00    -0.078 A 
ATOM      4  C2  OXE d   1       3.880   3.826  -3.751  0.00  0.00    -0.078 A 
ATOM      5  C3  OXE d   1       5.197   3.878  -3.304  0.00  0.00     0.003 A 
ATOM      6  C4  OXE d   1       6.000   2.731  -3.330  0.00  0.00    -0.002 A 
ATOM      7  C5  OXE d   1       5.459   1.494  -3.695  0.00  0.00    -0.002 A 
ATOM      8  C6  OXE d   1       4.112   1.411  -4.029  0.00  0.00     0.003 A 
ENDROOT
TORSDOF 0
ENDMDL
