MODEL 1
REMARK minimizedAffinity 12.9338093
REMARK minimizedRMSD -1
REMARK  0 active torsions:
REMARK  status: ('A' for Active; 'I' for Inactive)
ROOT
ATOM      1  C2' OXE d   1       2.174   2.839   1.555  0.00  0.00     0.078 C 
ATOM      2  C1' OXE d   1       0.322   1.826  -0.295  0.00  0.00     0.078 C 
ATOM      3  C1  OXE d   1       0.262   3.298   0.026  0.00  0.00    -0.078 A 
ATOM      4  C2  OXE d   1       1.141   3.776   0.967  0.00  0.00    -0.078 A 
ATOM      5  C3  OXE d   1       1.165   5.137   1.260  0.00  0.00     0.003 A 
ATOM      6  C4  OXE d   1       0.200   5.995   0.720  0.00  0.00    -0.002 A 
ATOM      7  C5  OXE d   1      -0.731   5.521  -0.210  0.00  0.00    -0.002 A 
ATOM      8  C6  OXE d   1      -0.686   4.187  -0.600  0.00  0.00     0.003 A 
ENDROOT
TORSDOF 0
ENDMDL
