MODEL 1
REMARK minimizedAffinity 9.27910042
REMARK minimizedRMSD -1
REMARK  0 active torsions:
REMARK  status: ('A' for Active; 'I' for Inactive)
ROOT
ATOM      1  C2' OXE d   1      -6.000  -3.300  -1.830  0.00  0.00     0.078 C 
ATOM      2  C1' OXE d   1      -5.563  -5.999  -1.193  0.00  0.00     0.078 C 
ATOM      3  C1  OXE d   1      -4.384  -5.060  -1.127  0.00  0.00    -0.078 A 
ATOM      4  C2  OXE d   1      -4.597  -3.751  -1.485  0.00  0.00    -0.078 A 
ATOM      5  C3  OXE d   1      -3.556  -2.832  -1.389  0.00  0.00     0.003 A 
ATOM      6  C4  OXE d   1      -2.259  -3.259  -1.080  0.00  0.00    -0.002 A 
ATOM      7  C5  OXE d   1      -2.012  -4.596  -0.750  0.00  0.00    -0.002 A 
ATOM      8  C6  OXE d   1      -3.069  -5.499  -0.728  0.00  0.00     0.003 A 
ENDROOT
TORSDOF 0
ENDMDL
