MODEL 1
REMARK minimizedAffinity 7.0355382
REMARK minimizedRMSD -1
REMARK  0 active torsions:
REMARK  status: ('A' for Active; 'I' for Inactive)
ROOT
ATOM      1  C2' OXE d   1       1.021   0.492  -2.674  0.00  0.00     0.078 C 
ATOM      2  C1' OXE d   1      -1.145   0.123  -0.926  0.00  0.00     0.078 C 
ATOM      3  C1  OXE d   1      -0.029   1.034  -0.480  0.00  0.00    -0.078 A 
ATOM      4  C2  OXE d   1       1.049   1.172  -1.322  0.00  0.00    -0.078 A 
ATOM      5  C3  OXE d   1       2.080   2.044  -0.984  0.00  0.00     0.003 A 
ATOM      6  C4  OXE d   1       2.103   2.661   0.272  0.00  0.00    -0.002 A 
ATOM      7  C5  OXE d   1       1.034   2.503   1.161  0.00  0.00    -0.002 A 
ATOM      8  C6  OXE d   1      -0.057   1.728   0.783  0.00  0.00     0.003 A 
ENDROOT
TORSDOF 0
ENDMDL
