MODEL 1
REMARK minimizedAffinity -0.759029567
REMARK minimizedRMSD -1
REMARK  0 active torsions:
REMARK  status: ('A' for Active; 'I' for Inactive)
ROOT
ATOM      1  C2' OXE d   1       1.788  -1.969  -2.090  0.00  0.00     0.078 C 
ATOM      2  C1' OXE d   1       1.340   0.453  -3.437  0.00  0.00     0.078 C 
ATOM      3  C1  OXE d   1       0.597   0.218  -2.146  0.00  0.00    -0.078 A 
ATOM      4  C2  OXE d   1       0.786  -0.990  -1.518  0.00  0.00    -0.078 A 
ATOM      5  C3  OXE d   1       0.167  -1.236  -0.295  0.00  0.00     0.003 A 
ATOM      6  C4  OXE d   1      -0.765  -0.329   0.222  0.00  0.00    -0.002 A 
ATOM      7  C5  OXE d   1      -1.003   0.890  -0.422  0.00  0.00    -0.002 A 
ATOM      8  C6  OXE d   1      -0.300   1.196  -1.582  0.00  0.00     0.003 A 
ENDROOT
TORSDOF 0
ENDMDL
