MODEL 1
REMARK minimizedAffinity 1.05061436
REMARK minimizedRMSD -1
REMARK  0 active torsions:
REMARK  status: ('A' for Active; 'I' for Inactive)
ROOT
ATOM      1  C2' OXE d   1      -1.265   0.801   2.810  0.00  0.00     0.078 C 
ATOM      2  C1' OXE d   1       0.449   2.683   1.627  0.00  0.00     0.078 C 
ATOM      3  C1  OXE d   1       0.183   1.403   0.875  0.00  0.00    -0.078 A 
ATOM      4  C2  OXE d   1      -0.619   0.468   1.482  0.00  0.00    -0.078 A 
ATOM      5  C3  OXE d   1      -0.940  -0.707   0.808  0.00  0.00     0.003 A 
ATOM      6  C4  OXE d   1      -0.331  -1.012  -0.415  0.00  0.00    -0.002 A 
ATOM      7  C5  OXE d   1       0.521  -0.090  -1.033  0.00  0.00    -0.002 A 
ATOM      8  C6  OXE d   1       0.755   1.138  -0.422  0.00  0.00     0.003 A 
ENDROOT
TORSDOF 0
ENDMDL
