MODEL 1
REMARK minimizedAffinity -4.01567459
REMARK minimizedRMSD -1
REMARK  0 active torsions:
REMARK  status: ('A' for Active; 'I' for Inactive)
ROOT
ATOM      1  C2' OXE d   1       1.201   1.272  -2.600  0.00  0.00     0.078 C 
ATOM      2  C1' OXE d   1       1.947  -1.337  -1.883  0.00  0.00     0.078 C 
ATOM      3  C1  OXE d   1       0.846  -0.678  -1.090  0.00  0.00    -0.078 A 
ATOM      4  C2  OXE d   1       0.520   0.616  -1.418  0.00  0.00    -0.078 A 
ATOM      5  C3  OXE d   1      -0.526   1.252  -0.755  0.00  0.00     0.003 A 
ATOM      6  C4  OXE d   1      -1.144   0.643   0.344  0.00  0.00    -0.002 A 
ATOM      7  C5  OXE d   1      -0.799  -0.660   0.720  0.00  0.00    -0.002 A 
ATOM      8  C6  OXE d   1       0.162  -1.348  -0.012  0.00  0.00     0.003 A 
ENDROOT
TORSDOF 0
ENDMDL
