MODEL 1
REMARK minimizedAffinity -0.744663477
REMARK minimizedRMSD -1
REMARK  0 active torsions:
REMARK  status: ('A' for Active; 'I' for Inactive)
ROOT
ATOM      1  C2' OXE d   1      -1.153  -0.399   0.495  0.00  0.00     0.078 C 
ATOM      2  C1' OXE d   1       0.443  -2.702   0.323  0.00  0.00     0.078 C 
ATOM      3  C1  OXE d   1       0.691  -1.597  -0.674  0.00  0.00    -0.078 A 
ATOM      4  C2  OXE d   1      -0.126  -0.494  -0.612  0.00  0.00    -0.078 A 
ATOM      5  C3  OXE d   1       0.096   0.577  -1.473  0.00  0.00     0.003 A 
ATOM      6  C4  OXE d   1       1.042   0.477  -2.500  0.00  0.00    -0.002 A 
ATOM      7  C5  OXE d   1       1.857  -0.655  -2.607  0.00  0.00    -0.002 A 
ATOM      8  C6  OXE d   1       1.724  -1.681  -1.677  0.00  0.00     0.003 A 
ENDROOT
TORSDOF 0
ENDMDL
