MODEL 1
REMARK minimizedAffinity -2.21867943
REMARK minimizedRMSD -1
REMARK  0 active torsions:
REMARK  status: ('A' for Active; 'I' for Inactive)
ROOT
ATOM      1  C2' OXE d   1       0.741  -1.014   1.970  0.00  0.00     0.078 C 
ATOM      2  C1' OXE d   1      -0.077   1.392   0.777  0.00  0.00     0.078 C 
ATOM      3  C1  OXE d   1       0.267   0.238  -0.131  0.00  0.00    -0.078 A 
ATOM      4  C2  OXE d   1       0.711  -0.921   0.460  0.00  0.00    -0.078 A 
ATOM      5  C3  OXE d   1       0.989  -2.034  -0.328  0.00  0.00     0.003 A 
ATOM      6  C4  OXE d   1       0.968  -1.936  -1.725  0.00  0.00    -0.002 A 
ATOM      7  C5  OXE d   1       0.557  -0.753  -2.348  0.00  0.00    -0.002 A 
ATOM      8  C6  OXE d   1       0.163   0.327  -1.566  0.00  0.00     0.003 A 
ENDROOT
TORSDOF 0
ENDMDL
