MODEL 1
REMARK minimizedAffinity -3.57730675
REMARK minimizedRMSD -1
REMARK  0 active torsions:
REMARK  status: ('A' for Active; 'I' for Inactive)
ROOT
ATOM      1  C2' OXE d   1       5.560   2.792   4.370  0.00  0.00     0.078 C 
ATOM      2  C1' OXE d   1       4.875   1.110   2.230  0.00  0.00     0.078 C 
ATOM      3  C1  OXE d   1       5.239   0.464   3.543  0.00  0.00    -0.078 A 
ATOM      4  C2  OXE d   1       5.618   1.293   4.572  0.00  0.00    -0.078 A 
ATOM      5  C3  OXE d   1       5.910   0.753   5.821  0.00  0.00     0.003 A 
ATOM      6  C4  OXE d   1       5.971  -0.635   5.996  0.00  0.00    -0.002 A 
ATOM      7  C5  OXE d   1       5.628  -1.498   4.950  0.00  0.00    -0.002 A 
ATOM      8  C6  OXE d   1       5.219  -0.965   3.733  0.00  0.00     0.003 A 
ENDROOT
TORSDOF 0
ENDMDL
