MODEL 1
REMARK minimizedAffinity 3.50883174
REMARK minimizedRMSD -1
REMARK  0 active torsions:
REMARK  status: ('A' for Active; 'I' for Inactive)
ROOT
ATOM      1  C2' OXE d   1      -1.572  -0.542   0.694  0.00  0.00     0.078 C 
ATOM      2  C1' OXE d   1      -0.382  -3.084   0.655  0.00  0.00     0.078 C 
ATOM      3  C1  OXE d   1       0.113  -2.061  -0.335  0.00  0.00    -0.078 A 
ATOM      4  C2  OXE d   1      -0.506  -0.834  -0.341  0.00  0.00    -0.078 A 
ATOM      5  C3  OXE d   1      -0.052   0.164  -1.197  0.00  0.00     0.003 A 
ATOM      6  C4  OXE d   1       0.927  -0.117  -2.158  0.00  0.00    -0.002 A 
ATOM      7  C5  OXE d   1       1.544  -1.373  -2.196  0.00  0.00    -0.002 A 
ATOM      8  C6  OXE d   1       1.179  -2.340  -1.266  0.00  0.00     0.003 A 
ENDROOT
TORSDOF 0
ENDMDL
