MODEL 1
REMARK minimizedAffinity -2.71932697
REMARK minimizedRMSD -1
REMARK  0 active torsions:
REMARK  status: ('A' for Active; 'I' for Inactive)
ROOT
ATOM      1  C2' OXE d   1       1.596  -1.870  -2.245  0.00  0.00     0.078 C 
ATOM      2  C1' OXE d   1       0.151  -2.842  -0.043  0.00  0.00     0.078 C 
ATOM      3  C1  OXE d   1       0.037  -1.374  -0.367  0.00  0.00    -0.078 A 
ATOM      4  C2  OXE d   1       0.784  -0.898  -1.417  0.00  0.00    -0.078 A 
ATOM      5  C3  OXE d   1       0.673   0.438  -1.793  0.00  0.00     0.003 A 
ATOM      6  C4  OXE d   1      -0.072   1.333  -1.016  0.00  0.00    -0.002 A 
ATOM      7  C5  OXE d   1      -0.810   0.877   0.082  0.00  0.00    -0.002 A 
ATOM      8  C6  OXE d   1      -0.800  -0.478   0.394  0.00  0.00     0.003 A 
ENDROOT
TORSDOF 0
ENDMDL
