MODEL 1
REMARK minimizedAffinity -2.47730327
REMARK minimizedRMSD -1
REMARK  0 active torsions:
REMARK  status: ('A' for Active; 'I' for Inactive)
ROOT
ATOM      1  C2' OXE d   1       0.352   1.048  -1.955  0.00  0.00     0.078 C 
ATOM      2  C1' OXE d   1       1.155  -1.634  -2.155  0.00  0.00     0.078 C 
ATOM      3  C1  OXE d   1       0.431  -1.208  -0.902  0.00  0.00    -0.078 A 
ATOM      4  C2  OXE d   1       0.083   0.117  -0.793  0.00  0.00    -0.078 A 
ATOM      5  C3  OXE d   1      -0.635   0.551   0.318  0.00  0.00     0.003 A 
ATOM      6  C4  OXE d   1      -0.871  -0.314   1.392  0.00  0.00    -0.002 A 
ATOM      7  C5  OXE d   1      -0.490  -1.658   1.318  0.00  0.00    -0.002 A 
ATOM      8  C6  OXE d   1       0.123  -2.130   0.163  0.00  0.00     0.003 A 
ENDROOT
TORSDOF 0
ENDMDL
