MODEL 1
REMARK minimizedAffinity -4.0352025
REMARK minimizedRMSD -1
REMARK  0 active torsions:
REMARK  status: ('A' for Active; 'I' for Inactive)
ROOT
ATOM      1  C2' OXE d   1      -1.483   0.678   0.115  0.00  0.00     0.078 C 
ATOM      2  C1' OXE d   1      -0.226  -1.832   0.161  0.00  0.00     0.078 C 
ATOM      3  C1  OXE d   1       0.195  -0.854  -0.908  0.00  0.00    -0.078 A 
ATOM      4  C2  OXE d   1      -0.459   0.354  -0.951  0.00  0.00    -0.078 A 
ATOM      5  C3  OXE d   1      -0.072   1.314  -1.883  0.00  0.00     0.003 A 
ATOM      6  C4  OXE d   1       0.869   1.003  -2.872  0.00  0.00    -0.002 A 
ATOM      7  C5  OXE d   1       1.518  -0.236  -2.870  0.00  0.00    -0.002 A 
ATOM      8  C6  OXE d   1       1.224  -1.158  -1.871  0.00  0.00     0.003 A 
ENDROOT
TORSDOF 0
ENDMDL
