MODEL 1
REMARK minimizedAffinity -4.42578268
REMARK minimizedRMSD -1
REMARK  0 active torsions:
REMARK  status: ('A' for Active; 'I' for Inactive)
ROOT
ATOM      1  C2' OXE d   1       1.606  -2.499  -5.284  0.00  0.00     0.078 C 
ATOM      2  C1' OXE d   1       1.636   0.296  -5.021  0.00  0.00     0.078 C 
ATOM      3  C1  OXE d   1       1.631  -0.529  -3.759  0.00  0.00    -0.078 A 
ATOM      4  C2  OXE d   1       1.569  -1.895  -3.897  0.00  0.00    -0.078 A 
ATOM      5  C3  OXE d   1       1.617  -2.705  -2.766  0.00  0.00     0.003 A 
ATOM      6  C4  OXE d   1       1.573  -2.139  -1.486  0.00  0.00    -0.002 A 
ATOM      7  C5  OXE d   1       1.595  -0.750  -1.323  0.00  0.00    -0.002 A 
ATOM      8  C6  OXE d   1       1.667   0.067  -2.446  0.00  0.00     0.003 A 
ENDROOT
TORSDOF 0
ENDMDL
