MODEL 1
REMARK minimizedAffinity -2.08885002
REMARK minimizedRMSD -1
REMARK  0 active torsions:
REMARK  status: ('A' for Active; 'I' for Inactive)
ROOT
ATOM      1  C2' OXE d   1       0.401  -1.586   0.043  0.00  0.00     0.078 C 
ATOM      2  C1' OXE d   1      -1.969  -0.479   1.059  0.00  0.00     0.078 C 
ATOM      3  C1  OXE d   1      -1.207   0.316   0.028  0.00  0.00    -0.078 A 
ATOM      4  C2  OXE d   1      -0.024  -0.213  -0.430  0.00  0.00    -0.078 A 
ATOM      5  C3  OXE d   1       0.690   0.453  -1.422  0.00  0.00     0.003 A 
ATOM      6  C4  OXE d   1       0.295   1.727  -1.846  0.00  0.00    -0.002 A 
ATOM      7  C5  OXE d   1      -0.886   2.302  -1.363  0.00  0.00    -0.002 A 
ATOM      8  C6  OXE d   1      -1.669   1.592  -0.459  0.00  0.00     0.003 A 
ENDROOT
TORSDOF 0
ENDMDL
