MODEL 1
REMARK minimizedAffinity -1.40423107
REMARK minimizedRMSD -1
REMARK  0 active torsions:
REMARK  status: ('A' for Active; 'I' for Inactive)
ROOT
ATOM      1  C2' OXE d   1       0.025  -2.874  -0.261  0.00  0.00     0.078 C 
ATOM      2  C1' OXE d   1       1.719  -1.777  -2.213  0.00  0.00     0.078 C 
ATOM      3  C1  OXE d   1       0.650  -0.888  -1.629  0.00  0.00    -0.078 A 
ATOM      4  C2  OXE d   1      -0.204  -1.446  -0.709  0.00  0.00    -0.078 A 
ATOM      5  C3  OXE d   1      -1.173  -0.655  -0.099  0.00  0.00     0.003 A 
ATOM      6  C4  OXE d   1      -1.386   0.661  -0.526  0.00  0.00    -0.002 A 
ATOM      7  C5  OXE d   1      -0.552   1.238  -1.491  0.00  0.00    -0.002 A 
ATOM      8  C6  OXE d   1       0.495   0.492  -2.020  0.00  0.00     0.003 A 
ENDROOT
TORSDOF 0
ENDMDL
