MODEL 1
REMARK minimizedAffinity 0.553338408
REMARK minimizedRMSD -1
REMARK  0 active torsions:
REMARK  status: ('A' for Active; 'I' for Inactive)
ROOT
ATOM      1  C2' OXE d   1       1.550   0.295  -4.021  0.00  0.00     0.078 C 
ATOM      2  C1' OXE d   1       0.094   1.611  -2.013  0.00  0.00     0.078 C 
ATOM      3  C1  OXE d   1       0.563   0.204  -1.735  0.00  0.00    -0.078 A 
ATOM      4  C2  OXE d   1       1.234  -0.449  -2.741  0.00  0.00    -0.078 A 
ATOM      5  C3  OXE d   1       1.736  -1.728  -2.518  0.00  0.00     0.003 A 
ATOM      6  C4  OXE d   1       1.431  -2.412  -1.335  0.00  0.00    -0.002 A 
ATOM      7  C5  OXE d   1       0.715  -1.780  -0.313  0.00  0.00    -0.002 A 
ATOM      8  C6  OXE d   1       0.311  -0.460  -0.480  0.00  0.00     0.003 A 
ENDROOT
TORSDOF 0
ENDMDL
