MODEL 1
REMARK minimizedAffinity -0.461835086
REMARK minimizedRMSD -1
REMARK  0 active torsions:
REMARK  status: ('A' for Active; 'I' for Inactive)
ROOT
ATOM      1  N1  IND d   1      -2.422   0.385  -4.152  0.00  0.00    -0.196 N 
ATOM      2  C2  IND d   1      -3.434  -0.486  -4.442  0.00  0.00     0.054 A 
ATOM      3  C3  IND d   1      -4.409   0.140  -5.138  0.00  0.00    -0.031 A 
ATOM      4  C4  IND d   1      -4.505   2.564  -5.999  0.00  0.00     0.051 A 
ATOM      5  C5  IND d   1      -3.830   3.752  -5.952  0.00  0.00    -0.031 A 
ATOM      6  C6  IND d   1      -2.625   3.879  -5.292  0.00  0.00     0.015 A 
ATOM      7  C7  IND d   1      -2.042   2.817  -4.660  0.00  0.00    -0.016 A 
ATOM      8  C8  IND d   1      -2.729   1.612  -4.700  0.00  0.00    -0.047 A 
ATOM      9  C9  IND d   1      -3.972   1.486  -5.332  0.00  0.00    -0.096 A 
ATOM     10  HN1 IND d   1      -1.713   0.199  -3.703  0.00  0.00     0.298 HD
ENDROOT
TORSDOF 0
ENDMDL
