MODEL 1
REMARK minimizedAffinity -1.03826904
REMARK minimizedRMSD -1
REMARK  0 active torsions:
REMARK  status: ('A' for Active; 'I' for Inactive)
ROOT
ATOM      1  N1  IND d   1      -2.952   4.136  -5.364  0.00  0.00    -0.196 N 
ATOM      2  C2  IND d   1      -4.052   4.887  -5.674  0.00  0.00     0.054 A 
ATOM      3  C3  IND d   1      -5.092   4.087  -5.997  0.00  0.00    -0.031 A 
ATOM      4  C4  IND d   1      -5.244   1.517  -5.986  0.00  0.00     0.051 A 
ATOM      5  C5  IND d   1      -4.486   0.394  -5.807  0.00  0.00    -0.031 A 
ATOM      6  C6  IND d   1      -3.151   0.462  -5.462  0.00  0.00     0.015 A 
ATOM      7  C7  IND d   1      -2.526   1.661  -5.271  0.00  0.00    -0.016 A 
ATOM      8  C8  IND d   1      -3.291   2.804  -5.458  0.00  0.00    -0.047 A 
ATOM      9  C9  IND d   1      -4.634   2.742  -5.850  0.00  0.00    -0.096 A 
ATOM     10  HN1 IND d   1      -2.179   4.444  -5.147  0.00  0.00     0.298 HD
ENDROOT
TORSDOF 0
ENDMDL
