MODEL 1
REMARK minimizedAffinity -3.84449387
REMARK minimizedRMSD -1
REMARK  0 active torsions:
REMARK  status: ('A' for Active; 'I' for Inactive)
ROOT
ATOM      1  N1  IND d   1       3.328   0.924  -1.182  0.00  0.00    -0.196 N 
ATOM      2  C2  IND d   1       2.037   0.911  -0.732  0.00  0.00     0.054 A 
ATOM      3  C3  IND d   1       1.515  -0.332  -0.835  0.00  0.00    -0.031 A 
ATOM      4  C4  IND d   1       2.633  -2.515  -1.617  0.00  0.00     0.051 A 
ATOM      5  C5  IND d   1       3.792  -2.998  -2.158  0.00  0.00    -0.031 A 
ATOM      6  C6  IND d   1       4.877  -2.183  -2.404  0.00  0.00     0.015 A 
ATOM      7  C7  IND d   1       4.849  -0.850  -2.106  0.00  0.00    -0.016 A 
ATOM      8  C8  IND d   1       3.672  -0.354  -1.563  0.00  0.00    -0.047 A 
ATOM      9  C9  IND d   1       2.552  -1.168  -1.351  0.00  0.00    -0.096 A 
ATOM     10  HN1 IND d   1       3.839   1.615  -1.220  0.00  0.00     0.298 HD
ENDROOT
TORSDOF 0
ENDMDL
