MODEL 1
REMARK minimizedAffinity -1.46281672
REMARK minimizedRMSD -1
REMARK  0 active torsions:
REMARK  status: ('A' for Active; 'I' for Inactive)
ROOT
ATOM      1  N1  IND d   1      -2.380   5.403  -5.675  0.00  0.00    -0.196 N 
ATOM      2  C2  IND d   1      -1.524   4.342  -5.569  0.00  0.00     0.054 A 
ATOM      3  C3  IND d   1      -2.212   3.178  -5.592  0.00  0.00    -0.031 A 
ATOM      4  C4  IND d   1      -4.736   2.776  -5.899  0.00  0.00     0.051 A 
ATOM      5  C5  IND d   1      -5.928   3.438  -6.000  0.00  0.00    -0.031 A 
ATOM      6  C6  IND d   1      -5.999   4.816  -6.000  0.00  0.00     0.015 A 
ATOM      7  C7  IND d   1      -4.875   5.587  -5.911  0.00  0.00    -0.016 A 
ATOM      8  C8  IND d   1      -3.664   4.919  -5.801  0.00  0.00    -0.047 A 
ATOM      9  C9  IND d   1      -3.589   3.521  -5.758  0.00  0.00    -0.096 A 
ATOM     10  HN1 IND d   1      -2.155   6.232  -5.665  0.00  0.00     0.298 HD
ENDROOT
TORSDOF 0
ENDMDL
