MODEL 1
REMARK minimizedAffinity -3.9906497
REMARK minimizedRMSD -1
REMARK  0 active torsions:
REMARK  status: ('A' for Active; 'I' for Inactive)
ROOT
ATOM      1  N1  IND d   1      -3.012   4.834  -5.484  0.00  0.00    -0.196 N 
ATOM      2  C2  IND d   1      -1.761   4.347  -5.222  0.00  0.00     0.054 A 
ATOM      3  C3  IND d   1      -1.781   2.996  -5.185  0.00  0.00    -0.031 A 
ATOM      4  C4  IND d   1      -3.733   1.376  -5.625  0.00  0.00     0.051 A 
ATOM      5  C5  IND d   1      -5.077   1.350  -5.867  0.00  0.00    -0.031 A 
ATOM      6  C6  IND d   1      -5.817   2.507  -5.999  0.00  0.00     0.015 A 
ATOM      7  C7  IND d   1      -5.234   3.740  -5.904  0.00  0.00    -0.016 A 
ATOM      8  C8  IND d   1      -3.870   3.770  -5.652  0.00  0.00    -0.047 A 
ATOM      9  C9  IND d   1      -3.122   2.599  -5.475  0.00  0.00    -0.096 A 
ATOM     10  HN1 IND d   1      -3.226   5.665  -5.534  0.00  0.00     0.298 HD
ENDROOT
TORSDOF 0
ENDMDL
