MODEL 1
REMARK minimizedAffinity -1.04447603
REMARK minimizedRMSD -1
REMARK  0 active torsions:
REMARK  status: ('A' for Active; 'I' for Inactive)
ROOT
ATOM      1  N1  IND d   1      -2.891   2.293  -5.631  0.00  0.00    -0.196 N 
ATOM      2  C2  IND d   1      -1.699   2.940  -5.461  0.00  0.00     0.054 A 
ATOM      3  C3  IND d   1      -1.886   4.279  -5.470  0.00  0.00    -0.031 A 
ATOM      4  C4  IND d   1      -4.074   5.624  -5.649  0.00  0.00     0.051 A 
ATOM      5  C5  IND d   1      -5.416   5.475  -5.857  0.00  0.00    -0.031 A 
ATOM      6  C6  IND d   1      -5.998   4.232  -6.000  0.00  0.00     0.015 A 
ATOM      7  C7  IND d   1      -5.257   3.086  -5.929  0.00  0.00    -0.016 A 
ATOM      8  C8  IND d   1      -3.892   3.234  -5.726  0.00  0.00    -0.047 A 
ATOM      9  C9  IND d   1      -3.290   4.495  -5.622  0.00  0.00    -0.096 A 
ATOM     10  HN1 IND d   1      -2.998   1.440  -5.673  0.00  0.00     0.298 HD
ENDROOT
TORSDOF 0
ENDMDL
