MODEL 1
REMARK minimizedAffinity -0.322470188
REMARK minimizedRMSD -1
REMARK  0 active torsions:
REMARK  status: ('A' for Active; 'I' for Inactive)
ROOT
ATOM      1  N1  IND d   1      -2.657   5.583  -5.999  0.00  0.00    -0.196 N 
ATOM      2  C2  IND d   1      -1.495   4.877  -5.861  0.00  0.00     0.054 A 
ATOM      3  C3  IND d   1      -1.761   3.564  -5.681  0.00  0.00    -0.031 A 
ATOM      4  C4  IND d   1      -4.025   2.339  -5.683  0.00  0.00     0.051 A 
ATOM      5  C5  IND d   1      -5.372   2.565  -5.736  0.00  0.00    -0.031 A 
ATOM      6  C6  IND d   1      -5.893   3.834  -5.886  0.00  0.00     0.015 A 
ATOM      7  C7  IND d   1      -5.083   4.928  -5.999  0.00  0.00    -0.016 A 
ATOM      8  C8  IND d   1      -3.715   4.703  -5.939  0.00  0.00    -0.047 A 
ATOM      9  C9  IND d   1      -3.181   3.422  -5.744  0.00  0.00    -0.096 A 
ATOM     10  HN1 IND d   1      -2.717   6.434  -6.106  0.00  0.00     0.298 HD
ENDROOT
TORSDOF 0
ENDMDL
