MODEL 1
REMARK minimizedAffinity 3.35127687
REMARK minimizedRMSD -1
REMARK  0 active torsions:
REMARK  status: ('A' for Active; 'I' for Inactive)
ROOT
ATOM      1  N1  IND d   1       0.345  -0.674   0.879  0.00  0.00    -0.196 N 
ATOM      2  C2  IND d   1      -0.584  -1.658   1.074  0.00  0.00     0.054 A 
ATOM      3  C3  IND d   1      -1.209  -1.952  -0.088  0.00  0.00    -0.031 A 
ATOM      4  C4  IND d   1      -0.793  -1.017  -2.451  0.00  0.00     0.051 A 
ATOM      5  C5  IND d   1      -0.070  -0.073  -3.124  0.00  0.00    -0.031 A 
ATOM      6  C6  IND d   1       0.849   0.734  -2.484  0.00  0.00     0.015 A 
ATOM      7  C7  IND d   1       1.088   0.618  -1.144  0.00  0.00    -0.016 A 
ATOM      8  C8  IND d   1       0.350  -0.335  -0.456  0.00  0.00    -0.047 A 
ATOM      9  C9  IND d   1      -0.614  -1.128  -1.092  0.00  0.00    -0.096 A 
ATOM     10  HN1 IND d   1       0.842  -0.326   1.488  0.00  0.00     0.298 HD
ENDROOT
TORSDOF 0
ENDMDL
