MODEL 1
REMARK minimizedAffinity -1.28320932
REMARK minimizedRMSD -1
REMARK  0 active torsions:
REMARK  status: ('A' for Active; 'I' for Inactive)
ROOT
ATOM      1  N1  IND d   1      -2.336   2.894  -5.920  0.00  0.00    -0.196 N 
ATOM      2  C2  IND d   1      -1.381   3.871  -5.936  0.00  0.00     0.054 A 
ATOM      3  C3  IND d   1      -1.959   5.092  -5.996  0.00  0.00    -0.031 A 
ATOM      4  C4  IND d   1      -4.454   5.724  -5.972  0.00  0.00     0.051 A 
ATOM      5  C5  IND d   1      -5.705   5.173  -6.000  0.00  0.00    -0.031 A 
ATOM      6  C6  IND d   1      -5.901   3.807  -6.000  0.00  0.00     0.015 A 
ATOM      7  C7  IND d   1      -4.849   2.937  -5.960  0.00  0.00    -0.016 A 
ATOM      8  C8  IND d   1      -3.577   3.492  -5.939  0.00  0.00    -0.047 A 
ATOM      9  C9  IND d   1      -3.371   4.877  -5.982  0.00  0.00    -0.096 A 
ATOM     10  HN1 IND d   1      -2.187   2.047  -5.901  0.00  0.00     0.298 HD
ENDROOT
TORSDOF 0
ENDMDL
