MODEL 1
REMARK minimizedAffinity 2.97326684
REMARK minimizedRMSD -1
REMARK  0 active torsions:
REMARK  status: ('A' for Active; 'I' for Inactive)
ROOT
ATOM      1  N1  IND d   1      -3.979   2.339  -5.779  0.00  0.00    -0.196 N 
ATOM      2  C2  IND d   1      -5.291   2.701  -5.909  0.00  0.00     0.054 A 
ATOM      3  C3  IND d   1      -5.402   4.047  -5.978  0.00  0.00    -0.031 A 
ATOM      4  C4  IND d   1      -3.557   5.842  -6.000  0.00  0.00     0.051 A 
ATOM      5  C5  IND d   1      -2.206   6.000  -5.867  0.00  0.00    -0.031 A 
ATOM      6  C6  IND d   1      -1.360   4.923  -5.698  0.00  0.00     0.015 A 
ATOM      7  C7  IND d   1      -1.834   3.642  -5.666  0.00  0.00    -0.016 A 
ATOM      8  C8  IND d   1      -3.206   3.479  -5.793  0.00  0.00    -0.047 A 
ATOM      9  C9  IND d   1      -4.074   4.571  -5.923  0.00  0.00    -0.096 A 
ATOM     10  HN1 IND d   1      -3.686   1.534  -5.702  0.00  0.00     0.298 HD
ENDROOT
TORSDOF 0
ENDMDL
