MODEL 1
REMARK minimizedAffinity -3.67023802
REMARK minimizedRMSD -1
REMARK  0 active torsions:
REMARK  status: ('A' for Active; 'I' for Inactive)
ROOT
ATOM      1  N1  IND d   1      -3.978   1.032  -5.996  0.00  0.00    -0.196 N 
ATOM      2  C2  IND d   1      -5.327   0.806  -5.999  0.00  0.00     0.054 A 
ATOM      3  C3  IND d   1      -6.000   1.978  -5.950  0.00  0.00    -0.031 A 
ATOM      4  C4  IND d   1      -5.093   4.387  -5.963  0.00  0.00     0.051 A 
ATOM      5  C5  IND d   1      -3.927   5.100  -5.918  0.00  0.00    -0.031 A 
ATOM      6  C6  IND d   1      -2.694   4.480  -5.899  0.00  0.00     0.015 A 
ATOM      7  C7  IND d   1      -2.580   3.119  -5.937  0.00  0.00    -0.016 A 
ATOM      8  C8  IND d   1      -3.762   2.392  -5.975  0.00  0.00    -0.047 A 
ATOM      9  C9  IND d   1      -5.017   3.014  -5.951  0.00  0.00    -0.096 A 
ATOM     10  HN1 IND d   1      -3.368   0.426  -6.006  0.00  0.00     0.298 HD
ENDROOT
TORSDOF 0
ENDMDL
