MODEL 1
REMARK minimizedAffinity -3.68487453
REMARK minimizedRMSD -1
REMARK  0 active torsions:
REMARK  status: ('A' for Active; 'I' for Inactive)
ROOT
ATOM      1  N1  IND d   1       4.086  -1.152  -5.726  0.00  0.00    -0.196 N 
ATOM      2  C2  IND d   1       4.962  -2.176  -5.952  0.00  0.00     0.054 A 
ATOM      3  C3  IND d   1       5.156  -2.889  -4.820  0.00  0.00    -0.031 A 
ATOM      4  C4  IND d   1       4.060  -2.613  -2.507  0.00  0.00     0.051 A 
ATOM      5  C5  IND d   1       3.222  -1.795  -1.802  0.00  0.00    -0.031 A 
ATOM      6  C6  IND d   1       2.614  -0.701  -2.383  0.00  0.00     0.015 A 
ATOM      7  C7  IND d   1       2.814  -0.388  -3.697  0.00  0.00    -0.016 A 
ATOM      8  C8  IND d   1       3.671  -1.212  -4.414  0.00  0.00    -0.047 A 
ATOM      9  C9  IND d   1       4.324  -2.300  -3.819  0.00  0.00    -0.096 A 
ATOM     10  HN1 IND d   1       3.837  -0.567  -6.305  0.00  0.00     0.298 HD
ENDROOT
TORSDOF 0
ENDMDL
