MODEL 1
REMARK minimizedAffinity -3.26696706
REMARK minimizedRMSD -1
REMARK  0 active torsions:
REMARK  status: ('A' for Active; 'I' for Inactive)
ROOT
ATOM      1  N1  IND d   1      -5.236  -2.471  -5.962  0.00  0.00    -0.196 N 
ATOM      2  C2  IND d   1      -4.178  -3.337  -5.957  0.00  0.00     0.054 A 
ATOM      3  C3  IND d   1      -3.011  -2.655  -5.979  0.00  0.00    -0.031 A 
ATOM      4  C4  IND d   1      -2.601  -0.114  -5.922  0.00  0.00     0.051 A 
ATOM      5  C5  IND d   1      -3.257   1.084  -5.958  0.00  0.00    -0.031 A 
ATOM      6  C6  IND d   1      -4.634   1.160  -5.995  0.00  0.00     0.015 A 
ATOM      7  C7  IND d   1      -5.410   0.036  -5.986  0.00  0.00    -0.016 A 
ATOM      8  C8  IND d   1      -4.747  -1.183  -5.957  0.00  0.00    -0.047 A 
ATOM      9  C9  IND d   1      -3.349  -1.267  -5.962  0.00  0.00    -0.096 A 
ATOM     10  HN1 IND d   1      -6.066  -2.693  -5.968  0.00  0.00     0.298 HD
ENDROOT
TORSDOF 0
ENDMDL
