MODEL 1
REMARK minimizedAffinity -0.230616033
REMARK minimizedRMSD -1
REMARK  0 active torsions:
REMARK  status: ('A' for Active; 'I' for Inactive)
ROOT
ATOM      1  N1  IND d   1      -1.606  -1.836  -5.410  0.00  0.00    -0.196 N 
ATOM      2  C2  IND d   1      -1.534  -3.191  -5.248  0.00  0.00     0.054 A 
ATOM      3  C3  IND d   1      -2.767  -3.740  -5.326  0.00  0.00    -0.031 A 
ATOM      4  C4  IND d   1      -5.030  -2.614  -5.817  0.00  0.00     0.051 A 
ATOM      5  C5  IND d   1      -5.606  -1.389  -6.000  0.00  0.00    -0.031 A 
ATOM      6  C6  IND d   1      -4.863  -0.226  -5.999  0.00  0.00     0.015 A 
ATOM      7  C7  IND d   1      -3.508  -0.247  -5.825  0.00  0.00    -0.016 A 
ATOM      8  C8  IND d   1      -2.920  -1.489  -5.631  0.00  0.00    -0.047 A 
ATOM      9  C9  IND d   1      -3.675  -2.669  -5.589  0.00  0.00    -0.096 A 
ATOM     10  HN1 IND d   1      -0.941  -1.291  -5.380  0.00  0.00     0.298 HD
ENDROOT
TORSDOF 0
ENDMDL
