MODEL 1
REMARK minimizedAffinity 4.76828814
REMARK minimizedRMSD -1
REMARK  0 active torsions:
REMARK  status: ('A' for Active; 'I' for Inactive)
ROOT
ATOM      1  N1  IND d   1      -6.000   2.380  -5.617  0.00  0.00    -0.196 N 
ATOM      2  C2  IND d   1      -5.478   1.166  -5.268  0.00  0.00     0.054 A 
ATOM      3  C3  IND d   1      -4.137   1.256  -5.119  0.00  0.00    -0.031 A 
ATOM      4  C4  IND d   1      -2.606   3.318  -5.299  0.00  0.00     0.051 A 
ATOM      5  C5  IND d   1      -2.619   4.643  -5.632  0.00  0.00    -0.031 A 
ATOM      6  C6  IND d   1      -3.783   5.296  -5.981  0.00  0.00     0.015 A 
ATOM      7  C7  IND d   1      -4.985   4.647  -6.000  0.00  0.00    -0.016 A 
ATOM      8  C8  IND d   1      -4.975   3.299  -5.669  0.00  0.00    -0.047 A 
ATOM      9  C9  IND d   1      -3.790   2.621  -5.355  0.00  0.00    -0.096 A 
ATOM     10  HN1 IND d   1      -6.829   2.542  -5.777  0.00  0.00     0.298 HD
ENDROOT
TORSDOF 0
ENDMDL
