MODEL 1
REMARK minimizedAffinity -5.13394117
REMARK minimizedRMSD -1
REMARK  0 active torsions:
REMARK  status: ('A' for Active; 'I' for Inactive)
ROOT
ATOM      1  N1  IND d   1       2.627  -0.533  -3.250  0.00  0.00    -0.196 N 
ATOM      2  C2  IND d   1       2.651  -1.196  -2.055  0.00  0.00     0.054 A 
ATOM      3  C3  IND d   1       3.537  -2.216  -2.101  0.00  0.00    -0.031 A 
ATOM      4  C4  IND d   1       5.127  -2.917  -4.001  0.00  0.00     0.051 A 
ATOM      5  C5  IND d   1       5.443  -2.635  -5.300  0.00  0.00    -0.031 A 
ATOM      6  C6  IND d   1       4.825  -1.616  -5.996  0.00  0.00     0.015 A 
ATOM      7  C7  IND d   1       3.873  -0.830  -5.412  0.00  0.00    -0.016 A 
ATOM      8  C8  IND d   1       3.545  -1.117  -4.095  0.00  0.00    -0.047 A 
ATOM      9  C9  IND d   1       4.138  -2.177  -3.397  0.00  0.00    -0.096 A 
ATOM     10  HN1 IND d   1       2.123   0.137  -3.442  0.00  0.00     0.298 HD
ENDROOT
TORSDOF 0
ENDMDL
