MODEL 1
REMARK minimizedAffinity -0.988614559
REMARK minimizedRMSD -1
REMARK  0 active torsions:
REMARK  status: ('A' for Active; 'I' for Inactive)
ROOT
ATOM      1  N1  IND d   1      -3.060   2.240  -4.240  0.00  0.00    -0.196 N 
ATOM      2  C2  IND d   1      -4.279   2.063  -4.833  0.00  0.00     0.054 A 
ATOM      3  C3  IND d   1      -4.609   0.751  -4.848  0.00  0.00    -0.031 A 
ATOM      4  C4  IND d   1      -3.344  -1.264  -3.865  0.00  0.00     0.051 A 
ATOM      5  C5  IND d   1      -2.168  -1.607  -3.259  0.00  0.00    -0.031 A 
ATOM      6  C6  IND d   1      -1.211  -0.665  -2.940  0.00  0.00     0.015 A 
ATOM      7  C7  IND d   1      -1.400   0.662  -3.207  0.00  0.00    -0.016 A 
ATOM      8  C8  IND d   1      -2.590   1.012  -3.828  0.00  0.00    -0.047 A 
ATOM      9  C9  IND d   1      -3.547   0.056  -4.192  0.00  0.00    -0.096 A 
ATOM     10  HN1 IND d   1      -2.655   2.992  -4.141  0.00  0.00     0.298 HD
ENDROOT
TORSDOF 0
ENDMDL
