MODEL 1
REMARK minimizedAffinity -1.67478943
REMARK minimizedRMSD -1
REMARK  0 active torsions:
REMARK  status: ('A' for Active; 'I' for Inactive)
ROOT
ATOM      1  C2' OXE d   1      -3.041   1.105  -1.699  0.00  0.00     0.078 C 
ATOM      2  C1' OXE d   1      -2.992  -1.149  -3.371  0.00  0.00     0.078 C 
ATOM      3  C1  OXE d   1      -4.051  -0.107  -3.627  0.00  0.00    -0.078 A 
ATOM      4  C2  OXE d   1      -4.097   0.970  -2.775  0.00  0.00    -0.078 A 
ATOM      5  C3  OXE d   1      -5.020   1.988  -3.000  0.00  0.00     0.003 A 
ATOM      6  C4  OXE d   1      -6.000   1.850  -3.990  0.00  0.00    -0.002 A 
ATOM      7  C5  OXE d   1      -5.996   0.742  -4.844  0.00  0.00    -0.002 A 
ATOM      8  C6  OXE d   1      -5.004  -0.223  -4.703  0.00  0.00     0.003 A 
ENDROOT
TORSDOF 0
ENDMDL
