MODEL 1
REMARK minimizedAffinity 0.796478033
REMARK minimizedRMSD -1
REMARK  0 active torsions:
REMARK  status: ('A' for Active; 'I' for Inactive)
ROOT
ATOM      1  C2' OXE d   1      -0.019   4.612   3.502  0.00  0.00     0.078 C 
ATOM      2  C1' OXE d   1       1.950   5.635   1.782  0.00  0.00     0.078 C 
ATOM      3  C1  OXE d   1       2.265   5.577   3.256  0.00  0.00    -0.078 A 
ATOM      4  C2  OXE d   1       1.278   5.118   4.095  0.00  0.00    -0.078 A 
ATOM      5  C3  OXE d   1       1.536   4.993   5.458  0.00  0.00     0.003 A 
ATOM      6  C4  OXE d   1       2.734   5.473   6.000  0.00  0.00    -0.002 A 
ATOM      7  C5  OXE d   1       3.737   5.980   5.167  0.00  0.00    -0.002 A 
ATOM      8  C6  OXE d   1       3.535   6.000   3.791  0.00  0.00     0.003 A 
ENDROOT
TORSDOF 0
ENDMDL
