MODEL 1
REMARK minimizedAffinity 7.25107908
REMARK minimizedRMSD -1
REMARK  0 active torsions:
REMARK  status: ('A' for Active; 'I' for Inactive)
ROOT
ATOM      1  C2' OXE d   1       1.930  -1.287   2.646  0.00  0.00     0.078 C 
ATOM      2  C1' OXE d   1      -0.217  -2.679   1.490  0.00  0.00     0.078 C 
ATOM      3  C1  OXE d   1       1.175  -3.212   1.256  0.00  0.00    -0.078 A 
ATOM      4  C2  OXE d   1       2.222  -2.498   1.787  0.00  0.00    -0.078 A 
ATOM      5  C3  OXE d   1       3.522  -2.976   1.648  0.00  0.00     0.003 A 
ATOM      6  C4  OXE d   1       3.785  -4.091   0.843  0.00  0.00    -0.002 A 
ATOM      7  C5  OXE d   1       2.736  -4.810   0.260  0.00  0.00    -0.002 A 
ATOM      8  C6  OXE d   1       1.425  -4.409   0.492  0.00  0.00     0.003 A 
ENDROOT
TORSDOF 0
ENDMDL
