MODEL 1
REMARK minimizedAffinity 9.78152275
REMARK minimizedRMSD -1
REMARK  0 active torsions:
REMARK  status: ('A' for Active; 'I' for Inactive)
ROOT
ATOM      1  C2' OXE d   1       2.072  -3.148   0.862  0.00  0.00     0.078 C 
ATOM      2  C1' OXE d   1       3.810  -4.034   2.880  0.00  0.00     0.078 C 
ATOM      3  C1  OXE d   1       4.093  -4.473   1.465  0.00  0.00    -0.078 A 
ATOM      4  C2  OXE d   1       3.211  -4.073   0.491  0.00  0.00    -0.078 A 
ATOM      5  C3  OXE d   1       3.455  -4.404  -0.839  0.00  0.00     0.003 A 
ATOM      6  C4  OXE d   1       4.505  -5.268  -1.173  0.00  0.00    -0.002 A 
ATOM      7  C5  OXE d   1       5.393  -5.720  -0.190  0.00  0.00    -0.002 A 
ATOM      8  C6  OXE d   1       5.226  -5.298   1.125  0.00  0.00     0.003 A 
ENDROOT
TORSDOF 0
ENDMDL
