MODEL 1
REMARK minimizedAffinity 8.56712723
REMARK minimizedRMSD -1
REMARK  0 active torsions:
REMARK  status: ('A' for Active; 'I' for Inactive)
ROOT
ATOM      1  C2' OXE d   1       4.831   3.002   2.838  0.00  0.00     0.078 C 
ATOM      2  C1' OXE d   1       2.633   2.774   4.569  0.00  0.00     0.078 C 
ATOM      3  C1  OXE d   1       3.579   3.929   4.782  0.00  0.00    -0.078 A 
ATOM      4  C2  OXE d   1       4.678   4.006   3.960  0.00  0.00    -0.078 A 
ATOM      5  C3  OXE d   1       5.553   5.081   4.079  0.00  0.00     0.003 A 
ATOM      6  C4  OXE d   1       5.410   6.000   5.126  0.00  0.00    -0.002 A 
ATOM      7  C5  OXE d   1       4.320   5.917   5.999  0.00  0.00    -0.002 A 
ATOM      8  C6  OXE d   1       3.374   4.914   5.815  0.00  0.00     0.003 A 
ENDROOT
TORSDOF 0
ENDMDL
