MODEL 1
REMARK minimizedAffinity 10.3733721
REMARK minimizedRMSD -1
REMARK  0 active torsions:
REMARK  status: ('A' for Active; 'I' for Inactive)
ROOT
ATOM      1  C2' OXE d   1       2.774   2.826   2.943  0.00  0.00     0.078 C 
ATOM      2  C1' OXE d   1       0.757   4.753   2.627  0.00  0.00     0.078 C 
ATOM      3  C1  OXE d   1       1.678   4.887   3.814  0.00  0.00    -0.078 A 
ATOM      4  C2  OXE d   1       2.633   3.913   3.986  0.00  0.00    -0.078 A 
ATOM      5  C3  OXE d   1       3.543   4.018   5.034  0.00  0.00     0.003 A 
ATOM      6  C4  OXE d   1       3.400   5.021   6.000  0.00  0.00    -0.002 A 
ATOM      7  C5  OXE d   1       2.409   6.000   5.865  0.00  0.00    -0.002 A 
ATOM      8  C6  OXE d   1       1.569   5.972   4.757  0.00  0.00     0.003 A 
ENDROOT
TORSDOF 0
ENDMDL
