MODEL 1
REMARK minimizedAffinity 3.98510766
REMARK minimizedRMSD -1
REMARK  0 active torsions:
REMARK  status: ('A' for Active; 'I' for Inactive)
ROOT
ATOM      1  C2' OXE d   1      -0.374  -0.834   0.137  0.00  0.00     0.078 C 
ATOM      2  C1' OXE d   1      -0.094  -0.621   2.922  0.00  0.00     0.078 C 
ATOM      3  C1  OXE d   1       0.856  -1.534   2.187  0.00  0.00    -0.078 A 
ATOM      4  C2  OXE d   1       0.682  -1.669   0.831  0.00  0.00    -0.078 A 
ATOM      5  C3  OXE d   1       1.564  -2.456   0.097  0.00  0.00     0.003 A 
ATOM      6  C4  OXE d   1       2.531  -3.232   0.747  0.00  0.00    -0.002 A 
ATOM      7  C5  OXE d   1       2.700  -3.141   2.133  0.00  0.00    -0.002 A 
ATOM      8  C6  OXE d   1       1.900  -2.266   2.861  0.00  0.00     0.003 A 
ENDROOT
TORSDOF 0
ENDMDL
