MODEL 1
REMARK minimizedAffinity 9.35229492
REMARK minimizedRMSD -1
REMARK  0 active torsions:
REMARK  status: ('A' for Active; 'I' for Inactive)
ROOT
ATOM      1  C2' OXE d   1       1.165  -0.009   3.478  0.00  0.00     0.078 C 
ATOM      2  C1' OXE d   1       3.189  -1.886   3.984  0.00  0.00     0.078 C 
ATOM      3  C1  OXE d   1       2.517  -1.923   2.634  0.00  0.00    -0.078 A 
ATOM      4  C2  OXE d   1       1.496  -1.031   2.412  0.00  0.00    -0.078 A 
ATOM      5  C3  OXE d   1       0.879  -0.986   1.165  0.00  0.00     0.003 A 
ATOM      6  C4  OXE d   1       1.184  -1.942   0.188  0.00  0.00    -0.002 A 
ATOM      7  C5  OXE d   1       2.193  -2.885   0.409  0.00  0.00    -0.002 A 
ATOM      8  C6  OXE d   1       2.897  -2.862   1.607  0.00  0.00     0.003 A 
ENDROOT
TORSDOF 0
ENDMDL
