MODEL 1
REMARK minimizedAffinity 0.55329603
REMARK minimizedRMSD -1
REMARK  0 active torsions:
REMARK  status: ('A' for Active; 'I' for Inactive)
ROOT
ATOM      1  C2' OXE d   1      -5.992   1.490   5.317  0.00  0.00     0.078 C 
ATOM      2  C1' OXE d   1      -3.459   1.222   4.137  0.00  0.00     0.078 C 
ATOM      3  C1  OXE d   1      -3.792   2.536   4.797  0.00  0.00    -0.078 A 
ATOM      4  C2  OXE d   1      -5.050   2.675   5.331  0.00  0.00    -0.078 A 
ATOM      5  C3  OXE d   1      -5.390   3.848   5.999  0.00  0.00     0.003 A 
ATOM      6  C4  OXE d   1      -4.517   4.942   5.999  0.00  0.00    -0.002 A 
ATOM      7  C5  OXE d   1      -3.245   4.836   5.426  0.00  0.00    -0.002 A 
ATOM      8  C6  OXE d   1      -2.852   3.628   4.860  0.00  0.00     0.003 A 
ENDROOT
TORSDOF 0
ENDMDL
