MODEL 1
REMARK minimizedAffinity -0.524974823
REMARK minimizedRMSD -1
REMARK  0 active torsions:
REMARK  status: ('A' for Active; 'I' for Inactive)
ROOT
ATOM      1  C2' OXE d   1       2.963  -4.696  -0.361  0.00  0.00     0.078 C 
ATOM      2  C1' OXE d   1       4.850  -3.086   0.954  0.00  0.00     0.078 C 
ATOM      3  C1  OXE d   1       3.389  -2.813   1.212  0.00  0.00    -0.078 A 
ATOM      4  C2  OXE d   1       2.473  -3.575   0.528  0.00  0.00    -0.078 A 
ATOM      5  C3  OXE d   1       1.113  -3.400   0.771  0.00  0.00     0.003 A 
ATOM      6  C4  OXE d   1       0.667  -2.354   1.588  0.00  0.00    -0.002 A 
ATOM      7  C5  OXE d   1       1.583  -1.541   2.263  0.00  0.00    -0.002 A 
ATOM      8  C6  OXE d   1       2.945  -1.783   2.120  0.00  0.00     0.003 A 
ENDROOT
TORSDOF 0
ENDMDL
