MODEL 1
REMARK minimizedAffinity 14.3048334
REMARK minimizedRMSD -1
REMARK  0 active torsions:
REMARK  status: ('A' for Active; 'I' for Inactive)
ROOT
ATOM      1  C   UNL d   1      -2.237  -0.703  -2.501  0.00  0.00     0.078 C 
ATOM      2  C1  UNL d   1      -0.855  -1.258  -2.323  0.00  0.00    -0.077 A 
ATOM      3  C2  UNL d   1       0.160  -0.493  -1.736  0.00  0.00    -0.001 A 
ATOM      4  C3  UNL d   1       1.443  -1.019  -1.585  0.00  0.00     0.003 A 
ATOM      5  C4  UNL d   1       1.725  -2.313  -2.020  0.00  0.00    -0.005 A 
ATOM      6  C5  UNL d   1       0.722  -3.081  -2.608  0.00  0.00     0.003 A 
ATOM      7  C6  UNL d   1      -0.562  -2.556  -2.759  0.00  0.00    -0.001 A 
ENDROOT
TORSDOF 0
ENDMDL
