MODEL 1
REMARK minimizedAffinity 3.99817657
REMARK minimizedRMSD -1
REMARK  0 active torsions:
REMARK  status: ('A' for Active; 'I' for Inactive)
ROOT
ATOM      1  C   UNL d   1       2.932  -2.780  -3.204  0.00  0.00     0.078 C 
ATOM      2  C1  UNL d   1       2.970  -1.562  -2.330  0.00  0.00    -0.077 A 
ATOM      3  C2  UNL d   1       3.474  -0.346  -2.808  0.00  0.00    -0.001 A 
ATOM      4  C3  UNL d   1       3.512   0.777  -1.980  0.00  0.00     0.003 A 
ATOM      5  C4  UNL d   1       3.048   0.695  -0.668  0.00  0.00    -0.005 A 
ATOM      6  C5  UNL d   1       2.546  -0.511  -0.183  0.00  0.00     0.003 A 
ATOM      7  C6  UNL d   1       2.508  -1.635  -1.010  0.00  0.00    -0.001 A 
ENDROOT
TORSDOF 0
ENDMDL
