MODEL 1
REMARK minimizedAffinity 4.28213024
REMARK minimizedRMSD -1
REMARK  0 active torsions:
REMARK  status: ('A' for Active; 'I' for Inactive)
ROOT
ATOM      1  C   UNL d   1       2.759   1.152  -0.443  0.00  0.00     0.078 C 
ATOM      2  C1  UNL d   1       3.288   0.017   0.382  0.00  0.00    -0.077 A 
ATOM      3  C2  UNL d   1       4.645  -0.059   0.717  0.00  0.00    -0.001 A 
ATOM      4  C3  UNL d   1       5.125  -1.127   1.478  0.00  0.00     0.003 A 
ATOM      5  C4  UNL d   1       4.256  -2.127   1.908  0.00  0.00    -0.005 A 
ATOM      6  C5  UNL d   1       2.904  -2.061   1.576  0.00  0.00     0.003 A 
ATOM      7  C6  UNL d   1       2.422  -0.994   0.816  0.00  0.00    -0.001 A 
ENDROOT
TORSDOF 0
ENDMDL
