MODEL 1
REMARK minimizedAffinity 6.81599331
REMARK minimizedRMSD -1
REMARK  0 active torsions:
REMARK  status: ('A' for Active; 'I' for Inactive)
ROOT
ATOM      1  C   UNL d   1       5.190   3.761  -1.634  0.00  0.00     0.078 C 
ATOM      2  C1  UNL d   1       4.359   2.604  -1.166  0.00  0.00    -0.077 A 
ATOM      3  C2  UNL d   1       4.017   1.563  -2.038  0.00  0.00    -0.001 A 
ATOM      4  C3  UNL d   1       3.235   0.497  -1.591  0.00  0.00     0.003 A 
ATOM      5  C4  UNL d   1       2.786   0.462  -0.273  0.00  0.00    -0.005 A 
ATOM      6  C5  UNL d   1       3.119   1.495   0.601  0.00  0.00     0.003 A 
ATOM      7  C6  UNL d   1       3.902   2.562   0.157  0.00  0.00    -0.001 A 
ENDROOT
TORSDOF 0
ENDMDL
