MODEL 1
REMARK minimizedAffinity 10.9240017
REMARK minimizedRMSD -1
REMARK  0 active torsions:
REMARK  status: ('A' for Active; 'I' for Inactive)
ROOT
ATOM      1  C   UNL d   1       3.274   2.408  -1.177  0.00  0.00     0.078 C 
ATOM      2  C1  UNL d   1       2.974   1.082  -0.544  0.00  0.00    -0.077 A 
ATOM      3  C2  UNL d   1       3.510   0.741   0.704  0.00  0.00    -0.001 A 
ATOM      4  C3  UNL d   1       3.231  -0.501   1.277  0.00  0.00     0.003 A 
ATOM      5  C4  UNL d   1       2.416  -1.412   0.609  0.00  0.00    -0.005 A 
ATOM      6  C5  UNL d   1       1.880  -1.083  -0.634  0.00  0.00     0.003 A 
ATOM      7  C6  UNL d   1       2.158   0.158  -1.209  0.00  0.00    -0.001 A 
ENDROOT
TORSDOF 0
ENDMDL
