MODEL 1
REMARK minimizedAffinity 7.38526249
REMARK minimizedRMSD -1
REMARK  0 active torsions:
REMARK  status: ('A' for Active; 'I' for Inactive)
ROOT
ATOM      1  C   UNL d   1       0.832  -3.235  -0.801  0.00  0.00     0.078 C 
ATOM      2  C1  UNL d   1       1.646  -2.014  -0.496  0.00  0.00    -0.077 A 
ATOM      3  C2  UNL d   1       2.373  -1.911   0.697  0.00  0.00    -0.001 A 
ATOM      4  C3  UNL d   1       3.119  -0.764   0.972  0.00  0.00     0.003 A 
ATOM      5  C4  UNL d   1       3.145   0.290   0.060  0.00  0.00    -0.005 A 
ATOM      6  C5  UNL d   1       2.423   0.197  -1.129  0.00  0.00     0.003 A 
ATOM      7  C6  UNL d   1       1.676  -0.949  -1.405  0.00  0.00    -0.001 A 
ENDROOT
TORSDOF 0
ENDMDL
