MODEL 1
REMARK minimizedAffinity 11.2865086
REMARK minimizedRMSD -1
REMARK  0 active torsions:
REMARK  status: ('A' for Active; 'I' for Inactive)
ROOT
ATOM      1  C   UNL d   1      -5.999  -0.786  -5.117  0.00  0.00     0.078 C 
ATOM      2  C1  UNL d   1      -5.330   0.544  -5.293  0.00  0.00    -0.077 A 
ATOM      3  C2  UNL d   1      -4.033   0.636  -5.813  0.00  0.00    -0.001 A 
ATOM      4  C3  UNL d   1      -3.419   1.880  -5.963  0.00  0.00     0.003 A 
ATOM      5  C4  UNL d   1      -4.094   3.042  -5.594  0.00  0.00    -0.005 A 
ATOM      6  C5  UNL d   1      -5.384   2.961  -5.074  0.00  0.00     0.003 A 
ATOM      7  C6  UNL d   1      -6.000   1.717  -4.924  0.00  0.00    -0.001 A 
ENDROOT
TORSDOF 0
ENDMDL
