MODEL 1
REMARK minimizedAffinity 4.66133595
REMARK minimizedRMSD -1
REMARK  0 active torsions:
REMARK  status: ('A' for Active; 'I' for Inactive)
ROOT
ATOM      1  C   UNL d   1       5.982   2.445  -1.678  0.00  0.00     0.078 C 
ATOM      2  C1  UNL d   1       4.915   1.564  -1.099  0.00  0.00    -0.077 A 
ATOM      3  C2  UNL d   1       3.570   1.738  -1.445  0.00  0.00    -0.001 A 
ATOM      4  C3  UNL d   1       2.586   0.917  -0.891  0.00  0.00     0.003 A 
ATOM      5  C4  UNL d   1       2.938  -0.083   0.013  0.00  0.00    -0.005 A 
ATOM      6  C5  UNL d   1       4.274  -0.263   0.364  0.00  0.00     0.003 A 
ATOM      7  C6  UNL d   1       5.259   0.557  -0.189  0.00  0.00    -0.001 A 
ENDROOT
TORSDOF 0
ENDMDL
