MODEL 1
REMARK minimizedAffinity 6.0805788
REMARK minimizedRMSD -1
REMARK  0 active torsions:
REMARK  status: ('A' for Active; 'I' for Inactive)
ROOT
ATOM      1  C   UNL d   1       3.784   3.118   2.839  0.00  0.00     0.078 C 
ATOM      2  C1  UNL d   1       2.981   4.108   3.628  0.00  0.00    -0.077 A 
ATOM      3  C2  UNL d   1       1.778   4.622   3.129  0.00  0.00    -0.001 A 
ATOM      4  C3  UNL d   1       1.045   5.550   3.870  0.00  0.00     0.003 A 
ATOM      5  C4  UNL d   1       1.508   5.974   5.114  0.00  0.00    -0.005 A 
ATOM      6  C5  UNL d   1       2.705   5.470   5.618  0.00  0.00     0.003 A 
ATOM      7  C6  UNL d   1       3.439   4.541   4.878  0.00  0.00    -0.001 A 
ENDROOT
TORSDOF 0
ENDMDL
