MODEL 1
REMARK minimizedAffinity -3.4177866
REMARK minimizedRMSD -1
REMARK  2 active torsions:
REMARK  status: ('A' for Active; 'I' for Inactive)
REMARK    1  A    between atoms: C2'_3  and  C1'_4 
REMARK    2  A    between atoms: C1'_4  and  C1_5 
ROOT
ATOM      1  C1  I4B d   1      -0.651  -0.586  -0.588  0.00  0.00    -0.075 A 
ATOM      2  C2  I4B d   1      -1.829  -1.168  -0.191  0.00  0.00     0.003 A 
ATOM      3  C3  I4B d   1      -2.300  -2.336  -0.838  0.00  0.00     0.002 A 
ATOM      4  C4  I4B d   1      -1.592  -2.856  -1.903  0.00  0.00    -0.004 A 
ATOM      5  C5  I4B d   1      -0.387  -2.277  -2.289  0.00  0.00     0.002 A 
ATOM      6  C6  I4B d   1       0.093  -1.142  -1.620  0.00  0.00     0.003 A 
ENDROOT
BRANCH   1   7
ATOM      7  C1' I4B d   1      -0.200   0.666   0.095  0.00  0.00     0.060 C 
BRANCH   7   8
ATOM      8  C2' I4B d   1       0.068   0.333   1.549  0.00  0.00    -0.013 C 
ATOM      9  C4' I4B d   1       1.542   0.164   1.807  0.00  0.00     0.013 C 
ATOM     10  C3' I4B d   1      -0.505   1.436   2.389  0.00  0.00     0.013 C 
ENDBRANCH   7   8
ENDBRANCH   1   7
TORSDOF 2
ENDMDL
