MODEL 1
REMARK minimizedAffinity -3.01654315
REMARK minimizedRMSD -1
REMARK  2 active torsions:
REMARK  status: ('A' for Active; 'I' for Inactive)
REMARK    1  A    between atoms: C2'_3  and  C1'_4 
REMARK    2  A    between atoms: C1'_4  and  C1_5 
ROOT
ATOM      1  C1  I4B d   1      -1.770  -0.291   0.498  0.00  0.00    -0.075 A 
ATOM      2  C2  I4B d   1      -0.514   0.124   0.132  0.00  0.00     0.003 A 
ATOM      3  C3  I4B d   1       0.329   0.762   1.074  0.00  0.00     0.002 A 
ATOM      4  C4  I4B d   1      -0.140   1.009   2.348  0.00  0.00    -0.004 A 
ATOM      5  C5  I4B d   1      -1.405   0.567   2.724  0.00  0.00     0.002 A 
ATOM      6  C6  I4B d   1      -2.221  -0.098   1.798  0.00  0.00     0.003 A 
ENDROOT
BRANCH   1   7
ATOM      7  C1' I4B d   1      -2.646  -0.932  -0.531  0.00  0.00     0.060 C 
BRANCH   7   8
ATOM      8  C2' I4B d   1      -2.177  -2.360  -0.719  0.00  0.00    -0.013 C 
ATOM      9  C4' I4B d   1      -3.342  -3.296  -0.908  0.00  0.00     0.013 C 
ATOM     10  C3' I4B d   1      -1.258  -2.393  -1.903  0.00  0.00     0.013 C 
ENDBRANCH   7   8
ENDBRANCH   1   7
TORSDOF 2
ENDMDL
