MODEL 1
REMARK minimizedAffinity -0.0430957787
REMARK minimizedRMSD -1
REMARK  2 active torsions:
REMARK  status: ('A' for Active; 'I' for Inactive)
REMARK    1  A    between atoms: C2'_3  and  C1'_4 
REMARK    2  A    between atoms: C1'_4  and  C1_5 
ROOT
ATOM      1  C1  I4B d   1      -0.125  -0.686  -0.452  0.00  0.00    -0.075 A 
ATOM      2  C2  I4B d   1      -0.226   0.019   0.721  0.00  0.00     0.003 A 
ATOM      3  C3  I4B d   1       0.882   0.104   1.599  0.00  0.00     0.002 A 
ATOM      4  C4  I4B d   1       2.047  -0.569   1.291  0.00  0.00    -0.004 A 
ATOM      5  C5  I4B d   1       2.154  -1.265   0.090  0.00  0.00     0.002 A 
ATOM      6  C6  I4B d   1       1.066  -1.314  -0.793  0.00  0.00     0.003 A 
ENDROOT
BRANCH   1   7
ATOM      7  C1' I4B d   1      -1.325  -0.782  -1.340  0.00  0.00     0.060 C 
BRANCH   7   8
ATOM      8  C2' I4B d   1      -1.312  -2.148  -1.996  0.00  0.00    -0.013 C 
ATOM      9  C4' I4B d   1      -2.572  -2.913  -1.688  0.00  0.00     0.013 C 
ATOM     10  C3' I4B d   1      -1.145  -1.951  -3.473  0.00  0.00     0.013 C 
ENDBRANCH   7   8
ENDBRANCH   1   7
TORSDOF 2
ENDMDL
