MODEL 1
REMARK minimizedAffinity -2.78396654
REMARK minimizedRMSD -1
REMARK  2 active torsions:
REMARK  status: ('A' for Active; 'I' for Inactive)
REMARK    1  A    between atoms: C2'_3  and  C1'_4 
REMARK    2  A    between atoms: C1'_4  and  C1_5 
ROOT
ATOM      1  C1  I4B d   1       0.072   0.088   0.480  0.00  0.00    -0.075 A 
ATOM      2  C2  I4B d   1      -1.252  -0.052   0.816  0.00  0.00     0.003 A 
ATOM      3  C3  I4B d   1      -1.811   0.734   1.853  0.00  0.00     0.002 A 
ATOM      4  C4  I4B d   1      -1.005   1.605   2.556  0.00  0.00    -0.004 A 
ATOM      5  C5  I4B d   1       0.331   1.762   2.199  0.00  0.00     0.002 A 
ATOM      6  C6  I4B d   1       0.871   1.009   1.146  0.00  0.00     0.003 A 
ENDROOT
BRANCH   1   7
ATOM      7  C1' I4B d   1       0.638  -0.781  -0.597  0.00  0.00     0.060 C 
BRANCH   7   8
ATOM      8  C2' I4B d   1      -0.420  -0.944  -1.670  0.00  0.00    -0.013 C 
ATOM      9  C4' I4B d   1       0.084  -0.474  -3.009  0.00  0.00     0.013 C 
ATOM     10  C3' I4B d   1      -0.813  -2.390  -1.716  0.00  0.00     0.013 C 
ENDBRANCH   7   8
ENDBRANCH   1   7
TORSDOF 2
ENDMDL
