MODEL 1
REMARK minimizedAffinity -5.20198822
REMARK minimizedRMSD -1
REMARK  2 active torsions:
REMARK  status: ('A' for Active; 'I' for Inactive)
REMARK    1  A    between atoms: C2'_3  and  C1'_4 
REMARK    2  A    between atoms: C1'_4  and  C1_5 
ROOT
ATOM      1  C1  I4B d   1      -0.725   0.024   2.985  0.00  0.00    -0.075 A 
ATOM      2  C2  I4B d   1      -2.051  -0.328   2.983  0.00  0.00     0.003 A 
ATOM      3  C3  I4B d   1      -2.495  -1.438   3.741  0.00  0.00     0.002 A 
ATOM      4  C4  I4B d   1      -1.577  -2.193   4.442  0.00  0.00    -0.004 A 
ATOM      5  C5  I4B d   1      -0.236  -1.821   4.461  0.00  0.00     0.002 A 
ATOM      6  C6  I4B d   1       0.192  -0.698   3.738  0.00  0.00     0.003 A 
ENDROOT
BRANCH   1   7
ATOM      7  C1' I4B d   1      -0.285   1.183   2.146  0.00  0.00     0.060 C 
BRANCH   7   8
ATOM      8  C2' I4B d   1       0.898   0.733   1.313  0.00  0.00    -0.013 C 
ATOM      9  C4' I4B d   1       0.446   0.046   0.051  0.00  0.00     0.013 C 
ATOM     10  C3' I4B d   1       1.731   1.941   1.003  0.00  0.00     0.013 C 
ENDBRANCH   7   8
ENDBRANCH   1   7
TORSDOF 2
ENDMDL
