MODEL 1
REMARK minimizedAffinity 1.53941274
REMARK minimizedRMSD -1
REMARK  1 active torsions:
REMARK  status: ('A' for Active; 'I' for Inactive)
REMARK    1  A    between atoms: C1_2  and  C2_3 
ROOT
ATOM      1  C2  UNL d   1       0.196  -0.090   0.932  0.00  0.00    -0.076 A 
ATOM      2  C3  UNL d   1       1.333  -0.264   0.123  0.00  0.00     0.004 A 
ATOM      3  C4  UNL d   1       1.213  -0.434  -1.255  0.00  0.00    -0.003 A 
ATOM      4  C5  UNL d   1      -0.045  -0.431  -1.847  0.00  0.00     0.000 A 
ATOM      5  C6  UNL d   1      -1.182  -0.241  -1.063  0.00  0.00     0.000 A 
ATOM      6  C7  UNL d   1      -1.078  -0.052   0.326  0.00  0.00    -0.073 A 
ATOM      7  C8  UNL d   1      -2.338   0.142   1.125  0.00  0.00     0.078 C 
ENDROOT
BRANCH   1   8
ATOM      8  C1  UNL d   1       0.386   0.063   2.424  0.00  0.00     0.053 C 
ATOM      9  C   UNL d   1       1.300   1.225   2.780  0.00  0.00     0.018 C 
ENDBRANCH   1   8
TORSDOF 1
ENDMDL
