MODEL 1
REMARK minimizedAffinity 4.10578632
REMARK minimizedRMSD -1
REMARK  1 active torsions:
REMARK  status: ('A' for Active; 'I' for Inactive)
REMARK    1  A    between atoms: C1_2  and  C2_3 
ROOT
ATOM      1  C2  UNL d   1      -0.579  -2.211   2.555  0.00  0.00    -0.076 A 
ATOM      2  C3  UNL d   1       0.412  -3.165   2.845  0.00  0.00     0.004 A 
ATOM      3  C4  UNL d   1       1.570  -3.253   2.074  0.00  0.00    -0.003 A 
ATOM      4  C5  UNL d   1       1.756  -2.388   1.002  0.00  0.00     0.000 A 
ATOM      5  C6  UNL d   1       0.792  -1.424   0.711  0.00  0.00     0.000 A 
ATOM      6  C7  UNL d   1      -0.374  -1.311   1.487  0.00  0.00    -0.073 A 
ATOM      7  C8  UNL d   1      -1.384  -0.257   1.125  0.00  0.00     0.078 C 
ENDROOT
BRANCH   1   8
ATOM      8  C1  UNL d   1      -1.827  -2.181   3.409  0.00  0.00     0.053 C 
ATOM      9  C   UNL d   1      -2.047  -3.482   4.166  0.00  0.00     0.018 C 
ENDBRANCH   1   8
TORSDOF 1
ENDMDL
