MODEL 1
REMARK minimizedAffinity -1.69870579
REMARK minimizedRMSD -1
REMARK  1 active torsions:
REMARK  status: ('A' for Active; 'I' for Inactive)
REMARK    1  A    between atoms: C1_2  and  C2_3 
ROOT
ATOM      1  C2  UNL d   1       0.331  -2.789   1.654  0.00  0.00    -0.076 A 
ATOM      2  C3  UNL d   1      -0.980  -2.754   2.160  0.00  0.00     0.004 A 
ATOM      3  C4  UNL d   1      -1.441  -3.745   3.025  0.00  0.00    -0.003 A 
ATOM      4  C5  UNL d   1      -0.599  -4.786   3.399  0.00  0.00     0.000 A 
ATOM      5  C6  UNL d   1       0.711  -4.826   2.920  0.00  0.00     0.000 A 
ATOM      6  C7  UNL d   1       1.196  -3.826   2.060  0.00  0.00    -0.073 A 
ATOM      7  C8  UNL d   1       2.615  -3.923   1.570  0.00  0.00     0.078 C 
ENDROOT
BRANCH   1   8
ATOM      8  C1  UNL d   1       0.767  -1.702   0.697  0.00  0.00     0.053 C 
ATOM      9  C   UNL d   1      -0.410  -1.009   0.027  0.00  0.00     0.018 C 
ENDBRANCH   1   8
TORSDOF 1
ENDMDL
