MODEL 1
REMARK minimizedAffinity 3.44545531
REMARK minimizedRMSD -1
REMARK  1 active torsions:
REMARK  status: ('A' for Active; 'I' for Inactive)
REMARK    1  A    between atoms: C1_2  and  C2_3 
ROOT
ATOM      1  C2  UNL d   1       0.453  -2.626   2.211  0.00  0.00    -0.076 A 
ATOM      2  C3  UNL d   1      -0.814  -2.356   2.759  0.00  0.00     0.004 A 
ATOM      3  C4  UNL d   1      -1.557  -3.360   3.377  0.00  0.00    -0.003 A 
ATOM      4  C5  UNL d   1      -1.046  -4.651   3.457  0.00  0.00     0.000 A 
ATOM      5  C6  UNL d   1       0.216  -4.932   2.934  0.00  0.00     0.000 A 
ATOM      6  C7  UNL d   1       0.985  -3.928   2.323  0.00  0.00    -0.073 A 
ATOM      7  C8  UNL d   1       2.337  -4.288   1.771  0.00  0.00     0.078 C 
ENDROOT
BRANCH   1   8
ATOM      8  C1  UNL d   1       1.201  -1.502   1.529  0.00  0.00     0.053 C 
ATOM      9  C   UNL d   1       0.325  -0.722   0.562  0.00  0.00     0.018 C 
ENDBRANCH   1   8
TORSDOF 1
ENDMDL
