MODEL 1
REMARK minimizedAffinity -2.7141099
REMARK minimizedRMSD -1
REMARK  1 active torsions:
REMARK  status: ('A' for Active; 'I' for Inactive)
REMARK    1  A    between atoms: C1_2  and  C2_3 
ROOT
ATOM      1  C2  UNL d   1      -0.002  -2.662   2.649  0.00  0.00    -0.076 A 
ATOM      2  C3  UNL d   1       0.677  -3.850   2.972  0.00  0.00     0.004 A 
ATOM      3  C4  UNL d   1       1.759  -4.288   2.210  0.00  0.00    -0.003 A 
ATOM      4  C5  UNL d   1       2.179  -3.544   1.113  0.00  0.00     0.000 A 
ATOM      5  C6  UNL d   1       1.528  -2.355   0.788  0.00  0.00     0.000 A 
ATOM      6  C7  UNL d   1       0.447  -1.891   1.556  0.00  0.00    -0.073 A 
ATOM      7  C8  UNL d   1      -0.222  -0.604   1.158  0.00  0.00     0.078 C 
ENDROOT
BRANCH   1   8
ATOM      8  C1  UNL d   1      -1.185  -2.252   3.496  0.00  0.00     0.053 C 
ATOM      9  C   UNL d   1      -2.013  -3.442   3.958  0.00  0.00     0.018 C 
ENDBRANCH   1   8
TORSDOF 1
ENDMDL
