MODEL 1
REMARK minimizedAffinity -0.447311193
REMARK minimizedRMSD -1
REMARK  1 active torsions:
REMARK  status: ('A' for Active; 'I' for Inactive)
REMARK    1  A    between atoms: C1_2  and  C2_3 
ROOT
ATOM      1  C2  UNL d   1       0.616  -2.231   1.193  0.00  0.00    -0.076 A 
ATOM      2  C3  UNL d   1       0.092  -2.171   2.495  0.00  0.00     0.004 A 
ATOM      3  C4  UNL d   1      -0.905  -1.254   2.826  0.00  0.00    -0.003 A 
ATOM      4  C5  UNL d   1      -1.393  -0.383   1.859  0.00  0.00     0.000 A 
ATOM      5  C6  UNL d   1      -0.896  -0.440   0.557  0.00  0.00     0.000 A 
ATOM      6  C7  UNL d   1       0.096  -1.370   0.203  0.00  0.00    -0.073 A 
ATOM      7  C8  UNL d   1       0.600  -1.384  -1.214  0.00  0.00     0.078 C 
ENDROOT
BRANCH   1   8
ATOM      8  C1  UNL d   1       1.715  -3.228   0.900  0.00  0.00     0.053 C 
ATOM      9  C   UNL d   1       1.559  -4.517   1.692  0.00  0.00     0.018 C 
ENDBRANCH   1   8
TORSDOF 1
ENDMDL
