MODEL 1
REMARK minimizedAffinity -1.32896554
REMARK minimizedRMSD -1
REMARK  1 active torsions:
REMARK  status: ('A' for Active; 'I' for Inactive)
REMARK    1  A    between atoms: C1_2  and  C2_3 
ROOT
ATOM      1  C2  UNL d   1      -0.879   1.294  -1.547  0.00  0.00    -0.076 A 
ATOM      2  C3  UNL d   1       0.085   1.293  -0.523  0.00  0.00     0.004 A 
ATOM      3  C4  UNL d   1       0.021   0.373   0.522  0.00  0.00    -0.003 A 
ATOM      4  C5  UNL d   1      -1.008  -0.562   0.560  0.00  0.00     0.000 A 
ATOM      5  C6  UNL d   1      -1.962  -0.587  -0.456  0.00  0.00     0.000 A 
ATOM      6  C7  UNL d   1      -1.903   0.323  -1.526  0.00  0.00    -0.073 A 
ATOM      7  C8  UNL d   1      -2.962   0.254  -2.591  0.00  0.00     0.078 C 
ENDROOT
BRANCH   1   8
ATOM      8  C1  UNL d   1      -0.774   2.333  -2.640  0.00  0.00     0.053 C 
ATOM      9  C   UNL d   1      -1.598   3.576  -2.343  0.00  0.00     0.018 C 
ENDBRANCH   1   8
TORSDOF 1
ENDMDL
