MODEL 1
REMARK minimizedAffinity -0.382263899
REMARK minimizedRMSD -1
REMARK  1 active torsions:
REMARK  status: ('A' for Active; 'I' for Inactive)
REMARK    1  A    between atoms: C1_2  and  C2_3 
ROOT
ATOM      1  C2  UNL d   1      -0.022   1.347  -1.483  0.00  0.00    -0.076 A 
ATOM      2  C3  UNL d   1       1.247   0.742  -1.487  0.00  0.00     0.004 A 
ATOM      3  C4  UNL d   1       2.307   1.303  -2.198  0.00  0.00    -0.003 A 
ATOM      4  C5  UNL d   1       2.115   2.478  -2.916  0.00  0.00     0.000 A 
ATOM      5  C6  UNL d   1       0.868   3.102  -2.908  0.00  0.00     0.000 A 
ATOM      6  C7  UNL d   1      -0.207   2.558  -2.184  0.00  0.00    -0.073 A 
ATOM      7  C8  UNL d   1      -1.532   3.269  -2.216  0.00  0.00     0.078 C 
ENDROOT
BRANCH   1   8
ATOM      8  C1  UNL d   1      -1.140   0.679  -0.716  0.00  0.00     0.053 C 
ATOM      9  C   UNL d   1      -0.770  -0.719  -0.245  0.00  0.00     0.018 C 
ENDBRANCH   1   8
TORSDOF 1
ENDMDL
