MODEL 1
REMARK minimizedAffinity -5.57316828
REMARK minimizedRMSD -1
REMARK  0 active torsions:
REMARK  status: ('A' for Active; 'I' for Inactive)
ROOT
ATOM      1  C4' PXY d   1      -1.497   1.340  -0.529  0.00  0.00     0.077 C 
ATOM      2  C1' PXY d   1       3.390  -1.444   0.803  0.00  0.00     0.077 C 
ATOM      3  C1  PXY d   1       2.106  -0.722   0.444  0.00  0.00    -0.082 A 
ATOM      4  C2  PXY d   1       1.953   0.547   0.783  0.00  0.00     0.003 A 
ATOM      5  C3  PXY d   1       0.785   1.206   0.495  0.00  0.00     0.003 A 
ATOM      6  C4  PXY d   1      -0.214   0.574  -0.196  0.00  0.00    -0.082 A 
ATOM      7  C5  PXY d   1      -0.061  -0.718  -0.555  0.00  0.00     0.003 A 
ATOM      8  C6  PXY d   1       1.115  -1.381  -0.216  0.00  0.00     0.003 A 
ENDROOT
TORSDOF 0
ENDMDL
