MODEL 1
REMARK minimizedAffinity 4.07965136
REMARK minimizedRMSD -1
REMARK  0 active torsions:
REMARK  status: ('A' for Active; 'I' for Inactive)
ROOT
ATOM      1  C4' PXY d   1       3.101  -0.617  -0.050  0.00  0.00     0.077 C 
ATOM      2  C1' PXY d   1      -2.410   1.127  -0.086  0.00  0.00     0.077 C 
ATOM      3  C1  PXY d   1      -0.961   0.682  -0.074  0.00  0.00    -0.082 A 
ATOM      4  C2  PXY d   1      -0.608  -0.414  -0.726  0.00  0.00     0.003 A 
ATOM      5  C3  PXY d   1       0.692  -0.849  -0.699  0.00  0.00     0.003 A 
ATOM      6  C4  PXY d   1       1.651  -0.124  -0.042  0.00  0.00    -0.082 A 
ATOM      7  C5  PXY d   1       1.301   1.001   0.616  0.00  0.00     0.003 A 
ATOM      8  C6  PXY d   1      -0.032   1.403   0.611  0.00  0.00     0.003 A 
ENDROOT
TORSDOF 0
ENDMDL
