MODEL 1
REMARK minimizedAffinity -2.9971776
REMARK minimizedRMSD -1
REMARK  0 active torsions:
REMARK  status: ('A' for Active; 'I' for Inactive)
ROOT
ATOM      1  C4' PXY d   1      -0.187  -1.442  -1.352  0.00  0.00     0.077 C 
ATOM      2  C1' PXY d   1      -2.994   2.380   1.953  0.00  0.00     0.077 C 
ATOM      3  C1  PXY d   1      -2.247   1.385   1.087  0.00  0.00    -0.082 A 
ATOM      4  C2  PXY d   1      -2.921   0.601   0.261  0.00  0.00     0.003 A 
ATOM      5  C3  PXY d   1      -2.264  -0.326  -0.506  0.00  0.00     0.003 A 
ATOM      6  C4  PXY d   1      -0.899  -0.416  -0.466  0.00  0.00    -0.082 A 
ATOM      7  C5  PXY d   1      -0.203   0.388   0.366  0.00  0.00     0.003 A 
ATOM      8  C6  PXY d   1      -0.892   1.294   1.166  0.00  0.00     0.003 A 
ENDROOT
TORSDOF 0
ENDMDL
