MODEL 1
REMARK minimizedAffinity -1.5118717
REMARK minimizedRMSD -1
REMARK  0 active torsions:
REMARK  status: ('A' for Active; 'I' for Inactive)
ROOT
ATOM      1  C4' PXY d   1       2.909  -1.102  -0.079  0.00  0.00     0.077 C 
ATOM      2  C1' PXY d   1      -2.589   0.566   0.556  0.00  0.00     0.077 C 
ATOM      3  C1  PXY d   1      -1.143   0.139   0.397  0.00  0.00    -0.082 A 
ATOM      4  C2  PXY d   1      -0.781  -0.561  -0.666  0.00  0.00     0.003 A 
ATOM      5  C3  PXY d   1       0.516  -0.983  -0.810  0.00  0.00     0.003 A 
ATOM      6  C4  PXY d   1       1.462  -0.640   0.118  0.00  0.00    -0.082 A 
ATOM      7  C5  PXY d   1       1.103   0.082   1.200  0.00  0.00     0.003 A 
ATOM      8  C6  PXY d   1      -0.227   0.466   1.348  0.00  0.00     0.003 A 
ENDROOT
TORSDOF 0
ENDMDL
