MODEL 1
REMARK minimizedAffinity -4.96591616
REMARK minimizedRMSD -1
REMARK  0 active torsions:
REMARK  status: ('A' for Active; 'I' for Inactive)
ROOT
ATOM      1  C4' PXY d   1      -2.423   0.594  -0.441  0.00  0.00     0.077 C 
ATOM      2  C1' PXY d   1       2.982  -1.213   0.523  0.00  0.00     0.077 C 
ATOM      3  C1  PXY d   1       1.566  -0.730   0.279  0.00  0.00    -0.082 A 
ATOM      4  C2  PXY d   1       0.667  -1.563  -0.218  0.00  0.00     0.003 A 
ATOM      5  C3  PXY d   1      -0.610  -1.134  -0.475  0.00  0.00     0.003 A 
ATOM      6  C4  PXY d   1      -0.984   0.147  -0.170  0.00  0.00    -0.082 A 
ATOM      7  C5  PXY d   1      -0.076   1.000   0.348  0.00  0.00     0.003 A 
ATOM      8  C6  PXY d   1       1.226   0.557   0.563  0.00  0.00     0.003 A 
ENDROOT
TORSDOF 0
ENDMDL
