MODEL 1
REMARK minimizedAffinity -2.87444758
REMARK minimizedRMSD -1
REMARK  0 active torsions:
REMARK  status: ('A' for Active; 'I' for Inactive)
ROOT
ATOM      1  C4' PXY d   1       4.171   1.166  -0.465  0.00  0.00     0.077 C 
ATOM      2  C1' PXY d   1      -1.522   0.169  -0.361  0.00  0.00     0.077 C 
ATOM      3  C1  PXY d   1      -0.026   0.418  -0.384  0.00  0.00    -0.082 A 
ATOM      4  C2  PXY d   1       0.433   1.653  -0.261  0.00  0.00     0.003 A 
ATOM      5  C3  PXY d   1       1.781   1.900  -0.312  0.00  0.00     0.003 A 
ATOM      6  C4  PXY d   1       2.670   0.867  -0.437  0.00  0.00    -0.082 A 
ATOM      7  C5  PXY d   1       2.210  -0.397  -0.553  0.00  0.00     0.003 A 
ATOM      8  C6  PXY d   1       0.836  -0.622  -0.541  0.00  0.00     0.003 A 
ENDROOT
TORSDOF 0
ENDMDL
