MODEL 1
REMARK minimizedAffinity -3.9857626
REMARK minimizedRMSD -1
REMARK  0 active torsions:
REMARK  status: ('A' for Active; 'I' for Inactive)
ROOT
ATOM      1  C4' PXY d   1       1.798  -1.385  -0.373  0.00  0.00     0.077 C 
ATOM      2  C1' PXY d   1      -3.310   1.123   0.645  0.00  0.00     0.077 C 
ATOM      3  C1  PXY d   1      -1.970   0.471   0.366  0.00  0.00    -0.082 A 
ATOM      4  C2  PXY d   1      -1.616  -0.610   1.042  0.00  0.00     0.003 A 
ATOM      5  C3  PXY d   1      -0.395  -1.195   0.825  0.00  0.00     0.003 A 
ATOM      6  C4  PXY d   1       0.451  -0.698  -0.131  0.00  0.00    -0.082 A 
ATOM      7  C5  PXY d   1       0.092   0.398  -0.832  0.00  0.00     0.003 A 
ATOM      8  C6  PXY d   1      -1.135   1.000  -0.568  0.00  0.00     0.003 A 
ENDROOT
TORSDOF 0
ENDMDL
