MODEL 1
REMARK minimizedAffinity -3.31506276
REMARK minimizedRMSD -1
REMARK  0 active torsions:
REMARK  status: ('A' for Active; 'I' for Inactive)
ROOT
ATOM      1  C4' PXY d   1      -1.689   0.451  -0.162  0.00  0.00     0.077 C 
ATOM      2  C1' PXY d   1       3.893  -0.964  -0.664  0.00  0.00     0.077 C 
ATOM      3  C1  PXY d   1       2.433  -0.582  -0.527  0.00  0.00    -0.082 A 
ATOM      4  C2  PXY d   1       1.511  -1.529  -0.474  0.00  0.00     0.003 A 
ATOM      5  C3  PXY d   1       0.183  -1.200  -0.382  0.00  0.00     0.003 A 
ATOM      6  C4  PXY d   1      -0.202   0.111  -0.291  0.00  0.00    -0.082 A 
ATOM      7  C5  PXY d   1       0.734   1.083  -0.334  0.00  0.00     0.003 A 
ATOM      8  C6  PXY d   1       2.073   0.729  -0.469  0.00  0.00     0.003 A 
ENDROOT
TORSDOF 0
ENDMDL
