MODEL 1
REMARK minimizedAffinity -4.94343996
REMARK minimizedRMSD -1
REMARK  0 active torsions:
REMARK  status: ('A' for Active; 'I' for Inactive)
ROOT
ATOM      1  C4' PXY d   1      -1.464   0.295  -0.391  0.00  0.00     0.077 C 
ATOM      2  C1' PXY d   1       4.235   0.046   0.547  0.00  0.00     0.077 C 
ATOM      3  C1  PXY d   1       2.740   0.123   0.306  0.00  0.00    -0.082 A 
ATOM      4  C2  PXY d   1       2.034  -0.992   0.210  0.00  0.00     0.003 A 
ATOM      5  C3  PXY d   1       0.687  -0.941  -0.040  0.00  0.00     0.003 A 
ATOM      6  C4  PXY d   1       0.046   0.265  -0.139  0.00  0.00    -0.082 A 
ATOM      7  C5  PXY d   1       0.757   1.407  -0.031  0.00  0.00     0.003 A 
ATOM      8  C6  PXY d   1       2.131   1.333   0.182  0.00  0.00     0.003 A 
ENDROOT
TORSDOF 0
ENDMDL
