MODEL 1
REMARK minimizedAffinity -4.85782194
REMARK minimizedRMSD -1
REMARK  0 active torsions:
REMARK  status: ('A' for Active; 'I' for Inactive)
ROOT
ATOM      1  C4' PXY d   1       4.515   0.974  -0.688  0.00  0.00     0.077 C 
ATOM      2  C1' PXY d   1      -0.356  -1.652   0.983  0.00  0.00     0.077 C 
ATOM      3  C1  PXY d   1       0.929  -0.972   0.552  0.00  0.00    -0.082 A 
ATOM      4  C2  PXY d   1       0.900   0.291   0.160  0.00  0.00     0.003 A 
ATOM      5  C3  PXY d   1       2.046   0.912  -0.264  0.00  0.00     0.003 A 
ATOM      6  C4  PXY d   1       3.244   0.250  -0.235  0.00  0.00    -0.082 A 
ATOM      7  C5  PXY d   1       3.284  -1.036   0.173  0.00  0.00     0.003 A 
ATOM      8  C6  PXY d   1       2.102  -1.661   0.560  0.00  0.00     0.003 A 
ENDROOT
TORSDOF 0
ENDMDL
