MODEL 1
REMARK minimizedAffinity -5.85135317
REMARK minimizedRMSD -1
REMARK  0 active torsions:
REMARK  status: ('A' for Active; 'I' for Inactive)
ROOT
ATOM      1  C4' PXY d   1      -2.199   0.839  -0.780  0.00  0.00     0.077 C 
ATOM      2  C1' PXY d   1       3.578   0.782  -0.617  0.00  0.00     0.077 C 
ATOM      3  C1  PXY d   1       2.063   0.785  -0.665  0.00  0.00    -0.082 A 
ATOM      4  C2  PXY d   1       1.411   1.937  -0.672  0.00  0.00     0.003 A 
ATOM      5  C3  PXY d   1       0.041   1.957  -0.683  0.00  0.00     0.003 A 
ATOM      6  C4  PXY d   1      -0.670   0.788  -0.741  0.00  0.00    -0.082 A 
ATOM      7  C5  PXY d   1      -0.012  -0.390  -0.745  0.00  0.00     0.003 A 
ATOM      8  C6  PXY d   1       1.379  -0.391  -0.692  0.00  0.00     0.003 A 
ENDROOT
TORSDOF 0
ENDMDL
