MODEL 1
REMARK minimizedAffinity -5.8633604
REMARK minimizedRMSD -1
REMARK  0 active torsions:
REMARK  status: ('A' for Active; 'I' for Inactive)
ROOT
ATOM      1  C4' PXY d   1       3.286   1.507   1.164  0.00  0.00     0.077 C 
ATOM      2  C1' PXY d   1      -0.405  -2.433  -0.903  0.00  0.00     0.077 C 
ATOM      3  C1  PXY d   1       0.568  -1.409  -0.353  0.00  0.00    -0.082 A 
ATOM      4  C2  PXY d   1       0.241  -0.127  -0.358  0.00  0.00     0.003 A 
ATOM      5  C3  PXY d   1       1.123   0.816   0.106  0.00  0.00     0.003 A 
ATOM      6  C4  PXY d   1       2.330   0.437   0.628  0.00  0.00    -0.082 A 
ATOM      7  C5  PXY d   1       2.667  -0.870   0.646  0.00  0.00     0.003 A 
ATOM      8  C6  PXY d   1       1.775  -1.807   0.133  0.00  0.00     0.003 A 
ENDROOT
TORSDOF 0
ENDMDL
