MODEL 1
REMARK minimizedAffinity 4.03923893
REMARK minimizedRMSD -1
REMARK  1 active torsions:
REMARK  status: ('A' for Active; 'I' for Inactive)
REMARK    1  A    between atoms: C1_2  and  C2_3 
ROOT
ATOM      1  C2  UNL d   1      -4.470  -3.358  -5.651  0.00  0.00    -0.073 A 
ATOM      2  C3  UNL d   1      -5.393  -4.394  -5.831  0.00  0.00    -0.002 A 
ATOM      3  C4  UNL d   1      -4.954  -5.708  -6.000  0.00  0.00     0.004 A 
ATOM      4  C5  UNL d   1      -3.591  -6.000  -5.983  0.00  0.00    -0.004 A 
ATOM      5  C6  UNL d   1      -2.653  -4.980  -5.793  0.00  0.00    -0.075 A 
ATOM      6  C7  UNL d   1      -1.182  -5.277  -5.775  0.00  0.00     0.076 C 
ATOM      7  C8  UNL d   1      -3.102  -3.663  -5.627  0.00  0.00     0.001 A 
ENDROOT
BRANCH   1   8
ATOM      8  C1  UNL d   1      -4.940  -1.939  -5.462  0.00  0.00     0.053 C 
ATOM      9  C   UNL d   1      -5.640  -1.743  -4.127  0.00  0.00     0.018 C 
ENDBRANCH   1   8
TORSDOF 1
ENDMDL
