MODEL 1
REMARK minimizedAffinity 2.81652284
REMARK minimizedRMSD -1
REMARK  1 active torsions:
REMARK  status: ('A' for Active; 'I' for Inactive)
REMARK    1  A    between atoms: C1_2  and  C2_3 
ROOT
ATOM      1  C2  UNL d   1      -1.918  -0.745   1.779  0.00  0.00    -0.073 A 
ATOM      2  C3  UNL d   1      -1.481  -0.337   0.514  0.00  0.00    -0.002 A 
ATOM      3  C4  UNL d   1      -0.313  -0.870  -0.034  0.00  0.00     0.004 A 
ATOM      4  C5  UNL d   1       0.425  -1.818   0.674  0.00  0.00    -0.004 A 
ATOM      5  C6  UNL d   1      -0.002  -2.247   1.935  0.00  0.00    -0.075 A 
ATOM      6  C7  UNL d   1       0.782  -3.265   2.710  0.00  0.00     0.076 C 
ATOM      7  C8  UNL d   1      -1.174  -1.705   2.479  0.00  0.00     0.001 A 
ENDROOT
BRANCH   1   8
ATOM      8  C1  UNL d   1      -3.182  -0.177   2.372  0.00  0.00     0.053 C 
ATOM      9  C   UNL d   1      -3.167  -0.217   3.892  0.00  0.00     0.018 C 
ENDBRANCH   1   8
TORSDOF 1
ENDMDL
