MODEL 1
REMARK minimizedAffinity 0.878042281
REMARK minimizedRMSD -1
REMARK  1 active torsions:
REMARK  status: ('A' for Active; 'I' for Inactive)
REMARK    1  A    between atoms: C1_2  and  C2_3 
ROOT
ATOM      1  C2  UNL d   1      -2.972  -4.488  -5.243  0.00  0.00    -0.073 A 
ATOM      2  C3  UNL d   1      -2.951  -4.445  -3.845  0.00  0.00    -0.002 A 
ATOM      3  C4  UNL d   1      -3.881  -3.673  -3.148  0.00  0.00     0.004 A 
ATOM      4  C5  UNL d   1      -4.846  -2.942  -3.841  0.00  0.00    -0.004 A 
ATOM      5  C6  UNL d   1      -4.891  -2.981  -5.239  0.00  0.00    -0.075 A 
ATOM      6  C7  UNL d   1      -5.921  -2.198  -5.999  0.00  0.00     0.076 C 
ATOM      7  C8  UNL d   1      -3.952  -3.756  -5.931  0.00  0.00     0.001 A 
ENDROOT
BRANCH   1   8
ATOM      8  C1  UNL d   1      -1.974  -5.325  -6.000  0.00  0.00     0.053 C 
ATOM      9  C   UNL d   1      -0.764  -5.677  -5.148  0.00  0.00     0.018 C 
ENDBRANCH   1   8
TORSDOF 1
ENDMDL
