MODEL 1
REMARK minimizedAffinity -1.72378302
REMARK minimizedRMSD -1
REMARK  1 active torsions:
REMARK  status: ('A' for Active; 'I' for Inactive)
REMARK    1  A    between atoms: C1_2  and  C2_3 
ROOT
ATOM      1  C2  UNL d   1      -2.941  -0.337  -0.332  0.00  0.00    -0.073 A 
ATOM      2  C3  UNL d   1      -3.441  -1.113   0.720  0.00  0.00    -0.002 A 
ATOM      3  C4  UNL d   1      -2.629  -1.432   1.809  0.00  0.00     0.004 A 
ATOM      4  C5  UNL d   1      -1.313  -0.974   1.861  0.00  0.00    -0.004 A 
ATOM      5  C6  UNL d   1      -0.798  -0.188   0.825  0.00  0.00    -0.075 A 
ATOM      6  C7  UNL d   1       0.617   0.311   0.865  0.00  0.00     0.076 C 
ATOM      7  C8  UNL d   1      -1.619   0.126  -0.266  0.00  0.00     0.001 A 
ENDROOT
BRANCH   1   8
ATOM      8  C1  UNL d   1      -3.816   0.016  -1.507  0.00  0.00     0.053 C 
ATOM      9  C   UNL d   1      -4.217  -1.213  -2.308  0.00  0.00     0.018 C 
ENDBRANCH   1   8
TORSDOF 1
ENDMDL
