MODEL 1
REMARK minimizedAffinity 2.36818194
REMARK minimizedRMSD -1
REMARK  1 active torsions:
REMARK  status: ('A' for Active; 'I' for Inactive)
REMARK    1  A    between atoms: C1_2  and  C2_3 
ROOT
ATOM      1  C2  UNL d   1      -1.877  -0.923   2.253  0.00  0.00    -0.073 A 
ATOM      2  C3  UNL d   1      -2.233  -2.010   1.447  0.00  0.00    -0.002 A 
ATOM      3  C4  UNL d   1      -1.500  -2.304   0.296  0.00  0.00     0.004 A 
ATOM      4  C5  UNL d   1      -0.402  -1.519  -0.057  0.00  0.00    -0.004 A 
ATOM      5  C6  UNL d   1      -0.024  -0.435   0.742  0.00  0.00    -0.075 A 
ATOM      6  C7  UNL d   1       1.153   0.420   0.376  0.00  0.00     0.076 C 
ATOM      7  C8  UNL d   1      -0.766  -0.145   1.895  0.00  0.00     0.001 A 
ENDROOT
BRANCH   1   8
ATOM      8  C1  UNL d   1      -2.661  -0.606   3.500  0.00  0.00     0.053 C 
ATOM      9  C   UNL d   1      -4.156  -0.540   3.232  0.00  0.00     0.018 C 
ENDBRANCH   1   8
TORSDOF 1
ENDMDL
