MODEL 1
REMARK minimizedAffinity -2.77890849
REMARK minimizedRMSD -1
REMARK  1 active torsions:
REMARK  status: ('A' for Active; 'I' for Inactive)
REMARK    1  A    between atoms: C1_2  and  C2_3 
ROOT
ATOM      1  C2  UNL d   1      -3.249  -5.014  -4.384  0.00  0.00    -0.073 A 
ATOM      2  C3  UNL d   1      -3.688  -5.990  -5.286  0.00  0.00    -0.002 A 
ATOM      3  C4  UNL d   1      -4.874  -5.808  -5.999  0.00  0.00     0.004 A 
ATOM      4  C5  UNL d   1      -5.627  -4.648  -5.824  0.00  0.00    -0.004 A 
ATOM      5  C6  UNL d   1      -5.199  -3.655  -4.937  0.00  0.00    -0.075 A 
ATOM      6  C7  UNL d   1      -5.999  -2.402  -4.736  0.00  0.00     0.076 C 
ATOM      7  C8  UNL d   1      -4.009  -3.846  -4.222  0.00  0.00     0.001 A 
ENDROOT
BRANCH   1   8
ATOM      8  C1  UNL d   1      -1.966  -5.202  -3.617  0.00  0.00     0.053 C 
ATOM      9  C   UNL d   1      -2.219  -5.469  -2.141  0.00  0.00     0.018 C 
ENDBRANCH   1   8
TORSDOF 1
ENDMDL
