MODEL 1
REMARK minimizedAffinity -3.34180355
REMARK minimizedRMSD -1
REMARK  1 active torsions:
REMARK  status: ('A' for Active; 'I' for Inactive)
REMARK    1  A    between atoms: C1_2  and  C2_3 
ROOT
ATOM      1  C2  UNL d   1      -2.574  -4.895  -5.375  0.00  0.00    -0.073 A 
ATOM      2  C3  UNL d   1      -3.043  -5.999  -4.654  0.00  0.00    -0.002 A 
ATOM      3  C4  UNL d   1      -4.334  -5.999  -4.124  0.00  0.00     0.004 A 
ATOM      4  C5  UNL d   1      -5.170  -4.900  -4.315  0.00  0.00    -0.004 A 
ATOM      5  C6  UNL d   1      -4.725  -3.792  -5.042  0.00  0.00    -0.075 A 
ATOM      6  C7  UNL d   1      -5.612  -2.600  -5.254  0.00  0.00     0.076 C 
ATOM      7  C8  UNL d   1      -3.426  -3.798  -5.569  0.00  0.00     0.001 A 
ENDROOT
BRANCH   1   8
ATOM      8  C1  UNL d   1      -1.183  -4.893  -5.955  0.00  0.00     0.053 C 
ATOM      9  C   UNL d   1      -0.319  -5.997  -5.366  0.00  0.00     0.018 C 
ENDBRANCH   1   8
TORSDOF 1
ENDMDL
