MODEL 1
REMARK minimizedAffinity -1.94202876
REMARK minimizedRMSD -1
REMARK  1 active torsions:
REMARK  status: ('A' for Active; 'I' for Inactive)
REMARK    1  A    between atoms: C1_2  and  C2_3 
ROOT
ATOM      1  C2  UNL d   1      -4.053  -4.581  -5.242  0.00  0.00    -0.073 A 
ATOM      2  C3  UNL d   1      -4.038  -4.569  -3.843  0.00  0.00    -0.002 A 
ATOM      3  C4  UNL d   1      -2.915  -5.017  -3.146  0.00  0.00     0.004 A 
ATOM      4  C5  UNL d   1      -1.795  -5.475  -3.840  0.00  0.00    -0.004 A 
ATOM      5  C6  UNL d   1      -1.786  -5.484  -5.239  0.00  0.00    -0.075 A 
ATOM      6  C7  UNL d   1      -0.590  -5.976  -6.000  0.00  0.00     0.076 C 
ATOM      7  C8  UNL d   1      -2.919  -5.035  -5.931  0.00  0.00     0.001 A 
ENDROOT
BRANCH   1   8
ATOM      8  C1  UNL d   1      -5.261  -4.092  -5.999  0.00  0.00     0.053 C 
ATOM      9  C   UNL d   1      -5.998  -2.995  -5.247  0.00  0.00     0.018 C 
ENDBRANCH   1   8
TORSDOF 1
ENDMDL
