MODEL 1
REMARK minimizedAffinity 9.27704811
REMARK minimizedRMSD -1
REMARK  1 active torsions:
REMARK  status: ('A' for Active; 'I' for Inactive)
REMARK    1  A    between atoms: C1_2  and  C2_3 
ROOT
ATOM      1  C2  UNL d   1      -3.877  -4.045  -4.120  0.00  0.00    -0.073 A 
ATOM      2  C3  UNL d   1      -4.384  -4.732  -5.230  0.00  0.00    -0.002 A 
ATOM      3  C4  UNL d   1      -5.413  -4.177  -5.992  0.00  0.00     0.004 A 
ATOM      4  C5  UNL d   1      -5.941  -2.930  -5.657  0.00  0.00    -0.004 A 
ATOM      5  C6  UNL d   1      -5.440  -2.224  -4.559  0.00  0.00    -0.075 A 
ATOM      6  C7  UNL d   1      -5.999  -0.883  -4.184  0.00  0.00     0.076 C 
ATOM      7  C8  UNL d   1      -4.408  -2.789  -3.797  0.00  0.00     0.001 A 
ENDROOT
BRANCH   1   8
ATOM      8  C1  UNL d   1      -2.761  -4.637  -3.299  0.00  0.00     0.053 C 
ATOM      9  C   UNL d   1      -2.050  -5.764  -4.031  0.00  0.00     0.018 C 
ENDBRANCH   1   8
TORSDOF 1
ENDMDL
