MODEL 1
REMARK minimizedAffinity 4.31385279
REMARK minimizedRMSD -1
REMARK  1 active torsions:
REMARK  status: ('A' for Active; 'I' for Inactive)
REMARK    1  A    between atoms: C1_2  and  C2_3 
ROOT
ATOM      1  C2  UNL d   1      -4.843  -3.413  -4.487  0.00  0.00    -0.073 A 
ATOM      2  C3  UNL d   1      -4.288  -3.548  -5.765  0.00  0.00    -0.002 A 
ATOM      3  C4  UNL d   1      -3.263  -4.466  -5.995  0.00  0.00     0.004 A 
ATOM      4  C5  UNL d   1      -2.787  -5.263  -4.953  0.00  0.00    -0.004 A 
ATOM      5  C6  UNL d   1      -3.337  -5.151  -3.672  0.00  0.00    -0.075 A 
ATOM      6  C7  UNL d   1      -2.835  -5.999  -2.540  0.00  0.00     0.076 C 
ATOM      7  C8  UNL d   1      -4.364  -4.224  -3.448  0.00  0.00     0.001 A 
ENDROOT
BRANCH   1   8
ATOM      8  C1  UNL d   1      -5.954  -2.427  -4.235  0.00  0.00     0.053 C 
ATOM      9  C   UNL d   1      -5.859  -1.216  -5.150  0.00  0.00     0.018 C 
ENDBRANCH   1   8
TORSDOF 1
ENDMDL
