MODEL 1
REMARK minimizedAffinity 6.07222366
REMARK minimizedRMSD -1
REMARK  0 active torsions:
REMARK  status: ('A' for Active; 'I' for Inactive)
ROOT
ATOM      1  C4' PXY d   1       0.851   0.001  -3.559  0.00  0.00     0.077 C 
ATOM      2  C1' PXY d   1       1.583   1.634   1.938  0.00  0.00     0.077 C 
ATOM      3  C1  PXY d   1       1.390   1.194   0.500  0.00  0.00    -0.082 A 
ATOM      4  C2  PXY d   1       1.869   1.939  -0.483  0.00  0.00     0.003 A 
ATOM      5  C3  PXY d   1       1.676   1.571  -1.789  0.00  0.00     0.003 A 
ATOM      6  C4  PXY d   1       1.031   0.402  -2.092  0.00  0.00    -0.082 A 
ATOM      7  C5  PXY d   1       0.548  -0.369  -1.095  0.00  0.00     0.003 A 
ATOM      8  C6  PXY d   1       0.719   0.042   0.224  0.00  0.00     0.003 A 
ENDROOT
TORSDOF 0
ENDMDL
