MODEL 1
REMARK minimizedAffinity -0.18054089
REMARK minimizedRMSD -1
REMARK  0 active torsions:
REMARK  status: ('A' for Active; 'I' for Inactive)
ROOT
ATOM      1  C4' PXY d   1       1.332  -1.678  -3.112  0.00  0.00     0.077 C 
ATOM      2  C1' PXY d   1       0.919   2.011   1.320  0.00  0.00     0.077 C 
ATOM      3  C1  PXY d   1       1.033   1.034   0.166  0.00  0.00    -0.082 A 
ATOM      4  C2  PXY d   1       1.075   1.491  -1.075  0.00  0.00     0.003 A 
ATOM      5  C3  PXY d   1       1.145   0.621  -2.133  0.00  0.00     0.003 A 
ATOM      6  C4  PXY d   1       1.227  -0.728  -1.915  0.00  0.00    -0.082 A 
ATOM      7  C5  PXY d   1       1.195  -1.202  -0.651  0.00  0.00     0.003 A 
ATOM      8  C6  PXY d   1       1.082  -0.304   0.406  0.00  0.00     0.003 A 
ENDROOT
TORSDOF 0
ENDMDL
