MODEL 1
REMARK minimizedAffinity 4.36991358
REMARK minimizedRMSD -1
REMARK  0 active torsions:
REMARK  status: ('A' for Active; 'I' for Inactive)
ROOT
ATOM      1  C4' PXY d   1       3.650  -0.368   0.337  0.00  0.00     0.077 C 
ATOM      2  C1' PXY d   1      -1.231   1.833  -1.840  0.00  0.00     0.077 C 
ATOM      3  C1  PXY d   1       0.051   1.267  -1.262  0.00  0.00    -0.082 A 
ATOM      4  C2  PXY d   1       0.711   0.332  -1.926  0.00  0.00     0.003 A 
ATOM      5  C3  PXY d   1       1.855  -0.214  -1.403  0.00  0.00     0.003 A 
ATOM      6  C4  PXY d   1       2.357   0.239  -0.213  0.00  0.00    -0.082 A 
ATOM      7  C5  PXY d   1       1.695   1.200   0.466  0.00  0.00     0.003 A 
ATOM      8  C6  PXY d   1       0.513   1.712  -0.062  0.00  0.00     0.003 A 
ENDROOT
TORSDOF 0
ENDMDL
