MODEL 1
REMARK minimizedAffinity 1.09115171
REMARK minimizedRMSD -1
REMARK  0 active torsions:
REMARK  status: ('A' for Active; 'I' for Inactive)
ROOT
ATOM      1  C4' PXY d   1       1.333  -0.533  -3.653  0.00  0.00     0.077 C 
ATOM      2  C1' PXY d   1       0.808   1.426   1.760  0.00  0.00     0.077 C 
ATOM      3  C1  PXY d   1       0.947   0.925   0.336  0.00  0.00    -0.082 A 
ATOM      4  C2  PXY d   1       0.451  -0.258   0.008  0.00  0.00     0.003 A 
ATOM      5  C3  PXY d   1       0.596  -0.740  -1.268  0.00  0.00     0.003 A 
ATOM      6  C4  PXY d   1       1.208   0.017  -2.230  0.00  0.00    -0.082 A 
ATOM      7  C5  PXY d   1       1.707   1.229  -1.905  0.00  0.00     0.003 A 
ATOM      8  C6  PXY d   1       1.586   1.683  -0.595  0.00  0.00     0.003 A 
ENDROOT
TORSDOF 0
ENDMDL
