MODEL 1
REMARK minimizedAffinity 7.87392807
REMARK minimizedRMSD -1
REMARK  0 active torsions:
REMARK  status: ('A' for Active; 'I' for Inactive)
ROOT
ATOM      1  C4' PXY d   1      -2.633   0.893   5.462  0.00  0.00     0.077 C 
ATOM      2  C1' PXY d   1      -4.090   3.176   0.355  0.00  0.00     0.077 C 
ATOM      3  C1  PXY d   1      -3.695   2.582   1.693  0.00  0.00    -0.082 A 
ATOM      4  C2  PXY d   1      -4.375   1.555   2.178  0.00  0.00     0.003 A 
ATOM      5  C3  PXY d   1      -4.052   1.026   3.401  0.00  0.00     0.003 A 
ATOM      6  C4  PXY d   1      -2.989   1.519   4.111  0.00  0.00    -0.082 A 
ATOM      7  C5  PXY d   1      -2.285   2.559   3.617  0.00  0.00     0.003 A 
ATOM      8  C6  PXY d   1      -2.654   3.109   2.393  0.00  0.00     0.003 A 
ENDROOT
TORSDOF 0
ENDMDL
