MODEL 1
REMARK minimizedAffinity 2.14734626
REMARK minimizedRMSD -1
REMARK  0 active torsions:
REMARK  status: ('A' for Active; 'I' for Inactive)
ROOT
ATOM      1  C4' PXY d   1       1.573  -0.764  -3.490  0.00  0.00     0.077 C 
ATOM      2  C1' PXY d   1       0.852   2.071   1.495  0.00  0.00     0.077 C 
ATOM      3  C1  PXY d   1       1.043   1.339   0.182  0.00  0.00    -0.082 A 
ATOM      4  C2  PXY d   1       0.518   0.135   0.022  0.00  0.00     0.003 A 
ATOM      5  C3  PXY d   1       0.708  -0.554  -1.148  0.00  0.00     0.003 A 
ATOM      6  C4  PXY d   1       1.397   0.016  -2.184  0.00  0.00    -0.082 A 
ATOM      7  C5  PXY d   1       1.926   1.249  -2.033  0.00  0.00     0.003 A 
ATOM      8  C6  PXY d   1       1.757   1.915  -0.823  0.00  0.00     0.003 A 
ENDROOT
TORSDOF 0
ENDMDL
