MODEL 1
REMARK minimizedAffinity 1.39605975
REMARK minimizedRMSD -1
REMARK  0 active torsions:
REMARK  status: ('A' for Active; 'I' for Inactive)
ROOT
ATOM      1  C4' PXY d   1      -2.774   0.518   5.479  0.00  0.00     0.077 C 
ATOM      2  C1' PXY d   1      -3.535   3.255   0.445  0.00  0.00     0.077 C 
ATOM      3  C1  PXY d   1      -3.348   2.534   1.765  0.00  0.00    -0.082 A 
ATOM      4  C2  PXY d   1      -2.357   2.886   2.568  0.00  0.00     0.003 A 
ATOM      5  C3  PXY d   1      -2.154   2.223   3.751  0.00  0.00     0.003 A 
ATOM      6  C4  PXY d   1      -3.006   1.225   4.141  0.00  0.00    -0.082 A 
ATOM      7  C5  PXY d   1      -4.026   0.867   3.332  0.00  0.00     0.003 A 
ATOM      8  C6  PXY d   1      -4.190   1.524   2.117  0.00  0.00     0.003 A 
ENDROOT
TORSDOF 0
ENDMDL
