MODEL 1
REMARK minimizedAffinity 1.81408155
REMARK minimizedRMSD -1
REMARK  0 active torsions:
REMARK  status: ('A' for Active; 'I' for Inactive)
ROOT
ATOM      1  C4' PXY d   1       0.216  -1.140  -2.391  0.00  0.00     0.077 C 
ATOM      2  C1' PXY d   1       1.465   1.915   2.355  0.00  0.00     0.077 C 
ATOM      3  C1  PXY d   1       1.128   1.123   1.107  0.00  0.00    -0.082 A 
ATOM      4  C2  PXY d   1       1.388  -0.174   1.066  0.00  0.00     0.003 A 
ATOM      5  C3  PXY d   1       1.119  -0.899  -0.067  0.00  0.00     0.003 A 
ATOM      6  C4  PXY d   1       0.531  -0.302  -1.149  0.00  0.00    -0.082 A 
ATOM      7  C5  PXY d   1       0.253   1.019  -1.111  0.00  0.00     0.003 A 
ATOM      8  C6  PXY d   1       0.571   1.746   0.033  0.00  0.00     0.003 A 
ENDROOT
TORSDOF 0
ENDMDL
