MODEL 1
REMARK minimizedAffinity 4.80272293
REMARK minimizedRMSD -1
REMARK  0 active torsions:
REMARK  status: ('A' for Active; 'I' for Inactive)
ROOT
ATOM      1  C4' PXY d   1      -3.303   3.113  -0.650  0.00  0.00     0.077 C 
ATOM      2  C1' PXY d   1      -2.893   1.316   4.829  0.00  0.00     0.077 C 
ATOM      3  C1  PXY d   1      -2.997   1.799   3.396  0.00  0.00    -0.082 A 
ATOM      4  C2  PXY d   1      -3.808   1.179   2.554  0.00  0.00     0.003 A 
ATOM      5  C3  PXY d   1      -3.889   1.583   1.246  0.00  0.00     0.003 A 
ATOM      6  C4  PXY d   1      -3.174   2.666   0.809  0.00  0.00    -0.082 A 
ATOM      7  C5  PXY d   1      -2.353   3.310   1.665  0.00  0.00     0.003 A 
ATOM      8  C6  PXY d   1      -2.253   2.859   2.978  0.00  0.00     0.003 A 
ENDROOT
TORSDOF 0
ENDMDL
