MODEL 1
REMARK minimizedAffinity -0.45145908
REMARK minimizedRMSD -1
REMARK  0 active torsions:
REMARK  status: ('A' for Active; 'I' for Inactive)
ROOT
ATOM      1  C4' PXY d   1       2.591   3.075   2.142  0.00  0.00     0.077 C 
ATOM      2  C1' PXY d   1       0.896  -1.410  -1.087  0.00  0.00     0.077 C 
ATOM      3  C1  PXY d   1       1.351  -0.241  -0.237  0.00  0.00    -0.082 A 
ATOM      4  C2  PXY d   1       0.456   0.612   0.236  0.00  0.00     0.003 A 
ATOM      5  C3  PXY d   1       0.854   1.693   0.979  0.00  0.00     0.003 A 
ATOM      6  C4  PXY d   1       2.176   1.874   1.287  0.00  0.00    -0.082 A 
ATOM      7  C5  PXY d   1       3.094   1.003   0.817  0.00  0.00     0.003 A 
ATOM      8  C6  PXY d   1       2.674  -0.065   0.030  0.00  0.00     0.003 A 
ENDROOT
TORSDOF 0
ENDMDL
