MODEL 1
REMARK minimizedAffinity 3.86038399
REMARK minimizedRMSD -1
REMARK  0 active torsions:
REMARK  status: ('A' for Active; 'I' for Inactive)
ROOT
ATOM      1  C4' PXY d   1       1.335  -2.348   0.347  0.00  0.00     0.077 C 
ATOM      2  C1' PXY d   1       1.083   2.955  -1.939  0.00  0.00     0.077 C 
ATOM      3  C1  PXY d   1       1.158   1.569  -1.330  0.00  0.00    -0.082 A 
ATOM      4  C2  PXY d   1       0.862   0.513  -2.071  0.00  0.00     0.003 A 
ATOM      5  C3  PXY d   1       0.893  -0.746  -1.527  0.00  0.00     0.003 A 
ATOM      6  C4  PXY d   1       1.283  -0.930  -0.228  0.00  0.00    -0.082 A 
ATOM      7  C5  PXY d   1       1.597   0.142   0.531  0.00  0.00     0.003 A 
ATOM      8  C6  PXY d   1       1.519   1.414  -0.028  0.00  0.00     0.003 A 
ENDROOT
TORSDOF 0
ENDMDL
