MODEL 1
REMARK minimizedAffinity 4.91110039
REMARK minimizedRMSD -1
REMARK  0 active torsions:
REMARK  status: ('A' for Active; 'I' for Inactive)
ROOT
ATOM      1  C4' PXY d   1       0.929  -0.762  -3.298  0.00  0.00     0.077 C 
ATOM      2  C1' PXY d   1       1.263   1.821   1.862  0.00  0.00     0.077 C 
ATOM      3  C1  PXY d   1       1.171   1.155   0.504  0.00  0.00    -0.082 A 
ATOM      4  C2  PXY d   1       1.023  -0.158   0.427  0.00  0.00     0.003 A 
ATOM      5  C3  PXY d   1       0.971  -0.780  -0.793  0.00  0.00     0.003 A 
ATOM      6  C4  PXY d   1       1.017  -0.045  -1.948  0.00  0.00    -0.082 A 
ATOM      7  C5  PXY d   1       1.157   1.295  -1.878  0.00  0.00     0.003 A 
ATOM      8  C6  PXY d   1       1.250   1.904  -0.630  0.00  0.00     0.003 A 
ENDROOT
TORSDOF 0
ENDMDL
