MODEL 1
REMARK minimizedAffinity 1.58483589
REMARK minimizedRMSD -1
REMARK  0 active torsions:
REMARK  status: ('A' for Active; 'I' for Inactive)
ROOT
ATOM      1  C4' PXY d   1       3.168   2.621   2.464  0.00  0.00     0.077 C 
ATOM      2  C1' PXY d   1       0.196  -0.435  -1.439  0.00  0.00     0.077 C 
ATOM      3  C1  PXY d   1       0.986   0.359  -0.418  0.00  0.00    -0.082 A 
ATOM      4  C2  PXY d   1       0.349   0.989   0.556  0.00  0.00     0.003 A 
ATOM      5  C3  PXY d   1       1.045   1.738   1.469  0.00  0.00     0.003 A 
ATOM      6  C4  PXY d   1       2.412   1.799   1.416  0.00  0.00    -0.082 A 
ATOM      7  C5  PXY d   1       3.070   1.151   0.432  0.00  0.00     0.003 A 
ATOM      8  C6  PXY d   1       2.342   0.430  -0.509  0.00  0.00     0.003 A 
ENDROOT
TORSDOF 0
ENDMDL
