MODEL 1
REMARK minimizedAffinity 2.77555203
REMARK minimizedRMSD -1
REMARK  0 active torsions:
REMARK  status: ('A' for Active; 'I' for Inactive)
ROOT
ATOM      1  C4' PXY d   1       1.110  -1.680   0.629  0.00  0.00     0.077 C 
ATOM      2  C1' PXY d   1       1.378   3.624  -1.653  0.00  0.00     0.077 C 
ATOM      3  C1  PXY d   1       1.312   2.238  -1.043  0.00  0.00    -0.082 A 
ATOM      4  C2  PXY d   1       1.391   1.174  -1.826  0.00  0.00     0.003 A 
ATOM      5  C3  PXY d   1       1.301  -0.087  -1.295  0.00  0.00     0.003 A 
ATOM      6  C4  PXY d   1       1.182  -0.261   0.058  0.00  0.00    -0.082 A 
ATOM      7  C5  PXY d   1       1.111   0.819   0.865  0.00  0.00     0.003 A 
ATOM      8  C6  PXY d   1       1.163   2.090   0.301  0.00  0.00     0.003 A 
ENDROOT
TORSDOF 0
ENDMDL
