MODEL 1
REMARK minimizedAffinity 6.20442104
REMARK minimizedRMSD -1
REMARK  0 active torsions:
REMARK  status: ('A' for Active; 'I' for Inactive)
ROOT
ATOM      1  C4' PXY d   1       0.735   1.681  -3.557  0.00  0.00     0.077 C 
ATOM      2  C1' PXY d   1       1.362   0.215   2.000  0.00  0.00     0.077 C 
ATOM      3  C1  PXY d   1       1.200   0.587   0.539  0.00  0.00    -0.082 A 
ATOM      4  C2  PXY d   1       1.357   1.846   0.164  0.00  0.00     0.003 A 
ATOM      5  C3  PXY d   1       1.183   2.206  -1.148  0.00  0.00     0.003 A 
ATOM      6  C4  PXY d   1       0.898   1.258  -2.094  0.00  0.00    -0.082 A 
ATOM      7  C5  PXY d   1       0.747  -0.031  -1.721  0.00  0.00     0.003 A 
ATOM      8  C6  PXY d   1       0.887  -0.368  -0.378  0.00  0.00     0.003 A 
ENDROOT
TORSDOF 0
ENDMDL
