MODEL 1
REMARK minimizedAffinity -1.82447493
REMARK minimizedRMSD -1
REMARK  0 active torsions:
REMARK  status: ('A' for Active; 'I' for Inactive)
ROOT
ATOM      1  C4' PXY d   1       3.204   2.607   2.676  0.00  0.00     0.077 C 
ATOM      2  C1' PXY d   1       1.302  -0.511  -1.804  0.00  0.00     0.077 C 
ATOM      3  C1  PXY d   1       1.810   0.298  -0.627  0.00  0.00    -0.082 A 
ATOM      4  C2  PXY d   1       0.993   1.132  -0.006  0.00  0.00     0.003 A 
ATOM      5  C3  PXY d   1       1.445   1.895   1.040  0.00  0.00     0.003 A 
ATOM      6  C4  PXY d   1       2.732   1.763   1.489  0.00  0.00    -0.082 A 
ATOM      7  C5  PXY d   1       3.568   0.906   0.867  0.00  0.00     0.003 A 
ATOM      8  C6  PXY d   1       3.102   0.171  -0.219  0.00  0.00     0.003 A 
ENDROOT
TORSDOF 0
ENDMDL
