MODEL 1
REMARK minimizedAffinity 3.05915976
REMARK minimizedRMSD -1
REMARK  0 active torsions:
REMARK  status: ('A' for Active; 'I' for Inactive)
ROOT
ATOM      1  C4' PXY d   1       3.585  -0.712   0.759  0.00  0.00     0.077 C 
ATOM      2  C1' PXY d   1      -1.223   1.857  -1.163  0.00  0.00     0.077 C 
ATOM      3  C1  PXY d   1       0.042   1.195  -0.654  0.00  0.00    -0.082 A 
ATOM      4  C2  PXY d   1       0.475   0.084  -1.228  0.00  0.00     0.003 A 
ATOM      5  C3  PXY d   1       1.599  -0.545  -0.760  0.00  0.00     0.003 A 
ATOM      6  C4  PXY d   1       2.318  -0.003   0.273  0.00  0.00    -0.082 A 
ATOM      7  C5  PXY d   1       1.888   1.135   0.856  0.00  0.00     0.003 A 
ATOM      8  C6  PXY d   1       0.722   1.737   0.393  0.00  0.00     0.003 A 
ENDROOT
TORSDOF 0
ENDMDL
