MODEL 1
REMARK minimizedAffinity 13.9510469
REMARK minimizedRMSD -1
REMARK  2 active torsions:
REMARK  status: ('A' for Active; 'I' for Inactive)
REMARK    1  A    between atoms: C2'_3  and  C1'_4 
REMARK    2  A    between atoms: C1'_4  and  C1_5 
ROOT
ATOM      1  C1  I4B d   1      -0.450  -3.132   3.202  0.00  0.00    -0.075 A 
ATOM      2  C2  I4B d   1      -0.007  -2.899   1.923  0.00  0.00     0.003 A 
ATOM      3  C3  I4B d   1       0.769  -3.873   1.249  0.00  0.00     0.002 A 
ATOM      4  C4  I4B d   1       1.120  -5.035   1.905  0.00  0.00    -0.004 A 
ATOM      5  C5  I4B d   1       0.651  -5.280   3.193  0.00  0.00     0.002 A 
ATOM      6  C6  I4B d   1      -0.149  -4.328   3.841  0.00  0.00     0.003 A 
ENDROOT
BRANCH   1   7
ATOM      7  C1' I4B d   1      -1.240  -2.069   3.896  0.00  0.00     0.060 C 
BRANCH   7   8
ATOM      8  C2' I4B d   1      -0.298  -0.929   4.228  0.00  0.00    -0.013 C 
ATOM      9  C4' I4B d   1      -0.180   0.034   3.077  0.00  0.00     0.013 C 
ATOM     10  C3' I4B d   1      -0.817  -0.244   5.457  0.00  0.00     0.013 C 
ENDBRANCH   7   8
ENDBRANCH   1   7
TORSDOF 2
ENDMDL
