MODEL 1
REMARK minimizedAffinity 6.34015322
REMARK minimizedRMSD -1
REMARK  2 active torsions:
REMARK  status: ('A' for Active; 'I' for Inactive)
REMARK    1  A    between atoms: C2'_3  and  C1'_4 
REMARK    2  A    between atoms: C1'_4  and  C1_5 
ROOT
ATOM      1  C1  I4B d   1      -0.683  -1.691   4.251  0.00  0.00    -0.075 A 
ATOM      2  C2  I4B d   1      -1.106  -1.639   5.556  0.00  0.00     0.003 A 
ATOM      3  C3  I4B d   1      -2.151  -2.485   6.000  0.00  0.00     0.002 A 
ATOM      4  C4  I4B d   1      -2.774  -3.326   5.100  0.00  0.00    -0.004 A 
ATOM      5  C5  I4B d   1      -2.328  -3.394   3.784  0.00  0.00     0.002 A 
ATOM      6  C6  I4B d   1      -1.267  -2.581   3.359  0.00  0.00     0.003 A 
ENDROOT
BRANCH   1   7
ATOM      7  C1' I4B d   1       0.401  -0.760   3.808  0.00  0.00     0.060 C 
BRANCH   7   8
ATOM      8  C2' I4B d   1       0.680  -1.033   2.344  0.00  0.00    -0.013 C 
ATOM      9  C4' I4B d   1       1.862  -0.236   1.857  0.00  0.00     0.013 C 
ATOM     10  C3' I4B d   1       0.917  -2.505   2.184  0.00  0.00     0.013 C 
ENDBRANCH   7   8
ENDBRANCH   1   7
TORSDOF 2
ENDMDL
