MODEL 1
REMARK minimizedAffinity 7.56669283
REMARK minimizedRMSD -1
REMARK  2 active torsions:
REMARK  status: ('A' for Active; 'I' for Inactive)
REMARK    1  A    between atoms: C2'_3  and  C1'_4 
REMARK    2  A    between atoms: C1'_4  and  C1_5 
ROOT
ATOM      1  C1  I4B d   1      -0.166  -1.315   3.419  0.00  0.00    -0.075 A 
ATOM      2  C2  I4B d   1      -1.466  -1.312   3.861  0.00  0.00     0.003 A 
ATOM      3  C3  I4B d   1      -1.775  -0.846   5.162  0.00  0.00     0.002 A 
ATOM      4  C4  I4B d   1      -0.756  -0.441   5.999  0.00  0.00    -0.004 A 
ATOM      5  C5  I4B d   1       0.558  -0.423   5.541  0.00  0.00     0.002 A 
ATOM      6  C6  I4B d   1       0.854  -0.851   4.239  0.00  0.00     0.003 A 
ENDROOT
BRANCH   1   7
ATOM      7  C1' I4B d   1       0.129  -1.845   2.052  0.00  0.00     0.060 C 
BRANCH   7   8
ATOM      8  C2' I4B d   1       1.591  -2.242   2.011  0.00  0.00    -0.013 C 
ATOM      9  C4' I4B d   1       1.763  -3.631   1.454  0.00  0.00     0.013 C 
ATOM     10  C3' I4B d   1       2.322  -1.231   1.180  0.00  0.00     0.013 C 
ENDBRANCH   7   8
ENDBRANCH   1   7
TORSDOF 2
ENDMDL
