MODEL 1
REMARK minimizedAffinity 7.56901264
REMARK minimizedRMSD -1
REMARK  2 active torsions:
REMARK  status: ('A' for Active; 'I' for Inactive)
REMARK    1  A    between atoms: C2'_3  and  C1'_4 
REMARK    2  A    between atoms: C1'_4  and  C1_5 
ROOT
ATOM      1  C1  I4B d   1      -1.729   2.309  -1.852  0.00  0.00    -0.075 A 
ATOM      2  C2  I4B d   1      -0.891   2.066  -0.792  0.00  0.00     0.003 A 
ATOM      3  C3  I4B d   1       0.335   2.766  -0.677  0.00  0.00     0.002 A 
ATOM      4  C4  I4B d   1       0.704   3.657  -1.664  0.00  0.00    -0.004 A 
ATOM      5  C5  I4B d   1      -0.157   3.919  -2.726  0.00  0.00     0.002 A 
ATOM      6  C6  I4B d   1      -1.387   3.250  -2.815  0.00  0.00     0.003 A 
ENDROOT
BRANCH   1   7
ATOM      7  C1' I4B d   1      -3.000   1.528  -1.960  0.00  0.00     0.060 C 
BRANCH   7   8
ATOM      8  C2' I4B d   1      -4.153   2.475  -1.698  0.00  0.00    -0.013 C 
ATOM      9  C4' I4B d   1      -5.395   2.038  -2.430  0.00  0.00     0.013 C 
ATOM     10  C3' I4B d   1      -4.385   2.523  -0.217  0.00  0.00     0.013 C 
ENDBRANCH   7   8
ENDBRANCH   1   7
TORSDOF 2
ENDMDL
