MODEL 1
REMARK minimizedAffinity 10.4152699
REMARK minimizedRMSD -1
REMARK  2 active torsions:
REMARK  status: ('A' for Active; 'I' for Inactive)
REMARK    1  A    between atoms: C2'_3  and  C1'_4 
REMARK    2  A    between atoms: C1'_4  and  C1_5 
ROOT
ATOM      1  C1  I4B d   1      -1.395  -2.720   3.273  0.00  0.00    -0.075 A 
ATOM      2  C2  I4B d   1      -0.567  -2.840   2.185  0.00  0.00     0.003 A 
ATOM      3  C3  I4B d   1       0.501  -1.930   1.998  0.00  0.00     0.002 A 
ATOM      4  C4  I4B d   1       0.673  -0.891   2.890  0.00  0.00    -0.004 A 
ATOM      5  C5  I4B d   1      -0.154  -0.784   4.005  0.00  0.00     0.002 A 
ATOM      6  C6  I4B d   1      -1.187  -1.711   4.204  0.00  0.00     0.003 A 
ENDROOT
BRANCH   1   7
ATOM      7  C1' I4B d   1      -2.534  -3.678   3.422  0.00  0.00     0.060 C 
BRANCH   7   8
ATOM      8  C2' I4B d   1      -3.650  -3.224   2.503  0.00  0.00    -0.013 C 
ATOM      9  C4' I4B d   1      -3.743  -4.103   1.283  0.00  0.00     0.013 C 
ATOM     10  C3' I4B d   1      -4.930  -3.243   3.284  0.00  0.00     0.013 C 
ENDBRANCH   7   8
ENDBRANCH   1   7
TORSDOF 2
ENDMDL
