MODEL 1
REMARK minimizedAffinity 13.8123617
REMARK minimizedRMSD -1
REMARK  2 active torsions:
REMARK  status: ('A' for Active; 'I' for Inactive)
REMARK    1  A    between atoms: C2'_3  and  C1'_4 
REMARK    2  A    between atoms: C1'_4  and  C1_5 
ROOT
ATOM      1  C1  I4B d   1      -0.935  -2.045   2.892  0.00  0.00    -0.075 A 
ATOM      2  C2  I4B d   1      -0.188  -2.333   1.777  0.00  0.00     0.003 A 
ATOM      3  C3  I4B d   1       0.914  -1.516   1.426  0.00  0.00     0.002 A 
ATOM      4  C4  I4B d   1       1.200  -0.399   2.184  0.00  0.00    -0.004 A 
ATOM      5  C5  I4B d   1       0.455  -0.121   3.326  0.00  0.00     0.002 A 
ATOM      6  C6  I4B d   1      -0.611  -0.955   3.690  0.00  0.00     0.003 A 
ENDROOT
BRANCH   1   7
ATOM      7  C1' I4B d   1      -2.112  -2.910   3.215  0.00  0.00     0.060 C 
BRANCH   7   8
ATOM      8  C2' I4B d   1      -3.057  -2.873   2.031  0.00  0.00    -0.013 C 
ATOM      9  C4' I4B d   1      -3.081  -4.196   1.311  0.00  0.00     0.013 C 
ATOM     10  C3' I4B d   1      -4.420  -2.508   2.538  0.00  0.00     0.013 C 
ENDBRANCH   7   8
ENDBRANCH   1   7
TORSDOF 2
ENDMDL
