MODEL 1
REMARK minimizedAffinity 15.0444307
REMARK minimizedRMSD -1
REMARK  2 active torsions:
REMARK  status: ('A' for Active; 'I' for Inactive)
REMARK    1  A    between atoms: C2'_3  and  C1'_4 
REMARK    2  A    between atoms: C1'_4  and  C1_5 
ROOT
ATOM      1  C1  I4B d   1       0.701   3.778  -1.809  0.00  0.00    -0.075 A 
ATOM      2  C2  I4B d   1       0.903   5.082  -2.187  0.00  0.00     0.003 A 
ATOM      3  C3  I4B d   1       1.529   5.992  -1.302  0.00  0.00     0.002 A 
ATOM      4  C4  I4B d   1       1.890   5.572  -0.038  0.00  0.00    -0.004 A 
ATOM      5  C5  I4B d   1       1.706   4.244   0.335  0.00  0.00     0.002 A 
ATOM      6  C6  I4B d   1       1.119   3.338  -0.560  0.00  0.00     0.003 A 
ENDROOT
BRANCH   1   7
ATOM      7  C1' I4B d   1       0.007   2.851  -2.756  0.00  0.00     0.060 C 
BRANCH   7   8
ATOM      8  C2' I4B d   1      -1.467   3.203  -2.758  0.00  0.00    -0.013 C 
ATOM      9  C4' I4B d   1      -1.880   3.812  -4.072  0.00  0.00     0.013 C 
ATOM     10  C3' I4B d   1      -2.242   1.952  -2.472  0.00  0.00     0.013 C 
ENDBRANCH   7   8
ENDBRANCH   1   7
TORSDOF 2
ENDMDL
