MODEL 1
REMARK minimizedAffinity 5.3630147
REMARK minimizedRMSD -1
REMARK  2 active torsions:
REMARK  status: ('A' for Active; 'I' for Inactive)
REMARK    1  A    between atoms: C2'_3  and  C1'_4 
REMARK    2  A    between atoms: C1'_4  and  C1_5 
ROOT
ATOM      1  C1  I4B d   1      -0.854  -2.659   3.242  0.00  0.00    -0.075 A 
ATOM      2  C2  I4B d   1      -0.071  -2.461   2.132  0.00  0.00     0.003 A 
ATOM      3  C3  I4B d   1       0.720  -1.292   2.017  0.00  0.00     0.002 A 
ATOM      4  C4  I4B d   1       0.660  -0.331   3.005  0.00  0.00    -0.004 A 
ATOM      5  C5  I4B d   1      -0.116  -0.544   4.140  0.00  0.00     0.002 A 
ATOM      6  C6  I4B d   1      -0.869  -1.720   4.266  0.00  0.00     0.003 A 
ENDROOT
BRANCH   1   7
ATOM      7  C1' I4B d   1      -1.702  -3.888   3.316  0.00  0.00     0.060 C 
BRANCH   7   8
ATOM      8  C2' I4B d   1      -3.153  -3.453   3.362  0.00  0.00    -0.013 C 
ATOM      9  C4' I4B d   1      -3.934  -4.036   2.214  0.00  0.00     0.013 C 
ATOM     10  C3' I4B d   1      -3.724  -3.883   4.680  0.00  0.00     0.013 C 
ENDBRANCH   7   8
ENDBRANCH   1   7
TORSDOF 2
ENDMDL
