MODEL 1
REMARK minimizedAffinity 16.5308456
REMARK minimizedRMSD -1
REMARK  2 active torsions:
REMARK  status: ('A' for Active; 'I' for Inactive)
REMARK    1  A    between atoms: C2'_3  and  C1'_4 
REMARK    2  A    between atoms: C1'_4  and  C1_5 
ROOT
ATOM      1  C1  I4B d   1      -1.234  -0.974   4.805  0.00  0.00    -0.075 A 
ATOM      2  C2  I4B d   1      -2.061  -1.029   5.899  0.00  0.00     0.003 A 
ATOM      3  C3  I4B d   1      -3.046  -2.041   5.999  0.00  0.00     0.002 A 
ATOM      4  C4  I4B d   1      -3.201  -2.942   4.965  0.00  0.00    -0.004 A 
ATOM      5  C5  I4B d   1      -2.347  -2.899   3.867  0.00  0.00     0.002 A 
ATOM      6  C6  I4B d   1      -1.349  -1.917   3.791  0.00  0.00     0.003 A 
ENDROOT
BRANCH   1   7
ATOM      7  C1' I4B d   1      -0.227   0.128   4.716  0.00  0.00     0.060 C 
BRANCH   7   8
ATOM      8  C2' I4B d   1       1.072  -0.466   4.211  0.00  0.00    -0.013 C 
ATOM      9  C4' I4B d   1       1.143  -0.422   2.708  0.00  0.00     0.013 C 
ATOM     10  C3' I4B d   1       2.203   0.301   4.829  0.00  0.00     0.013 C 
ENDBRANCH   7   8
ENDBRANCH   1   7
TORSDOF 2
ENDMDL
