MODEL 1
REMARK minimizedAffinity 17.4641628
REMARK minimizedRMSD -1
REMARK  2 active torsions:
REMARK  status: ('A' for Active; 'I' for Inactive)
REMARK    1  A    between atoms: C2'_3  and  C1'_4 
REMARK    2  A    between atoms: C1'_4  and  C1_5 
ROOT
ATOM      1  C1  I4B d   1       1.526  -1.945   1.813  0.00  0.00    -0.075 A 
ATOM      2  C2  I4B d   1       1.957  -0.981   2.689  0.00  0.00     0.003 A 
ATOM      3  C3  I4B d   1       3.203  -0.338   2.484  0.00  0.00     0.002 A 
ATOM      4  C4  I4B d   1       4.001  -0.724   1.427  0.00  0.00    -0.004 A 
ATOM      5  C5  I4B d   1       3.552  -1.686   0.527  0.00  0.00     0.002 A 
ATOM      6  C6  I4B d   1       2.301  -2.292   0.714  0.00  0.00     0.003 A 
ENDROOT
BRANCH   1   7
ATOM      7  C1' I4B d   1       0.221  -2.627   2.077  0.00  0.00     0.060 C 
BRANCH   7   8
ATOM      8  C2' I4B d   1      -0.857  -1.882   1.317  0.00  0.00    -0.013 C 
ATOM      9  C4' I4B d   1      -2.229  -2.389   1.678  0.00  0.00     0.013 C 
ATOM     10  C3' I4B d   1      -0.720  -0.422   1.630  0.00  0.00     0.013 C 
ENDBRANCH   7   8
ENDBRANCH   1   7
TORSDOF 2
ENDMDL
