MODEL 1
REMARK minimizedAffinity 12.1364422
REMARK minimizedRMSD -1
REMARK  2 active torsions:
REMARK  status: ('A' for Active; 'I' for Inactive)
REMARK    1  A    between atoms: C2'_3  and  C1'_4 
REMARK    2  A    between atoms: C1'_4  and  C1_5 
ROOT
ATOM      1  C1  I4B d   1       1.169  -1.707   1.748  0.00  0.00    -0.075 A 
ATOM      2  C2  I4B d   1      -0.181  -1.697   1.500  0.00  0.00     0.003 A 
ATOM      3  C3  I4B d   1      -0.905  -2.913   1.444  0.00  0.00     0.002 A 
ATOM      4  C4  I4B d   1      -0.234  -4.110   1.591  0.00  0.00    -0.004 A 
ATOM      5  C5  I4B d   1       1.130  -4.117   1.865  0.00  0.00     0.002 A 
ATOM      6  C6  I4B d   1       1.834  -2.908   1.957  0.00  0.00     0.003 A 
ENDROOT
BRANCH   1   7
ATOM      7  C1' I4B d   1       1.908  -0.407   1.768  0.00  0.00     0.060 C 
BRANCH   7   8
ATOM      8  C2' I4B d   1       3.374  -0.707   2.004  0.00  0.00    -0.013 C 
ATOM      9  C4' I4B d   1       4.088  -0.989   0.708  0.00  0.00     0.013 C 
ATOM     10  C3' I4B d   1       3.980   0.469   2.710  0.00  0.00     0.013 C 
ENDBRANCH   7   8
ENDBRANCH   1   7
TORSDOF 2
ENDMDL
