MODEL 1
REMARK minimizedAffinity 22.4887047
REMARK minimizedRMSD -1
REMARK  2 active torsions:
REMARK  status: ('A' for Active; 'I' for Inactive)
REMARK    1  A    between atoms: C2'_3  and  C1'_4 
REMARK    2  A    between atoms: C1'_4  and  C1_5 
ROOT
ATOM      1  C1  I4B d   1       2.531  -1.636   1.544  0.00  0.00    -0.075 A 
ATOM      2  C2  I4B d   1       1.822  -0.897   2.458  0.00  0.00     0.003 A 
ATOM      3  C3  I4B d   1       2.405   0.247   3.056  0.00  0.00     0.002 A 
ATOM      4  C4  I4B d   1       3.709   0.583   2.751  0.00  0.00    -0.004 A 
ATOM      5  C5  I4B d   1       4.418  -0.155   1.807  0.00  0.00     0.002 A 
ATOM      6  C6  I4B d   1       3.821  -1.264   1.191  0.00  0.00     0.003 A 
ENDROOT
BRANCH   1   7
ATOM      7  C1' I4B d   1       1.896  -2.857   0.957  0.00  0.00     0.060 C 
BRANCH   7   8
ATOM      8  C2' I4B d   1       1.005  -3.475   2.015  0.00  0.00    -0.013 C 
ATOM      9  C4' I4B d   1      -0.451  -3.317   1.662  0.00  0.00     0.013 C 
ATOM     10  C3' I4B d   1       1.376  -4.921   2.146  0.00  0.00     0.013 C 
ENDBRANCH   7   8
ENDBRANCH   1   7
TORSDOF 2
ENDMDL
