MODEL 1
REMARK minimizedAffinity 18.7885132
REMARK minimizedRMSD -1
REMARK  2 active torsions:
REMARK  status: ('A' for Active; 'I' for Inactive)
REMARK    1  A    between atoms: C2'_3  and  C1'_4 
REMARK    2  A    between atoms: C1'_4  and  C1_5 
ROOT
ATOM      1  C1  I4B d   1      -2.699   4.443  -2.282  0.00  0.00    -0.075 A 
ATOM      2  C2  I4B d   1      -2.245   3.392  -3.039  0.00  0.00     0.003 A 
ATOM      3  C3  I4B d   1      -1.563   3.632  -4.256  0.00  0.00     0.002 A 
ATOM      4  C4  I4B d   1      -1.404   4.928  -4.702  0.00  0.00    -0.004 A 
ATOM      5  C5  I4B d   1      -1.844   5.994  -3.922  0.00  0.00     0.002 A 
ATOM      6  C6  I4B d   1      -2.485   5.751  -2.698  0.00  0.00     0.003 A 
ENDROOT
BRANCH   1   7
ATOM      7  C1' I4B d   1      -3.443   4.152  -1.018  0.00  0.00     0.060 C 
BRANCH   7   8
ATOM      8  C2' I4B d   1      -4.926   4.206  -1.326  0.00  0.00    -0.013 C 
ATOM      9  C4' I4B d   1      -5.403   2.914  -1.935  0.00  0.00     0.013 C 
ATOM     10  C3' I4B d   1      -5.654   4.504  -0.049  0.00  0.00     0.013 C 
ENDBRANCH   7   8
ENDBRANCH   1   7
TORSDOF 2
ENDMDL
