MODEL 1
REMARK minimizedAffinity 18.8132153
REMARK minimizedRMSD -1
REMARK  2 active torsions:
REMARK  status: ('A' for Active; 'I' for Inactive)
REMARK    1  A    between atoms: C2'_3  and  C1'_4 
REMARK    2  A    between atoms: C1'_4  and  C1_5 
ROOT
ATOM      1  C1  I4B d   1      -2.331   3.664  -3.586  0.00  0.00    -0.075 A 
ATOM      2  C2  I4B d   1      -2.205   5.031  -3.594  0.00  0.00     0.003 A 
ATOM      3  C3  I4B d   1      -2.276   5.745  -4.815  0.00  0.00     0.002 A 
ATOM      4  C4  I4B d   1      -2.422   5.054  -6.000  0.00  0.00    -0.004 A 
ATOM      5  C5  I4B d   1      -2.572   3.670  -5.987  0.00  0.00     0.002 A 
ATOM      6  C6  I4B d   1      -2.539   2.971  -4.771  0.00  0.00     0.003 A 
ENDROOT
BRANCH   1   7
ATOM      7  C1' I4B d   1      -2.218   2.938  -2.283  0.00  0.00     0.060 C 
BRANCH   7   8
ATOM      8  C2' I4B d   1      -0.907   2.178  -2.283  0.00  0.00    -0.013 C 
ATOM      9  C4' I4B d   1      -0.134   2.424  -1.014  0.00  0.00     0.013 C 
ATOM     10  C3' I4B d   1      -1.217   0.721  -2.456  0.00  0.00     0.013 C 
ENDBRANCH   7   8
ENDBRANCH   1   7
TORSDOF 2
ENDMDL
