MODEL 1
REMARK minimizedAffinity -3.22914886
REMARK minimizedRMSD -1
REMARK  0 active torsions:
REMARK  status: ('A' for Active; 'I' for Inactive)
ROOT
ATOM      1  O1  BZF d   1      -4.981   2.444   4.767  0.00  0.00    -0.204 OA
ATOM      2  C2  BZF d   1      -5.630   2.756   5.946  0.00  0.00     0.174 A 
ATOM      3  C3  BZF d   1      -5.971   4.060   5.974  0.00  0.00    -0.012 A 
ATOM      4  C3A BZF d   1      -5.589   4.577   4.696  0.00  0.00    -0.107 A 
ATOM      5  C4  BZF d   1      -5.684   5.809   4.114  0.00  0.00     0.055 A 
ATOM      6  C5  BZF d   1      -5.149   6.000   2.880  0.00  0.00    -0.016 A 
ATOM      7  C6  BZF d   1      -4.508   4.984   2.202  0.00  0.00     0.022 A 
ATOM      8  C7  BZF d   1      -4.393   3.743   2.736  0.00  0.00     0.029 A 
ATOM      9  C7A BZF d   1      -4.962   3.539   3.969  0.00  0.00     0.058 A 
ENDROOT
TORSDOF 0
ENDMDL
