MODEL 1
REMARK minimizedAffinity -3.02427554
REMARK minimizedRMSD -1
REMARK  0 active torsions:
REMARK  status: ('A' for Active; 'I' for Inactive)
ROOT
ATOM      1  O1  BZF d   1      -3.854   5.293   1.976  0.00  0.00    -0.204 OA
ATOM      2  C2  BZF d   1      -4.966   5.950   1.488  0.00  0.00     0.174 A 
ATOM      3  C3  BZF d   1      -5.995   5.861   2.355  0.00  0.00    -0.012 A 
ATOM      4  C3A BZF d   1      -5.466   5.179   3.497  0.00  0.00    -0.107 A 
ATOM      5  C4  BZF d   1      -5.999   4.805   4.697  0.00  0.00     0.055 A 
ATOM      6  C5  BZF d   1      -5.236   4.088   5.564  0.00  0.00    -0.016 A 
ATOM      7  C6  BZF d   1      -3.941   3.724   5.260  0.00  0.00     0.022 A 
ATOM      8  C7  BZF d   1      -3.367   4.076   4.084  0.00  0.00     0.029 A 
ATOM      9  C7A BZF d   1      -4.124   4.829   3.220  0.00  0.00     0.058 A 
ENDROOT
TORSDOF 0
ENDMDL
