MODEL 1
REMARK minimizedAffinity 5.26654577
REMARK minimizedRMSD -1
REMARK  0 active torsions:
REMARK  status: ('A' for Active; 'I' for Inactive)
ROOT
ATOM      1  O1  BZF d   1      -5.491   6.000   2.234  0.00  0.00    -0.204 OA
ATOM      2  C2  BZF d   1      -6.000   5.997   3.518  0.00  0.00     0.174 A 
ATOM      3  C3  BZF d   1      -5.973   4.753   4.040  0.00  0.00    -0.012 A 
ATOM      4  C3A BZF d   1      -5.327   3.945   3.053  0.00  0.00    -0.107 A 
ATOM      5  C4  BZF d   1      -4.991   2.622   2.995  0.00  0.00     0.055 A 
ATOM      6  C5  BZF d   1      -4.434   2.131   1.857  0.00  0.00    -0.016 A 
ATOM      7  C6  BZF d   1      -4.203   2.931   0.758  0.00  0.00     0.022 A 
ATOM      8  C7  BZF d   1      -4.515   4.250   0.769  0.00  0.00     0.029 A 
ATOM      9  C7A BZF d   1      -5.048   4.757   1.929  0.00  0.00     0.058 A 
ENDROOT
TORSDOF 0
ENDMDL
