MODEL 1
REMARK minimizedAffinity -3.79471874
REMARK minimizedRMSD -1
REMARK  0 active torsions:
REMARK  status: ('A' for Active; 'I' for Inactive)
ROOT
ATOM      1  O1  BZF d   1      -4.100   4.500   4.966  0.00  0.00    -0.204 OA
ATOM      2  C2  BZF d   1      -4.413   3.183   5.243  0.00  0.00     0.174 A 
ATOM      3  C3  BZF d   1      -5.126   2.639   4.236  0.00  0.00    -0.012 A 
ATOM      4  C3A BZF d   1      -5.189   3.652   3.228  0.00  0.00    -0.107 A 
ATOM      5  C4  BZF d   1      -5.749   3.706   1.984  0.00  0.00     0.055 A 
ATOM      6  C5  BZF d   1      -5.694   4.870   1.285  0.00  0.00    -0.016 A 
ATOM      7  C6  BZF d   1      -5.093   5.999   1.800  0.00  0.00     0.022 A 
ATOM      8  C7  BZF d   1      -4.519   5.993   3.028  0.00  0.00     0.029 A 
ATOM      9  C7A BZF d   1      -4.544   4.809   3.724  0.00  0.00     0.058 A 
ENDROOT
TORSDOF 0
ENDMDL
