MODEL 1
REMARK minimizedAffinity -2.25688815
REMARK minimizedRMSD -1
REMARK  0 active torsions:
REMARK  status: ('A' for Active; 'I' for Inactive)
ROOT
ATOM      1  O1  BZF d   1      -5.972   6.000   3.455  0.00  0.00    -0.204 OA
ATOM      2  C2  BZF d   1      -5.681   5.717   2.134  0.00  0.00     0.174 A 
ATOM      3  C3  BZF d   1      -5.305   4.429   1.992  0.00  0.00    -0.012 A 
ATOM      4  C3A BZF d   1      -5.454   3.849   3.292  0.00  0.00    -0.107 A 
ATOM      5  C4  BZF d   1      -5.250   2.593   3.788  0.00  0.00     0.055 A 
ATOM      6  C5  BZF d   1      -5.418   2.373   5.118  0.00  0.00    -0.016 A 
ATOM      7  C6  BZF d   1      -5.782   3.386   5.981  0.00  0.00     0.022 A 
ATOM      8  C7  BZF d   1      -6.000   4.647   5.535  0.00  0.00     0.029 A 
ATOM      9  C7A BZF d   1      -5.864   4.865   4.186  0.00  0.00     0.058 A 
ENDROOT
TORSDOF 0
ENDMDL
