MODEL 1
REMARK minimizedAffinity -2.07984138
REMARK minimizedRMSD -1
REMARK  0 active torsions:
REMARK  status: ('A' for Active; 'I' for Inactive)
ROOT
ATOM      1  O1  BZF d   1      -4.700   6.000   3.373  0.00  0.00    -0.204 OA
ATOM      2  C2  BZF d   1      -5.033   5.910   2.035  0.00  0.00     0.174 A 
ATOM      3  C3  BZF d   1      -5.224   4.625   1.675  0.00  0.00    -0.012 A 
ATOM      4  C3A BZF d   1      -5.087   3.871   2.883  0.00  0.00    -0.107 A 
ATOM      5  C4  BZF d   1      -5.184   2.541   3.176  0.00  0.00     0.055 A 
ATOM      6  C5  BZF d   1      -4.922   2.122   4.442  0.00  0.00    -0.016 A 
ATOM      7  C6  BZF d   1      -4.556   3.005   5.437  0.00  0.00     0.022 A 
ATOM      8  C7  BZF d   1      -4.452   4.334   5.196  0.00  0.00     0.029 A 
ATOM      9  C7A BZF d   1      -4.748   4.764   3.926  0.00  0.00     0.058 A 
ENDROOT
TORSDOF 0
ENDMDL
