MODEL 1
REMARK minimizedAffinity -2.98621821
REMARK minimizedRMSD -1
REMARK  0 active torsions:
REMARK  status: ('A' for Active; 'I' for Inactive)
ROOT
ATOM      1  O1  BZF d   1      -5.941   4.331   4.982  0.00  0.00    -0.204 OA
ATOM      2  C2  BZF d   1      -4.963   4.522   5.940  0.00  0.00     0.174 A 
ATOM      3  C3  BZF d   1      -3.798   4.888   5.367  0.00  0.00    -0.012 A 
ATOM      4  C3A BZF d   1      -4.089   5.018   3.972  0.00  0.00    -0.107 A 
ATOM      5  C4  BZF d   1      -3.340   5.372   2.886  0.00  0.00     0.055 A 
ATOM      6  C5  BZF d   1      -3.906   5.330   1.652  0.00  0.00    -0.016 A 
ATOM      7  C6  BZF d   1      -5.215   4.934   1.466  0.00  0.00     0.022 A 
ATOM      8  C7  BZF d   1      -5.998   4.578   2.513  0.00  0.00     0.029 A 
ATOM      9  C7A BZF d   1      -5.439   4.652   3.766  0.00  0.00     0.058 A 
ENDROOT
TORSDOF 0
ENDMDL
