MODEL 1
REMARK minimizedAffinity -3.69077969
REMARK minimizedRMSD -1
REMARK  0 active torsions:
REMARK  status: ('A' for Active; 'I' for Inactive)
ROOT
ATOM      1  O1  BZF d   1      -4.477   4.735   1.577  0.00  0.00    -0.204 OA
ATOM      2  C2  BZF d   1      -5.012   5.973   1.876  0.00  0.00     0.174 A 
ATOM      3  C3  BZF d   1      -5.480   5.999   3.141  0.00  0.00    -0.012 A 
ATOM      4  C3A BZF d   1      -5.138   4.726   3.695  0.00  0.00    -0.107 A 
ATOM      5  C4  BZF d   1      -5.321   4.156   4.923  0.00  0.00     0.055 A 
ATOM      6  C5  BZF d   1      -4.935   2.868   5.118  0.00  0.00    -0.016 A 
ATOM      7  C6  BZF d   1      -4.367   2.119   4.107  0.00  0.00     0.022 A 
ATOM      8  C7  BZF d   1      -4.160   2.643   2.874  0.00  0.00     0.029 A 
ATOM      9  C7A BZF d   1      -4.519   3.955   2.684  0.00  0.00     0.058 A 
ENDROOT
TORSDOF 0
ENDMDL
