MODEL 1
REMARK minimizedAffinity -3.2789712
REMARK minimizedRMSD -1
REMARK  0 active torsions:
REMARK  status: ('A' for Active; 'I' for Inactive)
ROOT
ATOM      1  O1  BZF d   1      -4.365   5.989   2.508  0.00  0.00    -0.204 OA
ATOM      2  C2  BZF d   1      -5.305   5.438   1.658  0.00  0.00     0.174 A 
ATOM      3  C3  BZF d   1      -6.000   4.464   2.281  0.00  0.00    -0.012 A 
ATOM      4  C3A BZF d   1      -5.524   4.467   3.631  0.00  0.00    -0.107 A 
ATOM      5  C4  BZF d   1      -5.842   3.736   4.740  0.00  0.00     0.055 A 
ATOM      6  C5  BZF d   1      -5.139   3.936   5.886  0.00  0.00    -0.016 A 
ATOM      7  C6  BZF d   1      -4.111   4.853   5.957  0.00  0.00     0.022 A 
ATOM      8  C7  BZF d   1      -3.763   5.605   4.884  0.00  0.00     0.029 A 
ATOM      9  C7A BZF d   1      -4.493   5.429   3.734  0.00  0.00     0.058 A 
ENDROOT
TORSDOF 0
ENDMDL
