MODEL 1
REMARK minimizedAffinity -2.59497666
REMARK minimizedRMSD -1
REMARK  0 active torsions:
REMARK  status: ('A' for Active; 'I' for Inactive)
ROOT
ATOM      1  O1  BZF d   1      -4.716   4.858   1.932  0.00  0.00    -0.204 OA
ATOM      2  C2  BZF d   1      -5.463   6.000   2.143  0.00  0.00     0.174 A 
ATOM      3  C3  BZF d   1      -5.997   6.000   3.382  0.00  0.00    -0.012 A 
ATOM      4  C3A BZF d   1      -5.480   4.825   4.014  0.00  0.00    -0.107 A 
ATOM      5  C4  BZF d   1      -5.634   4.284   5.259  0.00  0.00     0.055 A 
ATOM      6  C5  BZF d   1      -5.051   3.088   5.535  0.00  0.00    -0.016 A 
ATOM      7  C6  BZF d   1      -4.313   2.404   4.591  0.00  0.00     0.022 A 
ATOM      8  C7  BZF d   1      -4.128   2.903   3.345  0.00  0.00     0.029 A 
ATOM      9  C7A BZF d   1      -4.689   4.128   3.073  0.00  0.00     0.058 A 
ENDROOT
TORSDOF 0
ENDMDL
