MODEL 1
REMARK minimizedAffinity -3.38987446
REMARK minimizedRMSD -1
REMARK  0 active torsions:
REMARK  status: ('A' for Active; 'I' for Inactive)
ROOT
ATOM      1  O1  BZF d   1      -4.486   4.032   2.333  0.00  0.00    -0.204 OA
ATOM      2  C2  BZF d   1      -4.928   5.093   1.566  0.00  0.00     0.174 A 
ATOM      3  C3  BZF d   1      -5.571   6.000   2.329  0.00  0.00    -0.012 A 
ATOM      4  C3A BZF d   1      -5.448   5.519   3.670  0.00  0.00    -0.107 A 
ATOM      5  C4  BZF d   1      -5.868   5.993   4.880  0.00  0.00     0.055 A 
ATOM      6  C5  BZF d   1      -5.650   5.246   5.994  0.00  0.00    -0.016 A 
ATOM      7  C6  BZF d   1      -5.020   4.020   5.934  0.00  0.00     0.022 A 
ATOM      8  C7  BZF d   1      -4.581   3.510   4.758  0.00  0.00     0.029 A 
ATOM      9  C7A BZF d   1      -4.771   4.278   3.635  0.00  0.00     0.058 A 
ENDROOT
TORSDOF 0
ENDMDL
