MODEL 1
REMARK minimizedAffinity -2.87245369
REMARK minimizedRMSD -1
REMARK  0 active torsions:
REMARK  status: ('A' for Active; 'I' for Inactive)
ROOT
ATOM      1  O1  BZF d   1      -5.999   2.592   4.012  0.00  0.00    -0.204 OA
ATOM      2  C2  BZF d   1      -5.998   2.398   5.380  0.00  0.00     0.174 A 
ATOM      3  C3  BZF d   1      -5.274   3.354   5.998  0.00  0.00    -0.012 A 
ATOM      4  C3A BZF d   1      -4.870   4.251   4.959  0.00  0.00    -0.107 A 
ATOM      5  C4  BZF d   1      -4.142   5.406   4.947  0.00  0.00     0.055 A 
ATOM      6  C5  BZF d   1      -3.865   6.000   3.756  0.00  0.00    -0.016 A 
ATOM      7  C6  BZF d   1      -4.295   5.463   2.560  0.00  0.00     0.022 A 
ATOM      8  C7  BZF d   1      -5.024   4.321   2.522  0.00  0.00     0.029 A 
ATOM      9  C7A BZF d   1      -5.334   3.737   3.726  0.00  0.00     0.058 A 
ENDROOT
TORSDOF 0
ENDMDL
