MODEL 1
REMARK minimizedAffinity -3.51336074
REMARK minimizedRMSD -1
REMARK  0 active torsions:
REMARK  status: ('A' for Active; 'I' for Inactive)
ROOT
ATOM      1  O1  BZF d   1      -4.874   2.288   4.728  0.00  0.00    -0.204 OA
ATOM      2  C2  BZF d   1      -5.512   2.510   5.933  0.00  0.00     0.174 A 
ATOM      3  C3  BZF d   1      -5.993   3.768   5.995  0.00  0.00    -0.012 A 
ATOM      4  C3A BZF d   1      -5.714   4.341   4.714  0.00  0.00    -0.107 A 
ATOM      5  C4  BZF d   1      -5.964   5.563   4.158  0.00  0.00     0.055 A 
ATOM      6  C5  BZF d   1      -5.496   5.829   2.910  0.00  0.00    -0.016 A 
ATOM      7  C6  BZF d   1      -4.772   4.899   2.193  0.00  0.00     0.022 A 
ATOM      8  C7  BZF d   1      -4.503   3.671   2.701  0.00  0.00     0.029 A 
ATOM      9  C7A BZF d   1      -5.003   3.388   3.948  0.00  0.00     0.058 A 
ENDROOT
TORSDOF 0
ENDMDL
