MODEL 1
REMARK minimizedAffinity -3.3403728
REMARK minimizedRMSD -1
REMARK  0 active torsions:
REMARK  status: ('A' for Active; 'I' for Inactive)
ROOT
ATOM      1  O1  BZF d   1      -4.885   4.214   5.892  0.00  0.00    -0.204 OA
ATOM      2  C2  BZF d   1      -5.162   2.864   5.985  0.00  0.00     0.174 A 
ATOM      3  C3  BZF d   1      -5.677   2.401   4.828  0.00  0.00    -0.012 A 
ATOM      4  C3A BZF d   1      -5.639   3.513   3.927  0.00  0.00    -0.107 A 
ATOM      5  C4  BZF d   1      -6.000   3.675   2.620  0.00  0.00     0.055 A 
ATOM      6  C5  BZF d   1      -5.902   4.908   2.057  0.00  0.00    -0.016 A 
ATOM      7  C6  BZF d   1      -5.454   5.999   2.771  0.00  0.00     0.022 A 
ATOM      8  C7  BZF d   1      -5.079   5.886   4.069  0.00  0.00     0.029 A 
ATOM      9  C7A BZF d   1      -5.146   4.635   4.632  0.00  0.00     0.058 A 
ENDROOT
TORSDOF 0
ENDMDL
