MODEL 1
REMARK minimizedAffinity -2.32113504
REMARK minimizedRMSD -1
REMARK  0 active torsions:
REMARK  status: ('A' for Active; 'I' for Inactive)
ROOT
ATOM      1  O1  BZF d   1      -5.998   5.881   3.342  0.00  0.00    -0.204 OA
ATOM      2  C2  BZF d   1      -5.861   5.535   2.012  0.00  0.00     0.174 A 
ATOM      3  C3  BZF d   1      -5.652   4.209   1.881  0.00  0.00    -0.012 A 
ATOM      4  C3A BZF d   1      -5.752   3.680   3.207  0.00  0.00    -0.107 A 
ATOM      5  C4  BZF d   1      -5.653   2.420   3.725  0.00  0.00     0.055 A 
ATOM      6  C5  BZF d   1      -5.726   2.253   5.072  0.00  0.00    -0.016 A 
ATOM      7  C6  BZF d   1      -5.891   3.321   5.929  0.00  0.00     0.022 A 
ATOM      8  C7  BZF d   1      -5.999   4.589   5.461  0.00  0.00     0.029 A 
ATOM      9  C7A BZF d   1      -5.959   4.758   4.099  0.00  0.00     0.058 A 
ENDROOT
TORSDOF 0
ENDMDL
