MODEL 1
REMARK minimizedAffinity -3.43524289
REMARK minimizedRMSD -1
REMARK  0 active torsions:
REMARK  status: ('A' for Active; 'I' for Inactive)
ROOT
ATOM      1  O1  BZF d   1      -4.991   3.961   5.967  0.00  0.00    -0.204 OA
ATOM      2  C2  BZF d   1      -5.466   2.664   5.999  0.00  0.00     0.174 A 
ATOM      3  C3  BZF d   1      -5.981   2.314   4.803  0.00  0.00    -0.012 A 
ATOM      4  C3A BZF d   1      -5.735   3.433   3.945  0.00  0.00    -0.107 A 
ATOM      5  C4  BZF d   1      -6.000   3.683   2.629  0.00  0.00     0.055 A 
ATOM      6  C5  BZF d   1      -5.696   4.903   2.114  0.00  0.00    -0.016 A 
ATOM      7  C6  BZF d   1      -5.132   5.897   2.887  0.00  0.00     0.022 A 
ATOM      8  C7  BZF d   1      -4.847   5.695   4.197  0.00  0.00     0.029 A 
ATOM      9  C7A BZF d   1      -5.122   4.451   4.711  0.00  0.00     0.058 A 
ENDROOT
TORSDOF 0
ENDMDL
