MODEL 1
REMARK minimizedAffinity -3.00596857
REMARK minimizedRMSD -1
REMARK  0 active torsions:
REMARK  status: ('A' for Active; 'I' for Inactive)
ROOT
ATOM      1  O1  BZF d   1      -6.000   5.962   3.043  0.00  0.00    -0.204 OA
ATOM      2  C2  BZF d   1      -5.225   5.996   1.899  0.00  0.00     0.174 A 
ATOM      3  C3  BZF d   1      -4.252   5.063   1.952  0.00  0.00    -0.012 A 
ATOM      4  C3A BZF d   1      -4.487   4.343   3.166  0.00  0.00    -0.107 A 
ATOM      5  C4  BZF d   1      -3.864   3.287   3.766  0.00  0.00     0.055 A 
ATOM      6  C5  BZF d   1      -4.297   2.870   4.985  0.00  0.00    -0.016 A 
ATOM      7  C6  BZF d   1      -5.346   3.489   5.633  0.00  0.00     0.022 A 
ATOM      8  C7  BZF d   1      -5.998   4.538   5.075  0.00  0.00     0.029 A 
ATOM      9  C7A BZF d   1      -5.584   4.940   3.829  0.00  0.00     0.058 A 
ENDROOT
TORSDOF 0
ENDMDL
