MODEL 1
REMARK minimizedAffinity -2.2304554
REMARK minimizedRMSD -1
REMARK  0 active torsions:
REMARK  status: ('A' for Active; 'I' for Inactive)
ROOT
ATOM      1  O1  BZF d   1      -6.000   2.829   4.819  0.00  0.00    -0.204 OA
ATOM      2  C2  BZF d   1      -5.317   3.090   5.991  0.00  0.00     0.174 A 
ATOM      3  C3  BZF d   1      -4.452   4.111   5.824  0.00  0.00    -0.012 A 
ATOM      4  C3A BZF d   1      -4.670   4.573   4.488  0.00  0.00    -0.107 A 
ATOM      5  C4  BZF d   1      -4.122   5.577   3.741  0.00  0.00     0.055 A 
ATOM      6  C5  BZF d   1      -4.503   5.719   2.444  0.00  0.00    -0.016 A 
ATOM      7  C6  BZF d   1      -5.424   4.873   1.862  0.00  0.00     0.022 A 
ATOM      8  C7  BZF d   1      -5.998   3.866   2.564  0.00  0.00     0.029 A 
ATOM      9  C7A BZF d   1      -5.640   3.740   3.884  0.00  0.00     0.058 A 
ENDROOT
TORSDOF 0
ENDMDL
