MODEL 1
REMARK minimizedAffinity -3.68691659
REMARK minimizedRMSD -1
REMARK  0 active torsions:
REMARK  status: ('A' for Active; 'I' for Inactive)
ROOT
ATOM      1  O1  BZF d   1      -5.186   4.443   1.981  0.00  0.00    -0.204 OA
ATOM      2  C2  BZF d   1      -4.477   5.623   2.090  0.00  0.00     0.174 A 
ATOM      3  C3  BZF d   1      -4.217   5.908   3.382  0.00  0.00    -0.012 A 
ATOM      4  C3A BZF d   1      -4.721   4.791   4.122  0.00  0.00    -0.107 A 
ATOM      5  C4  BZF d   1      -4.745   4.480   5.451  0.00  0.00     0.055 A 
ATOM      6  C5  BZF d   1      -5.377   3.346   5.852  0.00  0.00    -0.016 A 
ATOM      7  C6  BZF d   1      -5.999   2.504   4.953  0.00  0.00     0.022 A 
ATOM      8  C7  BZF d   1      -5.997   2.769   3.624  0.00  0.00     0.029 A 
ATOM      9  C7A BZF d   1      -5.331   3.897   3.212  0.00  0.00     0.058 A 
ENDROOT
TORSDOF 0
ENDMDL
