MODEL 1
REMARK minimizedAffinity 4.11652136
REMARK minimizedRMSD -1
REMARK  0 active torsions:
REMARK  status: ('A' for Active; 'I' for Inactive)
ROOT
ATOM      1  C2' OXE d   1       2.222  -0.892   4.986  0.00  0.00     0.078 C 
ATOM      2  C1' OXE d   1       2.284  -2.910   3.035  0.00  0.00     0.078 C 
ATOM      3  C1  OXE d   1       3.382  -2.896   4.069  0.00  0.00    -0.078 A 
ATOM      4  C2  OXE d   1       3.370  -1.878   4.991  0.00  0.00    -0.078 A 
ATOM      5  C3  OXE d   1       4.329  -1.850   6.000  0.00  0.00     0.003 A 
ATOM      6  C4  OXE d   1       5.394  -2.760   5.991  0.00  0.00    -0.002 A 
ATOM      7  C5  OXE d   1       5.447  -3.781   5.037  0.00  0.00    -0.002 A 
ATOM      8  C6  OXE d   1       4.428  -3.889   4.096  0.00  0.00     0.003 A 
ENDROOT
TORSDOF 0
ENDMDL
