MODEL 1
REMARK minimizedAffinity -1.37473953
REMARK minimizedRMSD -1
REMARK  0 active torsions:
REMARK  status: ('A' for Active; 'I' for Inactive)
ROOT
ATOM      1  C2' OXE d   1      -0.280  -1.842  -3.452  0.00  0.00     0.078 C 
ATOM      2  C1' OXE d   1       1.094  -2.730  -1.170  0.00  0.00     0.078 C 
ATOM      3  C1  OXE d   1      -0.402  -2.559  -1.069  0.00  0.00    -0.078 A 
ATOM      4  C2  OXE d   1      -1.060  -2.080  -2.176  0.00  0.00    -0.078 A 
ATOM      5  C3  OXE d   1      -2.446  -1.956  -2.155  0.00  0.00     0.003 A 
ATOM      6  C4  OXE d   1      -3.158  -2.168  -0.968  0.00  0.00    -0.002 A 
ATOM      7  C5  OXE d   1      -2.502  -2.618   0.183  0.00  0.00    -0.002 A 
ATOM      8  C6  OXE d   1      -1.133  -2.859   0.137  0.00  0.00     0.003 A 
ENDROOT
TORSDOF 0
ENDMDL
