MODEL 1
REMARK minimizedAffinity 1.69000089
REMARK minimizedRMSD -1
REMARK  0 active torsions:
REMARK  status: ('A' for Active; 'I' for Inactive)
ROOT
ATOM      1  C2' OXE d   1      -0.373  -2.107  -4.171  0.00  0.00     0.078 C 
ATOM      2  C1' OXE d   1       2.046  -2.268  -2.756  0.00  0.00     0.078 C 
ATOM      3  C1  OXE d   1       0.763  -2.317  -1.964  0.00  0.00    -0.078 A 
ATOM      4  C2  OXE d   1      -0.415  -2.191  -2.660  0.00  0.00    -0.078 A 
ATOM      5  C3  OXE d   1      -1.628  -2.285  -1.984  0.00  0.00     0.003 A 
ATOM      6  C4  OXE d   1      -1.657  -2.352  -0.586  0.00  0.00    -0.002 A 
ATOM      7  C5  OXE d   1      -0.468  -2.442   0.146  0.00  0.00    -0.002 A 
ATOM      8  C6  OXE d   1       0.747  -2.468  -0.530  0.00  0.00     0.003 A 
ENDROOT
TORSDOF 0
ENDMDL
