MODEL 1
REMARK minimizedAffinity -0.592474937
REMARK minimizedRMSD -1
REMARK  0 active torsions:
REMARK  status: ('A' for Active; 'I' for Inactive)
ROOT
ATOM      1  C2' OXE d   1       0.306  -2.992  -4.787  0.00  0.00     0.078 C 
ATOM      2  C1' OXE d   1       0.028  -5.294  -3.205  0.00  0.00     0.078 C 
ATOM      3  C1  OXE d   1      -0.263  -3.961  -2.564  0.00  0.00    -0.078 A 
ATOM      4  C2  OXE d   1      -0.079  -2.836  -3.332  0.00  0.00    -0.078 A 
ATOM      5  C3  OXE d   1      -0.386  -1.584  -2.805  0.00  0.00     0.003 A 
ATOM      6  C4  OXE d   1      -0.732  -1.448  -1.456  0.00  0.00    -0.002 A 
ATOM      7  C5  OXE d   1      -0.886  -2.578  -0.645  0.00  0.00    -0.002 A 
ATOM      8  C6  OXE d   1      -0.697  -3.841  -1.194  0.00  0.00     0.003 A 
ENDROOT
TORSDOF 0
ENDMDL
