MODEL 1
REMARK minimizedAffinity -0.665861547
REMARK minimizedRMSD -1
REMARK  0 active torsions:
REMARK  status: ('A' for Active; 'I' for Inactive)
ROOT
ATOM      1  C2' OXE d   1       3.200  -5.121   4.705  0.00  0.00     0.078 C 
ATOM      2  C1' OXE d   1       5.677  -5.423   5.989  0.00  0.00     0.078 C 
ATOM      3  C1  OXE d   1       5.223  -4.024   5.658  0.00  0.00    -0.078 A 
ATOM      4  C2  OXE d   1       4.031  -3.888   4.987  0.00  0.00    -0.078 A 
ATOM      5  C3  OXE d   1       3.539  -2.617   4.705  0.00  0.00     0.003 A 
ATOM      6  C4  OXE d   1       4.319  -1.483   4.961  0.00  0.00    -0.002 A 
ATOM      7  C5  OXE d   1       5.554  -1.601   5.607  0.00  0.00    -0.002 A 
ATOM      8  C6  OXE d   1       6.000  -2.858   6.000  0.00  0.00     0.003 A 
ENDROOT
TORSDOF 0
ENDMDL
