MODEL 1
REMARK minimizedAffinity 2.19049239
REMARK minimizedRMSD -1
REMARK  0 active torsions:
REMARK  status: ('A' for Active; 'I' for Inactive)
ROOT
ATOM      1  C2' OXE d   1       5.069   4.573  -5.921  0.00  0.00     0.078 C 
ATOM      2  C1' OXE d   1       2.816   5.966  -4.992  0.00  0.00     0.078 C 
ATOM      3  C1  OXE d   1       3.883   5.605  -3.989  0.00  0.00    -0.078 A 
ATOM      4  C2  OXE d   1       4.960   4.882  -4.444  0.00  0.00    -0.078 A 
ATOM      5  C3  OXE d   1       5.998   4.570  -3.571  0.00  0.00     0.003 A 
ATOM      6  C4  OXE d   1       5.884   4.851  -2.204  0.00  0.00    -0.002 A 
ATOM      7  C5  OXE d   1       4.777   5.551  -1.713  0.00  0.00    -0.002 A 
ATOM      8  C6  OXE d   1       3.790   5.972  -2.597  0.00  0.00     0.003 A 
ENDROOT
TORSDOF 0
ENDMDL
