MODEL 1
REMARK minimizedAffinity 9.83322811
REMARK minimizedRMSD -1
REMARK  0 active torsions:
REMARK  status: ('A' for Active; 'I' for Inactive)
ROOT
ATOM      1  C2' OXE d   1       3.189  -3.148  -3.702  0.00  0.00     0.078 C 
ATOM      2  C1' OXE d   1       3.443  -2.528  -0.976  0.00  0.00     0.078 C 
ATOM      3  C1  OXE d   1       2.069  -2.441  -1.592  0.00  0.00    -0.078 A 
ATOM      4  C2  OXE d   1       1.962  -2.701  -2.937  0.00  0.00    -0.078 A 
ATOM      5  C3  OXE d   1       0.709  -2.688  -3.544  0.00  0.00     0.003 A 
ATOM      6  C4  OXE d   1      -0.419  -2.263  -2.832  0.00  0.00    -0.002 A 
ATOM      7  C5  OXE d   1      -0.325  -1.955  -1.471  0.00  0.00    -0.002 A 
ATOM      8  C6  OXE d   1       0.902  -2.080  -0.827  0.00  0.00     0.003 A 
ENDROOT
TORSDOF 0
ENDMDL
