MODEL 1
REMARK minimizedAffinity 8.94646263
REMARK minimizedRMSD -1
REMARK  0 active torsions:
REMARK  status: ('A' for Active; 'I' for Inactive)
ROOT
ATOM      1  C2' OXE d   1       4.107  -2.256   3.460  0.00  0.00     0.078 C 
ATOM      2  C1' OXE d   1       5.275  -1.921   5.991  0.00  0.00     0.078 C 
ATOM      3  C1  OXE d   1       5.342  -3.290   5.361  0.00  0.00    -0.078 A 
ATOM      4  C2  OXE d   1       4.727  -3.456   4.143  0.00  0.00    -0.078 A 
ATOM      5  C3  OXE d   1       4.806  -4.684   3.493  0.00  0.00     0.003 A 
ATOM      6  C4  OXE d   1       5.372  -5.791   4.136  0.00  0.00    -0.002 A 
ATOM      7  C5  OXE d   1       5.969  -5.654   5.394  0.00  0.00    -0.002 A 
ATOM      8  C6  OXE d   1       5.999  -4.403   6.000  0.00  0.00     0.003 A 
ENDROOT
TORSDOF 0
ENDMDL
