MODEL 1
REMARK minimizedAffinity 9.69461346
REMARK minimizedRMSD -1
REMARK  0 active torsions:
REMARK  status: ('A' for Active; 'I' for Inactive)
ROOT
ATOM      1  C2' OXE d   1       4.873   5.244  -1.704  0.00  0.00     0.078 C 
ATOM      2  C1' OXE d   1       2.612   6.000  -3.186  0.00  0.00     0.078 C 
ATOM      3  C1  OXE d   1       3.777   5.404  -3.935  0.00  0.00    -0.078 A 
ATOM      4  C2  OXE d   1       4.898   5.080  -3.208  0.00  0.00    -0.078 A 
ATOM      5  C3  OXE d   1       5.980   4.478  -3.842  0.00  0.00     0.003 A 
ATOM      6  C4  OXE d   1       5.999   4.340  -5.235  0.00  0.00    -0.002 A 
ATOM      7  C5  OXE d   1       4.884   4.700  -6.000  0.00  0.00    -0.002 A 
ATOM      8  C6  OXE d   1       3.751   5.193  -5.362  0.00  0.00     0.003 A 
ENDROOT
TORSDOF 0
ENDMDL
