MODEL 1
REMARK minimizedAffinity 1.2176044
REMARK minimizedRMSD -1
REMARK  0 active torsions:
REMARK  status: ('A' for Active; 'I' for Inactive)
ROOT
ATOM      1  C2' OXE d   1       3.928   5.981  -5.628  0.00  0.00     0.078 C 
ATOM      2  C1' OXE d   1       5.979   4.067  -5.719  0.00  0.00     0.078 C 
ATOM      3  C1  OXE d   1       5.478   4.497  -4.363  0.00  0.00    -0.078 A 
ATOM      4  C2  OXE d   1       4.507   5.468  -4.327  0.00  0.00    -0.078 A 
ATOM      5  C3  OXE d   1       3.970   5.861  -3.104  0.00  0.00     0.003 A 
ATOM      6  C4  OXE d   1       4.518   5.390  -1.905  0.00  0.00    -0.002 A 
ATOM      7  C5  OXE d   1       5.536   4.430  -1.919  0.00  0.00    -0.002 A 
ATOM      8  C6  OXE d   1       5.997   3.942  -3.137  0.00  0.00     0.003 A 
ENDROOT
TORSDOF 0
ENDMDL
