MODEL 1
REMARK minimizedAffinity 0.086268805
REMARK minimizedRMSD -1
REMARK  0 active torsions:
REMARK  status: ('A' for Active; 'I' for Inactive)
ROOT
ATOM      1  C2' OXE d   1       3.307   5.884  -5.055  0.00  0.00     0.078 C 
ATOM      2  C1' OXE d   1       5.015   3.866  -5.998  0.00  0.00     0.078 C 
ATOM      3  C1  OXE d   1       5.059   4.194  -4.526  0.00  0.00    -0.078 A 
ATOM      4  C2  OXE d   1       4.253   5.215  -4.082  0.00  0.00    -0.078 A 
ATOM      5  C3  OXE d   1       4.215   5.521  -2.725  0.00  0.00     0.003 A 
ATOM      6  C4  OXE d   1       5.101   4.904  -1.833  0.00  0.00    -0.002 A 
ATOM      7  C5  OXE d   1       5.958   3.890  -2.272  0.00  0.00    -0.002 A 
ATOM      8  C6  OXE d   1       5.919   3.494  -3.605  0.00  0.00     0.003 A 
ENDROOT
TORSDOF 0
ENDMDL
