MODEL 1
REMARK minimizedAffinity 4.61328125
REMARK minimizedRMSD -1
REMARK  0 active torsions:
REMARK  status: ('A' for Active; 'I' for Inactive)
ROOT
ATOM      1  C2' OXE d   1       2.633  -1.100   5.133  0.00  0.00     0.078 C 
ATOM      2  C1' OXE d   1       2.664  -3.125   3.189  0.00  0.00     0.078 C 
ATOM      3  C1  OXE d   1       3.830  -3.048   4.143  0.00  0.00    -0.078 A 
ATOM      4  C2  OXE d   1       3.829  -2.025   5.061  0.00  0.00    -0.078 A 
ATOM      5  C3  OXE d   1       4.853  -1.941   6.000  0.00  0.00     0.003 A 
ATOM      6  C4  OXE d   1       5.960  -2.795   5.920  0.00  0.00    -0.002 A 
ATOM      7  C5  OXE d   1       5.999  -3.818   4.968  0.00  0.00    -0.002 A 
ATOM      8  C6  OXE d   1       4.925  -3.985   4.101  0.00  0.00     0.003 A 
ENDROOT
TORSDOF 0
ENDMDL
