MODEL 1
REMARK minimizedAffinity 5.44872379
REMARK minimizedRMSD -1
REMARK  0 active torsions:
REMARK  status: ('A' for Active; 'I' for Inactive)
ROOT
ATOM      1  C2' OXE d   1      -3.853  -3.317   1.132  0.00  0.00     0.078 C 
ATOM      2  C1' OXE d   1      -1.393  -3.046   2.457  0.00  0.00     0.078 C 
ATOM      3  C1  OXE d   1      -1.441  -2.712   0.987  0.00  0.00    -0.078 A 
ATOM      4  C2  OXE d   1      -2.638  -2.892   0.336  0.00  0.00    -0.078 A 
ATOM      5  C3  OXE d   1      -2.751  -2.548  -1.008  0.00  0.00     0.003 A 
ATOM      6  C4  OXE d   1      -1.620  -2.166  -1.739  0.00  0.00    -0.002 A 
ATOM      7  C5  OXE d   1      -0.382  -2.014  -1.104  0.00  0.00    -0.002 A 
ATOM      8  C6  OXE d   1      -0.285  -2.242   0.264  0.00  0.00     0.003 A 
ENDROOT
TORSDOF 0
ENDMDL
