MODEL 1
REMARK minimizedAffinity 1.11867177
REMARK minimizedRMSD -1
REMARK  0 active torsions:
REMARK  status: ('A' for Active; 'I' for Inactive)
ROOT
ATOM      1  C2' OXE d   1       4.497  -2.056  -0.752  0.00  0.00     0.078 C 
ATOM      2  C1' OXE d   1       5.999  -4.088   0.470  0.00  0.00     0.078 C 
ATOM      3  C1  OXE d   1       5.081  -3.270   1.343  0.00  0.00    -0.078 A 
ATOM      4  C2  OXE d   1       4.385  -2.247   0.745  0.00  0.00    -0.078 A 
ATOM      5  C3  OXE d   1       3.483  -1.497   1.494  0.00  0.00     0.003 A 
ATOM      6  C4  OXE d   1       3.393  -1.673   2.880  0.00  0.00    -0.002 A 
ATOM      7  C5  OXE d   1       4.123  -2.683   3.516  0.00  0.00    -0.002 A 
ATOM      8  C6  OXE d   1       4.938  -3.516   2.757  0.00  0.00     0.003 A 
ENDROOT
TORSDOF 0
ENDMDL
