MODEL 1
REMARK minimizedAffinity 4.28285599
REMARK minimizedRMSD -1
REMARK  0 active torsions:
REMARK  status: ('A' for Active; 'I' for Inactive)
ROOT
ATOM      1  C2' OXE d   1       0.152  -5.161  -3.157  0.00  0.00     0.078 C 
ATOM      2  C1' OXE d   1       0.292  -2.430  -3.791  0.00  0.00     0.078 C 
ATOM      3  C1  OXE d   1       0.060  -2.806  -2.349  0.00  0.00    -0.078 A 
ATOM      4  C2  OXE d   1      -0.053  -4.144  -2.055  0.00  0.00    -0.078 A 
ATOM      5  C3  OXE d   1      -0.212  -4.548  -0.732  0.00  0.00     0.003 A 
ATOM      6  C4  OXE d   1      -0.411  -3.600   0.279  0.00  0.00    -0.002 A 
ATOM      7  C5  OXE d   1      -0.338  -2.232  -0.005  0.00  0.00    -0.002 A 
ATOM      8  C6  OXE d   1      -0.062  -1.820  -1.304  0.00  0.00     0.003 A 
ENDROOT
TORSDOF 0
ENDMDL
