MODEL 1
REMARK minimizedAffinity -0.519471586
REMARK minimizedRMSD -1
REMARK  0 active torsions:
REMARK  status: ('A' for Active; 'I' for Inactive)
ROOT
ATOM      1  C2' OXE d   1       0.413  -4.929  -3.092  0.00  0.00     0.078 C 
ATOM      2  C1' OXE d   1       0.820  -2.238  -3.779  0.00  0.00     0.078 C 
ATOM      3  C1  OXE d   1       0.197  -2.535  -2.438  0.00  0.00    -0.078 A 
ATOM      4  C2  OXE d   1      -0.041  -3.853  -2.130  0.00  0.00    -0.078 A 
ATOM      5  C3  OXE d   1      -0.563  -4.186  -0.883  0.00  0.00     0.003 A 
ATOM      6  C4  OXE d   1      -0.990  -3.185  -0.003  0.00  0.00    -0.002 A 
ATOM      7  C5  OXE d   1      -0.793  -1.835  -0.314  0.00  0.00    -0.002 A 
ATOM      8  C6  OXE d   1      -0.163  -1.495  -1.506  0.00  0.00     0.003 A 
ENDROOT
TORSDOF 0
ENDMDL
