MODEL 1
REMARK minimizedAffinity 5.63421011
REMARK minimizedRMSD -1
REMARK  0 active torsions:
REMARK  status: ('A' for Active; 'I' for Inactive)
ROOT
ATOM      1  C2' OXE d   1      -3.229  -3.211   0.565  0.00  0.00     0.078 C 
ATOM      2  C1' OXE d   1      -1.559  -1.685   2.227  0.00  0.00     0.078 C 
ATOM      3  C1  OXE d   1      -1.176  -1.817   0.774  0.00  0.00    -0.078 A 
ATOM      4  C2  OXE d   1      -1.973  -2.604  -0.021  0.00  0.00    -0.078 A 
ATOM      5  C3  OXE d   1      -1.695  -2.714  -1.381  0.00  0.00     0.003 A 
ATOM      6  C4  OXE d   1      -0.526  -2.157  -1.913  0.00  0.00    -0.002 A 
ATOM      7  C5  OXE d   1       0.321  -1.385  -1.111  0.00  0.00    -0.002 A 
ATOM      8  C6  OXE d   1      -0.011  -1.170   0.222  0.00  0.00     0.003 A 
ENDROOT
TORSDOF 0
ENDMDL
