MODEL 1
REMARK minimizedAffinity 8.28569889
REMARK minimizedRMSD -1
REMARK  0 active torsions:
REMARK  status: ('A' for Active; 'I' for Inactive)
ROOT
ATOM      1  C2' OXE d   1      -3.565  -3.682   0.764  0.00  0.00     0.078 C 
ATOM      2  C1' OXE d   1      -1.570  -2.154   2.016  0.00  0.00     0.078 C 
ATOM      3  C1  OXE d   1      -1.392  -2.481   0.555  0.00  0.00    -0.078 A 
ATOM      4  C2  OXE d   1      -2.350  -3.268  -0.038  0.00  0.00    -0.078 A 
ATOM      5  C3  OXE d   1      -2.263  -3.554  -1.398  0.00  0.00     0.003 A 
ATOM      6  C4  OXE d   1      -1.131  -3.176  -2.130  0.00  0.00    -0.002 A 
ATOM      7  C5  OXE d   1      -0.124  -2.408  -1.536  0.00  0.00    -0.002 A 
ATOM      8  C6  OXE d   1      -0.260  -2.017  -0.208  0.00  0.00     0.003 A 
ENDROOT
TORSDOF 0
ENDMDL
