MODEL 1
REMARK minimizedAffinity -1.61699414
REMARK minimizedRMSD -1
REMARK  0 active torsions:
REMARK  status: ('A' for Active; 'I' for Inactive)
ROOT
ATOM      1  C   UNL d   1      -1.892   4.850  -5.176  0.00  0.00     0.077 C 
ATOM      2  C1  UNL d   1      -2.430   4.496  -3.821  0.00  0.00    -0.074 A 
ATOM      3  C2  UNL d   1      -3.191   5.411  -3.088  0.00  0.00    -0.005 A 
ATOM      4  C3  UNL d   1      -3.693   5.063  -1.834  0.00  0.00     0.006 A 
ATOM      5  C4  UNL d   1      -3.438   3.799  -1.301  0.00  0.00    -0.005 A 
ATOM      6  C5  UNL d   1      -2.679   2.870  -2.020  0.00  0.00    -0.074 A 
ATOM      7  C6  UNL d   1      -2.405   1.504  -1.466  0.00  0.00     0.077 C 
ATOM      8  C7  UNL d   1      -2.185   3.225  -3.283  0.00  0.00    -0.001 A 
ENDROOT
TORSDOF 0
ENDMDL
