MODEL 1
REMARK minimizedAffinity 4.31588268
REMARK minimizedRMSD -1
REMARK  0 active torsions:
REMARK  status: ('A' for Active; 'I' for Inactive)
ROOT
ATOM      1  C   UNL d   1      -2.968   4.009  -5.724  0.00  0.00     0.077 C 
ATOM      2  C1  UNL d   1      -3.204   3.989  -4.243  0.00  0.00    -0.074 A 
ATOM      3  C2  UNL d   1      -3.694   5.118  -3.578  0.00  0.00    -0.005 A 
ATOM      4  C3  UNL d   1      -3.918   5.081  -2.202  0.00  0.00     0.006 A 
ATOM      5  C4  UNL d   1      -3.655   3.918  -1.478  0.00  0.00    -0.005 A 
ATOM      6  C5  UNL d   1      -3.167   2.779  -2.126  0.00  0.00    -0.074 A 
ATOM      7  C6  UNL d   1      -2.889   1.517  -1.364  0.00  0.00     0.077 C 
ATOM      8  C7  UNL d   1      -2.951   2.821  -3.510  0.00  0.00    -0.001 A 
ENDROOT
TORSDOF 0
ENDMDL
