MODEL 1
REMARK minimizedAffinity -1.29543984
REMARK minimizedRMSD -1
REMARK  0 active torsions:
REMARK  status: ('A' for Active; 'I' for Inactive)
ROOT
ATOM      1  C   UNL d   1      -2.882   0.405   3.685  0.00  0.00     0.077 C 
ATOM      2  C1  UNL d   1      -2.001  -0.251   2.663  0.00  0.00    -0.074 A 
ATOM      3  C2  UNL d   1      -0.694  -0.633   2.980  0.00  0.00    -0.005 A 
ATOM      4  C3  UNL d   1       0.110  -1.251   2.022  0.00  0.00     0.006 A 
ATOM      5  C4  UNL d   1      -0.385  -1.493   0.740  0.00  0.00    -0.005 A 
ATOM      6  C5  UNL d   1      -1.690  -1.119   0.405  0.00  0.00    -0.074 A 
ATOM      7  C6  UNL d   1      -2.241  -1.380  -0.965  0.00  0.00     0.077 C 
ATOM      8  C7  UNL d   1      -2.494  -0.504   1.375  0.00  0.00    -0.001 A 
ENDROOT
TORSDOF 0
ENDMDL
