MODEL 1
REMARK minimizedAffinity 4.30399132
REMARK minimizedRMSD -1
REMARK  0 active torsions:
REMARK  status: ('A' for Active; 'I' for Inactive)
ROOT
ATOM      1  C   UNL d   1       1.952  -2.695   1.508  0.00  0.00     0.077 C 
ATOM      2  C1  UNL d   1       0.659  -1.938   1.582  0.00  0.00    -0.074 A 
ATOM      3  C2  UNL d   1       0.191  -1.431   2.799  0.00  0.00    -0.005 A 
ATOM      4  C3  UNL d   1      -1.008  -0.721   2.851  0.00  0.00     0.006 A 
ATOM      5  C4  UNL d   1      -1.750  -0.510   1.689  0.00  0.00    -0.005 A 
ATOM      6  C5  UNL d   1      -1.298  -1.008   0.463  0.00  0.00    -0.074 A 
ATOM      7  C6  UNL d   1      -2.079  -0.782  -0.798  0.00  0.00     0.077 C 
ATOM      8  C7  UNL d   1      -0.089  -1.715   0.418  0.00  0.00    -0.001 A 
ENDROOT
TORSDOF 0
ENDMDL
