MODEL 1
REMARK minimizedAffinity 1.5407325
REMARK minimizedRMSD -1
REMARK  0 active torsions:
REMARK  status: ('A' for Active; 'I' for Inactive)
ROOT
ATOM      1  C   UNL d   1      -3.734   0.063   4.141  0.00  0.00     0.077 C 
ATOM      2  C1  UNL d   1      -2.578  -0.528   3.390  0.00  0.00    -0.074 A 
ATOM      3  C2  UNL d   1      -1.509  -1.123   4.068  0.00  0.00    -0.005 A 
ATOM      4  C3  UNL d   1      -0.445  -1.677   3.356  0.00  0.00     0.006 A 
ATOM      5  C4  UNL d   1      -0.439  -1.642   1.962  0.00  0.00    -0.005 A 
ATOM      6  C5  UNL d   1      -1.499  -1.052   1.266  0.00  0.00    -0.074 A 
ATOM      7  C6  UNL d   1      -1.513  -1.014  -0.233  0.00  0.00     0.077 C 
ATOM      8  C7  UNL d   1      -2.568  -0.503   1.988  0.00  0.00    -0.001 A 
ENDROOT
TORSDOF 0
ENDMDL
