MODEL 1
REMARK minimizedAffinity 5.18488407
REMARK minimizedRMSD -1
REMARK  0 active torsions:
REMARK  status: ('A' for Active; 'I' for Inactive)
ROOT
ATOM      1  C   UNL d   1      -2.010   5.997  -3.914  0.00  0.00     0.077 C 
ATOM      2  C1  UNL d   1      -2.436   4.860  -3.033  0.00  0.00    -0.074 A 
ATOM      3  C2  UNL d   1      -2.763   5.074  -1.690  0.00  0.00    -0.005 A 
ATOM      4  C3  UNL d   1      -3.167   4.008  -0.886  0.00  0.00     0.006 A 
ATOM      5  C4  UNL d   1      -3.248   2.720  -1.416  0.00  0.00    -0.005 A 
ATOM      6  C5  UNL d   1      -2.926   2.487  -2.757  0.00  0.00    -0.074 A 
ATOM      7  C6  UNL d   1      -3.017   1.110  -3.344  0.00  0.00     0.077 C 
ATOM      8  C7  UNL d   1      -2.527   3.564  -3.560  0.00  0.00    -0.001 A 
ENDROOT
TORSDOF 0
ENDMDL
