MODEL 1
REMARK minimizedAffinity -1.80065382
REMARK minimizedRMSD -1
REMARK  0 active torsions:
REMARK  status: ('A' for Active; 'I' for Inactive)
ROOT
ATOM      1  C   UNL d   1      -3.682   4.860  -3.800  0.00  0.00     0.077 C 
ATOM      2  C1  UNL d   1      -2.605   3.921  -3.344  0.00  0.00    -0.074 A 
ATOM      3  C2  UNL d   1      -1.310   4.382  -3.088  0.00  0.00    -0.005 A 
ATOM      4  C3  UNL d   1      -0.321   3.498  -2.656  0.00  0.00     0.006 A 
ATOM      5  C4  UNL d   1      -0.618   2.146  -2.475  0.00  0.00    -0.005 A 
ATOM      6  C5  UNL d   1      -1.907   1.667  -2.725  0.00  0.00    -0.074 A 
ATOM      7  C6  UNL d   1      -2.245   0.219  -2.526  0.00  0.00     0.077 C 
ATOM      8  C7  UNL d   1      -2.897   2.563  -3.153  0.00  0.00    -0.001 A 
ENDROOT
TORSDOF 0
ENDMDL
