MODEL 1
REMARK minimizedAffinity -3.05724978
REMARK minimizedRMSD -1
REMARK  0 active torsions:
REMARK  status: ('A' for Active; 'I' for Inactive)
ROOT
ATOM      1  C   UNL d   1      -2.374   1.632  -2.377  0.00  0.00     0.077 C 
ATOM      2  C1  UNL d   1      -2.351   3.007  -2.977  0.00  0.00    -0.074 A 
ATOM      3  C2  UNL d   1      -3.233   3.998  -2.537  0.00  0.00    -0.005 A 
ATOM      4  C3  UNL d   1      -3.194   5.275  -3.098  0.00  0.00     0.006 A 
ATOM      5  C4  UNL d   1      -2.272   5.572  -4.103  0.00  0.00    -0.005 A 
ATOM      6  C5  UNL d   1      -1.381   4.594  -4.555  0.00  0.00    -0.074 A 
ATOM      7  C6  UNL d   1      -0.378   4.900  -5.627  0.00  0.00     0.077 C 
ATOM      8  C7  UNL d   1      -1.423   3.316  -3.981  0.00  0.00    -0.001 A 
ENDROOT
TORSDOF 0
ENDMDL
