MODEL 1
REMARK minimizedAffinity -1.2289356
REMARK minimizedRMSD -1
REMARK  0 active torsions:
REMARK  status: ('A' for Active; 'I' for Inactive)
ROOT
ATOM      1  C   UNL d   1      -1.288   0.963   1.929  0.00  0.00    -0.002 A 
ATOM      2  C1  UNL d   1      -1.434   1.883   0.900  0.00  0.00     0.010 A 
ATOM      3  C2  UNL d   1      -0.849   1.653  -0.347  0.00  0.00     0.041 A 
ATOM      4  C3  UNL d   1      -0.109   0.470  -0.545  0.00  0.00    -0.075 A 
ATOM      5  S   UNL d   1       0.695  -0.023  -1.988  0.00  0.00     0.015 SA
ATOM      6  C4  UNL d   1       1.250  -1.467  -1.273  0.00  0.00     0.022 A 
ATOM      7  C5  UNL d   1       0.842  -1.586   0.034  0.00  0.00     0.026 A 
ATOM      8  C6  UNL d   1       0.051  -0.471   0.475  0.00  0.00    -0.082 A 
ATOM      9  C7  UNL d   1      -0.553  -0.209   1.728  0.00  0.00     0.045 A 
ENDROOT
TORSDOF 0
ENDMDL
