MODEL 1
REMARK minimizedAffinity -3.04887533
REMARK minimizedRMSD -1
REMARK  0 active torsions:
REMARK  status: ('A' for Active; 'I' for Inactive)
ROOT
ATOM      1  C   UNL d   1      -1.352  -0.000   2.250  0.00  0.00    -0.002 A 
ATOM      2  C1  UNL d   1      -1.833   1.244   1.867  0.00  0.00     0.010 A 
ATOM      3  C2  UNL d   1      -1.349   1.868   0.716  0.00  0.00     0.041 A 
ATOM      4  C3  UNL d   1      -0.365   1.215  -0.052  0.00  0.00    -0.075 A 
ATOM      5  S   UNL d   1       0.375   1.788  -1.500  0.00  0.00     0.015 SA
ATOM      6  C4  UNL d   1       1.346   0.395  -1.644  0.00  0.00     0.022 A 
ATOM      7  C5  UNL d   1       1.125  -0.496  -0.621  0.00  0.00     0.026 A 
ATOM      8  C6  UNL d   1       0.135  -0.038   0.313  0.00  0.00    -0.082 A 
ATOM      9  C7  UNL d   1      -0.375  -0.645   1.486  0.00  0.00     0.045 A 
ENDROOT
TORSDOF 0
ENDMDL
