MODEL 1
REMARK minimizedAffinity -5.07713318
REMARK minimizedRMSD -1
REMARK  0 active torsions:
REMARK  status: ('A' for Active; 'I' for Inactive)
ROOT
ATOM      1  C   UNL d   1      -2.041   1.522   1.457  0.00  0.00    -0.002 A 
ATOM      2  C1  UNL d   1      -2.009   2.191   0.242  0.00  0.00     0.010 A 
ATOM      3  C2  UNL d   1      -1.102   1.818  -0.751  0.00  0.00     0.041 A 
ATOM      4  C3  UNL d   1      -0.219   0.749  -0.500  0.00  0.00    -0.075 A 
ATOM      5  S   UNL d   1       0.977   0.116  -1.569  0.00  0.00     0.015 SA
ATOM      6  C4  UNL d   1       1.473  -1.058  -0.438  0.00  0.00     0.022 A 
ATOM      7  C5  UNL d   1       0.755  -0.983   0.732  0.00  0.00     0.026 A 
ATOM      8  C6  UNL d   1      -0.233   0.059   0.715  0.00  0.00    -0.082 A 
ATOM      9  C7  UNL d   1      -1.164   0.462   1.702  0.00  0.00     0.045 A 
ENDROOT
TORSDOF 0
ENDMDL
