MODEL 1
REMARK minimizedAffinity -1.34333479
REMARK minimizedRMSD -1
REMARK  0 active torsions:
REMARK  status: ('A' for Active; 'I' for Inactive)
ROOT
ATOM      1  C   UNL d   1      -1.072   1.192   1.861  0.00  0.00    -0.002 A 
ATOM      2  C1  UNL d   1      -1.259   1.935   0.704  0.00  0.00     0.010 A 
ATOM      3  C2  UNL d   1      -0.801   1.461  -0.526  0.00  0.00     0.041 A 
ATOM      4  C3  UNL d   1      -0.148   0.214  -0.576  0.00  0.00    -0.075 A 
ATOM      5  S   UNL d   1       0.496  -0.567  -1.972  0.00  0.00     0.015 SA
ATOM      6  C4  UNL d   1       1.033  -1.907  -1.066  0.00  0.00     0.022 A 
ATOM      7  C5  UNL d   1       0.737  -1.778   0.271  0.00  0.00     0.026 A 
ATOM      8  C6  UNL d   1       0.051  -0.554   0.575  0.00  0.00    -0.082 A 
ATOM      9  C7  UNL d   1      -0.424  -0.045   1.808  0.00  0.00     0.045 A 
ENDROOT
TORSDOF 0
ENDMDL
