MODEL 1
REMARK minimizedAffinity -1.78718197
REMARK minimizedRMSD -1
REMARK  0 active torsions:
REMARK  status: ('A' for Active; 'I' for Inactive)
ROOT
ATOM      1  C   UNL d   1      -2.106   1.857   2.003  0.00  0.00    -0.002 A 
ATOM      2  C1  UNL d   1      -2.857   1.713   0.845  0.00  0.00     0.010 A 
ATOM      3  C2  UNL d   1      -2.369   0.969  -0.230  0.00  0.00     0.041 A 
ATOM      4  C3  UNL d   1      -1.102   0.363  -0.121  0.00  0.00    -0.075 A 
ATOM      5  S   UNL d   1      -0.302  -0.596  -1.309  0.00  0.00     0.015 SA
ATOM      6  C4  UNL d   1       1.055  -0.839  -0.308  0.00  0.00     0.022 A 
ATOM      7  C5  UNL d   1       0.918  -0.211   0.907  0.00  0.00     0.026 A 
ATOM      8  C6  UNL d   1      -0.328   0.492   1.036  0.00  0.00    -0.082 A 
ATOM      9  C7  UNL d   1      -0.850   1.254   2.108  0.00  0.00     0.045 A 
ENDROOT
TORSDOF 0
ENDMDL
