MODEL 1
REMARK minimizedAffinity 2.04407001
REMARK minimizedRMSD -1
REMARK  0 active torsions:
REMARK  status: ('A' for Active; 'I' for Inactive)
ROOT
ATOM      1  C   UNL d   1      -2.024   2.132   1.467  0.00  0.00    -0.002 A 
ATOM      2  C1  UNL d   1      -1.943   2.451   0.119  0.00  0.00     0.010 A 
ATOM      3  C2  UNL d   1      -1.103   1.731  -0.733  0.00  0.00     0.041 A 
ATOM      4  C3  UNL d   1      -0.339   0.673  -0.202  0.00  0.00    -0.075 A 
ATOM      5  S   UNL d   1       0.757  -0.347  -1.056  0.00  0.00     0.015 SA
ATOM      6  C4  UNL d   1       1.144  -1.232   0.349  0.00  0.00     0.022 A 
ATOM      7  C5  UNL d   1       0.463  -0.774   1.451  0.00  0.00     0.026 A 
ATOM      8  C6  UNL d   1      -0.404   0.332   1.152  0.00  0.00    -0.082 A 
ATOM      9  C7  UNL d   1      -1.264   1.081   1.990  0.00  0.00     0.045 A 
ENDROOT
TORSDOF 0
ENDMDL
