MODEL 1
REMARK minimizedAffinity -2.65319538
REMARK minimizedRMSD -1
REMARK  0 active torsions:
REMARK  status: ('A' for Active; 'I' for Inactive)
ROOT
ATOM      1  C   UNL d   1      -2.463   1.855   1.616  0.00  0.00    -0.002 A 
ATOM      2  C1  UNL d   1      -2.743   1.797   0.258  0.00  0.00     0.010 A 
ATOM      3  C2  UNL d   1      -1.829   1.230  -0.633  0.00  0.00     0.041 A 
ATOM      4  C3  UNL d   1      -0.618   0.714  -0.130  0.00  0.00    -0.075 A 
ATOM      5  S   UNL d   1       0.650  -0.028  -1.032  0.00  0.00     0.015 SA
ATOM      6  C4  UNL d   1       1.593  -0.286   0.363  0.00  0.00     0.022 A 
ATOM      7  C5  UNL d   1       0.971   0.176   1.499  0.00  0.00     0.026 A 
ATOM      8  C6  UNL d   1      -0.314   0.760   1.233  0.00  0.00    -0.082 A 
ATOM      9  C7  UNL d   1      -1.261   1.343   2.110  0.00  0.00     0.045 A 
ENDROOT
TORSDOF 0
ENDMDL
