MODEL 1
REMARK minimizedAffinity -0.621164322
REMARK minimizedRMSD -1
REMARK  0 active torsions:
REMARK  status: ('A' for Active; 'I' for Inactive)
ROOT
ATOM      1  C   UNL d   1      -1.946   1.518   1.750  0.00  0.00    -0.002 A 
ATOM      2  C1  UNL d   1      -1.723   0.186   2.070  0.00  0.00     0.010 A 
ATOM      3  C2  UNL d   1      -0.794  -0.571   1.353  0.00  0.00     0.041 A 
ATOM      4  C3  UNL d   1      -0.085   0.039   0.300  0.00  0.00    -0.075 A 
ATOM      5  S   UNL d   1       1.102  -0.692  -0.715  0.00  0.00     0.015 SA
ATOM      6  C4  UNL d   1       1.342   0.747  -1.597  0.00  0.00     0.022 A 
ATOM      7  C5  UNL d   1       0.544   1.770  -1.142  0.00  0.00     0.026 A 
ATOM      8  C6  UNL d   1      -0.291   1.379  -0.040  0.00  0.00    -0.082 A 
ATOM      9  C7  UNL d   1      -1.240   2.120   0.705  0.00  0.00     0.045 A 
ENDROOT
TORSDOF 0
ENDMDL
