MODEL 1
REMARK minimizedAffinity -2.61299992
REMARK minimizedRMSD -1
REMARK  0 active torsions:
REMARK  status: ('A' for Active; 'I' for Inactive)
ROOT
ATOM      1  C   UNL d   1      -1.157   0.954   2.222  0.00  0.00    -0.002 A 
ATOM      2  C1  UNL d   1      -1.593   1.748   1.171  0.00  0.00     0.010 A 
ATOM      3  C2  UNL d   1      -1.304   1.400  -0.150  0.00  0.00     0.041 A 
ATOM      4  C3  UNL d   1      -0.563   0.228  -0.399  0.00  0.00    -0.075 A 
ATOM      5  S   UNL d   1      -0.091  -0.397  -1.935  0.00  0.00     0.015 SA
ATOM      6  C4  UNL d   1       0.700  -1.733  -1.232  0.00  0.00     0.022 A 
ATOM      7  C5  UNL d   1       0.616  -1.718   0.140  0.00  0.00     0.026 A 
ATOM      8  C6  UNL d   1      -0.113  -0.588   0.643  0.00  0.00    -0.082 A 
ATOM      9  C7  UNL d   1      -0.422  -0.208   1.971  0.00  0.00     0.045 A 
ENDROOT
TORSDOF 0
ENDMDL
