MODEL 1
REMARK minimizedAffinity -3.18204284
REMARK minimizedRMSD -1
REMARK  0 active torsions:
REMARK  status: ('A' for Active; 'I' for Inactive)
ROOT
ATOM      1  C   UNL d   1      -1.206   1.821   1.980  0.00  0.00    -0.002 A 
ATOM      2  C1  UNL d   1      -2.295   1.627   1.142  0.00  0.00     0.010 A 
ATOM      3  C2  UNL d   1      -2.190   0.801   0.021  0.00  0.00     0.041 A 
ATOM      4  C3  UNL d   1      -0.961   0.166  -0.245  0.00  0.00    -0.075 A 
ATOM      5  S   UNL d   1      -0.600  -0.890  -1.559  0.00  0.00     0.015 SA
ATOM      6  C4  UNL d   1       1.008  -1.109  -1.039  0.00  0.00     0.022 A 
ATOM      7  C5  UNL d   1       1.280  -0.401   0.108  0.00  0.00     0.026 A 
ATOM      8  C6  UNL d   1       0.149   0.345   0.585  0.00  0.00    -0.082 A 
ATOM      9  C7  UNL d   1       0.011   1.189   1.713  0.00  0.00     0.045 A 
ENDROOT
TORSDOF 0
ENDMDL
