MODEL 1
REMARK minimizedAffinity -0.982136011
REMARK minimizedRMSD -1
REMARK  0 active torsions:
REMARK  status: ('A' for Active; 'I' for Inactive)
ROOT
ATOM      1  C   UNL d   1       1.199  -2.975  -1.875  0.00  0.00    -0.002 A 
ATOM      2  C1  UNL d   1       0.433  -2.333  -2.838  0.00  0.00     0.010 A 
ATOM      3  C2  UNL d   1      -0.238  -1.147  -2.537  0.00  0.00     0.041 A 
ATOM      4  C3  UNL d   1      -0.125  -0.610  -1.239  0.00  0.00    -0.075 A 
ATOM      5  S   UNL d   1      -0.858   0.832  -0.643  0.00  0.00     0.015 SA
ATOM      6  C4  UNL d   1      -0.172   0.631   0.904  0.00  0.00     0.022 A 
ATOM      7  C5  UNL d   1       0.601  -0.504   0.981  0.00  0.00     0.026 A 
ATOM      8  C6  UNL d   1       0.641  -1.237  -0.253  0.00  0.00    -0.082 A 
ATOM      9  C7  UNL d   1       1.309  -2.439  -0.589  0.00  0.00     0.045 A 
ENDROOT
TORSDOF 0
ENDMDL
