MODEL 1
REMARK minimizedAffinity -3.14077473
REMARK minimizedRMSD -1
REMARK  0 active torsions:
REMARK  status: ('A' for Active; 'I' for Inactive)
ROOT
ATOM      1  C   UNL d   1      -2.187   1.749   1.929  0.00  0.00    -0.002 A 
ATOM      2  C1  UNL d   1      -2.143   2.286   0.650  0.00  0.00     0.010 A 
ATOM      3  C2  UNL d   1      -1.334   1.715  -0.333  0.00  0.00     0.041 A 
ATOM      4  C3  UNL d   1      -0.562   0.582  -0.007  0.00  0.00    -0.075 A 
ATOM      5  S   UNL d   1       0.502  -0.286  -1.050  0.00  0.00     0.015 SA
ATOM      6  C4  UNL d   1       0.923  -1.391   0.178  0.00  0.00     0.022 A 
ATOM      7  C5  UNL d   1       0.278  -1.119   1.361  0.00  0.00     0.026 A 
ATOM      8  C6  UNL d   1      -0.589   0.022   1.274  0.00  0.00    -0.082 A 
ATOM      9  C7  UNL d   1      -1.420   0.625   2.249  0.00  0.00     0.045 A 
ENDROOT
TORSDOF 0
ENDMDL
