MODEL 1
REMARK minimizedAffinity -2.31905961
REMARK minimizedRMSD -1
REMARK  0 active torsions:
REMARK  status: ('A' for Active; 'I' for Inactive)
ROOT
ATOM      1  C   UNL d   1      -1.526   1.413   1.625  0.00  0.00    -0.002 A 
ATOM      2  C1  UNL d   1      -1.586   2.038   0.388  0.00  0.00     0.010 A 
ATOM      3  C2  UNL d   1      -0.936   1.487  -0.718  0.00  0.00     0.041 A 
ATOM      4  C3  UNL d   1      -0.219   0.285  -0.559  0.00  0.00    -0.075 A 
ATOM      5  S   UNL d   1       0.653  -0.574  -1.772  0.00  0.00     0.015 SA
ATOM      6  C4  UNL d   1       1.126  -1.791  -0.677  0.00  0.00     0.022 A 
ATOM      7  C5  UNL d   1       0.639  -1.563   0.588  0.00  0.00     0.026 A 
ATOM      8  C6  UNL d   1      -0.145  -0.363   0.677  0.00  0.00    -0.082 A 
ATOM      9  C7  UNL d   1      -0.814   0.221   1.780  0.00  0.00     0.045 A 
ENDROOT
TORSDOF 0
ENDMDL
