MODEL 1
REMARK minimizedAffinity 1.12884665
REMARK minimizedRMSD -1
REMARK  0 active torsions:
REMARK  status: ('A' for Active; 'I' for Inactive)
ROOT
ATOM      1  O1  BZF d   1      -0.875   1.119   2.654  0.00  0.00    -0.204 OA
ATOM      2  C2  BZF d   1      -1.873   1.901   2.104  0.00  0.00     0.174 A 
ATOM      3  C3  BZF d   1      -1.974   1.684   0.777  0.00  0.00    -0.012 A 
ATOM      4  C3A BZF d   1      -1.040   0.638   0.494  0.00  0.00    -0.107 A 
ATOM      5  C4  BZF d   1      -0.692  -0.027  -0.647  0.00  0.00     0.055 A 
ATOM      6  C5  BZF d   1       0.309  -0.945  -0.597  0.00  0.00    -0.016 A 
ATOM      7  C6  BZF d   1       0.985  -1.219   0.574  0.00  0.00     0.022 A 
ATOM      8  C7  BZF d   1       0.671  -0.590   1.732  0.00  0.00     0.029 A 
ATOM      9  C7A BZF d   1      -0.361   0.315   1.692  0.00  0.00     0.058 A 
ENDROOT
TORSDOF 0
ENDMDL
