MODEL 1
REMARK minimizedAffinity -1.78789032
REMARK minimizedRMSD -1
REMARK  0 active torsions:
REMARK  status: ('A' for Active; 'I' for Inactive)
ROOT
ATOM      1  O1  BZF d   1      -1.059   1.894   2.403  0.00  0.00    -0.204 OA
ATOM      2  C2  BZF d   1      -1.748   2.769   1.586  0.00  0.00     0.174 A 
ATOM      3  C3  BZF d   1      -1.644   2.400   0.293  0.00  0.00    -0.012 A 
ATOM      4  C3A BZF d   1      -0.917   1.168   0.311  0.00  0.00    -0.107 A 
ATOM      5  C4  BZF d   1      -0.511   0.303  -0.664  0.00  0.00     0.055 A 
ATOM      6  C5  BZF d   1       0.246  -0.773  -0.321  0.00  0.00    -0.016 A 
ATOM      7  C6  BZF d   1       0.618  -1.011   0.986  0.00  0.00     0.022 A 
ATOM      8  C7  BZF d   1       0.235  -0.184   1.989  0.00  0.00     0.029 A 
ATOM      9  C7A BZF d   1      -0.557   0.886   1.650  0.00  0.00     0.058 A 
ENDROOT
TORSDOF 0
ENDMDL
