MODEL 1
REMARK minimizedAffinity -3.5783453
REMARK minimizedRMSD -1
REMARK  0 active torsions:
REMARK  status: ('A' for Active; 'I' for Inactive)
ROOT
ATOM      1  O1  BZF d   1      -1.498   2.656   0.309  0.00  0.00    -0.204 OA
ATOM      2  C2  BZF d   1      -2.040   2.537   1.573  0.00  0.00     0.174 A 
ATOM      3  C3  BZF d   1      -1.566   1.439   2.196  0.00  0.00    -0.012 A 
ATOM      4  C3A BZF d   1      -0.602   0.883   1.297  0.00  0.00    -0.107 A 
ATOM      5  C4  BZF d   1       0.221  -0.205   1.358  0.00  0.00     0.055 A 
ATOM      6  C5  BZF d   1       0.990  -0.513   0.280  0.00  0.00    -0.016 A 
ATOM      7  C6  BZF d   1       0.958   0.242  -0.874  0.00  0.00     0.022 A 
ATOM      8  C7  BZF d   1       0.162   1.334  -0.979  0.00  0.00     0.029 A 
ATOM      9  C7A BZF d   1      -0.592   1.666   0.120  0.00  0.00     0.058 A 
ENDROOT
TORSDOF 0
ENDMDL
