MODEL 1
REMARK minimizedAffinity -0.726695299
REMARK minimizedRMSD -1
REMARK  0 active torsions:
REMARK  status: ('A' for Active; 'I' for Inactive)
ROOT
ATOM      1  O1  BZF d   1      -0.899  -0.139   2.389  0.00  0.00    -0.204 OA
ATOM      2  C2  BZF d   1      -1.522   1.067   2.649  0.00  0.00     0.174 A 
ATOM      3  C3  BZF d   1      -1.405   1.902   1.596  0.00  0.00    -0.012 A 
ATOM      4  C3A BZF d   1      -0.742   1.140   0.583  0.00  0.00    -0.107 A 
ATOM      5  C4  BZF d   1      -0.356   1.416  -0.698  0.00  0.00     0.055 A 
ATOM      6  C5  BZF d   1       0.336   0.478  -1.396  0.00  0.00    -0.016 A 
ATOM      7  C6  BZF d   1       0.662  -0.743  -0.844  0.00  0.00     0.022 A 
ATOM      8  C7  BZF d   1       0.297  -1.065   0.421  0.00  0.00     0.029 A 
ATOM      9  C7A BZF d   1      -0.431  -0.131   1.118  0.00  0.00     0.058 A 
ENDROOT
TORSDOF 0
ENDMDL
