MODEL 1
REMARK minimizedAffinity -1.45528209
REMARK minimizedRMSD -1
REMARK  0 active torsions:
REMARK  status: ('A' for Active; 'I' for Inactive)
ROOT
ATOM      1  O1  BZF d   1      -0.155   0.144  -1.778  0.00  0.00    -0.204 OA
ATOM      2  C2  BZF d   1       0.043   0.407  -0.436  0.00  0.00     0.174 A 
ATOM      3  C3  BZF d   1       0.490  -0.692   0.205  0.00  0.00    -0.012 A 
ATOM      4  C3A BZF d   1       0.664  -1.679  -0.815  0.00  0.00    -0.107 A 
ATOM      5  C4  BZF d   1       1.100  -2.974  -0.805  0.00  0.00     0.055 A 
ATOM      6  C5  BZF d   1       1.082  -3.686  -1.963  0.00  0.00    -0.016 A 
ATOM      7  C6  BZF d   1       0.630  -3.138  -3.145  0.00  0.00     0.022 A 
ATOM      8  C7  BZF d   1       0.193  -1.856  -3.206  0.00  0.00     0.029 A 
ATOM      9  C7A BZF d   1       0.241  -1.124  -2.045  0.00  0.00     0.058 A 
ENDROOT
TORSDOF 0
ENDMDL
