MODEL 1
REMARK minimizedAffinity -1.47005558
REMARK minimizedRMSD -1
REMARK  0 active torsions:
REMARK  status: ('A' for Active; 'I' for Inactive)
ROOT
ATOM      1  O1  BZF d   1       1.450  -0.599  -0.497  0.00  0.00    -0.204 OA
ATOM      2  C2  BZF d   1       0.753  -1.480   0.307  0.00  0.00     0.174 A 
ATOM      3  C3  BZF d   1      -0.454  -0.975   0.636  0.00  0.00    -0.012 A 
ATOM      4  C3A BZF d   1      -0.551   0.262  -0.078  0.00  0.00    -0.107 A 
ATOM      5  C4  BZF d   1      -1.523   1.217  -0.172  0.00  0.00     0.055 A 
ATOM      6  C5  BZF d   1      -1.276   2.340  -0.896  0.00  0.00    -0.016 A 
ATOM      7  C6  BZF d   1      -0.069   2.543  -1.534  0.00  0.00     0.022 A 
ATOM      8  C7  BZF d   1       0.923   1.621  -1.473  0.00  0.00     0.029 A 
ATOM      9  C7A BZF d   1       0.664   0.470  -0.769  0.00  0.00     0.058 A 
ENDROOT
TORSDOF 0
ENDMDL
