MODEL 1
REMARK minimizedAffinity -0.841337383
REMARK minimizedRMSD -1
REMARK  0 active torsions:
REMARK  status: ('A' for Active; 'I' for Inactive)
ROOT
ATOM      1  O1  BZF d   1       1.472  -0.900  -0.098  0.00  0.00    -0.204 OA
ATOM      2  C2  BZF d   1       0.410  -0.017  -0.078  0.00  0.00     0.174 A 
ATOM      3  C3  BZF d   1      -0.594  -0.457  -0.863  0.00  0.00    -0.012 A 
ATOM      4  C3A BZF d   1      -0.168  -1.738  -1.336  0.00  0.00    -0.107 A 
ATOM      5  C4  BZF d   1      -0.740  -2.679  -2.145  0.00  0.00     0.055 A 
ATOM      6  C5  BZF d   1      -0.029  -3.790  -2.470  0.00  0.00    -0.016 A 
ATOM      7  C6  BZF d   1       1.257  -3.990  -2.011  0.00  0.00     0.022 A 
ATOM      8  C7  BZF d   1       1.864  -3.088  -1.203  0.00  0.00     0.029 A 
ATOM      9  C7A BZF d   1       1.136  -1.980  -0.845  0.00  0.00     0.058 A 
ENDROOT
TORSDOF 0
ENDMDL
