MODEL 1
REMARK minimizedAffinity -1.64549792
REMARK minimizedRMSD -1
REMARK  0 active torsions:
REMARK  status: ('A' for Active; 'I' for Inactive)
ROOT
ATOM      1  O1  BZF d   1      -0.725   1.818   1.144  0.00  0.00    -0.204 OA
ATOM      2  C2  BZF d   1      -1.409   0.902   1.920  0.00  0.00     0.174 A 
ATOM      3  C3  BZF d   1      -1.178  -0.355   1.490  0.00  0.00    -0.012 A 
ATOM      4  C3A BZF d   1      -0.222  -0.222   0.434  0.00  0.00    -0.107 A 
ATOM      5  C4  BZF d   1       0.412  -1.119  -0.377  0.00  0.00     0.055 A 
ATOM      6  C5  BZF d   1       1.234  -0.659  -1.357  0.00  0.00    -0.016 A 
ATOM      7  C6  BZF d   1       1.440   0.690  -1.557  0.00  0.00     0.022 A 
ATOM      8  C7  BZF d   1       0.837   1.618  -0.774  0.00  0.00     0.029 A 
ATOM      9  C7A BZF d   1       0.032   1.155   0.238  0.00  0.00     0.058 A 
ENDROOT
TORSDOF 0
ENDMDL
