MODEL 1
REMARK minimizedAffinity -3.29546142
REMARK minimizedRMSD -1
REMARK  0 active torsions:
REMARK  status: ('A' for Active; 'I' for Inactive)
ROOT
ATOM      1  O1  BZF d   1       0.281   1.760  -0.758  0.00  0.00    -0.204 OA
ATOM      2  C2  BZF d   1       1.015   0.769  -1.380  0.00  0.00     0.174 A 
ATOM      3  C3  BZF d   1       1.058  -0.343  -0.618  0.00  0.00    -0.012 A 
ATOM      4  C3A BZF d   1       0.226  -0.059   0.510  0.00  0.00    -0.107 A 
ATOM      5  C4  BZF d   1      -0.142  -0.779   1.611  0.00  0.00     0.055 A 
ATOM      6  C5  BZF d   1      -0.908  -0.185   2.563  0.00  0.00    -0.016 A 
ATOM      7  C6  BZF d   1      -1.319   1.127   2.450  0.00  0.00     0.022 A 
ATOM      8  C7  BZF d   1      -0.983   1.880   1.375  0.00  0.00     0.029 A 
ATOM      9  C7A BZF d   1      -0.237   1.272   0.395  0.00  0.00     0.058 A 
ENDROOT
TORSDOF 0
ENDMDL
