MODEL 1
REMARK minimizedAffinity -5.12881279
REMARK minimizedRMSD -1
REMARK  0 active torsions:
REMARK  status: ('A' for Active; 'I' for Inactive)
ROOT
ATOM      1  O1  BZF d   1       0.873  -0.338  -0.032  0.00  0.00    -0.204 OA
ATOM      2  C2  BZF d   1      -0.282   0.286   0.400  0.00  0.00     0.174 A 
ATOM      3  C3  BZF d   1      -1.360  -0.200  -0.249  0.00  0.00    -0.012 A 
ATOM      4  C3A BZF d   1      -0.857  -1.254  -1.076  0.00  0.00    -0.107 A 
ATOM      5  C4  BZF d   1      -1.446  -2.127  -1.946  0.00  0.00     0.055 A 
ATOM      6  C5  BZF d   1      -0.664  -2.986  -2.651  0.00  0.00    -0.016 A 
ATOM      7  C6  BZF d   1       0.709  -2.995  -2.514  0.00  0.00     0.022 A 
ATOM      8  C7  BZF d   1       1.338  -2.152  -1.660  0.00  0.00     0.029 A 
ATOM      9  C7A BZF d   1       0.547  -1.306  -0.922  0.00  0.00     0.058 A 
ENDROOT
TORSDOF 0
ENDMDL
