MODEL 1
REMARK minimizedAffinity -4.26827621
REMARK minimizedRMSD -1
REMARK  0 active torsions:
REMARK  status: ('A' for Active; 'I' for Inactive)
ROOT
ATOM      1  O1  BZF d   1       0.084   2.078  -1.164  0.00  0.00    -0.204 OA
ATOM      2  C2  BZF d   1      -0.155   3.438  -1.146  0.00  0.00     0.174 A 
ATOM      3  C3  BZF d   1      -0.924   3.775  -0.091  0.00  0.00    -0.012 A 
ATOM      4  C3A BZF d   1      -1.107   2.561   0.644  0.00  0.00    -0.107 A 
ATOM      5  C4  BZF d   1      -1.766   2.254   1.800  0.00  0.00     0.055 A 
ATOM      6  C5  BZF d   1      -1.813   0.959   2.209  0.00  0.00    -0.016 A 
ATOM      7  C6  BZF d   1      -1.216  -0.053   1.486  0.00  0.00     0.022 A 
ATOM      8  C7  BZF d   1      -0.546   0.203   0.336  0.00  0.00     0.029 A 
ATOM      9  C7A BZF d   1      -0.469   1.516  -0.063  0.00  0.00     0.058 A 
ENDROOT
TORSDOF 0
ENDMDL
