MODEL 1
REMARK minimizedAffinity -4.98151159
REMARK minimizedRMSD -1
REMARK  0 active torsions:
REMARK  status: ('A' for Active; 'I' for Inactive)
ROOT
ATOM      1  O1  BZF d   1       0.484   0.368  -0.745  0.00  0.00    -0.204 OA
ATOM      2  C2  BZF d   1       0.233  -0.814  -0.075  0.00  0.00     0.174 A 
ATOM      3  C3  BZF d   1      -0.544  -0.596   1.005  0.00  0.00    -0.012 A 
ATOM      4  C3A BZF d   1      -0.870   0.796   0.959  0.00  0.00    -0.107 A 
ATOM      5  C4  BZF d   1      -1.627   1.610   1.753  0.00  0.00     0.055 A 
ATOM      6  C5  BZF d   1      -1.683   2.939   1.474  0.00  0.00    -0.016 A 
ATOM      7  C6  BZF d   1      -0.992   3.488   0.413  0.00  0.00     0.022 A 
ATOM      8  C7  BZF d   1      -0.233   2.720  -0.406  0.00  0.00     0.029 A 
ATOM      9  C7A BZF d   1      -0.200   1.371  -0.146  0.00  0.00     0.058 A 
ENDROOT
TORSDOF 0
ENDMDL
