MODEL 1
REMARK minimizedAffinity -1.44143069
REMARK minimizedRMSD -1
REMARK  0 active torsions:
REMARK  status: ('A' for Active; 'I' for Inactive)
ROOT
ATOM      1  O1  BZF d   1      -0.718   0.041  -1.349  0.00  0.00    -0.204 OA
ATOM      2  C2  BZF d   1       0.384  -0.731  -1.038  0.00  0.00     0.174 A 
ATOM      3  C3  BZF d   1       0.736  -0.566   0.253  0.00  0.00    -0.012 A 
ATOM      4  C3A BZF d   1      -0.262   0.297   0.807  0.00  0.00    -0.107 A 
ATOM      5  C4  BZF d   1      -0.468   0.815   2.054  0.00  0.00     0.055 A 
ATOM      6  C5  BZF d   1      -1.495   1.684   2.247  0.00  0.00    -0.016 A 
ATOM      7  C6  BZF d   1      -2.330   2.062   1.216  0.00  0.00     0.022 A 
ATOM      8  C7  BZF d   1      -2.168   1.571  -0.037  0.00  0.00     0.029 A 
ATOM      9  C7A BZF d   1      -1.151   0.667  -0.228  0.00  0.00     0.058 A 
ENDROOT
TORSDOF 0
ENDMDL
