MODEL 1
REMARK minimizedAffinity -4.14573097
REMARK minimizedRMSD -1
REMARK  0 active torsions:
REMARK  status: ('A' for Active; 'I' for Inactive)
ROOT
ATOM      1  O1  BZF d   1      -1.133   2.479   1.952  0.00  0.00    -0.204 OA
ATOM      2  C2  BZF d   1      -1.897   3.144   1.012  0.00  0.00     0.174 A 
ATOM      3  C3  BZF d   1      -2.102   2.369  -0.072  0.00  0.00    -0.012 A 
ATOM      4  C3A BZF d   1      -1.503   1.110   0.247  0.00  0.00    -0.107 A 
ATOM      5  C4  BZF d   1      -1.392  -0.074  -0.425  0.00  0.00     0.055 A 
ATOM      6  C5  BZF d   1      -0.682  -1.088   0.136  0.00  0.00    -0.016 A 
ATOM      7  C6  BZF d   1      -0.065  -0.951   1.362  0.00  0.00     0.022 A 
ATOM      8  C7  BZF d   1      -0.151   0.203   2.069  0.00  0.00     0.029 A 
ATOM      9  C7A BZF d   1      -0.896   1.218   1.519  0.00  0.00     0.058 A 
ENDROOT
TORSDOF 0
ENDMDL
