MODEL 1
REMARK minimizedAffinity -5.08519363
REMARK minimizedRMSD -1
REMARK  0 active torsions:
REMARK  status: ('A' for Active; 'I' for Inactive)
ROOT
ATOM      1  O1  BZF d   1       0.982   1.464  -0.733  0.00  0.00    -0.204 OA
ATOM      2  C2  BZF d   1       1.328   0.175  -1.086  0.00  0.00     0.174 A 
ATOM      3  C3  BZF d   1       0.421  -0.709  -0.623  0.00  0.00    -0.012 A 
ATOM      4  C3A BZF d   1      -0.602   0.086  -0.016  0.00  0.00    -0.107 A 
ATOM      5  C4  BZF d   1      -1.780  -0.215   0.607  0.00  0.00     0.055 A 
ATOM      6  C5  BZF d   1      -2.513   0.790   1.154  0.00  0.00    -0.016 A 
ATOM      7  C6  BZF d   1      -2.098   2.104   1.100  0.00  0.00     0.022 A 
ATOM      8  C7  BZF d   1      -0.940   2.453   0.488  0.00  0.00     0.029 A 
ATOM      9  C7A BZF d   1      -0.213   1.443  -0.094  0.00  0.00     0.058 A 
ENDROOT
TORSDOF 0
ENDMDL
