MODEL 1
REMARK minimizedAffinity -6.06298065
REMARK minimizedRMSD -1
REMARK  0 active torsions:
REMARK  status: ('A' for Active; 'I' for Inactive)
ROOT
ATOM      1  O1  BZF d   1      -1.800  -1.655  -1.394  0.00  0.00    -0.204 OA
ATOM      2  C2  BZF d   1      -2.225  -1.702  -2.707  0.00  0.00     0.174 A 
ATOM      3  C3  BZF d   1      -1.575  -0.785  -3.453  0.00  0.00    -0.012 A 
ATOM      4  C3A BZF d   1      -0.623  -0.187  -2.569  0.00  0.00    -0.107 A 
ATOM      5  C4  BZF d   1       0.328   0.781  -2.728  0.00  0.00     0.055 A 
ATOM      6  C5  BZF d   1       1.043   1.188  -1.647  0.00  0.00    -0.016 A 
ATOM      7  C6  BZF d   1       0.831   0.654  -0.392  0.00  0.00     0.022 A 
ATOM      8  C7  BZF d   1      -0.097  -0.312  -0.186  0.00  0.00     0.029 A 
ATOM      9  C7A BZF d   1      -0.799  -0.749  -1.283  0.00  0.00     0.058 A 
ENDROOT
TORSDOF 0
ENDMDL
