MODEL 1
REMARK minimizedAffinity -3.83471584
REMARK minimizedRMSD -1
REMARK  0 active torsions:
REMARK  status: ('A' for Active; 'I' for Inactive)
ROOT
ATOM      1  O1  BZF d   1      -2.380   0.290   1.042  0.00  0.00    -0.204 OA
ATOM      2  C2  BZF d   1      -2.209   1.581   1.502  0.00  0.00     0.174 A 
ATOM      3  C3  BZF d   1      -1.011   2.070   1.121  0.00  0.00    -0.012 A 
ATOM      4  C3A BZF d   1      -0.434   1.051   0.298  0.00  0.00    -0.107 A 
ATOM      5  C4  BZF d   1       0.743   0.953  -0.388  0.00  0.00     0.055 A 
ATOM      6  C5  BZF d   1       1.036  -0.206  -1.035  0.00  0.00    -0.016 A 
ATOM      7  C6  BZF d   1       0.180  -1.287  -1.011  0.00  0.00     0.022 A 
ATOM      8  C7  BZF d   1      -1.001  -1.236  -0.347  0.00  0.00     0.029 A 
ATOM      9  C7A BZF d   1      -1.315  -0.054   0.279  0.00  0.00     0.058 A 
ENDROOT
TORSDOF 0
ENDMDL
