MODEL 1
REMARK minimizedAffinity 6.71502066
REMARK minimizedRMSD -1
REMARK  0 active torsions:
REMARK  status: ('A' for Active; 'I' for Inactive)
ROOT
ATOM      1  C1  DEN d   1       3.052  -2.319   5.886  0.00  0.00     0.130 A 
ATOM      2  C2  DEN d   1       4.065  -1.268   5.897  0.00  0.00    -0.031 A 
ATOM      3  C3  DEN d   1       5.393  -1.914   5.899  0.00  0.00     0.027 A 
ATOM      4  C4  DEN d   1       5.975  -4.427   5.882  0.00  0.00     0.027 A 
ATOM      5  C5  DEN d   1       5.451  -5.701   5.883  0.00  0.00    -0.003 A 
ATOM      6  C6  DEN d   1       4.102  -5.935   5.919  0.00  0.00     0.001 A 
ATOM      7  C7  DEN d   1       3.229  -4.879   5.910  0.00  0.00     0.017 A 
ATOM      8  C8  DEN d   1       3.750  -3.592   5.917  0.00  0.00    -0.094 A 
ATOM      9  C9  DEN d   1       5.117  -3.376   5.868  0.00  0.00    -0.072 A 
ENDROOT
TORSDOF 0
ENDMDL
