MODEL 1
REMARK minimizedAffinity 16.2823887
REMARK minimizedRMSD -1
REMARK  0 active torsions:
REMARK  status: ('A' for Active; 'I' for Inactive)
ROOT
ATOM      1  C1  DEN d   1       4.639  -2.195   5.999  0.00  0.00     0.130 A 
ATOM      2  C2  DEN d   1       5.461  -3.402   6.000  0.00  0.00    -0.031 A 
ATOM      3  C3  DEN d   1       5.275  -4.081   4.701  0.00  0.00     0.027 A 
ATOM      4  C4  DEN d   1       3.807  -3.382   2.700  0.00  0.00     0.027 A 
ATOM      5  C5  DEN d   1       2.918  -2.437   2.236  0.00  0.00    -0.003 A 
ATOM      6  C6  DEN d   1       2.518  -1.373   3.000  0.00  0.00     0.001 A 
ATOM      7  C7  DEN d   1       3.042  -1.203   4.254  0.00  0.00     0.017 A 
ATOM      8  C8  DEN d   1       3.933  -2.155   4.731  0.00  0.00    -0.094 A 
ATOM      9  C9  DEN d   1       4.335  -3.217   3.939  0.00  0.00    -0.072 A 
ENDROOT
TORSDOF 0
ENDMDL
