MODEL 1
REMARK minimizedAffinity 5.54397106
REMARK minimizedRMSD -1
REMARK  0 active torsions:
REMARK  status: ('A' for Active; 'I' for Inactive)
ROOT
ATOM      1  C1  DEN d   1      -0.202  -5.777  -3.220  0.00  0.00     0.130 A 
ATOM      2  C2  DEN d   1      -0.229  -5.663  -4.676  0.00  0.00    -0.031 A 
ATOM      3  C3  DEN d   1      -0.268  -4.228  -5.021  0.00  0.00     0.027 A 
ATOM      4  C4  DEN d   1      -0.285  -2.181  -3.451  0.00  0.00     0.027 A 
ATOM      5  C5  DEN d   1      -0.283  -1.777  -2.135  0.00  0.00    -0.003 A 
ATOM      6  C6  DEN d   1      -0.289  -2.670  -1.096  0.00  0.00     0.001 A 
ATOM      7  C7  DEN d   1      -0.251  -4.014  -1.357  0.00  0.00     0.017 A 
ATOM      8  C8  DEN d   1      -0.260  -4.430  -2.681  0.00  0.00    -0.094 A 
ATOM      9  C9  DEN d   1      -0.242  -3.511  -3.717  0.00  0.00    -0.072 A 
ENDROOT
TORSDOF 0
ENDMDL
