MODEL 1
REMARK minimizedAffinity 10.6255264
REMARK minimizedRMSD -1
REMARK  0 active torsions:
REMARK  status: ('A' for Active; 'I' for Inactive)
ROOT
ATOM      1  C1  DEN d   1       0.111  -2.454   0.805  0.00  0.00     0.130 A 
ATOM      2  C2  DEN d   1      -1.095  -2.729   1.582  0.00  0.00    -0.031 A 
ATOM      3  C3  DEN d   1      -2.218  -2.895   0.638  0.00  0.00     0.027 A 
ATOM      4  C4  DEN d   1      -2.207  -2.759  -1.938  0.00  0.00     0.027 A 
ATOM      5  C5  DEN d   1      -1.420  -2.536  -3.047  0.00  0.00    -0.003 A 
ATOM      6  C6  DEN d   1      -0.087  -2.240  -2.948  0.00  0.00     0.001 A 
ATOM      7  C7  DEN d   1       0.511  -2.202  -1.716  0.00  0.00     0.017 A 
ATOM      8  C8  DEN d   1      -0.277  -2.418  -0.593  0.00  0.00    -0.094 A 
ATOM      9  C9  DEN d   1      -1.620  -2.729  -0.714  0.00  0.00    -0.072 A 
ENDROOT
TORSDOF 0
ENDMDL
