MODEL 1
REMARK minimizedAffinity 11.1873217
REMARK minimizedRMSD -1
REMARK  0 active torsions:
REMARK  status: ('A' for Active; 'I' for Inactive)
ROOT
ATOM      1  C1  DEN d   1      -2.397  -2.597   0.044  0.00  0.00     0.130 A 
ATOM      2  C2  DEN d   1      -1.360  -2.282   1.023  0.00  0.00    -0.031 A 
ATOM      3  C3  DEN d   1      -0.057  -2.297   0.329  0.00  0.00     0.027 A 
ATOM      4  C4  DEN d   1       0.454  -2.771  -2.154  0.00  0.00     0.027 A 
ATOM      5  C5  DEN d   1      -0.101  -3.098  -3.372  0.00  0.00    -0.003 A 
ATOM      6  C6  DEN d   1      -1.445  -3.314  -3.528  0.00  0.00     0.001 A 
ATOM      7  C7  DEN d   1      -2.286  -3.159  -2.457  0.00  0.00     0.017 A 
ATOM      8  C8  DEN d   1      -1.733  -2.836  -1.225  0.00  0.00    -0.094 A 
ATOM      9  C9  DEN d   1      -0.373  -2.611  -1.090  0.00  0.00    -0.072 A 
ENDROOT
TORSDOF 0
ENDMDL
