MODEL 1
REMARK minimizedAffinity 7.3305378
REMARK minimizedRMSD -1
REMARK  0 active torsions:
REMARK  status: ('A' for Active; 'I' for Inactive)
ROOT
ATOM      1  C1  DEN d   1      -3.577  -2.571  -0.597  0.00  0.00     0.130 A 
ATOM      2  C2  DEN d   1      -3.472  -2.484   0.857  0.00  0.00    -0.031 A 
ATOM      3  C3  DEN d   1      -2.040  -2.412   1.208  0.00  0.00     0.027 A 
ATOM      4  C4  DEN d   1       0.015  -2.424  -0.351  0.00  0.00     0.027 A 
ATOM      5  C5  DEN d   1       0.428  -2.496  -1.663  0.00  0.00    -0.003 A 
ATOM      6  C6  DEN d   1      -0.456  -2.631  -2.701  0.00  0.00     0.001 A 
ATOM      7  C7  DEN d   1      -1.802  -2.653  -2.447  0.00  0.00     0.017 A 
ATOM      8  C8  DEN d   1      -2.226  -2.589  -1.127  0.00  0.00    -0.094 A 
ATOM      9  C9  DEN d   1      -1.317  -2.440  -0.093  0.00  0.00    -0.072 A 
ENDROOT
TORSDOF 0
ENDMDL
