MODEL 1
REMARK minimizedAffinity 4.05179834
REMARK minimizedRMSD -1
REMARK  0 active torsions:
REMARK  status: ('A' for Active; 'I' for Inactive)
ROOT
ATOM      1  C1  DEN d   1      -1.801  -2.452  -2.621  0.00  0.00     0.130 A 
ATOM      2  C2  DEN d   1      -0.556  -2.856  -3.269  0.00  0.00    -0.031 A 
ATOM      3  C3  DEN d   1       0.440  -3.129  -2.214  0.00  0.00     0.027 A 
ATOM      4  C4  DEN d   1       0.176  -2.971   0.347  0.00  0.00     0.027 A 
ATOM      5  C5  DEN d   1      -0.694  -2.660   1.369  0.00  0.00    -0.003 A 
ATOM      6  C6  DEN d   1      -1.972  -2.228   1.133  0.00  0.00     0.001 A 
ATOM      7  C7  DEN d   1      -2.432  -2.139  -0.154  0.00  0.00     0.017 A 
ATOM      8  C8  DEN d   1      -1.559  -2.445  -1.190  0.00  0.00    -0.094 A 
ATOM      9  C9  DEN d   1      -0.274  -2.891  -0.931  0.00  0.00    -0.072 A 
ENDROOT
TORSDOF 0
ENDMDL
