MODEL 1
REMARK minimizedAffinity 8.02128124
REMARK minimizedRMSD -1
REMARK  0 active torsions:
REMARK  status: ('A' for Active; 'I' for Inactive)
ROOT
ATOM      1  C1  DEN d   1      -3.957   1.962   0.188  0.00  0.00     0.130 A 
ATOM      2  C2  DEN d   1      -2.630   1.980   0.796  0.00  0.00    -0.031 A 
ATOM      3  C3  DEN d   1      -2.297   3.381   1.123  0.00  0.00     0.027 A 
ATOM      4  C4  DEN d   1      -3.703   5.512   0.753  0.00  0.00     0.027 A 
ATOM      5  C5  DEN d   1      -4.892   6.000   0.258  0.00  0.00    -0.003 A 
ATOM      6  C6  DEN d   1      -5.831   5.187  -0.320  0.00  0.00     0.001 A 
ATOM      7  C7  DEN d   1      -5.616   3.836  -0.378  0.00  0.00     0.017 A 
ATOM      8  C8  DEN d   1      -4.416   3.337   0.111  0.00  0.00    -0.094 A 
ATOM      9  C9  DEN d   1      -3.485   4.173   0.704  0.00  0.00    -0.072 A 
ENDROOT
TORSDOF 0
ENDMDL
