MODEL 1
REMARK minimizedAffinity 13.8173618
REMARK minimizedRMSD -1
REMARK  0 active torsions:
REMARK  status: ('A' for Active; 'I' for Inactive)
ROOT
ATOM      1  C1  DEN d   1       2.568  -3.534  -3.096  0.00  0.00     0.130 A 
ATOM      2  C2  DEN d   1       2.496  -3.926  -4.501  0.00  0.00    -0.031 A 
ATOM      3  C3  DEN d   1       1.110  -3.716  -4.963  0.00  0.00     0.027 A 
ATOM      4  C4  DEN d   1      -0.921  -2.823  -3.648  0.00  0.00     0.027 A 
ATOM      5  C5  DEN d   1      -1.353  -2.369  -2.422  0.00  0.00    -0.003 A 
ATOM      6  C6  DEN d   1      -0.524  -2.305  -1.334  0.00  0.00     0.001 A 
ATOM      7  C7  DEN d   1       0.793  -2.658  -1.463  0.00  0.00     0.017 A 
ATOM      8  C8  DEN d   1       1.235  -3.123  -2.694  0.00  0.00    -0.094 A 
ATOM      9  C9  DEN d   1       0.383  -3.169  -3.785  0.00  0.00    -0.072 A 
ENDROOT
TORSDOF 0
ENDMDL
