MODEL 1
REMARK minimizedAffinity 4.23037004
REMARK minimizedRMSD -1
REMARK  0 active torsions:
REMARK  status: ('A' for Active; 'I' for Inactive)
ROOT
ATOM      1  C1  DEN d   1      -4.956  -0.025   5.974  0.00  0.00     0.130 A 
ATOM      2  C2  DEN d   1      -4.831   1.430   5.998  0.00  0.00    -0.031 A 
ATOM      3  C3  DEN d   1      -3.393   1.765   6.000  0.00  0.00     0.027 A 
ATOM      4  C4  DEN d   1      -1.358   0.182   5.962  0.00  0.00     0.027 A 
ATOM      5  C5  DEN d   1      -0.962  -1.138   5.950  0.00  0.00    -0.003 A 
ATOM      6  C6  DEN d   1      -1.862  -2.170   5.979  0.00  0.00     0.001 A 
ATOM      7  C7  DEN d   1      -3.205  -1.900   5.976  0.00  0.00     0.017 A 
ATOM      8  C8  DEN d   1      -3.611  -0.573   5.996  0.00  0.00    -0.094 A 
ATOM      9  C9  DEN d   1      -2.687   0.457   5.954  0.00  0.00    -0.072 A 
ENDROOT
TORSDOF 0
ENDMDL
