MODEL 1
REMARK minimizedAffinity 7.75571394
REMARK minimizedRMSD -1
REMARK  0 active torsions:
REMARK  status: ('A' for Active; 'I' for Inactive)
ROOT
ATOM      1  C1  DEN d   1       0.734  -2.604  -2.034  0.00  0.00     0.130 A 
ATOM      2  C2  DEN d   1      -0.545  -2.073  -1.570  0.00  0.00    -0.031 A 
ATOM      3  C3  DEN d   1      -1.487  -2.093  -2.707  0.00  0.00     0.027 A 
ATOM      4  C4  DEN d   1      -1.093  -2.893  -5.127  0.00  0.00     0.027 A 
ATOM      5  C5  DEN d   1      -0.163  -3.415  -6.000  0.00  0.00    -0.003 A 
ATOM      6  C6  DEN d   1       1.129  -3.669  -5.624  0.00  0.00     0.001 A 
ATOM      7  C7  DEN d   1       1.516  -3.444  -4.329  0.00  0.00     0.017 A 
ATOM      8  C8  DEN d   1       0.587  -2.911  -3.446  0.00  0.00    -0.094 A 
ATOM      9  C9  DEN d   1      -0.718  -2.672  -3.842  0.00  0.00    -0.072 A 
ENDROOT
TORSDOF 0
ENDMDL
