MODEL 1
REMARK minimizedAffinity 14.2171154
REMARK minimizedRMSD -1
REMARK  0 active torsions:
REMARK  status: ('A' for Active; 'I' for Inactive)
ROOT
ATOM      1  C1  DEN d   1      -2.929   4.258   0.412  0.00  0.00     0.130 A 
ATOM      2  C2  DEN d   1      -2.982   2.800   0.363  0.00  0.00    -0.031 A 
ATOM      3  C3  DEN d   1      -1.626   2.285   0.642  0.00  0.00     0.027 A 
ATOM      4  C4  DEN d   1       0.536   3.597   1.148  0.00  0.00     0.027 A 
ATOM      5  C5  DEN d   1       1.079   4.855   1.287  0.00  0.00    -0.003 A 
ATOM      6  C6  DEN d   1       0.338   5.994   1.112  0.00  0.00     0.001 A 
ATOM      7  C7  DEN d   1      -1.000   5.897   0.832  0.00  0.00     0.017 A 
ATOM      8  C8  DEN d   1      -1.553   4.631   0.683  0.00  0.00    -0.094 A 
ATOM      9  C9  DEN d   1      -0.790   3.493   0.877  0.00  0.00    -0.072 A 
ENDROOT
TORSDOF 0
ENDMDL
