MODEL 1
REMARK minimizedAffinity 5.88836908
REMARK minimizedRMSD -1
REMARK  0 active torsions:
REMARK  status: ('A' for Active; 'I' for Inactive)
ROOT
ATOM      1  C1  DEN d   1      -3.878  -2.409  -0.354  0.00  0.00     0.130 A 
ATOM      2  C2  DEN d   1      -3.529  -2.090   1.027  0.00  0.00    -0.031 A 
ATOM      3  C3  DEN d   1      -2.068  -1.889   1.095  0.00  0.00     0.027 A 
ATOM      4  C4  DEN d   1      -0.321  -2.034  -0.797  0.00  0.00     0.027 A 
ATOM      5  C5  DEN d   1      -0.137  -2.288  -2.138  0.00  0.00    -0.003 A 
ATOM      6  C6  DEN d   1      -1.174  -2.631  -2.965  0.00  0.00     0.001 A 
ATOM      7  C7  DEN d   1      -2.449  -2.684  -2.468  0.00  0.00     0.017 A 
ATOM      8  C8  DEN d   1      -2.641  -2.437  -1.115  0.00  0.00    -0.094 A 
ATOM      9  C9  DEN d   1      -1.582  -2.080  -0.298  0.00  0.00    -0.072 A 
ENDROOT
TORSDOF 0
ENDMDL
