MODEL 1
REMARK minimizedAffinity 14.1506634
REMARK minimizedRMSD -1
REMARK  0 active torsions:
REMARK  status: ('A' for Active; 'I' for Inactive)
ROOT
ATOM      1  C1  DEN d   1       0.411  -5.805  -1.336  0.00  0.00     0.130 A 
ATOM      2  C2  DEN d   1       0.771  -6.000   0.066  0.00  0.00    -0.031 A 
ATOM      3  C3  DEN d   1       0.557  -4.721   0.773  0.00  0.00     0.027 A 
ATOM      4  C4  DEN d   1      -0.300  -2.474  -0.159  0.00  0.00     0.027 A 
ATOM      5  C5  DEN d   1      -0.724  -1.818  -1.293  0.00  0.00    -0.003 A 
ATOM      6  C6  DEN d   1      -0.767  -2.430  -2.518  0.00  0.00     0.001 A 
ATOM      7  C7  DEN d   1      -0.422  -3.751  -2.629  0.00  0.00     0.017 A 
ATOM      8  C8  DEN d   1       0.014  -4.418  -1.491  0.00  0.00    -0.094 A 
ATOM      9  C9  DEN d   1       0.039  -3.785  -0.260  0.00  0.00    -0.072 A 
ENDROOT
TORSDOF 0
ENDMDL
