MODEL 1
REMARK minimizedAffinity 22.9433537
REMARK minimizedRMSD -1
REMARK  0 active torsions:
REMARK  status: ('A' for Active; 'I' for Inactive)
ROOT
ATOM      1  C1  DEN d   1      -2.145  -2.446  -2.889  0.00  0.00     0.130 A 
ATOM      2  C2  DEN d   1      -1.064  -2.891  -3.764  0.00  0.00    -0.031 A 
ATOM      3  C3  DEN d   1       0.167  -2.992  -2.954  0.00  0.00     0.027 A 
ATOM      4  C4  DEN d   1       0.500  -2.510  -0.442  0.00  0.00     0.027 A 
ATOM      5  C5  DEN d   1      -0.124  -2.096   0.714  0.00  0.00    -0.003 A 
ATOM      6  C6  DEN d   1      -1.446  -1.739   0.743  0.00  0.00     0.001 A 
ATOM      7  C7  DEN d   1      -2.199  -1.834  -0.398  0.00  0.00     0.017 A 
ATOM      8  C8  DEN d   1      -1.576  -2.244  -1.569  0.00  0.00    -0.094 A 
ATOM      9  C9  DEN d   1      -0.241  -2.612  -1.574  0.00  0.00    -0.072 A 
ENDROOT
TORSDOF 0
ENDMDL
