MODEL 1
REMARK minimizedAffinity 7.21534061
REMARK minimizedRMSD -1
REMARK  0 active torsions:
REMARK  status: ('A' for Active; 'I' for Inactive)
ROOT
ATOM      1  C2' OXE d   1       1.225  -1.131   3.180  0.00  0.00     0.078 C 
ATOM      2  C1' OXE d   1      -1.370  -1.061   2.110  0.00  0.00     0.078 C 
ATOM      3  C1  OXE d   1      -0.210  -1.024   1.146  0.00  0.00    -0.078 A 
ATOM      4  C2  OXE d   1       1.056  -1.011   1.680  0.00  0.00    -0.078 A 
ATOM      5  C3  OXE d   1       2.161  -1.033   0.835  0.00  0.00     0.003 A 
ATOM      6  C4  OXE d   1       1.997  -0.912  -0.550  0.00  0.00    -0.002 A 
ATOM      7  C5  OXE d   1       0.716  -0.883  -1.113  0.00  0.00    -0.002 A 
ATOM      8  C6  OXE d   1      -0.395  -0.981  -0.283  0.00  0.00     0.003 A 
ENDROOT
TORSDOF 0
ENDMDL
