MODEL 1
REMARK minimizedAffinity 0.743794024
REMARK minimizedRMSD -1
REMARK  0 active torsions:
REMARK  status: ('A' for Active; 'I' for Inactive)
ROOT
ATOM      1  C2' OXE d   1       2.016   0.835  -2.845  0.00  0.00     0.078 C 
ATOM      2  C1' OXE d   1       2.163   2.347  -0.484  0.00  0.00     0.078 C 
ATOM      3  C1  OXE d   1       2.291   0.848  -0.369  0.00  0.00    -0.078 A 
ATOM      4  C2  OXE d   1       2.171   0.113  -1.524  0.00  0.00    -0.078 A 
ATOM      5  C3  OXE d   1       2.335  -1.268  -1.482  0.00  0.00     0.003 A 
ATOM      6  C4  OXE d   1       2.468  -1.929  -0.255  0.00  0.00    -0.002 A 
ATOM      7  C5  OXE d   1       2.553  -1.203   0.938  0.00  0.00    -0.002 A 
ATOM      8  C6  OXE d   1       2.509   0.186   0.893  0.00  0.00     0.003 A 
ENDROOT
TORSDOF 0
ENDMDL
