MODEL 1
REMARK minimizedAffinity 7.12520695
REMARK minimizedRMSD -1
REMARK  0 active torsions:
REMARK  status: ('A' for Active; 'I' for Inactive)
ROOT
ATOM      1  C2' OXE d   1       2.277   1.316  -2.932  0.00  0.00     0.078 C 
ATOM      2  C1' OXE d   1       3.205   2.512  -0.568  0.00  0.00     0.078 C 
ATOM      3  C1  OXE d   1       2.609   1.130  -0.470  0.00  0.00    -0.078 A 
ATOM      4  C2  OXE d   1       2.115   0.572  -1.624  0.00  0.00    -0.078 A 
ATOM      5  C3  OXE d   1       1.603  -0.723  -1.599  0.00  0.00     0.003 A 
ATOM      6  C4  OXE d   1       1.448  -1.400  -0.384  0.00  0.00    -0.002 A 
ATOM      7  C5  OXE d   1       1.908  -0.833   0.809  0.00  0.00    -0.002 A 
ATOM      8  C6  OXE d   1       2.529   0.411   0.777  0.00  0.00     0.003 A 
ENDROOT
TORSDOF 0
ENDMDL
