MODEL 1
REMARK minimizedAffinity 6.11755276
REMARK minimizedRMSD -1
REMARK  0 active torsions:
REMARK  status: ('A' for Active; 'I' for Inactive)
ROOT
ATOM      1  C2' OXE d   1      -1.607   0.612   2.920  0.00  0.00     0.078 C 
ATOM      2  C1' OXE d   1      -0.875  -1.112   0.830  0.00  0.00     0.078 C 
ATOM      3  C1  OXE d   1       0.035  -1.036   2.030  0.00  0.00    -0.078 A 
ATOM      4  C2  OXE d   1      -0.306  -0.155   3.027  0.00  0.00    -0.078 A 
ATOM      5  C3  OXE d   1       0.469  -0.085   4.181  0.00  0.00     0.003 A 
ATOM      6  C4  OXE d   1       1.676  -0.790   4.268  0.00  0.00    -0.002 A 
ATOM      7  C5  OXE d   1       2.063  -1.663   3.246  0.00  0.00    -0.002 A 
ATOM      8  C6  OXE d   1       1.234  -1.829   2.142  0.00  0.00     0.003 A 
ENDROOT
TORSDOF 0
ENDMDL
