MODEL 1
REMARK minimizedAffinity 6.76059198
REMARK minimizedRMSD -1
REMARK  0 active torsions:
REMARK  status: ('A' for Active; 'I' for Inactive)
ROOT
ATOM      1  C2' OXE d   1       3.051  -2.329   0.431  0.00  0.00     0.078 C 
ATOM      2  C1' OXE d   1       0.838  -0.917  -0.563  0.00  0.00     0.078 C 
ATOM      3  C1  OXE d   1       0.984  -1.033   0.933  0.00  0.00    -0.078 A 
ATOM      4  C2  OXE d   1       2.044  -1.766   1.410  0.00  0.00    -0.078 A 
ATOM      5  C3  OXE d   1       2.256  -1.859   2.783  0.00  0.00     0.003 A 
ATOM      6  C4  OXE d   1       1.315  -1.343   3.682  0.00  0.00    -0.002 A 
ATOM      7  C5  OXE d   1       0.207  -0.627   3.217  0.00  0.00    -0.002 A 
ATOM      8  C6  OXE d   1       0.050  -0.427   1.850  0.00  0.00     0.003 A 
ENDROOT
TORSDOF 0
ENDMDL
