MODEL 1
REMARK minimizedAffinity 9.26554966
REMARK minimizedRMSD -1
REMARK  0 active torsions:
REMARK  status: ('A' for Active; 'I' for Inactive)
ROOT
ATOM      1  C2' OXE d   1       2.215  -2.564   2.212  0.00  0.00     0.078 C 
ATOM      2  C1' OXE d   1       1.471  -1.189  -0.119  0.00  0.00     0.078 C 
ATOM      3  C1  OXE d   1       0.653  -0.956   1.126  0.00  0.00    -0.078 A 
ATOM      4  C2  OXE d   1       0.996  -1.668   2.250  0.00  0.00    -0.078 A 
ATOM      5  C3  OXE d   1       0.308  -1.450   3.440  0.00  0.00     0.003 A 
ATOM      6  C4  OXE d   1      -0.824  -0.627   3.465  0.00  0.00    -0.002 A 
ATOM      7  C5  OXE d   1      -1.214   0.077   2.321  0.00  0.00    -0.002 A 
ATOM      8  C6  OXE d   1      -0.462  -0.043   1.157  0.00  0.00     0.003 A 
ENDROOT
TORSDOF 0
ENDMDL
