MODEL 1
REMARK minimizedAffinity 6.71831656
REMARK minimizedRMSD -1
REMARK  0 active torsions:
REMARK  status: ('A' for Active; 'I' for Inactive)
ROOT
ATOM      1  C2' OXE d   1      -1.107  -1.196   0.776  0.00  0.00     0.078 C 
ATOM      2  C1' OXE d   1      -1.652   0.486   2.956  0.00  0.00     0.078 C 
ATOM      3  C1  OXE d   1      -0.266  -0.097   2.847  0.00  0.00    -0.078 A 
ATOM      4  C2  OXE d   1      -0.022  -0.957   1.803  0.00  0.00    -0.078 A 
ATOM      5  C3  OXE d   1       1.256  -1.480   1.625  0.00  0.00     0.003 A 
ATOM      6  C4  OXE d   1       2.252  -1.261   2.585  0.00  0.00    -0.002 A 
ATOM      7  C5  OXE d   1       2.012  -0.421   3.678  0.00  0.00    -0.002 A 
ATOM      8  C6  OXE d   1       0.775   0.201   3.800  0.00  0.00     0.003 A 
ENDROOT
TORSDOF 0
ENDMDL
