MODEL 1
REMARK minimizedAffinity 0.462222755
REMARK minimizedRMSD -1
REMARK  0 active torsions:
REMARK  status: ('A' for Active; 'I' for Inactive)
ROOT
ATOM      1  C2' OXE d   1       0.571  -0.948  -1.293  0.00  0.00     0.078 C 
ATOM      2  C1' OXE d   1       2.694  -1.975   0.230  0.00  0.00     0.078 C 
ATOM      3  C1  OXE d   1       1.472  -1.484   0.966  0.00  0.00    -0.078 A 
ATOM      4  C2  OXE d   1       0.458  -0.940   0.216  0.00  0.00    -0.078 A 
ATOM      5  C3  OXE d   1      -0.714  -0.523   0.841  0.00  0.00     0.003 A 
ATOM      6  C4  OXE d   1      -0.807  -0.510   2.238  0.00  0.00    -0.002 A 
ATOM      7  C5  OXE d   1       0.231  -1.023   3.023  0.00  0.00    -0.002 A 
ATOM      8  C6  OXE d   1       1.358  -1.552   2.402  0.00  0.00     0.003 A 
ENDROOT
TORSDOF 0
ENDMDL
