MODEL 1
REMARK minimizedAffinity 12.0981979
REMARK minimizedRMSD -1
REMARK  0 active torsions:
REMARK  status: ('A' for Active; 'I' for Inactive)
ROOT
ATOM      1  C2' OXE d   1      -0.606   4.074   3.793  0.00  0.00     0.078 C 
ATOM      2  C1' OXE d   1      -3.257   3.974   4.712  0.00  0.00     0.078 C 
ATOM      3  C1  OXE d   1      -2.585   2.670   4.360  0.00  0.00    -0.078 A 
ATOM      4  C2  OXE d   1      -1.304   2.732   3.867  0.00  0.00    -0.078 A 
ATOM      5  C3  OXE d   1      -0.618   1.556   3.579  0.00  0.00     0.003 A 
ATOM      6  C4  OXE d   1      -1.274   0.320   3.642  0.00  0.00    -0.002 A 
ATOM      7  C5  OXE d   1      -2.592   0.238   4.103  0.00  0.00    -0.002 A 
ATOM      8  C6  OXE d   1      -3.246   1.397   4.506  0.00  0.00     0.003 A 
ENDROOT
TORSDOF 0
ENDMDL
