MODEL 1
REMARK minimizedAffinity -2.88407993
REMARK minimizedRMSD -1
REMARK  0 active torsions:
REMARK  status: ('A' for Active; 'I' for Inactive)
ROOT
ATOM      1  C2' OXE d   1      -1.688  -0.759   0.481  0.00  0.00     0.078 C 
ATOM      2  C1' OXE d   1       0.130   0.964  -0.786  0.00  0.00     0.078 C 
ATOM      3  C1  OXE d   1       0.555   0.323   0.512  0.00  0.00    -0.078 A 
ATOM      4  C2  OXE d   1      -0.359  -0.482   1.148  0.00  0.00    -0.078 A 
ATOM      5  C3  OXE d   1       0.002  -1.140   2.320  0.00  0.00     0.003 A 
ATOM      6  C4  OXE d   1       1.230  -0.870   2.937  0.00  0.00    -0.002 A 
ATOM      7  C5  OXE d   1       2.160  -0.023   2.325  0.00  0.00    -0.002 A 
ATOM      8  C6  OXE d   1       1.855   0.547   1.094  0.00  0.00     0.003 A 
ENDROOT
TORSDOF 0
ENDMDL
