MODEL 1
REMARK minimizedAffinity -5.19560051
REMARK minimizedRMSD -1
REMARK  0 active torsions:
REMARK  status: ('A' for Active; 'I' for Inactive)
ROOT
ATOM      1  C2' OXE d   1      -1.019   0.004   2.158  0.00  0.00     0.078 C 
ATOM      2  C1' OXE d   1      -0.531   0.263  -0.594  0.00  0.00     0.078 C 
ATOM      3  C1  OXE d   1       0.376  -0.644   0.199  0.00  0.00    -0.078 A 
ATOM      4  C2  OXE d   1       0.159  -0.729   1.553  0.00  0.00    -0.078 A 
ATOM      5  C3  OXE d   1       0.933  -1.593   2.323  0.00  0.00     0.003 A 
ATOM      6  C4  OXE d   1       2.027  -2.259   1.757  0.00  0.00    -0.002 A 
ATOM      7  C5  OXE d   1       2.290  -2.155   0.387  0.00  0.00    -0.002 A 
ATOM      8  C6  OXE d   1       1.451  -1.387  -0.412  0.00  0.00     0.003 A 
ENDROOT
TORSDOF 0
ENDMDL
