MODEL 1
REMARK minimizedAffinity -1.85326803
REMARK minimizedRMSD -1
REMARK  0 active torsions:
REMARK  status: ('A' for Active; 'I' for Inactive)
ROOT
ATOM      1  C2' OXE d   1       1.064  -0.918   1.623  0.00  0.00     0.078 C 
ATOM      2  C1' OXE d   1       2.581  -3.185   0.958  0.00  0.00     0.078 C 
ATOM      3  C1  OXE d   1       1.462  -3.355   1.955  0.00  0.00    -0.078 A 
ATOM      4  C2  OXE d   1       0.755  -2.231   2.310  0.00  0.00    -0.078 A 
ATOM      5  C3  OXE d   1      -0.322  -2.342   3.184  0.00  0.00     0.003 A 
ATOM      6  C4  OXE d   1      -0.595  -3.558   3.822  0.00  0.00    -0.002 A 
ATOM      7  C5  OXE d   1       0.138  -4.707   3.505  0.00  0.00    -0.002 A 
ATOM      8  C6  OXE d   1       1.140  -4.631   2.543  0.00  0.00     0.003 A 
ENDROOT
TORSDOF 0
ENDMDL
