MODEL 1
REMARK minimizedAffinity -4.21622181
REMARK minimizedRMSD -1
REMARK  0 active torsions:
REMARK  status: ('A' for Active; 'I' for Inactive)
ROOT
ATOM      1  C2' OXE d   1       2.664  -0.635   0.365  0.00  0.00     0.078 C 
ATOM      2  C1' OXE d   1       1.905  -1.072   3.032  0.00  0.00     0.078 C 
ATOM      3  C1  OXE d   1       0.811  -0.894   2.009  0.00  0.00    -0.078 A 
ATOM      4  C2  OXE d   1       1.192  -0.634   0.715  0.00  0.00    -0.078 A 
ATOM      5  C3  OXE d   1       0.223  -0.516  -0.278  0.00  0.00     0.003 A 
ATOM      6  C4  OXE d   1      -1.136  -0.507   0.055  0.00  0.00    -0.002 A 
ATOM      7  C5  OXE d   1      -1.545  -0.730   1.374  0.00  0.00    -0.002 A 
ATOM      8  C6  OXE d   1      -0.587  -0.967   2.354  0.00  0.00     0.003 A 
ENDROOT
TORSDOF 0
ENDMDL
