MODEL 1
REMARK minimizedAffinity -3.82945561
REMARK minimizedRMSD -1
REMARK  0 active torsions:
REMARK  status: ('A' for Active; 'I' for Inactive)
ROOT
ATOM      1  C2' OXE d   1       3.006  -1.066   0.318  0.00  0.00     0.078 C 
ATOM      2  C1' OXE d   1       1.781  -1.139   2.842  0.00  0.00     0.078 C 
ATOM      3  C1  OXE d   1       0.903  -0.894   1.641  0.00  0.00    -0.078 A 
ATOM      4  C2  OXE d   1       1.517  -0.813   0.415  0.00  0.00    -0.078 A 
ATOM      5  C3  OXE d   1       0.747  -0.643  -0.732  0.00  0.00     0.003 A 
ATOM      6  C4  OXE d   1      -0.629  -0.400  -0.633  0.00  0.00    -0.002 A 
ATOM      7  C5  OXE d   1      -1.268  -0.438   0.610  0.00  0.00    -0.002 A 
ATOM      8  C6  OXE d   1      -0.525  -0.725   1.750  0.00  0.00     0.003 A 
ENDROOT
TORSDOF 0
ENDMDL
