MODEL 1
REMARK minimizedAffinity -1.32150626
REMARK minimizedRMSD -1
REMARK  0 active torsions:
REMARK  status: ('A' for Active; 'I' for Inactive)
ROOT
ATOM      1  C2' OXE d   1      -2.055  -0.887   0.530  0.00  0.00     0.078 C 
ATOM      2  C1' OXE d   1      -0.076   0.595  -0.800  0.00  0.00     0.078 C 
ATOM      3  C1  OXE d   1       0.312  -0.111   0.475  0.00  0.00    -0.078 A 
ATOM      4  C2  OXE d   1      -0.675  -0.795   1.144  0.00  0.00    -0.078 A 
ATOM      5  C3  OXE d   1      -0.358  -1.509   2.296  0.00  0.00     0.003 A 
ATOM      6  C4  OXE d   1       0.918  -1.411   2.863  0.00  0.00    -0.002 A 
ATOM      7  C5  OXE d   1       1.927  -0.687   2.219  0.00  0.00    -0.002 A 
ATOM      8  C6  OXE d   1       1.652  -0.067   1.005  0.00  0.00     0.003 A 
ENDROOT
TORSDOF 0
ENDMDL
