MODEL 1
REMARK minimizedAffinity -4.52794504
REMARK minimizedRMSD -1
REMARK  0 active torsions:
REMARK  status: ('A' for Active; 'I' for Inactive)
ROOT
ATOM      1  C2' OXE d   1      -1.941  -0.427   0.779  0.00  0.00     0.078 C 
ATOM      2  C1' OXE d   1       0.070   0.741  -0.794  0.00  0.00     0.078 C 
ATOM      3  C1  OXE d   1       0.484   0.064   0.489  0.00  0.00    -0.078 A 
ATOM      4  C2  OXE d   1      -0.512  -0.463   1.275  0.00  0.00    -0.078 A 
ATOM      5  C3  OXE d   1      -0.180  -1.146   2.442  0.00  0.00     0.003 A 
ATOM      6  C4  OXE d   1       1.143  -1.166   2.900  0.00  0.00    -0.002 A 
ATOM      7  C5  OXE d   1       2.168  -0.600   2.134  0.00  0.00    -0.002 A 
ATOM      8  C6  OXE d   1       1.861  -0.020   0.908  0.00  0.00     0.003 A 
ENDROOT
TORSDOF 0
ENDMDL
