MODEL 1
REMARK minimizedAffinity 0.037266124
REMARK minimizedRMSD -1
REMARK  0 active torsions:
REMARK  status: ('A' for Active; 'I' for Inactive)
ROOT
ATOM      1  C2' OXE d   1       2.621  -3.034   1.782  0.00  0.00     0.078 C 
ATOM      2  C1' OXE d   1       0.641  -1.171   1.083  0.00  0.00     0.078 C 
ATOM      3  C1  OXE d   1       0.216  -2.391   1.863  0.00  0.00    -0.078 A 
ATOM      4  C2  OXE d   1       1.184  -3.320   2.160  0.00  0.00    -0.078 A 
ATOM      5  C3  OXE d   1       0.856  -4.436   2.925  0.00  0.00     0.003 A 
ATOM      6  C4  OXE d   1      -0.477  -4.698   3.262  0.00  0.00    -0.002 A 
ATOM      7  C5  OXE d   1      -1.485  -3.784   2.934  0.00  0.00    -0.002 A 
ATOM      8  C6  OXE d   1      -1.149  -2.607   2.273  0.00  0.00     0.003 A 
ENDROOT
TORSDOF 0
ENDMDL
