MODEL 1
REMARK minimizedAffinity -0.134288952
REMARK minimizedRMSD -1
REMARK  0 active torsions:
REMARK  status: ('A' for Active; 'I' for Inactive)
ROOT
ATOM      1  C2' OXE d   1       0.013  -1.460   2.999  0.00  0.00     0.078 C 
ATOM      2  C1' OXE d   1      -1.833   0.375   1.949  0.00  0.00     0.078 C 
ATOM      3  C1  OXE d   1      -0.723  -0.102   1.045  0.00  0.00    -0.078 A 
ATOM      4  C2  OXE d   1       0.202  -0.964   1.582  0.00  0.00    -0.078 A 
ATOM      5  C3  OXE d   1       1.215  -1.477   0.776  0.00  0.00     0.003 A 
ATOM      6  C4  OXE d   1       1.389  -1.005  -0.530  0.00  0.00    -0.002 A 
ATOM      7  C5  OXE d   1       0.480  -0.096  -1.084  0.00  0.00    -0.002 A 
ATOM      8  C6  OXE d   1      -0.604   0.331  -0.325  0.00  0.00     0.003 A 
ENDROOT
TORSDOF 0
ENDMDL
