MODEL 1
REMARK minimizedAffinity -4.00665998
REMARK minimizedRMSD -1
REMARK  0 active torsions:
REMARK  status: ('A' for Active; 'I' for Inactive)
ROOT
ATOM      1  C2' OXE d   1       1.223  -0.712   2.940  0.00  0.00     0.078 C 
ATOM      2  C1' OXE d   1       2.609  -0.575   0.503  0.00  0.00     0.078 C 
ATOM      3  C1  OXE d   1       1.104  -0.650   0.453  0.00  0.00    -0.078 A 
ATOM      4  C2  OXE d   1       0.436  -0.764   1.648  0.00  0.00    -0.078 A 
ATOM      5  C3  OXE d   1      -0.956  -0.781   1.661  0.00  0.00     0.003 A 
ATOM      6  C4  OXE d   1      -1.675  -0.838   0.462  0.00  0.00    -0.002 A 
ATOM      7  C5  OXE d   1      -1.013  -0.764  -0.768  0.00  0.00    -0.002 A 
ATOM      8  C6  OXE d   1       0.371  -0.626  -0.789  0.00  0.00     0.003 A 
ENDROOT
TORSDOF 0
ENDMDL
