MODEL 1
REMARK minimizedAffinity -1.76576805
REMARK minimizedRMSD -1
REMARK  0 active torsions:
REMARK  status: ('A' for Active; 'I' for Inactive)
ROOT
ATOM      1  C2' OXE d   1       0.166   3.603  -2.801  0.00  0.00     0.078 C 
ATOM      2  C1' OXE d   1      -0.442   1.225  -1.439  0.00  0.00     0.078 C 
ATOM      3  C1  OXE d   1      -1.592   2.077  -1.915  0.00  0.00    -0.078 A 
ATOM      4  C2  OXE d   1      -1.285   3.262  -2.539  0.00  0.00    -0.078 A 
ATOM      5  C3  OXE d   1      -2.307   4.059  -3.046  0.00  0.00     0.003 A 
ATOM      6  C4  OXE d   1      -3.647   3.741  -2.791  0.00  0.00    -0.002 A 
ATOM      7  C5  OXE d   1      -3.981   2.559  -2.122  0.00  0.00    -0.002 A 
ATOM      8  C6  OXE d   1      -2.969   1.696  -1.716  0.00  0.00     0.003 A 
ENDROOT
TORSDOF 0
ENDMDL
