MODEL 1
REMARK minimizedAffinity -2.1573081
REMARK minimizedRMSD -1
REMARK  0 active torsions:
REMARK  status: ('A' for Active; 'I' for Inactive)
ROOT
ATOM      1  C2' OXE d   1       1.513  -0.788   2.932  0.00  0.00     0.078 C 
ATOM      2  C1' OXE d   1       2.724  -0.917   0.402  0.00  0.00     0.078 C 
ATOM      3  C1  OXE d   1       1.262  -0.550   0.465  0.00  0.00    -0.078 A 
ATOM      4  C2  OXE d   1       0.666  -0.535   1.703  0.00  0.00    -0.078 A 
ATOM      5  C3  OXE d   1      -0.666  -0.149   1.823  0.00  0.00     0.003 A 
ATOM      6  C4  OXE d   1      -1.444   0.074   0.680  0.00  0.00    -0.002 A 
ATOM      7  C5  OXE d   1      -0.867   0.024  -0.593  0.00  0.00    -0.002 A 
ATOM      8  C6  OXE d   1       0.492  -0.243  -0.715  0.00  0.00     0.003 A 
ENDROOT
TORSDOF 0
ENDMDL
