MODEL 1
REMARK minimizedAffinity -2.63169837
REMARK minimizedRMSD -1
REMARK  1 active torsions:
REMARK  status: ('A' for Active; 'I' for Inactive)
REMARK    1  A    between atoms: N_2  and  C1_3 
ROOT
ATOM      1  C1  UNL d   1       0.138  -1.212  -1.019  0.00  0.00     0.143 A 
ATOM      2  C2  UNL d   1      -0.755  -1.841  -0.144  0.00  0.00    -0.057 A 
ATOM      3  C3  UNL d   1      -1.163  -1.223   1.045  0.00  0.00     0.033 A 
ATOM      4  C4  UNL d   1      -0.661   0.026   1.394  0.00  0.00    -0.042 A 
ATOM      5  C5  UNL d   1       0.247   0.659   0.552  0.00  0.00     0.033 A 
ATOM      6  C6  UNL d   1       0.645   0.039  -0.637  0.00  0.00    -0.057 A 
ENDROOT
BRANCH   1   7
ATOM      7  N   UNL d   1       0.657  -1.817  -2.166  0.00  0.00    -0.732 N 
ATOM      8  C   UNL d   1       0.775  -3.256  -2.252  0.00  0.00     0.284 C 
ATOM      9  H3  UNL d   1       0.328  -1.374  -3.021  0.00  0.00     0.395 HD
ENDBRANCH   1   7
TORSDOF 1
ENDMDL
