MODEL 1
REMARK minimizedAffinity -3.19042134
REMARK minimizedRMSD -1
REMARK  1 active torsions:
REMARK  status: ('A' for Active; 'I' for Inactive)
REMARK    1  A    between atoms: N_2  and  C1_3 
ROOT
ATOM      1  C1  UNL d   1       0.459  -0.672  -0.017  0.00  0.00     0.143 A 
ATOM      2  C2  UNL d   1      -0.856  -0.354  -0.372  0.00  0.00    -0.057 A 
ATOM      3  C3  UNL d   1      -1.752   0.177   0.564  0.00  0.00     0.033 A 
ATOM      4  C4  UNL d   1      -1.355   0.374   1.882  0.00  0.00    -0.042 A 
ATOM      5  C5  UNL d   1      -0.060   0.042   2.263  0.00  0.00     0.033 A 
ATOM      6  C6  UNL d   1       0.832  -0.482   1.323  0.00  0.00    -0.057 A 
ENDROOT
BRANCH   1   7
ATOM      7  N   UNL d   1       1.368  -1.294  -0.877  0.00  0.00    -0.732 N 
ATOM      8  C   UNL d   1       0.974  -2.449  -1.655  0.00  0.00     0.284 C 
ATOM      9  H3  UNL d   1       1.941  -0.626  -1.386  0.00  0.00     0.395 HD
ENDBRANCH   1   7
TORSDOF 1
ENDMDL
