MODEL 1
REMARK minimizedAffinity 0.127395153
REMARK minimizedRMSD -1
REMARK  1 active torsions:
REMARK  status: ('A' for Active; 'I' for Inactive)
REMARK    1  A    between atoms: N_2  and  C1_3 
ROOT
ATOM      1  C1  UNL d   1       1.103  -1.664  -1.145  0.00  0.00     0.143 A 
ATOM      2  C2  UNL d   1       1.364  -2.935  -0.624  0.00  0.00    -0.057 A 
ATOM      3  C3  UNL d   1       1.374  -4.069  -1.447  0.00  0.00     0.033 A 
ATOM      4  C4  UNL d   1       1.093  -3.953  -2.804  0.00  0.00    -0.042 A 
ATOM      5  C5  UNL d   1       0.807  -2.702  -3.339  0.00  0.00     0.033 A 
ATOM      6  C6  UNL d   1       0.805  -1.573  -2.514  0.00  0.00    -0.057 A 
ENDROOT
BRANCH   1   7
ATOM      7  N   UNL d   1       0.981  -0.512  -0.363  0.00  0.00    -0.732 N 
ATOM      8  C   UNL d   1      -0.282  -0.171   0.254  0.00  0.00     0.284 C 
ATOM      9  H3  UNL d   1       1.791  -0.362   0.235  0.00  0.00     0.395 HD
ENDBRANCH   1   7
TORSDOF 1
ENDMDL
