MODEL 1
REMARK minimizedAffinity -2.76013398
REMARK minimizedRMSD -1
REMARK  1 active torsions:
REMARK  status: ('A' for Active; 'I' for Inactive)
REMARK    1  A    between atoms: N_2  and  C1_3 
ROOT
ATOM      1  C1  UNL d   1       0.618   0.029   0.101  0.00  0.00     0.143 A 
ATOM      2  C2  UNL d   1       0.220  -0.793   1.160  0.00  0.00    -0.057 A 
ATOM      3  C3  UNL d   1      -0.671  -0.335   2.139  0.00  0.00     0.033 A 
ATOM      4  C4  UNL d   1      -1.157   0.967   2.091  0.00  0.00    -0.042 A 
ATOM      5  C5  UNL d   1      -0.756   1.810   1.061  0.00  0.00     0.033 A 
ATOM      6  C6  UNL d   1       0.128   1.345   0.083  0.00  0.00    -0.057 A 
ENDROOT
BRANCH   1   7
ATOM      7  N   UNL d   1       1.576  -0.335  -0.848  0.00  0.00    -0.732 N 
ATOM      8  C   UNL d   1       1.566  -1.657  -1.437  0.00  0.00     0.284 C 
ATOM      9  H3  UNL d   1       1.772   0.414  -1.510  0.00  0.00     0.395 HD
ENDBRANCH   1   7
TORSDOF 1
ENDMDL
