MODEL 1
REMARK minimizedAffinity -0.400781155
REMARK minimizedRMSD -1
REMARK  1 active torsions:
REMARK  status: ('A' for Active; 'I' for Inactive)
REMARK    1  A    between atoms: N_2  and  C1_3 
ROOT
ATOM      1  C1  UNL d   1       0.411   0.277   0.162  0.00  0.00     0.143 A 
ATOM      2  C2  UNL d   1       0.930  -0.707   1.011  0.00  0.00    -0.057 A 
ATOM      3  C3  UNL d   1       0.581  -0.754   2.366  0.00  0.00     0.033 A 
ATOM      4  C4  UNL d   1      -0.273   0.203   2.904  0.00  0.00    -0.042 A 
ATOM      5  C5  UNL d   1      -0.781   1.205   2.085  0.00  0.00     0.033 A 
ATOM      6  C6  UNL d   1      -0.435   1.242   0.731  0.00  0.00    -0.057 A 
ENDROOT
BRANCH   1   7
ATOM      7  N   UNL d   1       0.796   0.435  -1.171  0.00  0.00    -0.732 N 
ATOM      8  C   UNL d   1       1.161   1.739  -1.683  0.00  0.00     0.284 C 
ATOM      9  H3  UNL d   1       1.395  -0.321  -1.495  0.00  0.00     0.395 HD
ENDBRANCH   1   7
TORSDOF 1
ENDMDL
