MODEL 1
REMARK minimizedAffinity -0.104125984
REMARK minimizedRMSD -1
REMARK  1 active torsions:
REMARK  status: ('A' for Active; 'I' for Inactive)
REMARK    1  A    between atoms: N_2  and  C1_3 
ROOT
ATOM      1  C1  UNL d   1       0.990  -1.194  -0.465  0.00  0.00     0.143 A 
ATOM      2  C2  UNL d   1       1.163   0.184  -0.638  0.00  0.00    -0.057 A 
ATOM      3  C3  UNL d   1       0.511   1.107   0.188  0.00  0.00     0.033 A 
ATOM      4  C4  UNL d   1      -0.352   0.668   1.186  0.00  0.00    -0.042 A 
ATOM      5  C5  UNL d   1      -0.559  -0.696   1.360  0.00  0.00     0.033 A 
ATOM      6  C6  UNL d   1       0.101  -1.614   0.536  0.00  0.00    -0.057 A 
ENDROOT
BRANCH   1   7
ATOM      7  N   UNL d   1       1.533  -2.159  -1.317  0.00  0.00    -0.732 N 
ATOM      8  C   UNL d   1       0.736  -2.741  -2.376  0.00  0.00     0.284 C 
ATOM      9  H3  UNL d   1       2.490  -1.944  -1.587  0.00  0.00     0.395 HD
ENDBRANCH   1   7
TORSDOF 1
ENDMDL
