MODEL 1
REMARK minimizedAffinity -3.67564511
REMARK minimizedRMSD -1
REMARK  1 active torsions:
REMARK  status: ('A' for Active; 'I' for Inactive)
REMARK    1  A    between atoms: N_2  and  C1_3 
ROOT
ATOM      1  C1  UNL d   1      -0.629   0.782   0.639  0.00  0.00     0.143 A 
ATOM      2  C2  UNL d   1      -0.280   1.927  -0.085  0.00  0.00    -0.057 A 
ATOM      3  C3  UNL d   1      -0.549   3.209   0.409  0.00  0.00     0.033 A 
ATOM      4  C4  UNL d   1      -1.201   3.368   1.628  0.00  0.00    -0.042 A 
ATOM      5  C5  UNL d   1      -1.579   2.244   2.353  0.00  0.00     0.033 A 
ATOM      6  C6  UNL d   1      -1.302   0.967   1.857  0.00  0.00    -0.057 A 
ENDROOT
BRANCH   1   7
ATOM      7  N   UNL d   1      -0.477  -0.520   0.157  0.00  0.00    -0.732 N 
ATOM      8  C   UNL d   1       0.662  -0.874  -0.664  0.00  0.00     0.284 C 
ATOM      9  H3  UNL d   1      -0.724  -1.223   0.850  0.00  0.00     0.395 HD
ENDBRANCH   1   7
TORSDOF 1
ENDMDL
