MODEL 1
REMARK minimizedAffinity -3.81224966
REMARK minimizedRMSD -1
REMARK  1 active torsions:
REMARK  status: ('A' for Active; 'I' for Inactive)
REMARK    1  A    between atoms: N_2  and  C1_3 
ROOT
ATOM      1  C1  UNL d   1       0.105   1.090  -0.461  0.00  0.00     0.143 A 
ATOM      2  C2  UNL d   1      -0.716   0.824   0.641  0.00  0.00    -0.057 A 
ATOM      3  C3  UNL d   1      -1.399   1.852   1.302  0.00  0.00     0.033 A 
ATOM      4  C4  UNL d   1      -1.249   3.172   0.889  0.00  0.00    -0.042 A 
ATOM      5  C5  UNL d   1      -0.419   3.462  -0.188  0.00  0.00     0.033 A 
ATOM      6  C6  UNL d   1       0.255   2.431  -0.848  0.00  0.00    -0.057 A 
ENDROOT
BRANCH   1   7
ATOM      7  N   UNL d   1       0.887   0.124  -1.099  0.00  0.00    -0.732 N 
ATOM      8  C   UNL d   1       0.572  -1.283  -0.971  0.00  0.00     0.284 C 
ATOM      9  H3  UNL d   1       1.162   0.405  -2.038  0.00  0.00     0.395 HD
ENDBRANCH   1   7
TORSDOF 1
ENDMDL
