MODEL 1
REMARK minimizedAffinity -2.81194854
REMARK minimizedRMSD -1
REMARK  1 active torsions:
REMARK  status: ('A' for Active; 'I' for Inactive)
REMARK    1  A    between atoms: N_2  and  C1_3 
ROOT
ATOM      1  C1  UNL d   1      -0.343   1.087   0.607  0.00  0.00     0.143 A 
ATOM      2  C2  UNL d   1       0.050   2.104  -0.270  0.00  0.00    -0.057 A 
ATOM      3  C3  UNL d   1      -0.081   3.454   0.078  0.00  0.00     0.033 A 
ATOM      4  C4  UNL d   1      -0.636   3.812   1.302  0.00  0.00    -0.042 A 
ATOM      5  C5  UNL d   1      -1.056   2.819   2.179  0.00  0.00     0.033 A 
ATOM      6  C6  UNL d   1      -0.917   1.472   1.829  0.00  0.00    -0.057 A 
ENDROOT
BRANCH   1   7
ATOM      7  N   UNL d   1      -0.330  -0.271   0.279  0.00  0.00    -0.732 N 
ATOM      8  C   UNL d   1       0.595  -0.782  -0.709  0.00  0.00     0.284 C 
ATOM      9  H3  UNL d   1      -0.438  -0.868   1.096  0.00  0.00     0.395 HD
ENDBRANCH   1   7
TORSDOF 1
ENDMDL
