MODEL 1
REMARK minimizedAffinity -4.12829161
REMARK minimizedRMSD -1
REMARK  1 active torsions:
REMARK  status: ('A' for Active; 'I' for Inactive)
REMARK    1  A    between atoms: N_2  and  C1_3 
ROOT
ATOM      1  C1  UNL d   1      -0.415   0.532  -0.008  0.00  0.00     0.143 A 
ATOM      2  C2  UNL d   1      -0.088   1.687  -0.727  0.00  0.00    -0.057 A 
ATOM      3  C3  UNL d   1      -0.327   2.962  -0.200  0.00  0.00     0.033 A 
ATOM      4  C4  UNL d   1      -0.924   3.105   1.048  0.00  0.00    -0.042 A 
ATOM      5  C5  UNL d   1      -1.280   1.971   1.770  0.00  0.00     0.033 A 
ATOM      6  C6  UNL d   1      -1.033   0.701   1.241  0.00  0.00    -0.057 A 
ENDROOT
BRANCH   1   7
ATOM      7  N   UNL d   1      -0.293  -0.763  -0.518  0.00  0.00    -0.732 N 
ATOM      8  C   UNL d   1       0.927  -1.187  -1.170  0.00  0.00     0.284 C 
ATOM      9  H3  UNL d   1      -0.701  -1.463   0.097  0.00  0.00     0.395 HD
ENDBRANCH   1   7
TORSDOF 1
ENDMDL
