MODEL 1
REMARK minimizedAffinity -3.81043816
REMARK minimizedRMSD -1
REMARK  1 active torsions:
REMARK  status: ('A' for Active; 'I' for Inactive)
REMARK    1  A    between atoms: N_2  and  C1_3 
ROOT
ATOM      1  C1  UNL d   1       0.084   0.550   0.023  0.00  0.00     0.143 A 
ATOM      2  C2  UNL d   1      -0.711  -0.001   1.034  0.00  0.00    -0.057 A 
ATOM      3  C3  UNL d   1      -1.402   0.814   1.939  0.00  0.00     0.033 A 
ATOM      4  C4  UNL d   1      -1.286   2.199   1.866  0.00  0.00    -0.042 A 
ATOM      5  C5  UNL d   1      -0.482   2.767   0.885  0.00  0.00     0.033 A 
ATOM      6  C6  UNL d   1       0.200   1.948  -0.020  0.00  0.00    -0.057 A 
ENDROOT
BRANCH   1   7
ATOM      7  N   UNL d   1       0.873  -0.208  -0.845  0.00  0.00    -0.732 N 
ATOM      8  C   UNL d   1       0.499  -1.564  -1.188  0.00  0.00     0.284 C 
ATOM      9  H3  UNL d   1       1.222   0.338  -1.630  0.00  0.00     0.395 HD
ENDBRANCH   1   7
TORSDOF 1
ENDMDL
