MODEL 1
REMARK minimizedAffinity -2.06712937
REMARK minimizedRMSD -1
REMARK  1 active torsions:
REMARK  status: ('A' for Active; 'I' for Inactive)
REMARK    1  A    between atoms: N_2  and  C1_3 
ROOT
ATOM      1  C1  UNL d   1       0.285   1.752   0.420  0.00  0.00     0.143 A 
ATOM      2  C2  UNL d   1      -0.643   1.628   1.460  0.00  0.00    -0.057 A 
ATOM      3  C3  UNL d   1      -0.970   0.377   1.996  0.00  0.00     0.033 A 
ATOM      4  C4  UNL d   1      -0.396  -0.780   1.479  0.00  0.00    -0.042 A 
ATOM      5  C5  UNL d   1       0.510  -0.683   0.429  0.00  0.00     0.033 A 
ATOM      6  C6  UNL d   1       0.838   0.570  -0.098  0.00  0.00    -0.057 A 
ENDROOT
BRANCH   1   7
ATOM      7  N   UNL d   1       0.578   2.958  -0.221  0.00  0.00    -0.732 N 
ATOM      8  C   UNL d   1       0.193   4.220   0.372  0.00  0.00     0.284 C 
ATOM      9  H3  UNL d   1       1.506   2.960  -0.638  0.00  0.00     0.395 HD
ENDBRANCH   1   7
TORSDOF 1
ENDMDL
