MODEL 1
REMARK minimizedAffinity 12.7178993
REMARK minimizedRMSD -1
REMARK  1 active torsions:
REMARK  status: ('A' for Active; 'I' for Inactive)
REMARK    1  A    between atoms: C3_4  and  O_7 
ROOT
ATOM      1  C   UNL d   1       1.934  -0.285   2.141  0.00  0.00    -0.033 A 
ATOM      2  C1  UNL d   1       2.273  -1.478   1.498  0.00  0.00     0.039 A 
ATOM      3  C2  UNL d   1       2.657  -2.592   2.247  0.00  0.00    -0.080 A 
ATOM      4  C3  UNL d   1       2.697  -2.501   3.636  0.00  0.00     0.150 A 
ATOM      5  C4  UNL d   1       2.356  -1.317   4.283  0.00  0.00    -0.007 A 
ATOM      6  C5  UNL d   1       1.974  -0.205   3.533  0.00  0.00     0.039 A 
ENDROOT
BRANCH   4   7
ATOM      7  O   UNL d   1       3.070  -3.560   4.409  0.00  0.00    -0.526 OA
ATOM      8  H5  UNL d   1       3.304  -4.300   3.825  0.00  0.00     0.418 HD
ENDBRANCH   4   7
TORSDOF 1
ENDMDL
