MODEL 1
REMARK minimizedAffinity 5.13791227
REMARK minimizedRMSD -1
REMARK  1 active torsions:
REMARK  status: ('A' for Active; 'I' for Inactive)
REMARK    1  A    between atoms: C3_4  and  O_7 
ROOT
ATOM      1  C   UNL d   1       2.636  -2.154   3.059  0.00  0.00    -0.033 A 
ATOM      2  C1  UNL d   1       2.103  -1.308   4.034  0.00  0.00     0.039 A 
ATOM      3  C2  UNL d   1       1.760   0.006   3.709  0.00  0.00    -0.080 A 
ATOM      4  C3  UNL d   1       1.954   0.460   2.408  0.00  0.00     0.150 A 
ATOM      5  C4  UNL d   1       2.481  -0.378   1.431  0.00  0.00    -0.007 A 
ATOM      6  C5  UNL d   1       2.823  -1.689   1.757  0.00  0.00     0.039 A 
ENDROOT
BRANCH   4   7
ATOM      7  O   UNL d   1       1.639   1.736   2.044  0.00  0.00    -0.526 OA
ATOM      8  H5  UNL d   1       1.312   2.208   2.829  0.00  0.00     0.418 HD
ENDBRANCH   4   7
TORSDOF 1
ENDMDL
