MODEL 1
REMARK minimizedAffinity 5.66185904
REMARK minimizedRMSD -1
REMARK  1 active torsions:
REMARK  status: ('A' for Active; 'I' for Inactive)
REMARK    1  A    between atoms: C3_4  and  O_7 
ROOT
ATOM      1  C   UNL d   1      -6.000   3.595   1.112  0.00  0.00    -0.033 A 
ATOM      2  C1  UNL d   1      -5.240   3.590  -0.059  0.00  0.00     0.039 A 
ATOM      3  C2  UNL d   1      -3.977   2.996  -0.071  0.00  0.00    -0.080 A 
ATOM      4  C3  UNL d   1      -3.486   2.411   1.093  0.00  0.00     0.150 A 
ATOM      5  C4  UNL d   1      -4.239   2.409   2.262  0.00  0.00    -0.007 A 
ATOM      6  C5  UNL d   1      -5.500   3.004   2.273  0.00  0.00     0.039 A 
ENDROOT
BRANCH   4   7
ATOM      7  O   UNL d   1      -2.256   1.823   1.131  0.00  0.00    -0.526 OA
ATOM      8  H5  UNL d   1      -1.839   1.925   0.259  0.00  0.00     0.418 HD
ENDBRANCH   4   7
TORSDOF 1
ENDMDL
