MODEL 1
REMARK minimizedAffinity -0.414143294
REMARK minimizedRMSD -1
REMARK  1 active torsions:
REMARK  status: ('A' for Active; 'I' for Inactive)
REMARK    1  A    between atoms: C3_4  and  O_7 
ROOT
ATOM      1  C   UNL d   1       3.617  -3.576   4.742  0.00  0.00    -0.033 A 
ATOM      2  C1  UNL d   1       3.481  -4.499   5.781  0.00  0.00     0.039 A 
ATOM      3  C2  UNL d   1       2.257  -5.133   5.998  0.00  0.00    -0.080 A 
ATOM      4  C3  UNL d   1       1.177  -4.837   5.170  0.00  0.00     0.150 A 
ATOM      5  C4  UNL d   1       1.306  -3.921   4.131  0.00  0.00    -0.007 A 
ATOM      6  C5  UNL d   1       2.529  -3.288   3.917  0.00  0.00     0.039 A 
ENDROOT
BRANCH   4   7
ATOM      7  O   UNL d   1      -0.039  -5.427   5.346  0.00  0.00    -0.526 OA
ATOM      8  H5  UNL d   1       0.013  -6.015   6.119  0.00  0.00     0.418 HD
ENDBRANCH   4   7
TORSDOF 1
ENDMDL
