MODEL 1
REMARK minimizedAffinity 3.66880631
REMARK minimizedRMSD -1
REMARK  1 active torsions:
REMARK  status: ('A' for Active; 'I' for Inactive)
REMARK    1  A    between atoms: C3_4  and  O_7 
ROOT
ATOM      1  C   UNL d   1       3.919   5.661  -5.867  0.00  0.00    -0.033 A 
ATOM      2  C1  UNL d   1       3.210   5.755  -4.668  0.00  0.00     0.039 A 
ATOM      3  C2  UNL d   1       3.895   5.870  -3.457  0.00  0.00    -0.080 A 
ATOM      4  C3  UNL d   1       5.287   5.892  -3.459  0.00  0.00     0.150 A 
ATOM      5  C4  UNL d   1       6.000   5.803  -4.650  0.00  0.00    -0.007 A 
ATOM      6  C5  UNL d   1       5.314   5.687  -5.858  0.00  0.00     0.039 A 
ENDROOT
BRANCH   4   7
ATOM      7  O   UNL d   1       5.999   5.998  -2.302  0.00  0.00    -0.526 OA
ATOM      8  H5  UNL d   1       5.375   6.022  -1.557  0.00  0.00     0.418 HD
ENDBRANCH   4   7
TORSDOF 1
ENDMDL
