MODEL 1
REMARK minimizedAffinity 2.87646723
REMARK minimizedRMSD -1
REMARK  1 active torsions:
REMARK  status: ('A' for Active; 'I' for Inactive)
REMARK    1  A    between atoms: C3_4  and  O_7 
ROOT
ATOM      1  C   UNL d   1      -3.811   2.999   2.549  0.00  0.00    -0.033 A 
ATOM      2  C1  UNL d   1      -5.205   2.964   2.619  0.00  0.00     0.039 A 
ATOM      3  C2  UNL d   1      -5.959   2.749   1.463  0.00  0.00    -0.080 A 
ATOM      4  C3  UNL d   1      -5.307   2.569   0.246  0.00  0.00     0.150 A 
ATOM      5  C4  UNL d   1      -3.918   2.598   0.170  0.00  0.00    -0.007 A 
ATOM      6  C5  UNL d   1      -3.168   2.814   1.325  0.00  0.00     0.039 A 
ENDROOT
BRANCH   4   7
ATOM      7  O   UNL d   1      -6.000   2.360  -0.909  0.00  0.00    -0.526 OA
ATOM      8  H5  UNL d   1      -6.950   2.394  -0.708  0.00  0.00     0.418 HD
ENDBRANCH   4   7
TORSDOF 1
ENDMDL
