MODEL 1
REMARK minimizedAffinity 1.87608504
REMARK minimizedRMSD -1
REMARK  1 active torsions:
REMARK  status: ('A' for Active; 'I' for Inactive)
REMARK    1  A    between atoms: C3_4  and  O_7 
ROOT
ATOM      1  C   UNL d   1       2.248  -0.573   3.715  0.00  0.00    -0.033 A 
ATOM      2  C1  UNL d   1       2.813   0.047   4.831  0.00  0.00     0.039 A 
ATOM      3  C2  UNL d   1       3.749  -0.634   5.612  0.00  0.00    -0.080 A 
ATOM      4  C3  UNL d   1       4.112  -1.932   5.266  0.00  0.00     0.150 A 
ATOM      5  C4  UNL d   1       3.557  -2.555   4.153  0.00  0.00    -0.007 A 
ATOM      6  C5  UNL d   1       2.622  -1.874   3.375  0.00  0.00     0.039 A 
ENDROOT
BRANCH   4   7
ATOM      7  O   UNL d   1       5.018  -2.638   6.000  0.00  0.00    -0.526 OA
ATOM      8  H5  UNL d   1       5.296  -2.092   6.754  0.00  0.00     0.418 HD
ENDBRANCH   4   7
TORSDOF 1
ENDMDL
