MODEL 1
REMARK minimizedAffinity 4.38318253
REMARK minimizedRMSD -1
REMARK  1 active torsions:
REMARK  status: ('A' for Active; 'I' for Inactive)
REMARK    1  A    between atoms: C3_4  and  O_7 
ROOT
ATOM      1  C   UNL d   1       2.864  -2.026   2.782  0.00  0.00    -0.033 A 
ATOM      2  C1  UNL d   1       3.033  -2.249   4.150  0.00  0.00     0.039 A 
ATOM      3  C2  UNL d   1       2.786  -1.222   5.062  0.00  0.00    -0.080 A 
ATOM      4  C3  UNL d   1       2.369   0.022   4.595  0.00  0.00     0.150 A 
ATOM      5  C4  UNL d   1       2.194   0.250   3.234  0.00  0.00    -0.007 A 
ATOM      6  C5  UNL d   1       2.443  -0.777   2.324  0.00  0.00     0.039 A 
ENDROOT
BRANCH   4   7
ATOM      7  O   UNL d   1       2.119   1.056   5.447  0.00  0.00    -0.526 OA
ATOM      8  H5  UNL d   1       2.310   0.761   6.353  0.00  0.00     0.418 HD
ENDBRANCH   4   7
TORSDOF 1
ENDMDL
