MODEL 1
REMARK minimizedAffinity -1.23221171
REMARK minimizedRMSD -1
REMARK  0 active torsions:
REMARK  status: ('A' for Active; 'I' for Inactive)
ROOT
ATOM      1  C   UNL d   1       0.044  -3.660  -5.975  0.00  0.00     0.078 C 
ATOM      2  C1  UNL d   1      -1.373  -4.152  -5.988  0.00  0.00    -0.077 A 
ATOM      3  C2  UNL d   1      -2.448  -3.255  -5.998  0.00  0.00    -0.001 A 
ATOM      4  C3  UNL d   1      -3.761  -3.727  -6.000  0.00  0.00     0.003 A 
ATOM      5  C4  UNL d   1      -4.012  -5.098  -5.991  0.00  0.00    -0.005 A 
ATOM      6  C5  UNL d   1      -2.949  -5.998  -5.979  0.00  0.00     0.003 A 
ATOM      7  C6  UNL d   1      -1.635  -5.528  -5.977  0.00  0.00    -0.001 A 
ENDROOT
TORSDOF 0
ENDMDL
