MODEL 1
REMARK minimizedAffinity -2.09142113
REMARK minimizedRMSD -1
REMARK  0 active torsions:
REMARK  status: ('A' for Active; 'I' for Inactive)
ROOT
ATOM      1  C   UNL d   1      -5.999  -2.767   5.989  0.00  0.00     0.078 C 
ATOM      2  C1  UNL d   1      -5.612  -1.793   4.917  0.00  0.00    -0.077 A 
ATOM      3  C2  UNL d   1      -6.000  -0.449   4.989  0.00  0.00    -0.001 A 
ATOM      4  C3  UNL d   1      -5.640   0.445   3.980  0.00  0.00     0.003 A 
ATOM      5  C4  UNL d   1      -4.891   0.005   2.890  0.00  0.00    -0.005 A 
ATOM      6  C5  UNL d   1      -4.502  -1.330   2.808  0.00  0.00     0.003 A 
ATOM      7  C6  UNL d   1      -4.861  -2.226   3.817  0.00  0.00    -0.001 A 
ENDROOT
TORSDOF 0
ENDMDL
