MODEL 1
REMARK minimizedAffinity 3.95512342
REMARK minimizedRMSD -1
REMARK  0 active torsions:
REMARK  status: ('A' for Active; 'I' for Inactive)
ROOT
ATOM      1  C   UNL d   1       1.099  -4.095  -5.984  0.00  0.00     0.078 C 
ATOM      2  C1  UNL d   1      -0.398  -4.176  -5.982  0.00  0.00    -0.077 A 
ATOM      3  C2  UNL d   1      -1.054  -5.413  -5.990  0.00  0.00    -0.001 A 
ATOM      4  C3  UNL d   1      -2.448  -5.473  -5.998  0.00  0.00     0.003 A 
ATOM      5  C4  UNL d   1      -3.199  -4.299  -5.999  0.00  0.00    -0.005 A 
ATOM      6  C5  UNL d   1      -2.556  -3.063  -5.994  0.00  0.00     0.003 A 
ATOM      7  C6  UNL d   1      -1.161  -3.001  -5.986  0.00  0.00    -0.001 A 
ENDROOT
TORSDOF 0
ENDMDL
