MODEL 1
REMARK minimizedAffinity -1.38494742
REMARK minimizedRMSD -1
REMARK  0 active torsions:
REMARK  status: ('A' for Active; 'I' for Inactive)
ROOT
ATOM      1  C   UNL d   1      -5.265  -5.442  -5.992  0.00  0.00     0.078 C 
ATOM      2  C1  UNL d   1      -3.824  -5.026  -5.987  0.00  0.00    -0.077 A 
ATOM      3  C2  UNL d   1      -3.465  -3.673  -5.993  0.00  0.00    -0.001 A 
ATOM      4  C3  UNL d   1      -2.120  -3.300  -5.998  0.00  0.00     0.003 A 
ATOM      5  C4  UNL d   1      -1.123  -4.274  -6.000  0.00  0.00    -0.005 A 
ATOM      6  C5  UNL d   1      -1.472  -5.623  -5.996  0.00  0.00     0.003 A 
ATOM      7  C6  UNL d   1      -2.816  -5.998  -5.991  0.00  0.00    -0.001 A 
ENDROOT
TORSDOF 0
ENDMDL
