MODEL 1
REMARK minimizedAffinity 3.22837687
REMARK minimizedRMSD -1
REMARK  0 active torsions:
REMARK  status: ('A' for Active; 'I' for Inactive)
ROOT
ATOM      1  C   UNL d   1      -0.053   2.513   0.213  0.00  0.00     0.078 C 
ATOM      2  C1  UNL d   1      -0.370   3.712  -0.629  0.00  0.00    -0.077 A 
ATOM      3  C2  UNL d   1      -0.155   3.700  -2.013  0.00  0.00    -0.001 A 
ATOM      4  C3  UNL d   1      -0.446   4.827  -2.783  0.00  0.00     0.003 A 
ATOM      5  C4  UNL d   1      -0.953   5.976  -2.178  0.00  0.00    -0.005 A 
ATOM      6  C5  UNL d   1      -1.169   5.998  -0.802  0.00  0.00     0.003 A 
ATOM      7  C6  UNL d   1      -0.879   4.872  -0.030  0.00  0.00    -0.001 A 
ENDROOT
TORSDOF 0
ENDMDL
