MODEL 1
REMARK minimizedAffinity 4.24807882
REMARK minimizedRMSD -1
REMARK  0 active torsions:
REMARK  status: ('A' for Active; 'I' for Inactive)
ROOT
ATOM      1  C   UNL d   1      -2.698   5.794   0.469  0.00  0.00     0.078 C 
ATOM      2  C1  UNL d   1      -1.713   5.102  -0.424  0.00  0.00    -0.077 A 
ATOM      3  C2  UNL d   1      -1.153   5.760  -1.527  0.00  0.00    -0.001 A 
ATOM      4  C3  UNL d   1      -0.245   5.100  -2.356  0.00  0.00     0.003 A 
ATOM      5  C4  UNL d   1       0.112   3.779  -2.092  0.00  0.00    -0.005 A 
ATOM      6  C5  UNL d   1      -0.442   3.115  -0.999  0.00  0.00     0.003 A 
ATOM      7  C6  UNL d   1      -1.350   3.774  -0.169  0.00  0.00    -0.001 A 
ENDROOT
TORSDOF 0
ENDMDL
