MODEL 1
REMARK minimizedAffinity 17.6927185
REMARK minimizedRMSD -1
REMARK  2 active torsions:
REMARK  status: ('A' for Active; 'I' for Inactive)
REMARK    1  A    between atoms: C2'_3  and  C1'_4 
REMARK    2  A    between atoms: C1'_4  and  C1_5 
ROOT
ATOM      1  C1  I4B d   1      -1.082  -2.109   3.476  0.00  0.00    -0.075 A 
ATOM      2  C2  I4B d   1      -0.210  -2.053   2.418  0.00  0.00     0.003 A 
ATOM      3  C3  I4B d   1       0.803  -1.064   2.381  0.00  0.00     0.002 A 
ATOM      4  C4  I4B d   1       0.875  -0.127   3.391  0.00  0.00    -0.004 A 
ATOM      5  C5  I4B d   1       0.004  -0.200   4.475  0.00  0.00     0.002 A 
ATOM      6  C6  I4B d   1      -0.973  -1.204   4.524  0.00  0.00     0.003 A 
ENDROOT
BRANCH   1   7
ATOM      7  C1' I4B d   1      -2.161  -3.145   3.467  0.00  0.00     0.060 C 
BRANCH   7   8
ATOM      8  C2' I4B d   1      -3.019  -2.916   2.239  0.00  0.00    -0.013 C 
ATOM      9  C4' I4B d   1      -2.896  -4.060   1.267  0.00  0.00     0.013 C 
ATOM     10  C3' I4B d   1      -4.437  -2.739   2.692  0.00  0.00     0.013 C 
ENDBRANCH   7   8
ENDBRANCH   1   7
TORSDOF 2
ENDMDL
