MODEL 1
REMARK minimizedAffinity 8.61743164
REMARK minimizedRMSD -1
REMARK  2 active torsions:
REMARK  status: ('A' for Active; 'I' for Inactive)
REMARK    1  A    between atoms: C2'_3  and  C1'_4 
REMARK    2  A    between atoms: C1'_4  and  C1_5 
ROOT
ATOM      1  C1  I4B d   1       2.097  -5.601  -4.635  0.00  0.00    -0.075 A 
ATOM      2  C2  I4B d   1       1.723  -4.867  -3.537  0.00  0.00     0.003 A 
ATOM      3  C3  I4B d   1       0.378  -4.453  -3.381  0.00  0.00     0.002 A 
ATOM      4  C4  I4B d   1      -0.543  -4.749  -4.365  0.00  0.00    -0.004 A 
ATOM      5  C5  I4B d   1      -0.167  -5.513  -5.467  0.00  0.00     0.002 A 
ATOM      6  C6  I4B d   1       1.158  -5.952  -5.597  0.00  0.00     0.003 A 
ENDROOT
BRANCH   1   7
ATOM      7  C1' I4B d   1       3.532  -5.994  -4.785  0.00  0.00     0.060 C 
BRANCH   7   8
ATOM      8  C2' I4B d   1       4.092  -5.266  -5.990  0.00  0.00    -0.013 C 
ATOM      9  C4' I4B d   1       3.669  -3.821  -6.000  0.00  0.00     0.013 C 
ATOM     10  C3' I4B d   1       5.586  -5.393  -5.955  0.00  0.00     0.013 C 
ENDBRANCH   7   8
ENDBRANCH   1   7
TORSDOF 2
ENDMDL
