MODEL 1
REMARK minimizedAffinity 8.06280804
REMARK minimizedRMSD -1
REMARK  2 active torsions:
REMARK  status: ('A' for Active; 'I' for Inactive)
REMARK    1  A    between atoms: C2'_3  and  C1'_4 
REMARK    2  A    between atoms: C1'_4  and  C1_5 
ROOT
ATOM      1  C1  I4B d   1       3.144  -1.232   0.704  0.00  0.00    -0.075 A 
ATOM      2  C2  I4B d   1       3.887  -2.060  -0.100  0.00  0.00     0.003 A 
ATOM      3  C3  I4B d   1       4.849  -1.519  -0.986  0.00  0.00     0.002 A 
ATOM      4  C4  I4B d   1       5.000  -0.150  -1.072  0.00  0.00    -0.004 A 
ATOM      5  C5  I4B d   1       4.262   0.687  -0.240  0.00  0.00     0.002 A 
ATOM      6  C6  I4B d   1       3.337   0.143   0.663  0.00  0.00     0.003 A 
ENDROOT
BRANCH   1   7
ATOM      7  C1' I4B d   1       2.114  -1.835   1.605  0.00  0.00     0.060 C 
BRANCH   7   8
ATOM      8  C2' I4B d   1       0.829  -1.049   1.437  0.00  0.00    -0.013 C 
ATOM      9  C4' I4B d   1      -0.100  -1.725   0.464  0.00  0.00     0.013 C 
ATOM     10  C3' I4B d   1       0.192  -0.910   2.787  0.00  0.00     0.013 C 
ENDBRANCH   7   8
ENDBRANCH   1   7
TORSDOF 2
ENDMDL
