MODEL 1
REMARK minimizedAffinity 10.8374863
REMARK minimizedRMSD -1
REMARK  2 active torsions:
REMARK  status: ('A' for Active; 'I' for Inactive)
REMARK    1  A    between atoms: C2'_3  and  C1'_4 
REMARK    2  A    between atoms: C1'_4  and  C1_5 
ROOT
ATOM      1  C1  I4B d   1       1.168  -4.577  -3.317  0.00  0.00    -0.075 A 
ATOM      2  C2  I4B d   1       2.237  -4.055  -4.000  0.00  0.00     0.003 A 
ATOM      3  C3  I4B d   1       2.526  -4.495  -5.315  0.00  0.00     0.002 A 
ATOM      4  C4  I4B d   1       1.756  -5.488  -5.884  0.00  0.00    -0.004 A 
ATOM      5  C5  I4B d   1       0.658  -6.000  -5.198  0.00  0.00     0.002 A 
ATOM      6  C6  I4B d   1       0.354  -5.533  -3.911  0.00  0.00     0.003 A 
ENDROOT
BRANCH   1   7
ATOM      7  C1' I4B d   1       0.911  -4.114  -1.918  0.00  0.00     0.060 C 
BRANCH   7   8
ATOM      8  C2' I4B d   1       2.248  -3.978  -1.218  0.00  0.00    -0.013 C 
ATOM      9  C4' I4B d   1       2.068  -3.699   0.251  0.00  0.00     0.013 C 
ATOM     10  C3' I4B d   1       3.016  -5.247  -1.438  0.00  0.00     0.013 C 
ENDBRANCH   7   8
ENDBRANCH   1   7
TORSDOF 2
ENDMDL
