MODEL 1
REMARK minimizedAffinity 4.31354237
REMARK minimizedRMSD -1
REMARK  2 active torsions:
REMARK  status: ('A' for Active; 'I' for Inactive)
REMARK    1  A    between atoms: C2'_3  and  C1'_4 
REMARK    2  A    between atoms: C1'_4  and  C1_5 
ROOT
ATOM      1  C1  I4B d   1       0.246  -1.759   2.947  0.00  0.00    -0.075 A 
ATOM      2  C2  I4B d   1       0.785  -0.868   3.841  0.00  0.00     0.003 A 
ATOM      3  C3  I4B d   1       0.296  -0.806   5.168  0.00  0.00     0.002 A 
ATOM      4  C4  I4B d   1      -0.760  -1.612   5.542  0.00  0.00    -0.004 A 
ATOM      5  C5  I4B d   1      -1.290  -2.531   4.640  0.00  0.00     0.002 A 
ATOM      6  C6  I4B d   1      -0.776  -2.614   3.338  0.00  0.00     0.003 A 
ENDROOT
BRANCH   1   7
ATOM      7  C1' I4B d   1       0.764  -1.775   1.543  0.00  0.00     0.060 C 
BRANCH   7   8
ATOM      8  C2' I4B d   1       2.026  -0.937   1.502  0.00  0.00    -0.013 C 
ATOM      9  C4' I4B d   1       3.138  -1.660   0.789  0.00  0.00     0.013 C 
ATOM     10  C3' I4B d   1       1.699   0.359   0.822  0.00  0.00     0.013 C 
ENDBRANCH   7   8
ENDBRANCH   1   7
TORSDOF 2
ENDMDL
