MODEL 1
REMARK minimizedAffinity -1.42692232
REMARK minimizedRMSD -1
REMARK  2 active torsions:
REMARK  status: ('A' for Active; 'I' for Inactive)
REMARK    1  A    between atoms: C2'_3  and  C1'_4 
REMARK    2  A    between atoms: C1'_4  and  C1_5 
ROOT
ATOM      1  C1  I4B d   1       0.929  -1.585   1.863  0.00  0.00    -0.075 A 
ATOM      2  C2  I4B d   1       2.043  -1.371   1.091  0.00  0.00     0.003 A 
ATOM      3  C3  I4B d   1       2.709  -2.463   0.482  0.00  0.00     0.002 A 
ATOM      4  C4  I4B d   1       2.259  -3.747   0.712  0.00  0.00    -0.004 A 
ATOM      5  C5  I4B d   1       1.116  -3.960   1.476  0.00  0.00     0.002 A 
ATOM      6  C6  I4B d   1       0.438  -2.872   2.045  0.00  0.00     0.003 A 
ENDROOT
BRANCH   1   7
ATOM      7  C1' I4B d   1       0.270  -0.413   2.517  0.00  0.00     0.060 C 
BRANCH   7   8
ATOM      8  C2' I4B d   1       1.096  -0.028   3.727  0.00  0.00    -0.013 C 
ATOM      9  C4' I4B d   1       0.831  -0.954   4.885  0.00  0.00     0.013 C 
ATOM     10  C3' I4B d   1       2.542  -0.059   3.330  0.00  0.00     0.013 C 
ENDBRANCH   7   8
ENDBRANCH   1   7
TORSDOF 2
ENDMDL
