MODEL 1
REMARK minimizedAffinity 17.4449329
REMARK minimizedRMSD -1
REMARK  2 active torsions:
REMARK  status: ('A' for Active; 'I' for Inactive)
REMARK    1  A    between atoms: C2'_3  and  C1'_4 
REMARK    2  A    between atoms: C1'_4  and  C1_5 
ROOT
ATOM      1  C1  I4B d   1       3.214  -0.813  -0.836  0.00  0.00    -0.075 A 
ATOM      2  C2  I4B d   1       2.608   0.013   0.077  0.00  0.00     0.003 A 
ATOM      3  C3  I4B d   1       1.803  -0.530   1.106  0.00  0.00     0.002 A 
ATOM      4  C4  I4B d   1       1.591  -1.893   1.156  0.00  0.00    -0.004 A 
ATOM      5  C5  I4B d   1       2.225  -2.732   0.243  0.00  0.00     0.002 A 
ATOM      6  C6  I4B d   1       3.051  -2.190  -0.752  0.00  0.00     0.003 A 
ENDROOT
BRANCH   1   7
ATOM      7  C1' I4B d   1       4.031  -0.203  -1.931  0.00  0.00     0.060 C 
BRANCH   7   8
ATOM      8  C2' I4B d   1       4.509  -1.321  -2.835  0.00  0.00    -0.013 C 
ATOM      9  C4' I4B d   1       4.100  -1.077  -4.264  0.00  0.00     0.013 C 
ATOM     10  C3' I4B d   1       6.000  -1.416  -2.707  0.00  0.00     0.013 C 
ENDBRANCH   7   8
ENDBRANCH   1   7
TORSDOF 2
ENDMDL
