MODEL 1
REMARK minimizedAffinity 17.569479
REMARK minimizedRMSD -1
REMARK  2 active torsions:
REMARK  status: ('A' for Active; 'I' for Inactive)
REMARK    1  A    between atoms: C2'_3  and  C1'_4 
REMARK    2  A    between atoms: C1'_4  and  C1_5 
ROOT
ATOM      1  C1  I4B d   1       3.357  -2.008   0.286  0.00  0.00    -0.075 A 
ATOM      2  C2  I4B d   1       2.724  -1.042   1.028  0.00  0.00     0.003 A 
ATOM      3  C3  I4B d   1       1.390  -1.237   1.462  0.00  0.00     0.002 A 
ATOM      4  C4  I4B d   1       0.715  -2.382   1.092  0.00  0.00    -0.004 A 
ATOM      5  C5  I4B d   1       1.367  -3.371   0.359  0.00  0.00     0.002 A 
ATOM      6  C6  I4B d   1       2.700  -3.188  -0.036  0.00  0.00     0.003 A 
ENDROOT
BRANCH   1   7
ATOM      7  C1' I4B d   1       4.754  -1.754  -0.184  0.00  0.00     0.060 C 
BRANCH   7   8
ATOM      8  C2' I4B d   1       4.698  -1.434  -1.664  0.00  0.00    -0.013 C 
ATOM      9  C4' I4B d   1       4.479   0.038  -1.895  0.00  0.00     0.013 C 
ATOM     10  C3' I4B d   1       5.982  -1.894  -2.286  0.00  0.00     0.013 C 
ENDBRANCH   7   8
ENDBRANCH   1   7
TORSDOF 2
ENDMDL
