MODEL 1
REMARK minimizedAffinity 17.4650097
REMARK minimizedRMSD -1
REMARK  2 active torsions:
REMARK  status: ('A' for Active; 'I' for Inactive)
REMARK    1  A    between atoms: C2'_3  and  C1'_4 
REMARK    2  A    between atoms: C1'_4  and  C1_5 
ROOT
ATOM      1  C1  I4B d   1       1.914  -1.428   1.402  0.00  0.00    -0.075 A 
ATOM      2  C2  I4B d   1       1.871  -0.641   2.525  0.00  0.00     0.003 A 
ATOM      3  C3  I4B d   1       2.944   0.234   2.824  0.00  0.00     0.002 A 
ATOM      4  C4  I4B d   1       4.054   0.253   2.005  0.00  0.00    -0.004 A 
ATOM      5  C5  I4B d   1       4.086  -0.530   0.854  0.00  0.00     0.002 A 
ATOM      6  C6  I4B d   1       3.004  -1.366   0.543  0.00  0.00     0.003 A 
ENDROOT
BRANCH   1   7
ATOM      7  C1' I4B d   1       0.779  -2.365   1.134  0.00  0.00     0.060 C 
BRANCH   7   8
ATOM      8  C2' I4B d   1       1.363  -3.725   0.810  0.00  0.00    -0.013 C 
ATOM      9  C4' I4B d   1       0.829  -4.783   1.739  0.00  0.00     0.013 C 
ATOM     10  C3' I4B d   1       1.032  -4.042  -0.618  0.00  0.00     0.013 C 
ENDBRANCH   7   8
ENDBRANCH   1   7
TORSDOF 2
ENDMDL
