MODEL 1
REMARK minimizedAffinity -4.80133009
REMARK minimizedRMSD -1
REMARK  0 active torsions:
REMARK  status: ('A' for Active; 'I' for Inactive)
ROOT
ATOM      1  O1  BZF d   1      -0.908  -0.573  -0.237  0.00  0.00    -0.204 OA
ATOM      2  C2  BZF d   1      -0.378  -1.839  -0.082  0.00  0.00     0.174 A 
ATOM      3  C3  BZF d   1       0.938  -1.846  -0.376  0.00  0.00    -0.012 A 
ATOM      4  C3A BZF d   1       1.270  -0.482  -0.649  0.00  0.00    -0.107 A 
ATOM      5  C4  BZF d   1       2.431   0.152  -0.987  0.00  0.00     0.055 A 
ATOM      6  C5  BZF d   1       2.403   1.484  -1.256  0.00  0.00    -0.016 A 
ATOM      7  C6  BZF d   1       1.231   2.210  -1.203  0.00  0.00     0.022 A 
ATOM      8  C7  BZF d   1       0.055   1.626  -0.867  0.00  0.00     0.029 A 
ATOM      9  C7A BZF d   1       0.087   0.287  -0.563  0.00  0.00     0.058 A 
ENDROOT
TORSDOF 0
ENDMDL
