MODEL 1
REMARK minimizedAffinity -4.2831912
REMARK minimizedRMSD -1
REMARK  0 active torsions:
REMARK  status: ('A' for Active; 'I' for Inactive)
ROOT
ATOM      1  O1  BZF d   1      -1.085  -0.284   0.013  0.00  0.00    -0.204 OA
ATOM      2  C2  BZF d   1      -1.172   1.081  -0.185  0.00  0.00     0.174 A 
ATOM      3  C3  BZF d   1       0.025   1.589  -0.542  0.00  0.00    -0.012 A 
ATOM      4  C3A BZF d   1       0.895   0.459  -0.658  0.00  0.00    -0.107 A 
ATOM      5  C4  BZF d   1       2.210   0.317  -0.998  0.00  0.00     0.055 A 
ATOM      6  C5  BZF d   1       2.776  -0.917  -0.944  0.00  0.00    -0.016 A 
ATOM      7  C6  BZF d   1       2.060  -2.028  -0.550  0.00  0.00     0.022 A 
ATOM      8  C7  BZF d   1       0.752  -1.938  -0.208  0.00  0.00     0.029 A 
ATOM      9  C7A BZF d   1       0.168  -0.698  -0.293  0.00  0.00     0.058 A 
ENDROOT
TORSDOF 0
ENDMDL
