MODEL 1
REMARK minimizedAffinity -5.23101139
REMARK minimizedRMSD -1
REMARK  0 active torsions:
REMARK  status: ('A' for Active; 'I' for Inactive)
ROOT
ATOM      1  O1  BZF d   1      -0.065   0.016   0.637  0.00  0.00    -0.204 OA
ATOM      2  C2  BZF d   1      -0.858  -1.110   0.534  0.00  0.00     0.174 A 
ATOM      3  C3  BZF d   1      -0.378  -1.950  -0.406  0.00  0.00    -0.012 A 
ATOM      4  C3A BZF d   1       0.840  -1.350  -0.859  0.00  0.00    -0.107 A 
ATOM      5  C4  BZF d   1       1.783  -1.717  -1.776  0.00  0.00     0.055 A 
ATOM      6  C5  BZF d   1       2.816  -0.873  -2.035  0.00  0.00    -0.016 A 
ATOM      7  C6  BZF d   1       2.935   0.346  -1.400  0.00  0.00     0.022 A 
ATOM      8  C7  BZF d   1       2.027   0.751  -0.479  0.00  0.00     0.029 A 
ATOM      9  C7A BZF d   1       1.000  -0.114  -0.191  0.00  0.00     0.058 A 
ENDROOT
TORSDOF 0
ENDMDL
