MODEL 1
REMARK minimizedAffinity -4.69085836
REMARK minimizedRMSD -1
REMARK  0 active torsions:
REMARK  status: ('A' for Active; 'I' for Inactive)
ROOT
ATOM      1  O1  BZF d   1      -0.198   0.962   0.031  0.00  0.00    -0.204 OA
ATOM      2  C2  BZF d   1      -1.052  -0.021   0.492  0.00  0.00     0.174 A 
ATOM      3  C3  BZF d   1      -0.534  -1.246   0.273  0.00  0.00    -0.012 A 
ATOM      4  C3A BZF d   1       0.764  -1.012  -0.282  0.00  0.00    -0.107 A 
ATOM      5  C4  BZF d   1       1.772  -1.836  -0.695  0.00  0.00     0.055 A 
ATOM      6  C5  BZF d   1       2.883  -1.291  -1.256  0.00  0.00    -0.016 A 
ATOM      7  C6  BZF d   1       3.017   0.071  -1.425  0.00  0.00     0.022 A 
ATOM      8  C7  BZF d   1       2.047   0.929  -1.026  0.00  0.00     0.029 A 
ATOM      9  C7A BZF d   1       0.937   0.384  -0.429  0.00  0.00     0.058 A 
ENDROOT
TORSDOF 0
ENDMDL
