MODEL 1
REMARK minimizedAffinity -3.77656555
REMARK minimizedRMSD -1
REMARK  0 active torsions:
REMARK  status: ('A' for Active; 'I' for Inactive)
ROOT
ATOM      1  O1  BZF d   1       2.270  -1.867  -1.266  0.00  0.00    -0.204 OA
ATOM      2  C2  BZF d   1       3.296  -0.946  -1.349  0.00  0.00     0.174 A 
ATOM      3  C3  BZF d   1       2.881   0.270  -0.940  0.00  0.00    -0.012 A 
ATOM      4  C3A BZF d   1       1.536   0.078  -0.492  0.00  0.00    -0.107 A 
ATOM      5  C4  BZF d   1       0.596   0.913   0.042  0.00  0.00     0.055 A 
ATOM      6  C5  BZF d   1      -0.646   0.427   0.303  0.00  0.00    -0.016 A 
ATOM      7  C6  BZF d   1      -0.984  -0.884   0.039  0.00  0.00     0.022 A 
ATOM      8  C7  BZF d   1      -0.084  -1.751  -0.485  0.00  0.00     0.029 A 
ATOM      9  C7A BZF d   1       1.182  -1.272  -0.720  0.00  0.00     0.058 A 
ENDROOT
TORSDOF 0
ENDMDL
