MODEL 1
REMARK minimizedAffinity -5.11579609
REMARK minimizedRMSD -1
REMARK  0 active torsions:
REMARK  status: ('A' for Active; 'I' for Inactive)
ROOT
ATOM      1  O1  BZF d   1      -0.565   0.390   1.059  0.00  0.00    -0.204 OA
ATOM      2  C2  BZF d   1      -0.838  -0.140  -0.187  0.00  0.00     0.174 A 
ATOM      3  C3  BZF d   1      -2.036  -0.759  -0.192  0.00  0.00    -0.012 A 
ATOM      4  C3A BZF d   1      -2.585  -0.527   1.109  0.00  0.00    -0.107 A 
ATOM      5  C4  BZF d   1      -3.761  -0.878   1.708  0.00  0.00     0.055 A 
ATOM      6  C5  BZF d   1      -3.958  -0.557   3.014  0.00  0.00    -0.016 A 
ATOM      7  C6  BZF d   1      -3.000   0.108   3.751  0.00  0.00     0.022 A 
ATOM      8  C7  BZF d   1      -1.820   0.481   3.198  0.00  0.00     0.029 A 
ATOM      9  C7A BZF d   1      -1.631   0.188   1.870  0.00  0.00     0.058 A 
ENDROOT
TORSDOF 0
ENDMDL
