MODEL 1
REMARK minimizedAffinity -5.46670246
REMARK minimizedRMSD -1
REMARK  0 active torsions:
REMARK  status: ('A' for Active; 'I' for Inactive)
ROOT
ATOM      1  O1  BZF d   1       2.555   0.477  -0.832  0.00  0.00    -0.204 OA
ATOM      2  C2  BZF d   1       2.681  -0.748  -0.206  0.00  0.00     0.174 A 
ATOM      3  C3  BZF d   1       1.483  -1.184   0.236  0.00  0.00    -0.012 A 
ATOM      4  C3A BZF d   1       0.537  -0.212  -0.219  0.00  0.00    -0.107 A 
ATOM      5  C4  BZF d   1      -0.819  -0.098  -0.107  0.00  0.00     0.055 A 
ATOM      6  C5  BZF d   1      -1.431   1.010  -0.600  0.00  0.00    -0.016 A 
ATOM      7  C6  BZF d   1      -0.719   2.025  -1.206  0.00  0.00     0.022 A 
ATOM      8  C7  BZF d   1       0.627   1.954  -1.344  0.00  0.00     0.029 A 
ATOM      9  C7A BZF d   1       1.245   0.820  -0.876  0.00  0.00     0.058 A 
ENDROOT
TORSDOF 0
ENDMDL
