MODEL 1
REMARK minimizedAffinity -1.34949756
REMARK minimizedRMSD -1
REMARK  0 active torsions:
REMARK  status: ('A' for Active; 'I' for Inactive)
ROOT
ATOM      1  O1  BZF d   1      -0.365   0.695   3.559  0.00  0.00    -0.204 OA
ATOM      2  C2  BZF d   1      -1.624   1.225   3.764  0.00  0.00     0.174 A 
ATOM      3  C3  BZF d   1      -2.257   1.423   2.590  0.00  0.00    -0.012 A 
ATOM      4  C3A BZF d   1      -1.372   0.903   1.593  0.00  0.00    -0.107 A 
ATOM      5  C4  BZF d   1      -1.446   0.797   0.234  0.00  0.00     0.055 A 
ATOM      6  C5  BZF d   1      -0.380   0.307  -0.451  0.00  0.00    -0.016 A 
ATOM      7  C6  BZF d   1       0.778  -0.082   0.191  0.00  0.00     0.022 A 
ATOM      8  C7  BZF d   1       0.897  -0.001   1.539  0.00  0.00     0.029 A 
ATOM      9  C7A BZF d   1      -0.191   0.464   2.236  0.00  0.00     0.058 A 
ENDROOT
TORSDOF 0
ENDMDL
