MODEL 1
REMARK minimizedAffinity -3.5708704
REMARK minimizedRMSD -1
REMARK  0 active torsions:
REMARK  status: ('A' for Active; 'I' for Inactive)
ROOT
ATOM      1  O1  BZF d   1       2.282  -1.722  -1.282  0.00  0.00    -0.204 OA
ATOM      2  C2  BZF d   1       3.069  -0.625  -1.573  0.00  0.00     0.174 A 
ATOM      3  C3  BZF d   1       2.443   0.519  -1.229  0.00  0.00    -0.012 A 
ATOM      4  C3A BZF d   1       1.224   0.106  -0.603  0.00  0.00    -0.107 A 
ATOM      5  C4  BZF d   1       0.184   0.785  -0.035  0.00  0.00     0.055 A 
ATOM      6  C5  BZF d   1      -0.890   0.087   0.420  0.00  0.00    -0.016 A 
ATOM      7  C6  BZF d   1      -0.959  -1.287   0.319  0.00  0.00     0.022 A 
ATOM      8  C7  BZF d   1       0.050  -2.004  -0.232  0.00  0.00     0.029 A 
ATOM      9  C7A BZF d   1       1.151  -1.305  -0.663  0.00  0.00     0.058 A 
ENDROOT
TORSDOF 0
ENDMDL
