MODEL 1
REMARK minimizedAffinity -2.90827775
REMARK minimizedRMSD -1
REMARK  0 active torsions:
REMARK  status: ('A' for Active; 'I' for Inactive)
ROOT
ATOM      1  O1  BZF d   1       1.935  -2.037  -1.264  0.00  0.00    -0.204 OA
ATOM      2  C2  BZF d   1       3.025  -1.189  -1.316  0.00  0.00     0.174 A 
ATOM      3  C3  BZF d   1       2.671   0.066  -0.971  0.00  0.00    -0.012 A 
ATOM      4  C3A BZF d   1       1.293  -0.021  -0.596  0.00  0.00    -0.107 A 
ATOM      5  C4  BZF d   1       0.384   0.892  -0.143  0.00  0.00     0.055 A 
ATOM      6  C5  BZF d   1      -0.901   0.499   0.062  0.00  0.00    -0.016 A 
ATOM      7  C6  BZF d   1      -1.311  -0.795  -0.180  0.00  0.00     0.022 A 
ATOM      8  C7  BZF d   1      -0.445  -1.738  -0.625  0.00  0.00     0.029 A 
ATOM      9  C7A BZF d   1       0.862  -1.352  -0.801  0.00  0.00     0.058 A 
ENDROOT
TORSDOF 0
ENDMDL
