MODEL 1
REMARK minimizedAffinity -4.51444387
REMARK minimizedRMSD -1
REMARK  0 active torsions:
REMARK  status: ('A' for Active; 'I' for Inactive)
ROOT
ATOM      1  O1  BZF d   1      -0.347   1.447  -0.343  0.00  0.00    -0.204 OA
ATOM      2  C2  BZF d   1      -1.311   0.762   0.371  0.00  0.00     0.174 A 
ATOM      3  C3  BZF d   1      -0.994  -0.545   0.471  0.00  0.00    -0.012 A 
ATOM      4  C3A BZF d   1       0.292  -0.669  -0.143  0.00  0.00    -0.107 A 
ATOM      5  C4  BZF d   1       1.141  -1.720  -0.340  0.00  0.00     0.055 A 
ATOM      6  C5  BZF d   1       2.289  -1.519  -1.040  0.00  0.00    -0.016 A 
ATOM      7  C6  BZF d   1       2.616  -0.284  -1.561  0.00  0.00     0.022 A 
ATOM      8  C7  BZF d   1       1.807   0.789  -1.387  0.00  0.00     0.029 A 
ATOM      9  C7A BZF d   1       0.663   0.598  -0.652  0.00  0.00     0.058 A 
ENDROOT
TORSDOF 0
ENDMDL
