MODEL 1
REMARK minimizedAffinity -3.29362822
REMARK minimizedRMSD -1
REMARK  0 active torsions:
REMARK  status: ('A' for Active; 'I' for Inactive)
ROOT
ATOM      1  O1  BZF d   1      -0.878   0.270  -0.374  0.00  0.00    -0.204 OA
ATOM      2  C2  BZF d   1      -0.750   1.336  -1.243  0.00  0.00     0.174 A 
ATOM      3  C3  BZF d   1       0.385   1.232  -1.965  0.00  0.00    -0.012 A 
ATOM      4  C3A BZF d   1       0.959  -0.022  -1.584  0.00  0.00    -0.107 A 
ATOM      5  C4  BZF d   1       2.084  -0.695  -1.967  0.00  0.00     0.055 A 
ATOM      6  C5  BZF d   1       2.397  -1.864  -1.350  0.00  0.00    -0.016 A 
ATOM      7  C6  BZF d   1       1.611  -2.387  -0.344  0.00  0.00     0.022 A 
ATOM      8  C7  BZF d   1       0.482  -1.759   0.066  0.00  0.00     0.029 A 
ATOM      9  C7A BZF d   1       0.146  -0.594  -0.578  0.00  0.00     0.058 A 
ENDROOT
TORSDOF 0
ENDMDL
