MODEL 1
REMARK minimizedAffinity -5.27745438
REMARK minimizedRMSD -1
REMARK  0 active torsions:
REMARK  status: ('A' for Active; 'I' for Inactive)
ROOT
ATOM      1  O1  BZF d   1      -0.802   0.167   0.568  0.00  0.00    -0.204 OA
ATOM      2  C2  BZF d   1      -0.577   1.529   0.608  0.00  0.00     0.174 A 
ATOM      3  C3  BZF d   1       0.601   1.837   0.028  0.00  0.00    -0.012 A 
ATOM      4  C3A BZF d   1       1.103   0.599  -0.483  0.00  0.00    -0.107 A 
ATOM      5  C4  BZF d   1       2.229   0.257  -1.177  0.00  0.00     0.055 A 
ATOM      6  C5  BZF d   1       2.458  -1.052  -1.461  0.00  0.00    -0.016 A 
ATOM      7  C6  BZF d   1       1.586  -2.044  -1.063  0.00  0.00     0.022 A 
ATOM      8  C7  BZF d   1       0.454  -1.754  -0.377  0.00  0.00     0.029 A 
ATOM      9  C7A BZF d   1       0.203  -0.429  -0.117  0.00  0.00     0.058 A 
ENDROOT
TORSDOF 0
ENDMDL
