MODEL 1
REMARK minimizedAffinity -5.1576066
REMARK minimizedRMSD -1
REMARK  0 active torsions:
REMARK  status: ('A' for Active; 'I' for Inactive)
ROOT
ATOM      1  O1  BZF d   1      -1.486  -1.709  -0.758  0.00  0.00    -0.204 OA
ATOM      2  C2  BZF d   1      -2.214  -0.636  -0.282  0.00  0.00     0.174 A 
ATOM      3  C3  BZF d   1      -1.409   0.420  -0.046  0.00  0.00    -0.012 A 
ATOM      4  C3A BZF d   1      -0.110   0.009  -0.483  0.00  0.00    -0.107 A 
ATOM      5  C4  BZF d   1       1.107   0.628  -0.521  0.00  0.00     0.055 A 
ATOM      6  C5  BZF d   1       2.192  -0.076  -0.939  0.00  0.00    -0.016 A 
ATOM      7  C6  BZF d   1       2.097  -1.398  -1.321  0.00  0.00     0.022 A 
ATOM      8  C7  BZF d   1       0.911  -2.052  -1.305  0.00  0.00     0.029 A 
ATOM      9  C7A BZF d   1      -0.194  -1.335  -0.914  0.00  0.00     0.058 A 
ENDROOT
TORSDOF 0
ENDMDL
