MODEL 1
REMARK minimizedAffinity -5.28312349
REMARK minimizedRMSD -1
REMARK  0 active torsions:
REMARK  status: ('A' for Active; 'I' for Inactive)
ROOT
ATOM      1  O1  BZF d   1       0.665  -2.325  -0.278  0.00  0.00    -0.204 OA
ATOM      2  C2  BZF d   1       1.966  -2.271  -0.741  0.00  0.00     0.174 A 
ATOM      3  C3  BZF d   1       2.246  -1.050  -1.240  0.00  0.00    -0.012 A 
ATOM      4  C3A BZF d   1       1.074  -0.266  -0.996  0.00  0.00    -0.107 A 
ATOM      5  C4  BZF d   1       0.745   1.035  -1.249  0.00  0.00     0.055 A 
ATOM      6  C5  BZF d   1      -0.507   1.470  -0.951  0.00  0.00    -0.016 A 
ATOM      7  C6  BZF d   1      -1.456   0.631  -0.405  0.00  0.00     0.022 A 
ATOM      8  C7  BZF d   1      -1.175  -0.667  -0.131  0.00  0.00     0.029 A 
ATOM      9  C7A BZF d   1       0.100  -1.100  -0.400  0.00  0.00     0.058 A 
ENDROOT
TORSDOF 0
ENDMDL
