MODEL 1
REMARK minimizedAffinity -4.98338699
REMARK minimizedRMSD -1
REMARK  0 active torsions:
REMARK  status: ('A' for Active; 'I' for Inactive)
ROOT
ATOM      1  O1  BZF d   1       1.734  -3.029  -0.867  0.00  0.00    -0.204 OA
ATOM      2  C2  BZF d   1       0.484  -3.592  -0.693  0.00  0.00     0.174 A 
ATOM      3  C3  BZF d   1      -0.437  -2.642  -0.437  0.00  0.00    -0.012 A 
ATOM      4  C3A BZF d   1       0.264  -1.399  -0.544  0.00  0.00    -0.107 A 
ATOM      5  C4  BZF d   1      -0.114  -0.093  -0.413  0.00  0.00     0.055 A 
ATOM      6  C5  BZF d   1       0.830   0.880  -0.506  0.00  0.00    -0.016 A 
ATOM      7  C6  BZF d   1       2.159   0.584  -0.724  0.00  0.00     0.022 A 
ATOM      8  C7  BZF d   1       2.582  -0.696  -0.865  0.00  0.00     0.029 A 
ATOM      9  C7A BZF d   1       1.625  -1.680  -0.804  0.00  0.00     0.058 A 
ENDROOT
TORSDOF 0
ENDMDL
