MODEL 1
REMARK minimizedAffinity 2.97957492
REMARK minimizedRMSD -1
REMARK  1 active torsions:
REMARK  status: ('A' for Active; 'I' for Inactive)
REMARK    1  A    between atoms: C1_2  and  C2_3 
ROOT
ATOM      1  C2  UNL d   1      -5.036   1.966  -4.819  0.00  0.00    -0.073 A 
ATOM      2  C3  UNL d   1      -5.205   3.010  -5.736  0.00  0.00    -0.002 A 
ATOM      3  C4  UNL d   1      -5.634   4.266  -5.303  0.00  0.00     0.004 A 
ATOM      4  C5  UNL d   1      -5.891   4.493  -3.951  0.00  0.00    -0.004 A 
ATOM      5  C6  UNL d   1      -5.717   3.465  -3.018  0.00  0.00    -0.075 A 
ATOM      6  C7  UNL d   1      -5.991   3.692  -1.561  0.00  0.00     0.076 C 
ATOM      7  C8  UNL d   1      -5.289   2.206  -3.461  0.00  0.00     0.001 A 
ENDROOT
BRANCH   1   8
ATOM      8  C1  UNL d   1      -4.568   0.611  -5.281  0.00  0.00     0.053 C 
ATOM      9  C   UNL d   1      -5.681  -0.181  -5.947  0.00  0.00     0.018 C 
ENDBRANCH   1   8
TORSDOF 1
ENDMDL
