MODEL 1
REMARK minimizedAffinity 10.0621262
REMARK minimizedRMSD -1
REMARK  1 active torsions:
REMARK  status: ('A' for Active; 'I' for Inactive)
REMARK    1  A    between atoms: C1_2  and  C2_3 
ROOT
ATOM      1  C2  UNL d   1      -0.689   0.190   0.848  0.00  0.00    -0.073 A 
ATOM      2  C3  UNL d   1      -2.061   0.039   0.614  0.00  0.00    -0.002 A 
ATOM      3  C4  UNL d   1      -2.797   1.078   0.042  0.00  0.00     0.004 A 
ATOM      4  C5  UNL d   1      -2.169   2.273  -0.309  0.00  0.00    -0.004 A 
ATOM      5  C6  UNL d   1      -0.796   2.438  -0.094  0.00  0.00    -0.075 A 
ATOM      6  C7  UNL d   1      -0.106   3.718  -0.463  0.00  0.00     0.076 C 
ATOM      7  C8  UNL d   1      -0.065   1.392   0.484  0.00  0.00     0.001 A 
ENDROOT
BRANCH   1   8
ATOM      8  C1  UNL d   1       0.110  -0.931   1.460  0.00  0.00     0.053 C 
ATOM      9  C   UNL d   1       1.200  -0.414   2.386  0.00  0.00     0.018 C 
ENDBRANCH   1   8
TORSDOF 1
ENDMDL
