MODEL 1
REMARK minimizedAffinity 20.2521915
REMARK minimizedRMSD -1
REMARK  0 active torsions:
REMARK  status: ('A' for Active; 'I' for Inactive)
ROOT
ATOM      1  C1  DEN d   1      -5.779  -0.768  -0.463  0.00  0.00     0.130 A 
ATOM      2  C2  DEN d   1      -6.000  -1.097  -1.869  0.00  0.00    -0.031 A 
ATOM      3  C3  DEN d   1      -4.692  -1.069  -2.555  0.00  0.00     0.027 A 
ATOM      4  C4  DEN d   1      -2.360  -0.554  -1.581  0.00  0.00     0.027 A 
ATOM      5  C5  DEN d   1      -1.672  -0.208  -0.440  0.00  0.00    -0.003 A 
ATOM      6  C6  DEN d   1      -2.303   0.008   0.757  0.00  0.00     0.001 A 
ATOM      7  C7  DEN d   1      -3.659  -0.165   0.849  0.00  0.00     0.017 A 
ATOM      8  C8  DEN d   1      -4.361  -0.507  -0.299  0.00  0.00    -0.094 A 
ATOM      9  C9  DEN d   1      -3.703  -0.733  -1.496  0.00  0.00    -0.072 A 
ENDROOT
TORSDOF 0
ENDMDL
