MODEL 1
REMARK minimizedAffinity 21.4493465
REMARK minimizedRMSD -1
REMARK  0 active torsions:
REMARK  status: ('A' for Active; 'I' for Inactive)
ROOT
ATOM      1  C1  DEN d   1      -5.010   2.806  -2.368  0.00  0.00     0.130 A 
ATOM      2  C2  DEN d   1      -5.511   3.426  -3.592  0.00  0.00    -0.031 A 
ATOM      3  C3  DEN d   1      -5.991   4.781  -3.253  0.00  0.00     0.027 A 
ATOM      4  C4  DEN d   1      -6.000   5.976  -0.967  0.00  0.00     0.027 A 
ATOM      5  C5  DEN d   1      -5.686   5.847   0.368  0.00  0.00    -0.003 A 
ATOM      6  C6  DEN d   1      -5.160   4.693   0.886  0.00  0.00     0.001 A 
ATOM      7  C7  DEN d   1      -4.891   3.637   0.056  0.00  0.00     0.017 A 
ATOM      8  C8  DEN d   1      -5.211   3.757  -1.289  0.00  0.00    -0.094 A 
ATOM      9  C9  DEN d   1      -5.731   4.936  -1.797  0.00  0.00    -0.072 A 
ENDROOT
TORSDOF 0
ENDMDL
