MODEL 1
REMARK minimizedAffinity 16.2056255
REMARK minimizedRMSD -1
REMARK  0 active torsions:
REMARK  status: ('A' for Active; 'I' for Inactive)
ROOT
ATOM      1  C1  DEN d   1      -4.837   3.692  -0.876  0.00  0.00     0.130 A 
ATOM      2  C2  DEN d   1      -5.317   3.743  -2.254  0.00  0.00    -0.031 A 
ATOM      3  C3  DEN d   1      -5.255   2.377  -2.810  0.00  0.00     0.027 A 
ATOM      4  C4  DEN d   1      -4.471   0.197  -1.675  0.00  0.00     0.027 A 
ATOM      5  C5  DEN d   1      -3.963  -0.344  -0.515  0.00  0.00    -0.003 A 
ATOM      6  C6  DEN d   1      -3.681   0.420   0.586  0.00  0.00     0.001 A 
ATOM      7  C7  DEN d   1      -3.948   1.764   0.565  0.00  0.00     0.017 A 
ATOM      8  C8  DEN d   1      -4.453   2.319  -0.604  0.00  0.00    -0.094 A 
ATOM      9  C9  DEN d   1      -4.743   1.526  -1.702  0.00  0.00    -0.072 A 
ENDROOT
TORSDOF 0
ENDMDL
