MODEL 1
REMARK minimizedAffinity 8.4070673
REMARK minimizedRMSD -1
REMARK  0 active torsions:
REMARK  status: ('A' for Active; 'I' for Inactive)
ROOT
ATOM      1  C1  DEN d   1       5.998   1.559   1.938  0.00  0.00     0.130 A 
ATOM      2  C2  DEN d   1       5.056   0.943   2.869  0.00  0.00    -0.031 A 
ATOM      3  C3  DEN d   1       3.960   0.346   2.080  0.00  0.00     0.027 A 
ATOM      4  C4  DEN d   1       3.632   0.311  -0.478  0.00  0.00     0.027 A 
ATOM      5  C5  DEN d   1       4.163   0.715  -1.683  0.00  0.00    -0.003 A 
ATOM      6  C6  DEN d   1       5.315   1.452  -1.763  0.00  0.00     0.001 A 
ATOM      7  C7  DEN d   1       5.999   1.769  -0.619  0.00  0.00     0.017 A 
ATOM      8  C8  DEN d   1       5.466   1.372   0.600  0.00  0.00    -0.094 A 
ATOM      9  C9  DEN d   1       4.307   0.617   0.659  0.00  0.00    -0.072 A 
ENDROOT
TORSDOF 0
ENDMDL
