MODEL 1
REMARK minimizedAffinity 10.768424
REMARK minimizedRMSD -1
REMARK  0 active torsions:
REMARK  status: ('A' for Active; 'I' for Inactive)
ROOT
ATOM      1  C1  DEN d   1       5.998   1.677   2.473  0.00  0.00     0.130 A 
ATOM      2  C2  DEN d   1       5.985   0.311   1.957  0.00  0.00    -0.031 A 
ATOM      3  C3  DEN d   1       4.663  -0.277   2.256  0.00  0.00     0.027 A 
ATOM      4  C4  DEN d   1       2.646   0.792   3.456  0.00  0.00     0.027 A 
ATOM      5  C5  DEN d   1       2.187   1.929   4.085  0.00  0.00    -0.003 A 
ATOM      6  C6  DEN d   1       2.971   3.040   4.249  0.00  0.00     0.001 A 
ATOM      7  C7  DEN d   1       4.242   3.055   3.738  0.00  0.00     0.017 A 
ATOM      8  C8  DEN d   1       4.715   1.910   3.110  0.00  0.00    -0.094 A 
ATOM      9  C9  DEN d   1       3.903   0.801   2.944  0.00  0.00    -0.072 A 
ENDROOT
TORSDOF 0
ENDMDL
