MODEL 1
REMARK minimizedAffinity 21.9551201
REMARK minimizedRMSD -1
REMARK  0 active torsions:
REMARK  status: ('A' for Active; 'I' for Inactive)
ROOT
ATOM      1  C1  DEN d   1      -0.108  -1.364   3.933  0.00  0.00     0.130 A 
ATOM      2  C2  DEN d   1      -0.183  -1.517   5.384  0.00  0.00    -0.031 A 
ATOM      3  C3  DEN d   1       0.040  -0.191   5.995  0.00  0.00     0.027 A 
ATOM      4  C4  DEN d   1       0.485   2.073   4.842  0.00  0.00     0.027 A 
ATOM      5  C5  DEN d   1       0.650   2.701   3.627  0.00  0.00    -0.003 A 
ATOM      6  C6  DEN d   1       0.608   2.018   2.441  0.00  0.00     0.001 A 
ATOM      7  C7  DEN d   1       0.350   0.672   2.441  0.00  0.00     0.017 A 
ATOM      8  C8  DEN d   1       0.191   0.031   3.662  0.00  0.00    -0.094 A 
ATOM      9  C9  DEN d   1       0.225   0.741   4.850  0.00  0.00    -0.072 A 
ENDROOT
TORSDOF 0
ENDMDL
