MODEL 1
REMARK minimizedAffinity -3.96796346
REMARK minimizedRMSD -1
REMARK  0 active torsions:
REMARK  status: ('A' for Active; 'I' for Inactive)
ROOT
ATOM      1  C   UNL d   1       2.917  -0.821  -1.309  0.00  0.00    -0.002 A 
ATOM      2  C1  UNL d   1       2.650   0.390  -1.931  0.00  0.00     0.010 A 
ATOM      3  C2  UNL d   1       1.448   1.060  -1.693  0.00  0.00     0.041 A 
ATOM      4  C3  UNL d   1       0.512   0.489  -0.809  0.00  0.00    -0.075 A 
ATOM      5  S   UNL d   1      -1.025   1.131  -0.366  0.00  0.00     0.015 SA
ATOM      6  C4  UNL d   1      -1.363  -0.187   0.661  0.00  0.00     0.022 A 
ATOM      7  C5  UNL d   1      -0.339  -1.104   0.676  0.00  0.00     0.026 A 
ATOM      8  C6  UNL d   1       0.759  -0.730  -0.170  0.00  0.00    -0.082 A 
ATOM      9  C7  UNL d   1       1.986  -1.386  -0.433  0.00  0.00     0.045 A 
ENDROOT
TORSDOF 0
ENDMDL
