MODEL 1
REMARK minimizedAffinity -5.08842516
REMARK minimizedRMSD -1
REMARK  0 active torsions:
REMARK  status: ('A' for Active; 'I' for Inactive)
ROOT
ATOM      1  C   UNL d   1       2.888  -0.102  -2.058  0.00  0.00    -0.002 A 
ATOM      2  C1  UNL d   1       2.356   1.150  -2.331  0.00  0.00     0.010 A 
ATOM      3  C2  UNL d   1       1.166   1.563  -1.729  0.00  0.00     0.041 A 
ATOM      4  C3  UNL d   1       0.513   0.687  -0.839  0.00  0.00    -0.075 A 
ATOM      5  S   UNL d   1      -0.956   0.978   0.015  0.00  0.00     0.015 SA
ATOM      6  C4  UNL d   1      -0.912  -0.553   0.763  0.00  0.00     0.022 A 
ATOM      7  C5  UNL d   1       0.190  -1.281   0.381  0.00  0.00     0.026 A 
ATOM      8  C6  UNL d   1       1.030  -0.579  -0.548  0.00  0.00    -0.082 A 
ATOM      9  C7  UNL d   1       2.238  -0.968  -1.175  0.00  0.00     0.045 A 
ENDROOT
TORSDOF 0
ENDMDL
