MODEL 1
REMARK minimizedAffinity -3.73902225
REMARK minimizedRMSD -1
REMARK  0 active torsions:
REMARK  status: ('A' for Active; 'I' for Inactive)
ROOT
ATOM      1  C   UNL d   1       3.011  -0.762  -0.523  0.00  0.00    -0.002 A 
ATOM      2  C1  UNL d   1       2.636   0.040  -1.592  0.00  0.00     0.010 A 
ATOM      3  C2  UNL d   1       1.397   0.683  -1.597  0.00  0.00     0.041 A 
ATOM      4  C3  UNL d   1       0.533   0.507  -0.498  0.00  0.00    -0.075 A 
ATOM      5  S   UNL d   1      -1.032   1.197  -0.286  0.00  0.00     0.015 SA
ATOM      6  C4  UNL d   1      -1.240   0.446   1.229  0.00  0.00     0.022 A 
ATOM      7  C5  UNL d   1      -0.151  -0.317   1.580  0.00  0.00     0.026 A 
ATOM      8  C6  UNL d   1       0.889  -0.294   0.591  0.00  0.00    -0.082 A 
ATOM      9  C7  UNL d   1       2.152  -0.933   0.566  0.00  0.00     0.045 A 
ENDROOT
TORSDOF 0
ENDMDL
