MODEL 1
REMARK minimizedAffinity -2.39296842
REMARK minimizedRMSD -1
REMARK  0 active torsions:
REMARK  status: ('A' for Active; 'I' for Inactive)
ROOT
ATOM      1  C   UNL d   1       1.995  -1.659  -0.919  0.00  0.00    -0.002 A 
ATOM      2  C1  UNL d   1       2.504  -0.391  -0.673  0.00  0.00     0.010 A 
ATOM      3  C2  UNL d   1       1.695   0.604  -0.122  0.00  0.00     0.041 A 
ATOM      4  C3  UNL d   1       0.353   0.302   0.181  0.00  0.00    -0.075 A 
ATOM      5  S   UNL d   1      -0.823   1.362   0.862  0.00  0.00     0.015 SA
ATOM      6  C4  UNL d   1      -2.029   0.158   0.843  0.00  0.00     0.022 A 
ATOM      7  C5  UNL d   1      -1.563  -1.030   0.332  0.00  0.00     0.026 A 
ATOM      8  C6  UNL d   1      -0.182  -0.967  -0.057  0.00  0.00    -0.082 A 
ATOM      9  C7  UNL d   1       0.664  -1.955  -0.617  0.00  0.00     0.045 A 
ENDROOT
TORSDOF 0
ENDMDL
