MODEL 1
REMARK minimizedAffinity 0.107544087
REMARK minimizedRMSD -1
REMARK  0 active torsions:
REMARK  status: ('A' for Active; 'I' for Inactive)
ROOT
ATOM      1  C   UNL d   1       2.781  -0.660  -2.652  0.00  0.00    -0.002 A 
ATOM      2  C1  UNL d   1       2.292  -1.532  -1.689  0.00  0.00     0.010 A 
ATOM      3  C2  UNL d   1       1.248  -1.146  -0.846  0.00  0.00     0.041 A 
ATOM      4  C3  UNL d   1       0.696   0.142  -0.990  0.00  0.00    -0.075 A 
ATOM      5  S   UNL d   1      -0.590   0.831  -0.071  0.00  0.00     0.015 SA
ATOM      6  C4  UNL d   1      -0.521   2.298  -0.935  0.00  0.00     0.022 A 
ATOM      7  C5  UNL d   1       0.453   2.280  -1.905  0.00  0.00     0.026 A 
ATOM      8  C6  UNL d   1       1.170   1.037  -1.953  0.00  0.00    -0.082 A 
ATOM      9  C7  UNL d   1       2.231   0.617  -2.791  0.00  0.00     0.045 A 
ENDROOT
TORSDOF 0
ENDMDL
