MODEL 1
REMARK minimizedAffinity -1.96523499
REMARK minimizedRMSD -1
REMARK  0 active torsions:
REMARK  status: ('A' for Active; 'I' for Inactive)
ROOT
ATOM      1  C   UNL d   1       1.389   1.582  -3.223  0.00  0.00    -0.002 A 
ATOM      2  C1  UNL d   1       1.956   0.321  -3.340  0.00  0.00     0.010 A 
ATOM      3  C2  UNL d   1       1.650  -0.684  -2.419  0.00  0.00     0.041 A 
ATOM      4  C3  UNL d   1       0.755  -0.397  -1.370  0.00  0.00    -0.075 A 
ATOM      5  S   UNL d   1       0.233  -1.471  -0.126  0.00  0.00     0.015 SA
ATOM      6  C4  UNL d   1      -0.755  -0.281   0.590  0.00  0.00     0.022 A 
ATOM      7  C5  UNL d   1      -0.700   0.913  -0.091  0.00  0.00     0.026 A 
ATOM      8  C6  UNL d   1       0.171   0.865  -1.231  0.00  0.00    -0.082 A 
ATOM      9  C7  UNL d   1       0.502   1.863  -2.180  0.00  0.00     0.045 A 
ENDROOT
TORSDOF 0
ENDMDL
