MODEL 1
REMARK minimizedAffinity -4.93738604
REMARK minimizedRMSD -1
REMARK  0 active torsions:
REMARK  status: ('A' for Active; 'I' for Inactive)
ROOT
ATOM      1  C   UNL d   1       3.134  -0.011  -2.240  0.00  0.00    -0.002 A 
ATOM      2  C1  UNL d   1       2.591   1.258  -2.390  0.00  0.00     0.010 A 
ATOM      3  C2  UNL d   1       1.395   1.598  -1.756  0.00  0.00     0.041 A 
ATOM      4  C3  UNL d   1       0.747   0.634  -0.960  0.00  0.00    -0.075 A 
ATOM      5  S   UNL d   1      -0.728   0.826  -0.088  0.00  0.00     0.015 SA
ATOM      6  C4  UNL d   1      -0.673  -0.771   0.505  0.00  0.00     0.022 A 
ATOM      7  C5  UNL d   1       0.437  -1.449   0.058  0.00  0.00     0.026 A 
ATOM      8  C6  UNL d   1       1.274  -0.650  -0.793  0.00  0.00    -0.082 A 
ATOM      9  C7  UNL d   1       2.488  -0.965  -1.449  0.00  0.00     0.045 A 
ENDROOT
TORSDOF 0
ENDMDL
