MODEL 1
REMARK minimizedAffinity -5.08515453
REMARK minimizedRMSD -1
REMARK  0 active torsions:
REMARK  status: ('A' for Active; 'I' for Inactive)
ROOT
ATOM      1  C   UNL d   1       3.469   0.827  -2.614  0.00  0.00    -0.002 A 
ATOM      2  C1  UNL d   1       2.580   1.889  -2.534  0.00  0.00     0.010 A 
ATOM      3  C2  UNL d   1       1.437   1.801  -1.737  0.00  0.00     0.041 A 
ATOM      4  C3  UNL d   1       1.201   0.615  -1.014  0.00  0.00    -0.075 A 
ATOM      5  S   UNL d   1      -0.133   0.281   0.027  0.00  0.00     0.015 SA
ATOM      6  C4  UNL d   1       0.446  -1.280   0.390  0.00  0.00     0.022 A 
ATOM      7  C5  UNL d   1       1.627  -1.556  -0.258  0.00  0.00     0.026 A 
ATOM      8  C6  UNL d   1       2.081  -0.468  -1.078  0.00  0.00    -0.082 A 
ATOM      9  C7  UNL d   1       3.231  -0.348  -1.895  0.00  0.00     0.045 A 
ENDROOT
TORSDOF 0
ENDMDL
