MODEL 1
REMARK minimizedAffinity -0.847703576
REMARK minimizedRMSD -1
REMARK  0 active torsions:
REMARK  status: ('A' for Active; 'I' for Inactive)
ROOT
ATOM      1  C   UNL d   1       2.264  -1.583  -1.116  0.00  0.00    -0.002 A 
ATOM      2  C1  UNL d   1       2.676  -0.270  -1.294  0.00  0.00     0.010 A 
ATOM      3  C2  UNL d   1       1.899   0.789  -0.821  0.00  0.00     0.041 A 
ATOM      4  C3  UNL d   1       0.689   0.504  -0.158  0.00  0.00    -0.075 A 
ATOM      5  S   UNL d   1      -0.425   1.639   0.507  0.00  0.00     0.015 SA
ATOM      6  C4  UNL d   1      -1.475   0.408   1.043  0.00  0.00     0.022 A 
ATOM      7  C5  UNL d   1      -1.002  -0.845   0.731  0.00  0.00     0.026 A 
ATOM      8  C6  UNL d   1       0.253  -0.810   0.035  0.00  0.00    -0.082 A 
ATOM      9  C7  UNL d   1       1.063  -1.862  -0.457  0.00  0.00     0.045 A 
ENDROOT
TORSDOF 0
ENDMDL
