MODEL 1
REMARK minimizedAffinity -0.512144983
REMARK minimizedRMSD -1
REMARK  0 active torsions:
REMARK  status: ('A' for Active; 'I' for Inactive)
ROOT
ATOM      1  C   UNL d   1       2.763   0.276  -1.132  0.00  0.00    -0.002 A 
ATOM      2  C1  UNL d   1       2.343   1.409  -1.817  0.00  0.00     0.010 A 
ATOM      3  C2  UNL d   1       1.037   1.881  -1.675  0.00  0.00     0.041 A 
ATOM      4  C3  UNL d   1       0.151   1.190  -0.824  0.00  0.00    -0.075 A 
ATOM      5  S   UNL d   1      -1.495   1.585  -0.495  0.00  0.00     0.015 SA
ATOM      6  C4  UNL d   1      -1.679   0.261   0.562  0.00  0.00     0.022 A 
ATOM      7  C5  UNL d   1      -0.523  -0.475   0.673  0.00  0.00     0.026 A 
ATOM      8  C6  UNL d   1       0.551   0.048  -0.124  0.00  0.00    -0.082 A 
ATOM      9  C7  UNL d   1       1.881  -0.406  -0.289  0.00  0.00     0.045 A 
ENDROOT
TORSDOF 0
ENDMDL
