MODEL 1
REMARK minimizedAffinity -4.99682093
REMARK minimizedRMSD -1
REMARK  0 active torsions:
REMARK  status: ('A' for Active; 'I' for Inactive)
ROOT
ATOM      1  C   UNL d   1       3.210  -0.322  -1.846  0.00  0.00    -0.002 A 
ATOM      2  C1  UNL d   1       2.814   0.702  -2.695  0.00  0.00     0.010 A 
ATOM      3  C2  UNL d   1       1.547   1.276  -2.573  0.00  0.00     0.041 A 
ATOM      4  C3  UNL d   1       0.676   0.800  -1.573  0.00  0.00    -0.075 A 
ATOM      5  S   UNL d   1      -0.922   1.352  -1.237  0.00  0.00     0.015 SA
ATOM      6  C4  UNL d   1      -1.117   0.243   0.042  0.00  0.00     0.022 A 
ATOM      7  C5  UNL d   1       0.000  -0.538   0.222  0.00  0.00     0.026 A 
ATOM      8  C6  UNL d   1       1.052  -0.229  -0.705  0.00  0.00    -0.082 A 
ATOM      9  C7  UNL d   1       2.343  -0.791  -0.855  0.00  0.00     0.045 A 
ENDROOT
TORSDOF 0
ENDMDL
