MODEL 1
REMARK minimizedAffinity 0.348513454
REMARK minimizedRMSD -1
REMARK  0 active torsions:
REMARK  status: ('A' for Active; 'I' for Inactive)
ROOT
ATOM      1  C   UNL d   1       1.322  -1.921  -0.265  0.00  0.00    -0.002 A 
ATOM      2  C1  UNL d   1       1.475  -0.976  -1.270  0.00  0.00     0.010 A 
ATOM      3  C2  UNL d   1       0.690   0.179  -1.283  0.00  0.00     0.041 A 
ATOM      4  C3  UNL d   1      -0.257   0.371  -0.259  0.00  0.00    -0.075 A 
ATOM      5  S   UNL d   1      -1.327   1.710  -0.070  0.00  0.00     0.015 SA
ATOM      6  C4  UNL d   1      -2.011   1.060   1.349  0.00  0.00     0.022 A 
ATOM      7  C5  UNL d   1      -1.448  -0.149   1.685  0.00  0.00     0.026 A 
ATOM      8  C6  UNL d   1      -0.428  -0.566   0.765  0.00  0.00    -0.082 A 
ATOM      9  C7  UNL d   1       0.381  -1.727   0.750  0.00  0.00     0.045 A 
ENDROOT
TORSDOF 0
ENDMDL
