MODEL 1
REMARK minimizedAffinity -2.4438293
REMARK minimizedRMSD -1
REMARK  0 active torsions:
REMARK  status: ('A' for Active; 'I' for Inactive)
ROOT
ATOM      1  C   UNL d   1       2.866   0.712  -1.886  0.00  0.00    -0.002 A 
ATOM      2  C1  UNL d   1       3.354  -0.587  -1.868  0.00  0.00     0.010 A 
ATOM      3  C2  UNL d   1       2.659  -1.597  -1.200  0.00  0.00     0.041 A 
ATOM      4  C3  UNL d   1       1.453  -1.277  -0.546  0.00  0.00    -0.075 A 
ATOM      5  S   UNL d   1       0.432  -2.351   0.335  0.00  0.00     0.015 SA
ATOM      6  C4  UNL d   1      -0.677  -1.111   0.707  0.00  0.00     0.022 A 
ATOM      7  C5  UNL d   1      -0.293   0.099   0.180  0.00  0.00     0.026 A 
ATOM      8  C6  UNL d   1       0.941   0.023  -0.551  0.00  0.00    -0.082 A 
ATOM      9  C7  UNL d   1       1.669   1.025  -1.236  0.00  0.00     0.045 A 
ENDROOT
TORSDOF 0
ENDMDL
