MODEL 1
REMARK minimizedAffinity 4.75794888
REMARK minimizedRMSD -1
REMARK  0 active torsions:
REMARK  status: ('A' for Active; 'I' for Inactive)
ROOT
ATOM      1  C   UNL d   1       3.545  -4.216   2.570  0.00  0.00     0.078 C 
ATOM      2  C1  UNL d   1       4.397  -3.893   3.761  0.00  0.00    -0.077 A 
ATOM      3  C2  UNL d   1       4.394  -4.716   4.894  0.00  0.00    -0.001 A 
ATOM      4  C3  UNL d   1       5.185  -4.398   6.000  0.00  0.00     0.003 A 
ATOM      5  C4  UNL d   1       5.984  -3.256   5.983  0.00  0.00    -0.005 A 
ATOM      6  C5  UNL d   1       5.992  -2.430   4.861  0.00  0.00     0.003 A 
ATOM      7  C6  UNL d   1       5.201  -2.746   3.755  0.00  0.00    -0.001 A 
ENDROOT
TORSDOF 0
ENDMDL
