MODEL 1
REMARK minimizedAffinity 4.4978013
REMARK minimizedRMSD -1
REMARK  0 active torsions:
REMARK  status: ('A' for Active; 'I' for Inactive)
ROOT
ATOM      1  C   UNL d   1       4.627  -3.190   4.617  0.00  0.00     0.078 C 
ATOM      2  C1  UNL d   1       3.872  -3.171   3.321  0.00  0.00    -0.077 A 
ATOM      3  C2  UNL d   1       4.367  -3.830   2.189  0.00  0.00    -0.001 A 
ATOM      4  C3  UNL d   1       3.658  -3.796   0.987  0.00  0.00     0.003 A 
ATOM      5  C4  UNL d   1       2.452  -3.104   0.905  0.00  0.00    -0.005 A 
ATOM      6  C5  UNL d   1       1.953  -2.443   2.026  0.00  0.00     0.003 A 
ATOM      7  C6  UNL d   1       2.660  -2.476   3.229  0.00  0.00    -0.001 A 
ENDROOT
TORSDOF 0
ENDMDL
