MODEL 1
REMARK minimizedAffinity 3.29440427
REMARK minimizedRMSD -1
REMARK  0 active torsions:
REMARK  status: ('A' for Active; 'I' for Inactive)
ROOT
ATOM      1  C   UNL d   1       4.727  -4.866   2.271  0.00  0.00     0.078 C 
ATOM      2  C1  UNL d   1       5.099  -4.208   3.566  0.00  0.00    -0.077 A 
ATOM      3  C2  UNL d   1       5.649  -2.920   3.589  0.00  0.00    -0.001 A 
ATOM      4  C3  UNL d   1       5.999  -2.324   4.801  0.00  0.00     0.003 A 
ATOM      5  C4  UNL d   1       5.804  -3.007   6.000  0.00  0.00    -0.005 A 
ATOM      6  C5  UNL d   1       5.259  -4.290   5.987  0.00  0.00     0.003 A 
ATOM      7  C6  UNL d   1       4.909  -4.888   4.776  0.00  0.00    -0.001 A 
ENDROOT
TORSDOF 0
ENDMDL
