MODEL 1
REMARK minimizedAffinity 3.94030881
REMARK minimizedRMSD -1
REMARK  0 active torsions:
REMARK  status: ('A' for Active; 'I' for Inactive)
ROOT
ATOM      1  C   UNL d   1       5.173  -4.506   1.829  0.00  0.00     0.078 C 
ATOM      2  C1  UNL d   1       5.147  -4.126   3.279  0.00  0.00    -0.077 A 
ATOM      3  C2  UNL d   1       5.816  -2.984   3.738  0.00  0.00    -0.001 A 
ATOM      4  C3  UNL d   1       5.792  -2.648   5.092  0.00  0.00     0.003 A 
ATOM      5  C4  UNL d   1       5.101  -3.449   6.000  0.00  0.00    -0.005 A 
ATOM      6  C5  UNL d   1       4.434  -4.588   5.553  0.00  0.00     0.003 A 
ATOM      7  C6  UNL d   1       4.458  -4.926   4.199  0.00  0.00    -0.001 A 
ENDROOT
TORSDOF 0
ENDMDL
