MODEL 1
REMARK minimizedAffinity -1.1838131
REMARK minimizedRMSD -1
REMARK  0 active torsions:
REMARK  status: ('A' for Active; 'I' for Inactive)
ROOT
ATOM      1  C   UNL d   1       3.354   0.623  -0.953  0.00  0.00     0.078 C 
ATOM      2  C1  UNL d   1       3.974  -0.649  -0.455  0.00  0.00    -0.077 A 
ATOM      3  C2  UNL d   1       5.347  -0.727  -0.191  0.00  0.00    -0.001 A 
ATOM      4  C3  UNL d   1       5.912  -1.920   0.262  0.00  0.00     0.003 A 
ATOM      5  C4  UNL d   1       5.111  -3.044   0.454  0.00  0.00    -0.005 A 
ATOM      6  C5  UNL d   1       3.745  -2.977   0.192  0.00  0.00     0.003 A 
ATOM      7  C6  UNL d   1       3.178  -1.785  -0.262  0.00  0.00    -0.001 A 
ENDROOT
TORSDOF 0
ENDMDL
