MODEL 1
REMARK minimizedAffinity 9.59414482
REMARK minimizedRMSD -1
REMARK  0 active torsions:
REMARK  status: ('A' for Active; 'I' for Inactive)
ROOT
ATOM      1  C   UNL d   1       4.054  -2.645  -0.511  0.00  0.00     0.078 C 
ATOM      2  C1  UNL d   1       3.564  -1.233  -0.627  0.00  0.00    -0.077 A 
ATOM      3  C2  UNL d   1       2.227  -0.957  -0.942  0.00  0.00    -0.001 A 
ATOM      4  C3  UNL d   1       1.787   0.363  -1.056  0.00  0.00     0.003 A 
ATOM      5  C4  UNL d   1       2.677   1.417  -0.859  0.00  0.00    -0.005 A 
ATOM      6  C5  UNL d   1       4.009   1.152  -0.548  0.00  0.00     0.003 A 
ATOM      7  C6  UNL d   1       4.451  -0.167  -0.433  0.00  0.00    -0.001 A 
ENDROOT
TORSDOF 0
ENDMDL
