MODEL 1
REMARK minimizedAffinity -0.854389966
REMARK minimizedRMSD -1
REMARK  0 active torsions:
REMARK  status: ('A' for Active; 'I' for Inactive)
ROOT
ATOM      1  C   UNL d   1      -0.424   0.182   1.472  0.00  0.00     0.078 C 
ATOM      2  C1  UNL d   1       0.007  -1.161   1.979  0.00  0.00    -0.077 A 
ATOM      3  C2  UNL d   1       1.206  -1.744   1.549  0.00  0.00    -0.001 A 
ATOM      4  C3  UNL d   1       1.589  -3.000   2.022  0.00  0.00     0.003 A 
ATOM      5  C4  UNL d   1       0.780  -3.684   2.927  0.00  0.00    -0.005 A 
ATOM      6  C5  UNL d   1      -0.415  -3.113   3.360  0.00  0.00     0.003 A 
ATOM      7  C6  UNL d   1      -0.800  -1.857   2.887  0.00  0.00    -0.001 A 
ENDROOT
TORSDOF 0
ENDMDL
