MODEL 1
REMARK minimizedAffinity -1.51138198
REMARK minimizedRMSD -1
REMARK  0 active torsions:
REMARK  status: ('A' for Active; 'I' for Inactive)
ROOT
ATOM      1  C   UNL d   1       3.048  -3.988   1.166  0.00  0.00     0.078 C 
ATOM      2  C1  UNL d   1       2.144  -2.798   1.048  0.00  0.00    -0.077 A 
ATOM      3  C2  UNL d   1       2.326  -1.851   0.032  0.00  0.00    -0.001 A 
ATOM      4  C3  UNL d   1       1.483  -0.743  -0.060  0.00  0.00     0.003 A 
ATOM      5  C4  UNL d   1       0.452  -0.570   0.862  0.00  0.00    -0.005 A 
ATOM      6  C5  UNL d   1       0.264  -1.505   1.877  0.00  0.00     0.003 A 
ATOM      7  C6  UNL d   1       1.106  -2.614   1.970  0.00  0.00    -0.001 A 
ENDROOT
TORSDOF 0
ENDMDL
