MODEL 1
REMARK minimizedAffinity 1.15774333
REMARK minimizedRMSD -1
REMARK  0 active torsions:
REMARK  status: ('A' for Active; 'I' for Inactive)
ROOT
ATOM      1  C   UNL d   1      -0.490   0.243   0.736  0.00  0.00     0.078 C 
ATOM      2  C1  UNL d   1       0.134  -1.006   1.282  0.00  0.00    -0.077 A 
ATOM      3  C2  UNL d   1       1.157  -1.665   0.587  0.00  0.00    -0.001 A 
ATOM      4  C3  UNL d   1       1.722  -2.832   1.102  0.00  0.00     0.003 A 
ATOM      5  C4  UNL d   1       1.271  -3.353   2.313  0.00  0.00    -0.005 A 
ATOM      6  C5  UNL d   1       0.252  -2.706   3.011  0.00  0.00     0.003 A 
ATOM      7  C6  UNL d   1      -0.314  -1.538   2.497  0.00  0.00    -0.001 A 
ENDROOT
TORSDOF 0
ENDMDL
