MODEL 1
REMARK minimizedAffinity -3.46045232
REMARK minimizedRMSD -1
REMARK  0 active torsions:
REMARK  status: ('A' for Active; 'I' for Inactive)
ROOT
ATOM      1  N1  IND d   1      -5.646   4.714  -4.530  0.00  0.00    -0.196 N 
ATOM      2  C2  IND d   1      -5.287   4.060  -5.676  0.00  0.00     0.054 A 
ATOM      3  C3  IND d   1      -4.818   2.826  -5.385  0.00  0.00    -0.031 A 
ATOM      4  C4  IND d   1      -4.648   1.635  -3.109  0.00  0.00     0.051 A 
ATOM      5  C5  IND d   1      -4.821   1.842  -1.769  0.00  0.00    -0.031 A 
ATOM      6  C6  IND d   1      -5.291   3.040  -1.272  0.00  0.00     0.015 A 
ATOM      7  C7  IND d   1      -5.617   4.077  -2.100  0.00  0.00    -0.016 A 
ATOM      8  C8  IND d   1      -5.435   3.873  -3.460  0.00  0.00    -0.047 A 
ATOM      9  C9  IND d   1      -4.918   2.674  -3.968  0.00  0.00    -0.096 A 
ATOM     10  HN1 IND d   1      -5.953   5.516  -4.486  0.00  0.00     0.298 HD
ENDROOT
TORSDOF 0
ENDMDL
