MODEL 1
REMARK minimizedAffinity 3.78373361
REMARK minimizedRMSD -1
REMARK  0 active torsions:
REMARK  status: ('A' for Active; 'I' for Inactive)
ROOT
ATOM      1  N1  IND d   1      -4.878   4.815  -6.000  0.00  0.00    -0.196 N 
ATOM      2  C2  IND d   1      -5.999   4.032  -6.000  0.00  0.00     0.054 A 
ATOM      3  C3  IND d   1      -5.802   2.929  -5.244  0.00  0.00    -0.031 A 
ATOM      4  C4  IND d   1      -3.756   2.256  -3.834  0.00  0.00     0.051 A 
ATOM      5  C5  IND d   1      -2.474   2.634  -3.547  0.00  0.00    -0.031 A 
ATOM      6  C6  IND d   1      -1.918   3.784  -4.071  0.00  0.00     0.015 A 
ATOM      7  C7  IND d   1      -2.630   4.607  -4.896  0.00  0.00    -0.016 A 
ATOM      8  C8  IND d   1      -3.930   4.222  -5.196  0.00  0.00    -0.047 A 
ATOM      9  C9  IND d   1      -4.485   3.035  -4.701  0.00  0.00    -0.096 A 
ATOM     10  HN1 IND d   1      -4.782   5.554  -6.430  0.00  0.00     0.298 HD
ENDROOT
TORSDOF 0
ENDMDL
