MODEL 1
REMARK minimizedAffinity -1.61183476
REMARK minimizedRMSD -1
REMARK  0 active torsions:
REMARK  status: ('A' for Active; 'I' for Inactive)
ROOT
ATOM      1  N1  IND d   1      -5.995   4.064  -4.615  0.00  0.00    -0.196 N 
ATOM      2  C2  IND d   1      -6.000   3.644  -5.916  0.00  0.00     0.054 A 
ATOM      3  C3  IND d   1      -5.562   2.367  -6.000  0.00  0.00    -0.031 A 
ATOM      4  C4  IND d   1      -4.884   0.744  -4.121  0.00  0.00     0.051 A 
ATOM      5  C5  IND d   1      -4.682   0.683  -2.770  0.00  0.00    -0.031 A 
ATOM      6  C6  IND d   1      -4.915   1.767  -1.949  0.00  0.00     0.015 A 
ATOM      7  C7  IND d   1      -5.371   2.954  -2.448  0.00  0.00    -0.016 A 
ATOM      8  C8  IND d   1      -5.571   3.022  -3.820  0.00  0.00    -0.047 A 
ATOM      9  C9  IND d   1      -5.296   1.938  -4.664  0.00  0.00    -0.096 A 
ATOM     10  HN1 IND d   1      -6.220   4.847  -4.340  0.00  0.00     0.298 HD
ENDROOT
TORSDOF 0
ENDMDL
