MODEL 1
REMARK minimizedAffinity 0.702572346
REMARK minimizedRMSD -1
REMARK  0 active torsions:
REMARK  status: ('A' for Active; 'I' for Inactive)
ROOT
ATOM      1  N1  IND d   1       0.456   1.350   1.306  0.00  0.00    -0.196 N 
ATOM      2  C2  IND d   1      -0.017   0.212   1.898  0.00  0.00     0.054 A 
ATOM      3  C3  IND d   1      -0.221   0.419   3.218  0.00  0.00    -0.031 A 
ATOM      4  C4  IND d   1       0.057   2.574   4.598  0.00  0.00     0.051 A 
ATOM      5  C5  IND d   1       0.500   3.864   4.505  0.00  0.00    -0.031 A 
ATOM      6  C6  IND d   1       0.957   4.393   3.315  0.00  0.00     0.015 A 
ATOM      7  C7  IND d   1       0.979   3.652   2.167  0.00  0.00    -0.016 A 
ATOM      8  C8  IND d   1       0.537   2.340   2.260  0.00  0.00    -0.047 A 
ATOM      9  C9  IND d   1       0.111   1.785   3.474  0.00  0.00    -0.096 A 
ATOM     10  HN1 IND d   1       0.668   1.433   0.477  0.00  0.00     0.298 HD
ENDROOT
TORSDOF 0
ENDMDL
