MODEL 1
REMARK minimizedAffinity 6.26410627
REMARK minimizedRMSD -1
REMARK  0 active torsions:
REMARK  status: ('A' for Active; 'I' for Inactive)
ROOT
ATOM      1  N1  IND d   1      -5.345   1.796  -5.999  0.00  0.00    -0.196 N 
ATOM      2  C2  IND d   1      -6.000   2.997  -5.999  0.00  0.00     0.054 A 
ATOM      3  C3  IND d   1      -5.999   3.533  -4.758  0.00  0.00    -0.031 A 
ATOM      4  C4  IND d   1      -4.896   2.664  -2.601  0.00  0.00     0.051 A 
ATOM      5  C5  IND d   1      -4.217   1.591  -2.095  0.00  0.00    -0.031 A 
ATOM      6  C6  IND d   1      -3.870   0.511  -2.881  0.00  0.00     0.015 A 
ATOM      7  C7  IND d   1      -4.181   0.469  -4.211  0.00  0.00    -0.016 A 
ATOM      8  C8  IND d   1      -4.876   1.553  -4.726  0.00  0.00    -0.047 A 
ATOM      9  C9  IND d   1      -5.268   2.633  -3.924  0.00  0.00    -0.096 A 
ATOM     10  HN1 IND d   1      -5.243   1.280  -6.679  0.00  0.00     0.298 HD
ENDROOT
TORSDOF 0
ENDMDL
