MODEL 1
REMARK minimizedAffinity 1.28093648
REMARK minimizedRMSD -1
REMARK  0 active torsions:
REMARK  status: ('A' for Active; 'I' for Inactive)
ROOT
ATOM      1  N1  IND d   1      -4.417   4.558  -4.381  0.00  0.00    -0.196 N 
ATOM      2  C2  IND d   1      -5.247   5.258  -5.212  0.00  0.00     0.054 A 
ATOM      3  C3  IND d   1      -5.960   4.412  -5.988  0.00  0.00    -0.031 A 
ATOM      4  C4  IND d   1      -5.999   1.838  -5.993  0.00  0.00     0.051 A 
ATOM      5  C5  IND d   1      -5.386   0.750  -5.436  0.00  0.00    -0.031 A 
ATOM      6  C6  IND d   1      -4.401   0.879  -4.478  0.00  0.00     0.015 A 
ATOM      7  C7  IND d   1      -3.999   2.105  -4.031  0.00  0.00    -0.016 A 
ATOM      8  C8  IND d   1      -4.614   3.212  -4.599  0.00  0.00    -0.047 A 
ATOM      9  C9  IND d   1      -5.583   3.089  -5.602  0.00  0.00    -0.096 A 
ATOM     10  HN1 IND d   1      -3.866   4.901  -3.818  0.00  0.00     0.298 HD
ENDROOT
TORSDOF 0
ENDMDL
