MODEL 1
REMARK minimizedAffinity 7.6767993
REMARK minimizedRMSD -1
REMARK  0 active torsions:
REMARK  status: ('A' for Active; 'I' for Inactive)
ROOT
ATOM      1  N1  IND d   1       1.011   1.509  -0.401  0.00  0.00    -0.196 N 
ATOM      2  C2  IND d   1       1.018   0.528   0.551  0.00  0.00     0.054 A 
ATOM      3  C3  IND d   1      -0.224   0.017   0.709  0.00  0.00    -0.031 A 
ATOM      4  C4  IND d   1      -2.394   0.571  -0.560  0.00  0.00     0.051 A 
ATOM      5  C5  IND d   1      -2.907   1.426  -1.495  0.00  0.00    -0.031 A 
ATOM      6  C6  IND d   1      -2.124   2.369  -2.128  0.00  0.00     0.015 A 
ATOM      7  C7  IND d   1      -0.790   2.486  -1.856  0.00  0.00    -0.016 A 
ATOM      8  C8  IND d   1      -0.267   1.625  -0.902  0.00  0.00    -0.047 A 
ATOM      9  C9  IND d   1      -1.066   0.694  -0.226  0.00  0.00    -0.096 A 
ATOM     10  HN1 IND d   1       1.690   1.976  -0.645  0.00  0.00     0.298 HD
ENDROOT
TORSDOF 0
ENDMDL
