MODEL 1
REMARK minimizedAffinity -0.127407387
REMARK minimizedRMSD -1
REMARK  0 active torsions:
REMARK  status: ('A' for Active; 'I' for Inactive)
ROOT
ATOM      1  N1  IND d   1      -0.010  -2.417  -3.289  0.00  0.00    -0.196 N 
ATOM      2  C2  IND d   1       0.427  -3.483  -2.552  0.00  0.00     0.054 A 
ATOM      3  C3  IND d   1       0.817  -3.076  -1.323  0.00  0.00    -0.031 A 
ATOM      4  C4  IND d   1       0.729  -0.728  -0.273  0.00  0.00     0.051 A 
ATOM      5  C5  IND d   1       0.441   0.575  -0.570  0.00  0.00    -0.031 A 
ATOM      6  C6  IND d   1      -0.024   0.954  -1.812  0.00  0.00     0.015 A 
ATOM      7  C7  IND d   1      -0.230   0.039  -2.806  0.00  0.00    -0.016 A 
ATOM      8  C8  IND d   1       0.068  -1.284  -2.510  0.00  0.00    -0.047 A 
ATOM      9  C9  IND d   1       0.581  -1.669  -1.264  0.00  0.00    -0.096 A 
ATOM     10  HN1 IND d   1      -0.287  -2.450  -4.102  0.00  0.00     0.298 HD
ENDROOT
TORSDOF 0
ENDMDL
