MODEL 1
REMARK minimizedAffinity 2.23604941
REMARK minimizedRMSD -1
REMARK  0 active torsions:
REMARK  status: ('A' for Active; 'I' for Inactive)
ROOT
ATOM      1  N1  IND d   1      -0.342   2.348   2.624  0.00  0.00    -0.196 N 
ATOM      2  C2  IND d   1       0.004   1.542   1.575  0.00  0.00     0.054 A 
ATOM      3  C3  IND d   1       0.435   2.287   0.532  0.00  0.00    -0.031 A 
ATOM      4  C4  IND d   1       0.749   4.837   0.363  0.00  0.00     0.051 A 
ATOM      5  C5  IND d   1       0.533   5.997   1.052  0.00  0.00    -0.031 A 
ATOM      6  C6  IND d   1       0.006   6.000   2.327  0.00  0.00     0.015 A 
ATOM      7  C7  IND d   1      -0.315   4.837   2.968  0.00  0.00    -0.016 A 
ATOM      8  C8  IND d   1      -0.104   3.657   2.268  0.00  0.00    -0.047 A 
ATOM      9  C9  IND d   1       0.391   3.650   0.958  0.00  0.00    -0.096 A 
ATOM     10  HN1 IND d   1      -0.656   2.081   3.379  0.00  0.00     0.298 HD
ENDROOT
TORSDOF 0
ENDMDL
