MODEL 1
REMARK minimizedAffinity 0.427972943
REMARK minimizedRMSD -1
REMARK  0 active torsions:
REMARK  status: ('A' for Active; 'I' for Inactive)
ROOT
ATOM      1  N1  IND d   1      -4.525   3.249  -2.698  0.00  0.00    -0.196 N 
ATOM      2  C2  IND d   1      -3.993   2.232  -1.955  0.00  0.00     0.054 A 
ATOM      3  C3  IND d   1      -4.122   1.056  -2.608  0.00  0.00    -0.031 A 
ATOM      4  C4  IND d   1      -5.079   0.581  -4.950  0.00  0.00     0.051 A 
ATOM      5  C5  IND d   1      -5.717   1.187  -5.997  0.00  0.00    -0.031 A 
ATOM      6  C6  IND d   1      -5.993   2.539  -5.998  0.00  0.00     0.015 A 
ATOM      7  C7  IND d   1      -5.630   3.341  -4.953  0.00  0.00    -0.016 A 
ATOM      8  C8  IND d   1      -4.988   2.728  -3.886  0.00  0.00    -0.047 A 
ATOM      9  C9  IND d   1      -4.744   1.349  -3.861  0.00  0.00    -0.096 A 
ATOM     10  HN1 IND d   1      -4.563   4.076  -2.463  0.00  0.00     0.298 HD
ENDROOT
TORSDOF 0
ENDMDL
