MODEL 1
REMARK minimizedAffinity 8.35936832
REMARK minimizedRMSD -1
REMARK  0 active torsions:
REMARK  status: ('A' for Active; 'I' for Inactive)
ROOT
ATOM      1  N1  IND d   1      -5.999   3.528  -5.673  0.00  0.00    -0.196 N 
ATOM      2  C2  IND d   1      -5.198   4.570  -5.296  0.00  0.00     0.054 A 
ATOM      3  C3  IND d   1      -4.230   4.139  -4.457  0.00  0.00    -0.031 A 
ATOM      4  C4  IND d   1      -3.710   1.750  -3.649  0.00  0.00     0.051 A 
ATOM      5  C5  IND d   1      -4.186   0.470  -3.696  0.00  0.00    -0.031 A 
ATOM      6  C6  IND d   1      -5.312   0.136  -4.421  0.00  0.00     0.015 A 
ATOM      7  C7  IND d   1      -6.000   1.073  -5.138  0.00  0.00    -0.016 A 
ATOM      8  C8  IND d   1      -5.524   2.376  -5.088  0.00  0.00    -0.047 A 
ATOM      9  C9  IND d   1      -4.406   2.728  -4.320  0.00  0.00    -0.096 A 
ATOM     10  HN1 IND d   1      -6.685   3.584  -6.189  0.00  0.00     0.298 HD
ENDROOT
TORSDOF 0
ENDMDL
