MODEL 1
REMARK minimizedAffinity 0.761645973
REMARK minimizedRMSD -1
REMARK  0 active torsions:
REMARK  status: ('A' for Active; 'I' for Inactive)
ROOT
ATOM      1  N1  IND d   1      -0.805  -2.994   5.844  0.00  0.00    -0.196 N 
ATOM      2  C2  IND d   1      -2.029  -2.465   5.542  0.00  0.00     0.054 A 
ATOM      3  C3  IND d   1      -1.984  -1.821   4.354  0.00  0.00    -0.031 A 
ATOM      4  C4  IND d   1      -0.033  -1.597   2.689  0.00  0.00     0.051 A 
ATOM      5  C5  IND d   1       1.296  -1.881   2.542  0.00  0.00    -0.031 A 
ATOM      6  C6  IND d   1       2.006  -2.567   3.506  0.00  0.00     0.015 A 
ATOM      7  C7  IND d   1       1.408  -3.006   4.653  0.00  0.00    -0.016 A 
ATOM      8  C8  IND d   1       0.060  -2.713   4.809  0.00  0.00    -0.047 A 
ATOM      9  C9  IND d   1      -0.655  -1.980   3.854  0.00  0.00    -0.096 A 
ATOM     10  HN1 IND d   1      -0.609  -3.428   6.559  0.00  0.00     0.298 HD
ENDROOT
TORSDOF 0
ENDMDL
