MODEL 1
REMARK minimizedAffinity 4.73941803
REMARK minimizedRMSD -1
REMARK  0 active torsions:
REMARK  status: ('A' for Active; 'I' for Inactive)
ROOT
ATOM      1  N1  IND d   1      -4.079   3.829  -5.694  0.00  0.00    -0.196 N 
ATOM      2  C2  IND d   1      -5.391   3.601  -6.000  0.00  0.00     0.054 A 
ATOM      3  C3  IND d   1      -6.000   2.933  -4.994  0.00  0.00    -0.031 A 
ATOM      4  C4  IND d   1      -5.059   2.201  -2.712  0.00  0.00     0.051 A 
ATOM      5  C5  IND d   1      -3.900   2.155  -1.990  0.00  0.00    -0.031 A 
ATOM      6  C6  IND d   1      -2.718   2.677  -2.473  0.00  0.00     0.015 A 
ATOM      7  C7  IND d   1      -2.653   3.278  -3.699  0.00  0.00    -0.016 A 
ATOM      8  C8  IND d   1      -3.827   3.321  -4.438  0.00  0.00    -0.047 A 
ATOM      9  C9  IND d   1      -5.020   2.755  -3.970  0.00  0.00    -0.096 A 
ATOM     10  HN1 IND d   1      -3.506   4.223  -6.200  0.00  0.00     0.298 HD
ENDROOT
TORSDOF 0
ENDMDL
