MODEL 1
REMARK minimizedAffinity 2.62499261
REMARK minimizedRMSD -1
REMARK  0 active torsions:
REMARK  status: ('A' for Active; 'I' for Inactive)
ROOT
ATOM      1  N1  IND d   1       4.656  -3.934  -2.923  0.00  0.00    -0.196 N 
ATOM      2  C2  IND d   1       4.653  -4.199  -1.582  0.00  0.00     0.054 A 
ATOM      3  C3  IND d   1       3.386  -4.212  -1.109  0.00  0.00    -0.031 A 
ATOM      4  C4  IND d   1       1.164  -3.923  -2.375  0.00  0.00     0.051 A 
ATOM      5  C5  IND d   1       0.658  -3.623  -3.609  0.00  0.00    -0.031 A 
ATOM      6  C6  IND d   1       1.476  -3.410  -4.700  0.00  0.00     0.015 A 
ATOM      7  C7  IND d   1       2.835  -3.501  -4.600  0.00  0.00    -0.016 A 
ATOM      8  C8  IND d   1       3.353  -3.797  -3.347  0.00  0.00    -0.047 A 
ATOM      9  C9  IND d   1       2.530  -3.973  -2.227  0.00  0.00    -0.096 A 
ATOM     10  HN1 IND d   1       5.355  -3.863  -3.419  0.00  0.00     0.298 HD
ENDROOT
TORSDOF 0
ENDMDL
