MODEL 1
REMARK minimizedAffinity -0.696056843
REMARK minimizedRMSD -1
REMARK  0 active torsions:
REMARK  status: ('A' for Active; 'I' for Inactive)
ROOT
ATOM      1  N1  IND d   1       0.978   2.550  -1.021  0.00  0.00    -0.196 N 
ATOM      2  C2  IND d   1       0.568   1.310  -0.618  0.00  0.00     0.054 A 
ATOM      3  C3  IND d   1       0.103   1.357   0.650  0.00  0.00    -0.031 A 
ATOM      4  C4  IND d   1      -0.173   3.381   2.217  0.00  0.00     0.051 A 
ATOM      5  C5  IND d   1       0.097   4.718   2.308  0.00  0.00    -0.031 A 
ATOM      6  C6  IND d   1       0.683   5.415   1.271  0.00  0.00     0.015 A 
ATOM      7  C7  IND d   1       1.013   4.801   0.096  0.00  0.00    -0.016 A 
ATOM      8  C8  IND d   1       0.747   3.442   0.004  0.00  0.00    -0.047 A 
ATOM      9  C9  IND d   1       0.191   2.720   1.068  0.00  0.00    -0.096 A 
ATOM     10  HN1 IND d   1       1.322   2.741  -1.785  0.00  0.00     0.298 HD
ENDROOT
TORSDOF 0
ENDMDL
