MODEL 1
REMARK minimizedAffinity 11.2419443
REMARK minimizedRMSD -1
REMARK  0 active torsions:
REMARK  status: ('A' for Active; 'I' for Inactive)
ROOT
ATOM      1  N1  IND d   1       0.980   2.618   4.576  0.00  0.00    -0.196 N 
ATOM      2  C2  IND d   1       1.001   3.984   4.539  0.00  0.00     0.054 A 
ATOM      3  C3  IND d   1       0.658   4.427   3.309  0.00  0.00    -0.031 A 
ATOM      4  C4  IND d   1      -0.074   3.090   1.235  0.00  0.00     0.051 A 
ATOM      5  C5  IND d   1      -0.213   1.812   0.770  0.00  0.00    -0.031 A 
ATOM      6  C6  IND d   1       0.041   0.715   1.568  0.00  0.00     0.015 A 
ATOM      7  C7  IND d   1       0.435   0.856   2.869  0.00  0.00    -0.016 A 
ATOM      8  C8  IND d   1       0.584   2.152   3.341  0.00  0.00    -0.047 A 
ATOM      9  C9  IND d   1       0.368   3.269   2.524  0.00  0.00    -0.096 A 
ATOM     10  HN1 IND d   1       1.182   2.131   5.255  0.00  0.00     0.298 HD
ENDROOT
TORSDOF 0
ENDMDL
