MODEL 1
REMARK minimizedAffinity 5.5348649
REMARK minimizedRMSD -1
REMARK  0 active torsions:
REMARK  status: ('A' for Active; 'I' for Inactive)
ROOT
ATOM      1  N1  IND d   1       0.787   0.219   1.990  0.00  0.00    -0.196 N 
ATOM      2  C2  IND d   1      -0.270   0.407   2.836  0.00  0.00     0.054 A 
ATOM      3  C3  IND d   1      -1.359   0.812   2.145  0.00  0.00    -0.031 A 
ATOM      4  C4  IND d   1      -1.660   1.133  -0.392  0.00  0.00     0.051 A 
ATOM      5  C5  IND d   1      -0.967   1.118  -1.569  0.00  0.00    -0.031 A 
ATOM      6  C6  IND d   1       0.373   0.792  -1.622  0.00  0.00     0.015 A 
ATOM      7  C7  IND d   1       1.070   0.458  -0.495  0.00  0.00    -0.016 A 
ATOM      8  C8  IND d   1       0.371   0.480   0.703  0.00  0.00    -0.047 A 
ATOM      9  C9  IND d   1      -0.979   0.851   0.768  0.00  0.00    -0.096 A 
ATOM     10  HN1 IND d   1       1.579  -0.021   2.223  0.00  0.00     0.298 HD
ENDROOT
TORSDOF 0
ENDMDL
