MODEL 1
REMARK minimizedAffinity -1.110726
REMARK minimizedRMSD -1
REMARK  0 active torsions:
REMARK  status: ('A' for Active; 'I' for Inactive)
ROOT
ATOM      1  C   UNL d   1       0.937   0.238  -1.712  0.00  0.00     0.020 A 
ATOM      2  C1  UNL d   1       0.373   1.371  -1.129  0.00  0.00     0.020 A 
ATOM      3  C2  UNL d   1      -0.499   1.239  -0.045  0.00  0.00     0.034 A 
ATOM      4  C3  UNL d   1      -0.809  -0.030   0.457  0.00  0.00     0.017 A 
ATOM      5  C4  UNL d   1      -0.242  -1.167  -0.129  0.00  0.00     0.017 A 
ATOM      6  C5  UNL d   1       0.630  -1.029  -1.214  0.00  0.00     0.034 A 
ATOM      7 Cl   UNL d   1      -0.577  -2.766   0.436  0.00  0.00    -0.070 Cl
ATOM      8 Cl1  UNL d   1      -1.894  -0.120   1.799  0.00  0.00    -0.070 Cl
ENDROOT
TORSDOF 0
ENDMDL
