MODEL 1
REMARK minimizedAffinity -1.33432353
REMARK minimizedRMSD -1
REMARK  0 active torsions:
REMARK  status: ('A' for Active; 'I' for Inactive)
ROOT
ATOM      1  C   UNL d   1      -0.177   1.837  -0.389  0.00  0.00     0.020 A 
ATOM      2  C1  UNL d   1      -1.129   1.156   0.369  0.00  0.00     0.020 A 
ATOM      3  C2  UNL d   1      -1.030  -0.226   0.536  0.00  0.00     0.034 A 
ATOM      4  C3  UNL d   1       0.023  -0.934  -0.055  0.00  0.00     0.017 A 
ATOM      5  C4  UNL d   1       0.978  -0.250  -0.816  0.00  0.00     0.017 A 
ATOM      6  C5  UNL d   1       0.875   1.135  -0.980  0.00  0.00     0.034 A 
ATOM      7 Cl   UNL d   1       2.306  -1.054  -1.576  0.00  0.00    -0.070 Cl
ATOM      8 Cl1  UNL d   1       0.083  -2.642   0.194  0.00  0.00    -0.070 Cl
ENDROOT
TORSDOF 0
ENDMDL
