MODEL 1
REMARK minimizedAffinity -5.32102585
REMARK minimizedRMSD -1
REMARK  0 active torsions:
REMARK  status: ('A' for Active; 'I' for Inactive)
ROOT
ATOM      1  C   UNL d   1       2.369  -0.016  -2.426  0.00  0.00     0.020 A 
ATOM      2  C1  UNL d   1       1.608   1.148  -2.535  0.00  0.00     0.020 A 
ATOM      3  C2  UNL d   1       0.482   1.323  -1.729  0.00  0.00     0.034 A 
ATOM      4  C3  UNL d   1       0.113   0.334  -0.810  0.00  0.00     0.017 A 
ATOM      5  C4  UNL d   1       0.877  -0.833  -0.701  0.00  0.00     0.017 A 
ATOM      6  C5  UNL d   1       2.004  -1.004  -1.511  0.00  0.00     0.034 A 
ATOM      7 Cl   UNL d   1       0.484  -2.098   0.409  0.00  0.00    -0.070 Cl
ATOM      8 Cl1  UNL d   1      -1.292   0.618   0.156  0.00  0.00    -0.070 Cl
ENDROOT
TORSDOF 0
ENDMDL
