MODEL 1
REMARK minimizedAffinity -4.35953712
REMARK minimizedRMSD -1
REMARK  0 active torsions:
REMARK  status: ('A' for Active; 'I' for Inactive)
ROOT
ATOM      1  C   UNL d   1      -1.120   0.267   4.058  0.00  0.00     0.020 A 
ATOM      2  C1  UNL d   1      -1.736   1.300   3.353  0.00  0.00     0.020 A 
ATOM      3  C2  UNL d   1      -1.688   1.318   1.957  0.00  0.00     0.034 A 
ATOM      4  C3  UNL d   1      -1.022   0.302   1.263  0.00  0.00     0.017 A 
ATOM      5  C4  UNL d   1      -0.403  -0.735   1.972  0.00  0.00     0.017 A 
ATOM      6  C5  UNL d   1      -0.455  -0.748   3.369  0.00  0.00     0.034 A 
ATOM      7 Cl   UNL d   1       0.437  -2.023   1.185  0.00  0.00    -0.070 Cl
ATOM      8 Cl1  UNL d   1      -1.002   0.387  -0.463  0.00  0.00    -0.070 Cl
ENDROOT
TORSDOF 0
ENDMDL
