MODEL 1
REMARK minimizedAffinity -1.36924326
REMARK minimizedRMSD -1
REMARK  0 active torsions:
REMARK  status: ('A' for Active; 'I' for Inactive)
ROOT
ATOM      1  C   UNL d   1       1.836  -1.248  -1.516  0.00  0.00     0.020 A 
ATOM      2  C1  UNL d   1       1.495  -1.905  -0.334  0.00  0.00     0.020 A 
ATOM      3  C2  UNL d   1       0.576  -1.329   0.545  0.00  0.00     0.034 A 
ATOM      4  C3  UNL d   1      -0.006  -0.092   0.244  0.00  0.00     0.017 A 
ATOM      5  C4  UNL d   1       0.336   0.566  -0.943  0.00  0.00     0.017 A 
ATOM      6  C5  UNL d   1       1.257  -0.015  -1.820  0.00  0.00     0.034 A 
ATOM      7 Cl   UNL d   1      -0.341   2.095  -1.383  0.00  0.00    -0.070 Cl
ATOM      8 Cl1  UNL d   1      -1.136   0.561   1.376  0.00  0.00    -0.070 Cl
ENDROOT
TORSDOF 0
ENDMDL
