MODEL 1
REMARK minimizedAffinity -1.00452399
REMARK minimizedRMSD -1
REMARK  0 active torsions:
REMARK  status: ('A' for Active; 'I' for Inactive)
ROOT
ATOM      1  C   UNL d   1      -0.933  -0.740   1.204  0.00  0.00     0.020 A 
ATOM      2  C1  UNL d   1      -1.375   0.546   0.897  0.00  0.00     0.020 A 
ATOM      3  C2  UNL d   1      -0.787   1.253  -0.154  0.00  0.00     0.034 A 
ATOM      4  C3  UNL d   1       0.245   0.675  -0.902  0.00  0.00     0.017 A 
ATOM      5  C4  UNL d   1       0.688  -0.616  -0.592  0.00  0.00     0.017 A 
ATOM      6  C5  UNL d   1       0.096  -1.320   0.461  0.00  0.00     0.034 A 
ATOM      7 Cl   UNL d   1       1.957  -1.396  -1.469  0.00  0.00    -0.070 Cl
ATOM      8 Cl1  UNL d   1       0.926   1.607  -2.188  0.00  0.00    -0.070 Cl
ENDROOT
TORSDOF 0
ENDMDL
