MODEL 1
REMARK minimizedAffinity -4.52108669
REMARK minimizedRMSD -1
REMARK  0 active torsions:
REMARK  status: ('A' for Active; 'I' for Inactive)
ROOT
ATOM      1  C   UNL d   1      -1.393   0.339   0.444  0.00  0.00     0.020 A 
ATOM      2  C1  UNL d   1      -0.909  -0.930   0.759  0.00  0.00     0.020 A 
ATOM      3  C2  UNL d   1       0.208  -1.437   0.092  0.00  0.00     0.034 A 
ATOM      4  C3  UNL d   1       0.844  -0.675  -0.895  0.00  0.00     0.017 A 
ATOM      5  C4  UNL d   1       0.358   0.598  -1.211  0.00  0.00     0.017 A 
ATOM      6  C5  UNL d   1      -0.761   1.101  -0.539  0.00  0.00     0.034 A 
ATOM      7 Cl   UNL d   1       1.090   1.598  -2.416  0.00  0.00    -0.070 Cl
ATOM      8 Cl1  UNL d   1       2.221  -1.365  -1.679  0.00  0.00    -0.070 Cl
ENDROOT
TORSDOF 0
ENDMDL
