MODEL 1
REMARK minimizedAffinity -1.46253216
REMARK minimizedRMSD -1
REMARK  0 active torsions:
REMARK  status: ('A' for Active; 'I' for Inactive)
ROOT
ATOM      1  C   UNL d   1       2.376  -0.540  -1.911  0.00  0.00     0.020 A 
ATOM      2  C1  UNL d   1       1.645   0.647  -1.947  0.00  0.00     0.020 A 
ATOM      3  C2  UNL d   1       0.526   0.803  -1.126  0.00  0.00     0.034 A 
ATOM      4  C3  UNL d   1       0.135  -0.230  -0.266  0.00  0.00     0.017 A 
ATOM      5  C4  UNL d   1       0.869  -1.421  -0.231  0.00  0.00     0.017 A 
ATOM      6  C5  UNL d   1       1.989  -1.571  -1.055  0.00  0.00     0.034 A 
ATOM      7 Cl   UNL d   1       0.448  -2.739   0.805  0.00  0.00    -0.070 Cl
ATOM      8 Cl1  UNL d   1      -1.259   0.032   0.721  0.00  0.00    -0.070 Cl
ENDROOT
TORSDOF 0
ENDMDL
