MODEL 1
REMARK minimizedAffinity 0.916684031
REMARK minimizedRMSD -1
REMARK  0 active torsions:
REMARK  status: ('A' for Active; 'I' for Inactive)
ROOT
ATOM      1  C   UNL d   1       1.961  -1.275  -2.030  0.00  0.00     0.020 A 
ATOM      2  C1  UNL d   1       1.497   0.038  -2.085  0.00  0.00     0.020 A 
ATOM      3  C2  UNL d   1       0.581   0.495  -1.135  0.00  0.00     0.034 A 
ATOM      4  C3  UNL d   1       0.125  -0.362  -0.127  0.00  0.00     0.017 A 
ATOM      5  C4  UNL d   1       0.592  -1.680  -0.073  0.00  0.00     0.017 A 
ATOM      6  C5  UNL d   1       1.510  -2.132  -1.026  0.00  0.00     0.034 A 
ATOM      7 Cl   UNL d   1       0.076  -2.796   1.142  0.00  0.00    -0.070 Cl
ATOM      8 Cl1  UNL d   1      -1.007   0.271   1.014  0.00  0.00    -0.070 Cl
ENDROOT
TORSDOF 0
ENDMDL
