MODEL 1
REMARK minimizedAffinity 0.469525784
REMARK minimizedRMSD -1
REMARK  0 active torsions:
REMARK  status: ('A' for Active; 'I' for Inactive)
ROOT
ATOM      1  C   UNL d   1       1.196  -1.922  -0.339  0.00  0.00     0.020 A 
ATOM      2  C1  UNL d   1       1.936  -1.477  -1.434  0.00  0.00     0.020 A 
ATOM      3  C2  UNL d   1       1.743  -0.186  -1.928  0.00  0.00     0.034 A 
ATOM      4  C3  UNL d   1       0.808   0.666  -1.328  0.00  0.00     0.017 A 
ATOM      5  C4  UNL d   1       0.067   0.218  -0.228  0.00  0.00     0.017 A 
ATOM      6  C5  UNL d   1       0.264  -1.076   0.263  0.00  0.00     0.034 A 
ATOM      7 Cl   UNL d   1      -1.105   1.211   0.566  0.00  0.00    -0.070 Cl
ATOM      8 Cl1  UNL d   1       0.622   2.250  -1.991  0.00  0.00    -0.070 Cl
ENDROOT
TORSDOF 0
ENDMDL
