MODEL 1
REMARK minimizedAffinity -2.64076018
REMARK minimizedRMSD -1
REMARK  0 active torsions:
REMARK  status: ('A' for Active; 'I' for Inactive)
ROOT
ATOM      1  C   UNL d   1       0.619  -1.633   0.208  0.00  0.00     0.020 A 
ATOM      2  C1  UNL d   1       1.676  -1.648  -0.700  0.00  0.00     0.020 A 
ATOM      3  C2  UNL d   1       1.828  -0.602  -1.613  0.00  0.00     0.034 A 
ATOM      4  C3  UNL d   1       0.920   0.464  -1.619  0.00  0.00     0.017 A 
ATOM      5  C4  UNL d   1      -0.141   0.478  -0.706  0.00  0.00     0.017 A 
ATOM      6  C5  UNL d   1      -0.287  -0.572   0.205  0.00  0.00     0.034 A 
ATOM      7 Cl   UNL d   1      -1.300   1.759  -0.653  0.00  0.00    -0.070 Cl
ATOM      8 Cl1  UNL d   1       1.168   1.724  -2.775  0.00  0.00    -0.070 Cl
ENDROOT
TORSDOF 0
ENDMDL
