MODEL 1
REMARK minimizedAffinity -3.68308091
REMARK minimizedRMSD -1
REMARK  0 active torsions:
REMARK  status: ('A' for Active; 'I' for Inactive)
ROOT
ATOM      1  C   UNL d   1       1.867  -1.684  -0.694  0.00  0.00     0.020 A 
ATOM      2  C1  UNL d   1       0.721  -1.809   0.090  0.00  0.00     0.020 A 
ATOM      3  C2  UNL d   1      -0.285  -0.844   0.014  0.00  0.00     0.034 A 
ATOM      4  C3  UNL d   1      -0.148   0.250  -0.847  0.00  0.00     0.017 A 
ATOM      5  C4  UNL d   1       1.003   0.375  -1.634  0.00  0.00     0.017 A 
ATOM      6  C5  UNL d   1       2.007  -0.595  -1.554  0.00  0.00     0.034 A 
ATOM      7 Cl   UNL d   1       1.244   1.697  -2.721  0.00  0.00    -0.070 Cl
ATOM      8 Cl1  UNL d   1      -1.432   1.406  -0.890  0.00  0.00    -0.070 Cl
ENDROOT
TORSDOF 0
ENDMDL
