MODEL 1
REMARK minimizedAffinity -2.57074761
REMARK minimizedRMSD -1
REMARK  0 active torsions:
REMARK  status: ('A' for Active; 'I' for Inactive)
ROOT
ATOM      1  C   UNL d   1      -2.237   1.595   3.024  0.00  0.00     0.020 A 
ATOM      2  C1  UNL d   1      -1.234   0.727   3.453  0.00  0.00     0.020 A 
ATOM      3  C2  UNL d   1      -0.522  -0.031   2.522  0.00  0.00     0.034 A 
ATOM      4  C3  UNL d   1      -0.812   0.077   1.157  0.00  0.00     0.017 A 
ATOM      5  C4  UNL d   1      -1.819   0.949   0.727  0.00  0.00     0.017 A 
ATOM      6  C5  UNL d   1      -2.529   1.706   1.664  0.00  0.00     0.034 A 
ATOM      7 Cl   UNL d   1      -2.234   1.137  -0.940  0.00  0.00    -0.070 Cl
ATOM      8 Cl1  UNL d   1       0.109  -0.890   0.060  0.00  0.00    -0.070 Cl
ENDROOT
TORSDOF 0
ENDMDL
