MODEL 1
REMARK minimizedAffinity -2.92746162
REMARK minimizedRMSD -1
REMARK  0 active torsions:
REMARK  status: ('A' for Active; 'I' for Inactive)
ROOT
ATOM      1  C   UNL d   1      -0.620   0.304   0.311  0.00  0.00     0.020 A 
ATOM      2  C1  UNL d   1      -0.718   1.569  -0.269  0.00  0.00     0.020 A 
ATOM      3  C2  UNL d   1       0.013   1.868  -1.420  0.00  0.00     0.034 A 
ATOM      4  C3  UNL d   1       0.846   0.902  -1.996  0.00  0.00     0.017 A 
ATOM      5  C4  UNL d   1       0.945  -0.367  -1.413  0.00  0.00     0.017 A 
ATOM      6  C5  UNL d   1       0.210  -0.661  -0.260  0.00  0.00     0.034 A 
ATOM      7 Cl   UNL d   1       1.952  -1.611  -2.065  0.00  0.00    -0.070 Cl
ATOM      8 Cl1  UNL d   1       1.722   1.340  -3.419  0.00  0.00    -0.070 Cl
ENDROOT
TORSDOF 0
ENDMDL
