MODEL 1
REMARK minimizedAffinity -2.081774
REMARK minimizedRMSD -1
REMARK  0 active torsions:
REMARK  status: ('A' for Active; 'I' for Inactive)
ROOT
ATOM      1  C   UNL d   1       1.761  -0.060  -2.929  0.00  0.00     0.020 A 
ATOM      2  C1  UNL d   1       1.064   1.091  -2.566  0.00  0.00     0.020 A 
ATOM      3  C2  UNL d   1       0.405   1.150  -1.336  0.00  0.00     0.034 A 
ATOM      4  C3  UNL d   1       0.442   0.055  -0.465  0.00  0.00     0.017 A 
ATOM      5  C4  UNL d   1       1.142  -1.100  -0.830  0.00  0.00     0.017 A 
ATOM      6  C5  UNL d   1       1.800  -1.153  -2.063  0.00  0.00     0.034 A 
ATOM      7 Cl   UNL d   1       1.232  -2.491   0.192  0.00  0.00    -0.070 Cl
ATOM      8 Cl1  UNL d   1      -0.396   0.197   1.040  0.00  0.00    -0.070 Cl
ENDROOT
TORSDOF 0
ENDMDL
