MODEL 1
REMARK minimizedAffinity -3.29156661
REMARK minimizedRMSD -1
REMARK  0 active torsions:
REMARK  status: ('A' for Active; 'I' for Inactive)
ROOT
ATOM      1  C   UNL d   1      -1.160  -0.334   1.093  0.00  0.00     0.020 A 
ATOM      2  C1  UNL d   1      -0.634  -1.621   0.990  0.00  0.00     0.020 A 
ATOM      3  C2  UNL d   1       0.263  -1.928  -0.036  0.00  0.00     0.034 A 
ATOM      4  C3  UNL d   1       0.635  -0.948  -0.962  0.00  0.00     0.017 A 
ATOM      5  C4  UNL d   1       0.106   0.344  -0.857  0.00  0.00     0.017 A 
ATOM      6  C5  UNL d   1      -0.791   0.646   0.172  0.00  0.00     0.034 A 
ATOM      7 Cl   UNL d   1       0.518   1.607  -1.963  0.00  0.00    -0.070 Cl
ATOM      8 Cl1  UNL d   1       1.749  -1.397  -2.204  0.00  0.00    -0.070 Cl
ENDROOT
TORSDOF 0
ENDMDL
