MODEL 1
REMARK minimizedAffinity -4.45468473
REMARK minimizedRMSD -1
REMARK  0 active torsions:
REMARK  status: ('A' for Active; 'I' for Inactive)
ROOT
ATOM      1  C   UNL d   1       0.747  -2.131  -0.228  0.00  0.00     0.020 A 
ATOM      2  C1  UNL d   1       1.847  -1.602  -0.902  0.00  0.00     0.020 A 
ATOM      3  C2  UNL d   1       1.810  -0.290  -1.378  0.00  0.00     0.034 A 
ATOM      4  C3  UNL d   1       0.670   0.498  -1.180  0.00  0.00     0.017 A 
ATOM      5  C4  UNL d   1      -0.434  -0.033  -0.504  0.00  0.00     0.017 A 
ATOM      6  C5  UNL d   1      -0.391  -1.348  -0.029  0.00  0.00     0.034 A 
ATOM      7 Cl   UNL d   1      -1.875   0.878  -0.222  0.00  0.00    -0.070 Cl
ATOM      8 Cl1  UNL d   1       0.694   2.113  -1.795  0.00  0.00    -0.070 Cl
ENDROOT
TORSDOF 0
ENDMDL
