MODEL 1
REMARK minimizedAffinity 1.29740798
REMARK minimizedRMSD -1
REMARK  0 active torsions:
REMARK  status: ('A' for Active; 'I' for Inactive)
ROOT
ATOM      1  C   UNL d   1      -1.627  -0.168  -0.131  0.00  0.00     0.020 A 
ATOM      2  C1  UNL d   1      -1.142   1.138  -0.185  0.00  0.00     0.020 A 
ATOM      3  C2  UNL d   1      -1.115   1.921   0.971  0.00  0.00     0.034 A 
ATOM      4  C3  UNL d   1      -1.575   1.399   2.185  0.00  0.00     0.017 A 
ATOM      5  C4  UNL d   1      -2.062   0.088   2.238  0.00  0.00     0.017 A 
ATOM      6  C5  UNL d   1      -2.086  -0.692   1.078  0.00  0.00     0.034 A 
ATOM      7 Cl   UNL d   1      -2.646  -0.625   3.700  0.00  0.00    -0.070 Cl
ATOM      8 Cl1  UNL d   1      -1.513   2.424   3.575  0.00  0.00    -0.070 Cl
ENDROOT
TORSDOF 0
ENDMDL
