MODEL 1
REMARK minimizedAffinity -2.31664705
REMARK minimizedRMSD -1
REMARK  0 active torsions:
REMARK  status: ('A' for Active; 'I' for Inactive)
ROOT
ATOM      1  C   UNL d   1       1.221  -2.091   0.112  0.00  0.00     0.020 A 
ATOM      2  C1  UNL d   1       2.225  -1.737  -0.788  0.00  0.00     0.020 A 
ATOM      3  C2  UNL d   1       2.112  -0.563  -1.535  0.00  0.00     0.034 A 
ATOM      4  C3  UNL d   1       0.992   0.262  -1.383  0.00  0.00     0.017 A 
ATOM      5  C4  UNL d   1      -0.016  -0.093  -0.479  0.00  0.00     0.017 A 
ATOM      6  C5  UNL d   1       0.103  -1.270   0.266  0.00  0.00     0.034 A 
ATOM      7 Cl   UNL d   1      -1.427   0.875  -0.237  0.00  0.00    -0.070 Cl
ATOM      8 Cl1  UNL d   1       0.918   1.700  -2.339  0.00  0.00    -0.070 Cl
ENDROOT
TORSDOF 0
ENDMDL
