MODEL 1
REMARK minimizedAffinity -1.39742804
REMARK minimizedRMSD -1
REMARK  0 active torsions:
REMARK  status: ('A' for Active; 'I' for Inactive)
ROOT
ATOM      1  C2' OXE d   1       5.992   1.986   5.294  0.00  0.00     0.078 C 
ATOM      2  C1' OXE d   1       5.845   1.219   2.597  0.00  0.00     0.078 C 
ATOM      3  C1  OXE d   1       5.880   0.128   3.638  0.00  0.00    -0.078 A 
ATOM      4  C2  OXE d   1       5.999   0.512   4.952  0.00  0.00    -0.078 A 
ATOM      5  C3  OXE d   1       5.982  -0.452   5.956  0.00  0.00     0.003 A 
ATOM      6  C4  OXE d   1       5.999  -1.814   5.631  0.00  0.00    -0.002 A 
ATOM      7  C5  OXE d   1       5.918  -2.227   4.297  0.00  0.00    -0.002 A 
ATOM      8  C6  OXE d   1       5.815  -1.271   3.293  0.00  0.00     0.003 A 
ENDROOT
TORSDOF 0
ENDMDL
