MODEL 1
REMARK minimizedAffinity -0.560765386
REMARK minimizedRMSD -1
REMARK  0 active torsions:
REMARK  status: ('A' for Active; 'I' for Inactive)
ROOT
ATOM      1  C2' OXE d   1       5.980   0.912   1.796  0.00  0.00     0.078 C 
ATOM      2  C1' OXE d   1       5.996   2.963   3.713  0.00  0.00     0.078 C 
ATOM      3  C1  OXE d   1       5.980   1.538   4.207  0.00  0.00    -0.078 A 
ATOM      4  C2  OXE d   1       5.926   0.542   3.263  0.00  0.00    -0.078 A 
ATOM      5  C3  OXE d   1       5.964  -0.791   3.663  0.00  0.00     0.003 A 
ATOM      6  C4  OXE d   1       5.903  -1.124   5.022  0.00  0.00    -0.002 A 
ATOM      7  C5  OXE d   1       5.918  -0.124   6.000  0.00  0.00    -0.002 A 
ATOM      8  C6  OXE d   1       6.000   1.208   5.611  0.00  0.00     0.003 A 
ENDROOT
TORSDOF 0
ENDMDL
