MODEL 1
REMARK minimizedAffinity 15.9984322
REMARK minimizedRMSD -1
REMARK  0 active torsions:
REMARK  status: ('A' for Active; 'I' for Inactive)
ROOT
ATOM      1  C2' OXE d   1       2.952  -0.545  -0.362  0.00  0.00     0.078 C 
ATOM      2  C1' OXE d   1       0.654  -0.620  -1.973  0.00  0.00     0.078 C 
ATOM      3  C1  OXE d   1       0.859  -1.742  -0.987  0.00  0.00    -0.078 A 
ATOM      4  C2  OXE d   1       2.009  -1.722  -0.235  0.00  0.00    -0.078 A 
ATOM      5  C3  OXE d   1       2.220  -2.705   0.728  0.00  0.00     0.003 A 
ATOM      6  C4  OXE d   1       1.348  -3.795   0.832  0.00  0.00    -0.002 A 
ATOM      7  C5  OXE d   1       0.191  -3.856   0.048  0.00  0.00    -0.002 A 
ATOM      8  C6  OXE d   1      -0.090  -2.818  -0.834  0.00  0.00     0.003 A 
ENDROOT
TORSDOF 0
ENDMDL
