MODEL 1
REMARK minimizedAffinity 3.34345007
REMARK minimizedRMSD -1
REMARK  0 active torsions:
REMARK  status: ('A' for Active; 'I' for Inactive)
ROOT
ATOM      1  C2' OXE d   1       5.999  -1.076   5.659  0.00  0.00     0.078 C 
ATOM      2  C1' OXE d   1       4.207  -1.668   3.581  0.00  0.00     0.078 C 
ATOM      3  C1  OXE d   1       4.664  -0.239   3.729  0.00  0.00    -0.078 A 
ATOM      4  C2  OXE d   1       5.505   0.051   4.777  0.00  0.00    -0.078 A 
ATOM      5  C3  OXE d   1       6.000   1.343   4.927  0.00  0.00     0.003 A 
ATOM      6  C4  OXE d   1       5.530   2.381   4.113  0.00  0.00    -0.002 A 
ATOM      7  C5  OXE d   1       4.643   2.115   3.065  0.00  0.00    -0.002 A 
ATOM      8  C6  OXE d   1       4.234   0.806   2.833  0.00  0.00     0.003 A 
ENDROOT
TORSDOF 0
ENDMDL
