MODEL 1
REMARK minimizedAffinity 12.5435743
REMARK minimizedRMSD -1
REMARK  0 active torsions:
REMARK  status: ('A' for Active; 'I' for Inactive)
ROOT
ATOM      1  C2' OXE d   1       5.999   1.497  -3.754  0.00  0.00     0.078 C 
ATOM      2  C1' OXE d   1       5.375   4.134  -3.023  0.00  0.00     0.078 C 
ATOM      3  C1  OXE d   1       4.506   3.467  -4.059  0.00  0.00    -0.078 A 
ATOM      4  C2  OXE d   1       4.847   2.193  -4.445  0.00  0.00    -0.078 A 
ATOM      5  C3  OXE d   1       4.047   1.512  -5.358  0.00  0.00     0.003 A 
ATOM      6  C4  OXE d   1       2.988   2.166  -6.000  0.00  0.00    -0.002 A 
ATOM      7  C5  OXE d   1       2.648   3.477  -5.651  0.00  0.00    -0.002 A 
ATOM      8  C6  OXE d   1       3.369   4.126  -4.654  0.00  0.00     0.003 A 
ENDROOT
TORSDOF 0
ENDMDL
