MODEL 1
REMARK minimizedAffinity -2.18584895
REMARK minimizedRMSD -1
REMARK  0 active torsions:
REMARK  status: ('A' for Active; 'I' for Inactive)
ROOT
ATOM      1  C2' OXE d   1       4.981   2.684   4.164  0.00  0.00     0.078 C 
ATOM      2  C1' OXE d   1       4.378   0.746   2.225  0.00  0.00     0.078 C 
ATOM      3  C1  OXE d   1       4.931   0.271   3.546  0.00  0.00    -0.078 A 
ATOM      4  C2  OXE d   1       5.267   1.230   4.472  0.00  0.00    -0.078 A 
ATOM      5  C3  OXE d   1       5.729   0.845   5.727  0.00  0.00     0.003 A 
ATOM      6  C4  OXE d   1       6.000  -0.502   6.000  0.00  0.00    -0.002 A 
ATOM      7  C5  OXE d   1       5.702  -1.491   5.057  0.00  0.00    -0.002 A 
ATOM      8  C6  OXE d   1       5.129  -1.126   3.844  0.00  0.00     0.003 A 
ENDROOT
TORSDOF 0
ENDMDL
