MODEL 1
REMARK minimizedAffinity -2.9236896
REMARK minimizedRMSD -1
REMARK  0 active torsions:
REMARK  status: ('A' for Active; 'I' for Inactive)
ROOT
ATOM      1  C2' OXE d   1       5.771   2.872   3.275  0.00  0.00     0.078 C 
ATOM      2  C1' OXE d   1       6.000   2.238   6.000  0.00  0.00     0.078 C 
ATOM      3  C1  OXE d   1       5.856   1.098   5.022  0.00  0.00    -0.078 A 
ATOM      4  C2  OXE d   1       5.698   1.420   3.696  0.00  0.00    -0.078 A 
ATOM      5  C3  OXE d   1       5.616   0.406   2.746  0.00  0.00     0.003 A 
ATOM      6  C4  OXE d   1       5.539  -0.934   3.144  0.00  0.00    -0.002 A 
ATOM      7  C5  OXE d   1       5.658  -1.282   4.494  0.00  0.00    -0.002 A 
ATOM      8  C6  OXE d   1       5.860  -0.282   5.439  0.00  0.00     0.003 A 
ENDROOT
TORSDOF 0
ENDMDL
