MODEL 1
REMARK minimizedAffinity 0.889592588
REMARK minimizedRMSD -1
REMARK  0 active torsions:
REMARK  status: ('A' for Active; 'I' for Inactive)
ROOT
ATOM      1  C2' OXE d   1       5.947   0.071   1.985  0.00  0.00     0.078 C 
ATOM      2  C1' OXE d   1       5.962  -1.588   4.250  0.00  0.00     0.078 C 
ATOM      3  C1  OXE d   1       5.957  -0.096   4.470  0.00  0.00    -0.078 A 
ATOM      4  C2  OXE d   1       5.996   0.708   3.356  0.00  0.00    -0.078 A 
ATOM      5  C3  OXE d   1       5.937   2.091   3.502  0.00  0.00     0.003 A 
ATOM      6  C4  OXE d   1       5.994   2.673   4.774  0.00  0.00    -0.002 A 
ATOM      7  C5  OXE d   1       5.994   1.873   5.921  0.00  0.00    -0.002 A 
ATOM      8  C6  OXE d   1       5.933   0.490   5.788  0.00  0.00     0.003 A 
ENDROOT
TORSDOF 0
ENDMDL
