MODEL 1
REMARK minimizedAffinity -3.62477779
REMARK minimizedRMSD -1
REMARK  0 active torsions:
REMARK  status: ('A' for Active; 'I' for Inactive)
ROOT
ATOM      1  C2' OXE d   1       6.000   3.168   2.543  0.00  0.00     0.078 C 
ATOM      2  C1' OXE d   1       6.000   3.997   5.225  0.00  0.00     0.078 C 
ATOM      3  C1  OXE d   1       5.885   2.519   4.945  0.00  0.00    -0.078 A 
ATOM      4  C2  OXE d   1       5.839   2.127   3.629  0.00  0.00    -0.078 A 
ATOM      5  C3  OXE d   1       5.788   0.772   3.315  0.00  0.00     0.003 A 
ATOM      6  C4  OXE d   1       5.629  -0.185   4.325  0.00  0.00    -0.002 A 
ATOM      7  C5  OXE d   1       5.633   0.197   5.671  0.00  0.00    -0.002 A 
ATOM      8  C6  OXE d   1       5.803   1.538   5.999  0.00  0.00     0.003 A 
ENDROOT
TORSDOF 0
ENDMDL
