MODEL 1
REMARK minimizedAffinity -3.58875823
REMARK minimizedRMSD -1
REMARK  0 active torsions:
REMARK  status: ('A' for Active; 'I' for Inactive)
ROOT
ATOM      1  C2' OXE d   1       5.492  -2.018   4.504  0.00  0.00     0.078 C 
ATOM      2  C1' OXE d   1       6.000  -0.487   2.206  0.00  0.00     0.078 C 
ATOM      3  C1  OXE d   1       5.858   0.241   3.519  0.00  0.00    -0.078 A 
ATOM      4  C2  OXE d   1       5.563  -0.512   4.631  0.00  0.00    -0.078 A 
ATOM      5  C3  OXE d   1       5.476   0.104   5.876  0.00  0.00     0.003 A 
ATOM      6  C4  OXE d   1       5.533   1.498   5.984  0.00  0.00    -0.002 A 
ATOM      7  C5  OXE d   1       5.793   2.287   4.858  0.00  0.00    -0.002 A 
ATOM      8  C6  OXE d   1       6.000   1.672   3.628  0.00  0.00     0.003 A 
ENDROOT
TORSDOF 0
ENDMDL
