MODEL 1
REMARK minimizedAffinity 0.424904436
REMARK minimizedRMSD -1
REMARK  0 active torsions:
REMARK  status: ('A' for Active; 'I' for Inactive)
ROOT
ATOM      1  C2' OXE d   1       5.299  -0.023   5.210  0.00  0.00     0.078 C 
ATOM      2  C1' OXE d   1       5.653   0.430   2.463  0.00  0.00     0.078 C 
ATOM      3  C1  OXE d   1       5.729   1.619   3.387  0.00  0.00    -0.078 A 
ATOM      4  C2  OXE d   1       5.508   1.395   4.725  0.00  0.00    -0.078 A 
ATOM      5  C3  OXE d   1       5.621   2.449   5.628  0.00  0.00     0.003 A 
ATOM      6  C4  OXE d   1       5.805   3.759   5.169  0.00  0.00    -0.002 A 
ATOM      7  C5  OXE d   1       5.992   4.014   3.807  0.00  0.00    -0.002 A 
ATOM      8  C6  OXE d   1       6.000   2.953   2.909  0.00  0.00     0.003 A 
ENDROOT
TORSDOF 0
ENDMDL
