MODEL 1
REMARK minimizedAffinity -1.67537904
REMARK minimizedRMSD -1
REMARK  0 active torsions:
REMARK  status: ('A' for Active; 'I' for Inactive)
ROOT
ATOM      1  C2' OXE d   1       5.996   2.055   2.198  0.00  0.00     0.078 C 
ATOM      2  C1' OXE d   1       5.968   3.552   4.572  0.00  0.00     0.078 C 
ATOM      3  C1  OXE d   1       5.974   2.049   4.689  0.00  0.00    -0.078 A 
ATOM      4  C2  OXE d   1       5.940   1.324   3.522  0.00  0.00    -0.078 A 
ATOM      5  C3  OXE d   1       5.999  -0.066   3.571  0.00  0.00     0.003 A 
ATOM      6  C4  OXE d   1       5.937  -0.734   4.800  0.00  0.00    -0.002 A 
ATOM      7  C5  OXE d   1       5.930  -0.015   6.000  0.00  0.00    -0.002 A 
ATOM      8  C6  OXE d   1       5.991   1.373   5.962  0.00  0.00     0.003 A 
ENDROOT
TORSDOF 0
ENDMDL
