MODEL 1
REMARK minimizedAffinity 6.05882692
REMARK minimizedRMSD -1
REMARK  0 active torsions:
REMARK  status: ('A' for Active; 'I' for Inactive)
ROOT
ATOM      1  C2' OXE d   1       5.999   2.875   3.271  0.00  0.00     0.078 C 
ATOM      2  C1' OXE d   1       6.000   1.698   5.820  0.00  0.00     0.078 C 
ATOM      3  C1  OXE d   1       5.800   0.795   4.628  0.00  0.00    -0.078 A 
ATOM      4  C2  OXE d   1       5.754   1.386   3.388  0.00  0.00    -0.078 A 
ATOM      5  C3  OXE d   1       5.627   0.593   2.252  0.00  0.00     0.003 A 
ATOM      6  C4  OXE d   1       5.391  -0.783   2.369  0.00  0.00    -0.002 A 
ATOM      7  C5  OXE d   1       5.394  -1.398   3.625  0.00  0.00    -0.002 A 
ATOM      8  C6  OXE d   1       5.639  -0.632   4.759  0.00  0.00     0.003 A 
ENDROOT
TORSDOF 0
ENDMDL
