MODEL 1
REMARK minimizedAffinity -0.496291071
REMARK minimizedRMSD -1
REMARK  0 active torsions:
REMARK  status: ('A' for Active; 'I' for Inactive)
ROOT
ATOM      1  C2' OXE d   1       5.916   2.392   4.216  0.00  0.00     0.078 C 
ATOM      2  C1' OXE d   1       5.983   0.640   2.024  0.00  0.00     0.078 C 
ATOM      3  C1  OXE d   1       5.964   0.037   3.406  0.00  0.00    -0.078 A 
ATOM      4  C2  OXE d   1       5.978   0.902   4.473  0.00  0.00    -0.078 A 
ATOM      5  C3  OXE d   1       5.906   0.399   5.769  0.00  0.00     0.003 A 
ATOM      6  C4  OXE d   1       5.973  -0.981   5.999  0.00  0.00    -0.002 A 
ATOM      7  C5  OXE d   1       5.999  -1.879   4.926  0.00  0.00    -0.002 A 
ATOM      8  C6  OXE d   1       5.952  -1.389   3.626  0.00  0.00     0.003 A 
ENDROOT
TORSDOF 0
ENDMDL
