MODEL 1
REMARK minimizedAffinity -1.49254417
REMARK minimizedRMSD -1
REMARK  0 active torsions:
REMARK  status: ('A' for Active; 'I' for Inactive)
ROOT
ATOM      1  C2' OXE d   1       5.937   0.623   5.959  0.00  0.00     0.078 C 
ATOM      2  C1' OXE d   1       5.915   0.703   3.153  0.00  0.00     0.078 C 
ATOM      3  C1  OXE d   1       5.951   2.016   3.894  0.00  0.00    -0.078 A 
ATOM      4  C2  OXE d   1       5.914   1.969   5.267  0.00  0.00    -0.078 A 
ATOM      5  C3  OXE d   1       5.999   3.149   6.000  0.00  0.00     0.003 A 
ATOM      6  C4  OXE d   1       5.968   4.390   5.352  0.00  0.00    -0.002 A 
ATOM      7  C5  OXE d   1       5.965   4.461   3.954  0.00  0.00    -0.002 A 
ATOM      8  C6  OXE d   1       6.000   3.286   3.212  0.00  0.00     0.003 A 
ENDROOT
TORSDOF 0
ENDMDL
