MODEL 1
REMARK minimizedAffinity 0.961706579
REMARK minimizedRMSD -1
REMARK  0 active torsions:
REMARK  status: ('A' for Active; 'I' for Inactive)
ROOT
ATOM      1  C2' OXE d   1       5.984  -0.022   5.999  0.00  0.00     0.078 C 
ATOM      2  C1' OXE d   1       5.999  -1.419   3.564  0.00  0.00     0.078 C 
ATOM      3  C1  OXE d   1       5.982   0.088   3.510  0.00  0.00    -0.078 A 
ATOM      4  C2  OXE d   1       5.928   0.763   4.706  0.00  0.00    -0.078 A 
ATOM      5  C3  OXE d   1       5.966   2.155   4.715  0.00  0.00     0.003 A 
ATOM      6  C4  OXE d   1       5.903   2.873   3.515  0.00  0.00    -0.002 A 
ATOM      7  C5  OXE d   1       5.917   2.205   2.286  0.00  0.00    -0.002 A 
ATOM      8  C6  OXE d   1       5.999   0.817   2.266  0.00  0.00     0.003 A 
ENDROOT
TORSDOF 0
ENDMDL
