MODEL 1
REMARK minimizedAffinity -0.260063648
REMARK minimizedRMSD -1
REMARK  0 active torsions:
REMARK  status: ('A' for Active; 'I' for Inactive)
ROOT
ATOM      1  C2' OXE d   1       6.000   3.561   2.547  0.00  0.00     0.078 C 
ATOM      2  C1' OXE d   1       5.998   4.335   5.245  0.00  0.00     0.078 C 
ATOM      3  C1  OXE d   1       5.969   2.858   4.936  0.00  0.00    -0.078 A 
ATOM      4  C2  OXE d   1       5.922   2.490   3.613  0.00  0.00    -0.078 A 
ATOM      5  C3  OXE d   1       5.949   1.141   3.272  0.00  0.00     0.003 A 
ATOM      6  C4  OXE d   1       5.867   0.157   4.265  0.00  0.00    -0.002 A 
ATOM      7  C5  OXE d   1       5.873   0.512   5.618  0.00  0.00    -0.002 A 
ATOM      8  C6  OXE d   1       5.966   1.853   5.971  0.00  0.00     0.003 A 
ENDROOT
TORSDOF 0
ENDMDL
