MODEL 1
REMARK minimizedAffinity 0.172814205
REMARK minimizedRMSD -1
REMARK  0 active torsions:
REMARK  status: ('A' for Active; 'I' for Inactive)
ROOT
ATOM      1  C2' OXE d   1       6.000   4.681   2.517  0.00  0.00     0.078 C 
ATOM      2  C1' OXE d   1       5.982   5.024   5.303  0.00  0.00     0.078 C 
ATOM      3  C1  OXE d   1       5.982   3.614   4.768  0.00  0.00    -0.078 A 
ATOM      4  C2  OXE d   1       5.944   3.456   3.404  0.00  0.00    -0.078 A 
ATOM      5  C3  OXE d   1       5.998   2.177   2.857  0.00  0.00     0.003 A 
ATOM      6  C4  OXE d   1       5.936   1.049   3.684  0.00  0.00    -0.002 A 
ATOM      7  C5  OXE d   1       5.934   1.188   5.076  0.00  0.00    -0.002 A 
ATOM      8  C6  OXE d   1       6.000   2.460   5.633  0.00  0.00     0.003 A 
ENDROOT
TORSDOF 0
ENDMDL
