MODEL 1
REMARK minimizedAffinity 1.36699164
REMARK minimizedRMSD -1
REMARK  0 active torsions:
REMARK  status: ('A' for Active; 'I' for Inactive)
ROOT
ATOM      1  C   UNL d   1       0.903   4.248  -5.653  0.00  0.00     0.172 C 
ATOM      2  N   UNL d   1       2.270   4.693  -5.788  0.00  0.00    -0.070 N 
ATOM      3  C1  UNL d   1       2.680   5.996  -5.883  0.00  0.00    -0.004 A 
ATOM      4  C2  UNL d   1       4.053   5.999  -5.997  0.00  0.00    -0.047 A 
ATOM      5  C3  UNL d   1       4.484   4.651  -5.971  0.00  0.00    -0.047 A 
ATOM      6  C4  UNL d   1       3.359   3.863  -5.840  0.00  0.00    -0.004 A 
ENDROOT
TORSDOF 0
ENDMDL
