MODEL 1
REMARK minimizedAffinity 7.91218185
REMARK minimizedRMSD -1
REMARK  0 active torsions:
REMARK  status: ('A' for Active; 'I' for Inactive)
ROOT
ATOM      1  C   UNL d   1       2.207  -4.196   0.210  0.00  0.00     0.172 C 
ATOM      2  N   UNL d   1       1.756  -3.038   0.945  0.00  0.00    -0.070 N 
ATOM      3  C1  UNL d   1       0.452  -2.734   1.233  0.00  0.00    -0.004 A 
ATOM      4  C2  UNL d   1       0.442  -1.555   1.946  0.00  0.00    -0.047 A 
ATOM      5  C3  UNL d   1       1.786  -1.136   2.092  0.00  0.00    -0.047 A 
ATOM      6  C4  UNL d   1       2.578  -2.072   1.462  0.00  0.00    -0.004 A 
ENDROOT
TORSDOF 0
ENDMDL
