MODEL 1
REMARK minimizedAffinity 2.1953752
REMARK minimizedRMSD -1
REMARK  0 active torsions:
REMARK  status: ('A' for Active; 'I' for Inactive)
ROOT
ATOM      1  C   UNL d   1       0.046  -1.210   2.452  0.00  0.00     0.172 C 
ATOM      2  N   UNL d   1       1.160  -1.878   1.822  0.00  0.00    -0.070 N 
ATOM      3  C1  UNL d   1       2.395  -2.070   2.381  0.00  0.00    -0.004 A 
ATOM      4  C2  UNL d   1       3.173  -2.745   1.465  0.00  0.00    -0.047 A 
ATOM      5  C3  UNL d   1       2.378  -2.966   0.315  0.00  0.00    -0.047 A 
ATOM      6  C4  UNL d   1       1.137  -2.419   0.563  0.00  0.00    -0.004 A 
ENDROOT
TORSDOF 0
ENDMDL
