MODEL 1
REMARK minimizedAffinity 8.158288
REMARK minimizedRMSD -1
REMARK  0 active torsions:
REMARK  status: ('A' for Active; 'I' for Inactive)
ROOT
ATOM      1  C   UNL d   1       2.760  -4.359   0.082  0.00  0.00     0.172 C 
ATOM      2  N   UNL d   1       2.471  -3.113   0.752  0.00  0.00    -0.070 N 
ATOM      3  C1  UNL d   1       3.390  -2.302   1.361  0.00  0.00    -0.004 A 
ATOM      4  C2  UNL d   1       2.718  -1.216   1.878  0.00  0.00    -0.047 A 
ATOM      5  C3  UNL d   1       1.346  -1.381   1.570  0.00  0.00    -0.047 A 
ATOM      6  C4  UNL d   1       1.222  -2.564   0.872  0.00  0.00    -0.004 A 
ENDROOT
TORSDOF 0
ENDMDL
