MODEL 1
REMARK minimizedAffinity -6.37782669
REMARK minimizedRMSD -1
REMARK  1 active torsions:
REMARK  status: ('A' for Active; 'I' for Inactive)
REMARK    1  A    between atoms: C1_2  and  C2_3 
ROOT
ATOM      1  C2  UNL d   1       0.573  -0.745   0.865  0.00  0.00    -0.077 A 
ATOM      2  C3  UNL d   1       1.554  -1.427   0.131  0.00  0.00     0.002 A 
ATOM      3  C4  UNL d   1       2.628  -2.036   0.784  0.00  0.00     0.002 A 
ATOM      4  C5  UNL d   1       2.728  -1.974   2.172  0.00  0.00    -0.004 A 
ATOM      5  C6  UNL d   1       1.758  -1.297   2.910  0.00  0.00     0.002 A 
ATOM      6  C7  UNL d   1       0.685  -0.686   2.260  0.00  0.00     0.002 A 
ENDROOT
BRANCH   1   7
ATOM      7  C1  UNL d   1      -0.611  -0.129   0.167  0.00  0.00     0.055 C 
ATOM      8  C   UNL d   1      -1.912  -0.471   0.879  0.00  0.00     0.019 C 
ENDBRANCH   1   7
TORSDOF 1
ENDMDL
