MODEL 1
REMARK minimizedAffinity -4.9246521
REMARK minimizedRMSD -1
REMARK  1 active torsions:
REMARK  status: ('A' for Active; 'I' for Inactive)
REMARK    1  A    between atoms: C1_2  and  C2_3 
ROOT
ATOM      1  C2  UNL d   1       0.453  -0.393   0.077  0.00  0.00    -0.077 A 
ATOM      2  C3  UNL d   1       1.685  -1.062   0.048  0.00  0.00     0.002 A 
ATOM      3  C4  UNL d   1       2.212  -1.622   1.214  0.00  0.00     0.002 A 
ATOM      4  C5  UNL d   1       1.513  -1.522   2.415  0.00  0.00    -0.004 A 
ATOM      5  C6  UNL d   1       0.288  -0.857   2.454  0.00  0.00     0.002 A 
ATOM      6  C7  UNL d   1      -0.240  -0.295   1.290  0.00  0.00     0.002 A 
ENDROOT
BRANCH   1   7
ATOM      7  C1  UNL d   1      -0.140   0.169  -1.188  0.00  0.00     0.055 C 
ATOM      8  C   UNL d   1       0.330   1.595  -1.435  0.00  0.00     0.019 C 
ENDBRANCH   1   7
TORSDOF 1
ENDMDL
