MODEL 1
REMARK minimizedAffinity -5.14079714
REMARK minimizedRMSD -1
REMARK  1 active torsions:
REMARK  status: ('A' for Active; 'I' for Inactive)
REMARK    1  A    between atoms: C1_2  and  C2_3 
ROOT
ATOM      1  C2  UNL d   1       1.155  -0.554   0.187  0.00  0.00    -0.077 A 
ATOM      2  C3  UNL d   1       2.199  -1.488   0.127  0.00  0.00     0.002 A 
ATOM      3  C4  UNL d   1       2.751  -2.006   1.301  0.00  0.00     0.002 A 
ATOM      4  C5  UNL d   1       2.264  -1.598   2.541  0.00  0.00    -0.004 A 
ATOM      5  C6  UNL d   1       1.228  -0.668   2.610  0.00  0.00     0.002 A 
ATOM      6  C7  UNL d   1       0.675  -0.148   1.439  0.00  0.00     0.002 A 
ENDROOT
BRANCH   1   7
ATOM      7  C1  UNL d   1       0.525  -0.031  -1.078  0.00  0.00     0.055 C 
ATOM      8  C   UNL d   1      -0.958   0.247  -0.883  0.00  0.00     0.019 C 
ENDBRANCH   1   7
TORSDOF 1
ENDMDL
