MODEL 1
REMARK minimizedAffinity -5.71853685
REMARK minimizedRMSD -1
REMARK  1 active torsions:
REMARK  status: ('A' for Active; 'I' for Inactive)
REMARK    1  A    between atoms: C1_2  and  C2_3 
ROOT
ATOM      1  C2  UNL d   1       0.585  -0.054   0.900  0.00  0.00    -0.077 A 
ATOM      2  C3  UNL d   1       1.535  -0.907   0.320  0.00  0.00     0.002 A 
ATOM      3  C4  UNL d   1       2.430  -1.618   1.123  0.00  0.00     0.002 A 
ATOM      4  C5  UNL d   1       2.380  -1.486   2.509  0.00  0.00    -0.004 A 
ATOM      5  C6  UNL d   1       1.440  -0.640   3.095  0.00  0.00     0.002 A 
ATOM      6  C7  UNL d   1       0.546   0.073   2.294  0.00  0.00     0.002 A 
ENDROOT
BRANCH   1   7
ATOM      7  C1  UNL d   1      -0.412   0.676   0.038  0.00  0.00     0.055 C 
ATOM      8  C   UNL d   1      -0.346   0.203  -1.407  0.00  0.00     0.019 C 
ENDBRANCH   1   7
TORSDOF 1
ENDMDL
