MODEL 1
REMARK minimizedAffinity -5.55405664
REMARK minimizedRMSD -1
REMARK  1 active torsions:
REMARK  status: ('A' for Active; 'I' for Inactive)
REMARK    1  A    between atoms: C1_2  and  C2_3 
ROOT
ATOM      1  C2  UNL d   1       0.858  -0.643   0.007  0.00  0.00    -0.077 A 
ATOM      2  C3  UNL d   1       2.030  -1.398  -0.144  0.00  0.00     0.002 A 
ATOM      3  C4  UNL d   1       2.677  -1.928   0.974  0.00  0.00     0.002 A 
ATOM      4  C5  UNL d   1       2.158  -1.712   2.249  0.00  0.00    -0.004 A 
ATOM      5  C6  UNL d   1       0.994  -0.961   2.409  0.00  0.00     0.002 A 
ATOM      6  C7  UNL d   1       0.347  -0.429   1.293  0.00  0.00     0.002 A 
ENDROOT
BRANCH   1   7
ATOM      7  C1  UNL d   1       0.131  -0.112  -1.201  0.00  0.00     0.055 C 
ATOM      8  C   UNL d   1      -1.377  -0.152  -1.002  0.00  0.00     0.019 C 
ENDBRANCH   1   7
TORSDOF 1
ENDMDL
