MODEL 1
REMARK minimizedAffinity -5.97426653
REMARK minimizedRMSD -1
REMARK  1 active torsions:
REMARK  status: ('A' for Active; 'I' for Inactive)
REMARK    1  A    between atoms: C1_2  and  C2_3 
ROOT
ATOM      1  C2  UNL d   1       0.436  -0.568   0.599  0.00  0.00    -0.077 A 
ATOM      2  C3  UNL d   1       1.557  -1.407   0.532  0.00  0.00     0.002 A 
ATOM      3  C4  UNL d   1       2.294  -1.694   1.683  0.00  0.00     0.002 A 
ATOM      4  C5  UNL d   1       1.915  -1.150   2.908  0.00  0.00    -0.004 A 
ATOM      5  C6  UNL d   1       0.803  -0.313   2.985  0.00  0.00     0.002 A 
ATOM      6  C7  UNL d   1       0.066  -0.024   1.836  0.00  0.00     0.002 A 
ENDROOT
BRANCH   1   7
ATOM      7  C1  UNL d   1      -0.390  -0.297  -0.632  0.00  0.00     0.055 C 
ATOM      8  C   UNL d   1      -0.273   1.156  -1.067  0.00  0.00     0.019 C 
ENDBRANCH   1   7
TORSDOF 1
ENDMDL
