MODEL 1
REMARK minimizedAffinity -4.73259258
REMARK minimizedRMSD -1
REMARK  1 active torsions:
REMARK  status: ('A' for Active; 'I' for Inactive)
REMARK    1  A    between atoms: C1_2  and  C2_3 
ROOT
ATOM      1  C2  UNL d   1      -0.124  -0.129  -0.339  0.00  0.00    -0.077 A 
ATOM      2  C3  UNL d   1      -1.498  -0.070  -0.070  0.00  0.00     0.002 A 
ATOM      3  C4  UNL d   1      -1.974   0.668   1.016  0.00  0.00     0.002 A 
ATOM      4  C5  UNL d   1      -1.083   1.355   1.837  0.00  0.00    -0.004 A 
ATOM      5  C6  UNL d   1       0.286   1.300   1.579  0.00  0.00     0.002 A 
ATOM      6  C7  UNL d   1       0.763   0.562   0.496  0.00  0.00     0.002 A 
ENDROOT
BRANCH   1   7
ATOM      7  C1  UNL d   1       0.387  -0.884  -1.538  0.00  0.00     0.055 C 
ATOM      8  C   UNL d   1       1.189   0.021  -2.462  0.00  0.00     0.019 C 
ENDBRANCH   1   7
TORSDOF 1
ENDMDL
