MODEL 1
REMARK minimizedAffinity -2.1740799
REMARK minimizedRMSD -1
REMARK  1 active torsions:
REMARK  status: ('A' for Active; 'I' for Inactive)
REMARK    1  A    between atoms: C1_2  and  C2_3 
ROOT
ATOM      1  C2  UNL d   1      -0.615   0.319   1.283  0.00  0.00    -0.077 A 
ATOM      2  C3  UNL d   1      -1.485   0.021   0.224  0.00  0.00     0.002 A 
ATOM      3  C4  UNL d   1      -0.991  -0.524  -0.963  0.00  0.00     0.002 A 
ATOM      4  C5  UNL d   1       0.372  -0.780  -1.101  0.00  0.00    -0.004 A 
ATOM      5  C6  UNL d   1       1.244  -0.485  -0.054  0.00  0.00     0.002 A 
ATOM      6  C7  UNL d   1       0.753   0.061   1.133  0.00  0.00     0.002 A 
ENDROOT
BRANCH   1   7
ATOM      7  C1  UNL d   1      -1.152   0.861   2.582  0.00  0.00     0.055 C 
ATOM      8  C   UNL d   1      -2.065  -0.146   3.267  0.00  0.00     0.019 C 
ENDBRANCH   1   7
TORSDOF 1
ENDMDL
