MODEL 1
REMARK minimizedAffinity -5.21644163
REMARK minimizedRMSD -1
REMARK  1 active torsions:
REMARK  status: ('A' for Active; 'I' for Inactive)
REMARK    1  A    between atoms: C1_2  and  C2_3 
ROOT
ATOM      1  C2  UNL d   1      -0.075   0.415   0.642  0.00  0.00    -0.077 A 
ATOM      2  C3  UNL d   1       0.840   1.025   1.511  0.00  0.00     0.002 A 
ATOM      3  C4  UNL d   1       0.418   1.519   2.747  0.00  0.00     0.002 A 
ATOM      4  C5  UNL d   1      -0.917   1.404   3.127  0.00  0.00    -0.004 A 
ATOM      5  C6  UNL d   1      -1.836   0.800   2.268  0.00  0.00     0.002 A 
ATOM      6  C7  UNL d   1      -1.416   0.307   1.032  0.00  0.00     0.002 A 
ENDROOT
BRANCH   1   7
ATOM      7  C1  UNL d   1       0.387  -0.163  -0.671  0.00  0.00     0.055 C 
ATOM      8  C   UNL d   1       1.476  -1.205  -0.464  0.00  0.00     0.019 C 
ENDBRANCH   1   7
TORSDOF 1
ENDMDL
