MODEL 1
REMARK minimizedAffinity -3.45522976
REMARK minimizedRMSD -1
REMARK  1 active torsions:
REMARK  status: ('A' for Active; 'I' for Inactive)
REMARK    1  A    between atoms: C1_2  and  C2_3 
ROOT
ATOM      1  C2  UNL d   1      -0.888   0.492   0.945  0.00  0.00    -0.077 A 
ATOM      2  C3  UNL d   1      -1.516   0.069  -0.235  0.00  0.00     0.002 A 
ATOM      3  C4  UNL d   1      -0.759  -0.410  -1.305  0.00  0.00     0.002 A 
ATOM      4  C5  UNL d   1       0.629  -0.475  -1.206  0.00  0.00    -0.004 A 
ATOM      5  C6  UNL d   1       1.264  -0.054  -0.038  0.00  0.00     0.002 A 
ATOM      6  C7  UNL d   1       0.509   0.426   1.033  0.00  0.00     0.002 A 
ENDROOT
BRANCH   1   7
ATOM      7  C1  UNL d   1      -1.706   0.964   2.119  0.00  0.00     0.055 C 
ATOM      8  C   UNL d   1      -0.949   1.996   2.942  0.00  0.00     0.019 C 
ENDBRANCH   1   7
TORSDOF 1
ENDMDL
