MODEL 1
REMARK minimizedAffinity -5.05341339
REMARK minimizedRMSD -1
REMARK  1 active torsions:
REMARK  status: ('A' for Active; 'I' for Inactive)
REMARK    1  A    between atoms: C1_2  and  C2_3 
ROOT
ATOM      1  C2  UNL d   1      -0.065   0.095   0.164  0.00  0.00    -0.077 A 
ATOM      2  C3  UNL d   1      -1.454   0.088   0.356  0.00  0.00     0.002 A 
ATOM      3  C4  UNL d   1      -2.016   0.711   1.472  0.00  0.00     0.002 A 
ATOM      4  C5  UNL d   1      -1.197   1.349   2.402  0.00  0.00    -0.004 A 
ATOM      5  C6  UNL d   1       0.186   1.359   2.220  0.00  0.00     0.002 A 
ATOM      6  C7  UNL d   1       0.749   0.736   1.106  0.00  0.00     0.002 A 
ENDROOT
BRANCH   1   7
ATOM      7  C1  UNL d   1       0.539  -0.534  -1.065  0.00  0.00     0.055 C 
ATOM      8  C   UNL d   1       1.233   0.505  -1.934  0.00  0.00     0.019 C 
ENDBRANCH   1   7
TORSDOF 1
ENDMDL
