MODEL 1
REMARK minimizedAffinity -4.45706463
REMARK minimizedRMSD -1
REMARK  1 active torsions:
REMARK  status: ('A' for Active; 'I' for Inactive)
REMARK    1  A    between atoms: C1_2  and  C2_3 
ROOT
ATOM      1  C2  UNL d   1       0.189   0.499   1.594  0.00  0.00    -0.077 A 
ATOM      2  C3  UNL d   1      -0.698   0.308   0.526  0.00  0.00     0.002 A 
ATOM      3  C4  UNL d   1      -0.373  -0.564  -0.515  0.00  0.00     0.002 A 
ATOM      4  C5  UNL d   1       0.836  -1.255  -0.495  0.00  0.00    -0.004 A 
ATOM      5  C6  UNL d   1       1.727  -1.070   0.562  0.00  0.00     0.002 A 
ATOM      6  C7  UNL d   1       1.404  -0.198   1.602  0.00  0.00     0.002 A 
ENDROOT
BRANCH   1   7
ATOM      7  C1  UNL d   1      -0.181   1.402   2.742  0.00  0.00     0.055 C 
ATOM      8  C   UNL d   1      -1.289   0.794   3.589  0.00  0.00     0.019 C 
ENDBRANCH   1   7
TORSDOF 1
ENDMDL
