MODEL 1
REMARK minimizedAffinity 21.0501728
REMARK minimizedRMSD -1
REMARK  0 active torsions:
REMARK  status: ('A' for Active; 'I' for Inactive)
ROOT
ATOM      1  C   UNL d   1      -3.026   0.841  -4.712  0.00  0.00     0.124 A 
ATOM      2  C1  UNL d   1      -3.830   0.336  -3.699  0.00  0.00     0.062 A 
ATOM      3  C2  UNL d   1      -4.680   1.183  -2.992  0.00  0.00     0.162 A 
ATOM      4  C3  UNL d   1      -4.731   2.543  -3.297  0.00  0.00    -0.034 A 
ATOM      5  C4  UNL d   1      -3.918   3.043  -4.316  0.00  0.00     0.162 A 
ATOM      6  C5  UNL d   1      -3.071   2.194  -5.019  0.00  0.00     0.062 A 
ATOM      7  F   UNL d   1      -2.295   2.683  -5.997  0.00  0.00    -0.097 F 
ATOM      8  F1  UNL d   1      -3.942   4.346  -4.634  0.00  0.00    -0.096 F 
ATOM      9  I   UNL d   1      -6.000   3.812  -2.243  0.00  0.00    -0.060 I 
ATOM     10  F2  UNL d   1      -5.445   0.668  -2.019  0.00  0.00    -0.096 F 
ATOM     11  F3  UNL d   1      -3.788  -0.970  -3.399  0.00  0.00    -0.097 F 
ATOM     12  F4  UNL d   1      -2.209   0.025  -5.389  0.00  0.00    -0.092 F 
ENDROOT
TORSDOF 0
ENDMDL
