MODEL 1
REMARK minimizedAffinity 14.4283886
REMARK minimizedRMSD -1
REMARK  0 active torsions:
REMARK  status: ('A' for Active; 'I' for Inactive)
ROOT
ATOM      1  C   UNL d   1      -3.284   2.479   2.219  0.00  0.00     0.124 A 
ATOM      2  C1  UNL d   1      -4.151   1.557   1.649  0.00  0.00     0.062 A 
ATOM      3  C2  UNL d   1      -3.730   0.763   0.586  0.00  0.00     0.162 A 
ATOM      4  C3  UNL d   1      -2.434   0.888   0.086  0.00  0.00    -0.034 A 
ATOM      5  C4  UNL d   1      -1.568   1.818   0.663  0.00  0.00     0.162 A 
ATOM      6  C5  UNL d   1      -1.994   2.609   1.725  0.00  0.00     0.062 A 
ATOM      7  F   UNL d   1      -1.155   3.499   2.274  0.00  0.00    -0.097 F 
ATOM      8  F1  UNL d   1      -0.315   1.964   0.206  0.00  0.00    -0.096 F 
ATOM      9  I   UNL d   1      -1.800  -0.297  -1.504  0.00  0.00    -0.060 I 
ATOM     10  F2  UNL d   1      -4.589  -0.119   0.055  0.00  0.00    -0.096 F 
ATOM     11  F3  UNL d   1      -5.399   1.430   2.124  0.00  0.00    -0.097 F 
ATOM     12  F4  UNL d   1      -3.693   3.242   3.241  0.00  0.00    -0.092 F 
ENDROOT
TORSDOF 0
ENDMDL
