MODEL 1
REMARK minimizedAffinity 20.385294
REMARK minimizedRMSD -1
REMARK  0 active torsions:
REMARK  status: ('A' for Active; 'I' for Inactive)
ROOT
ATOM      1  C   UNL d   1       1.658  -2.138  -0.501  0.00  0.00     0.124 A 
ATOM      2  C1  UNL d   1       2.377  -2.945  -1.372  0.00  0.00     0.062 A 
ATOM      3  C2  UNL d   1       3.457  -2.423  -2.079  0.00  0.00     0.162 A 
ATOM      4  C3  UNL d   1       3.824  -1.087  -1.917  0.00  0.00    -0.034 A 
ATOM      5  C4  UNL d   1       3.095  -0.282  -1.041  0.00  0.00     0.162 A 
ATOM      6  C5  UNL d   1       2.017  -0.808  -0.337  0.00  0.00     0.062 A 
ATOM      7  F   UNL d   1       1.323  -0.027   0.504  0.00  0.00    -0.097 F 
ATOM      8  F1  UNL d   1       3.421   1.007  -0.862  0.00  0.00    -0.096 F 
ATOM      9  I   UNL d   1       5.438  -0.304  -2.973  0.00  0.00    -0.060 I 
ATOM     10  F2  UNL d   1       4.134  -3.226  -2.913  0.00  0.00    -0.096 F 
ATOM     11  F3  UNL d   1       2.031  -4.230  -1.533  0.00  0.00    -0.097 F 
ATOM     12  F4  UNL d   1       0.619  -2.642   0.177  0.00  0.00    -0.092 F 
ENDROOT
TORSDOF 0
ENDMDL
