MODEL 1
REMARK minimizedAffinity 11.8392124
REMARK minimizedRMSD -1
REMARK  0 active torsions:
REMARK  status: ('A' for Active; 'I' for Inactive)
ROOT
ATOM      1  C   UNL d   1      -4.347   0.237  -5.074  0.00  0.00     0.124 A 
ATOM      2  C1  UNL d   1      -3.356   1.209  -5.076  0.00  0.00     0.062 A 
ATOM      3  C2  UNL d   1      -2.345   1.179  -4.120  0.00  0.00     0.162 A 
ATOM      4  C3  UNL d   1      -2.318   0.173  -3.154  0.00  0.00    -0.034 A 
ATOM      5  C4  UNL d   1      -3.319  -0.800  -3.158  0.00  0.00     0.162 A 
ATOM      6  C5  UNL d   1      -4.328  -0.766  -4.115  0.00  0.00     0.062 A 
ATOM      7  F   UNL d   1      -5.284  -1.706  -4.112  0.00  0.00    -0.097 F 
ATOM      8  F1  UNL d   1      -3.324  -1.782  -2.244  0.00  0.00    -0.096 F 
ATOM      9  I   UNL d   1      -0.807   0.125  -1.724  0.00  0.00    -0.060 I 
ATOM     10  F2  UNL d   1      -1.400   2.131  -4.146  0.00  0.00    -0.096 F 
ATOM     11  F3  UNL d   1      -3.373   2.180  -6.000  0.00  0.00    -0.097 F 
ATOM     12  F4  UNL d   1      -5.320   0.269  -5.994  0.00  0.00    -0.092 F 
ENDROOT
TORSDOF 0
ENDMDL
