MODEL 1
REMARK minimizedAffinity 22.0774422
REMARK minimizedRMSD -1
REMARK  0 active torsions:
REMARK  status: ('A' for Active; 'I' for Inactive)
ROOT
ATOM      1  C   UNL d   1      -3.161   0.115  -3.408  0.00  0.00     0.124 A 
ATOM      2  C1  UNL d   1      -4.196   0.473  -2.555  0.00  0.00     0.062 A 
ATOM      3  C2  UNL d   1      -5.007   1.563  -2.858  0.00  0.00     0.162 A 
ATOM      4  C3  UNL d   1      -4.788   2.302  -4.020  0.00  0.00    -0.034 A 
ATOM      5  C4  UNL d   1      -3.745   1.936  -4.873  0.00  0.00     0.162 A 
ATOM      6  C5  UNL d   1      -2.937   0.847  -4.566  0.00  0.00     0.062 A 
ATOM      7  F   UNL d   1      -1.938   0.502  -5.392  0.00  0.00    -0.097 F 
ATOM      8  F1  UNL d   1      -3.507   2.625  -5.999  0.00  0.00    -0.096 F 
ATOM      9  I   UNL d   1      -6.000   3.932  -4.476  0.00  0.00    -0.060 I 
ATOM     10  F2  UNL d   1      -6.000   1.886  -2.015  0.00  0.00    -0.096 F 
ATOM     11  F3  UNL d   1      -4.414  -0.232  -1.436  0.00  0.00    -0.097 F 
ATOM     12  F4  UNL d   1      -2.381  -0.933  -3.114  0.00  0.00    -0.092 F 
ENDROOT
TORSDOF 0
ENDMDL
