MODEL 1
REMARK minimizedAffinity 22.1618977
REMARK minimizedRMSD -1
REMARK  0 active torsions:
REMARK  status: ('A' for Active; 'I' for Inactive)
ROOT
ATOM      1  C   UNL d   1       2.711  -1.571  -0.259  0.00  0.00     0.124 A 
ATOM      2  C1  UNL d   1       2.293  -1.578  -1.582  0.00  0.00     0.062 A 
ATOM      3  C2  UNL d   1       1.200  -2.348  -1.968  0.00  0.00     0.162 A 
ATOM      4  C3  UNL d   1       0.515  -3.118  -1.027  0.00  0.00    -0.034 A 
ATOM      5  C4  UNL d   1       0.941  -3.107   0.302  0.00  0.00     0.162 A 
ATOM      6  C5  UNL d   1       2.035  -2.335   0.682  0.00  0.00     0.062 A 
ATOM      7  F   UNL d   1       2.437  -2.330   1.961  0.00  0.00    -0.097 F 
ATOM      8  F1  UNL d   1       0.306  -3.835   1.232  0.00  0.00    -0.096 F 
ATOM      9  I   UNL d   1      -1.121  -4.271  -1.599  0.00  0.00    -0.060 I 
ATOM     10  F2  UNL d   1       0.818  -2.336  -3.253  0.00  0.00    -0.096 F 
ATOM     11  F3  UNL d   1       2.945  -0.841  -2.494  0.00  0.00    -0.097 F 
ATOM     12  F4  UNL d   1       3.764  -0.830   0.109  0.00  0.00    -0.092 F 
ENDROOT
TORSDOF 0
ENDMDL
