MODEL 1
REMARK minimizedAffinity 19.523283
REMARK minimizedRMSD -1
REMARK  0 active torsions:
REMARK  status: ('A' for Active; 'I' for Inactive)
ROOT
ATOM      1  C   UNL d   1      -0.796   2.045   0.439  0.00  0.00     0.124 A 
ATOM      2  C1  UNL d   1       0.314   2.212   1.257  0.00  0.00     0.062 A 
ATOM      3  C2  UNL d   1       1.510   1.568   0.952  0.00  0.00     0.162 A 
ATOM      4  C3  UNL d   1       1.604   0.753  -0.176  0.00  0.00    -0.034 A 
ATOM      5  C4  UNL d   1       0.483   0.590  -0.993  0.00  0.00     0.162 A 
ATOM      6  C5  UNL d   1      -0.710   1.235  -0.684  0.00  0.00     0.062 A 
ATOM      7  F   UNL d   1      -1.781   1.073  -1.475  0.00  0.00    -0.097 F 
ATOM      8  F1  UNL d   1       0.538  -0.186  -2.085  0.00  0.00    -0.096 F 
ATOM      9  I   UNL d   1       3.391  -0.210  -0.635  0.00  0.00    -0.060 I 
ATOM     10  F2  UNL d   1       2.566   1.747   1.760  0.00  0.00    -0.096 F 
ATOM     11  F3  UNL d   1       0.233   2.993   2.343  0.00  0.00    -0.097 F 
ATOM     12  F4  UNL d   1      -1.946   2.664   0.735  0.00  0.00    -0.092 F 
ENDROOT
TORSDOF 0
ENDMDL
