MODEL 1
REMARK minimizedAffinity 16.9960651
REMARK minimizedRMSD -1
REMARK  0 active torsions:
REMARK  status: ('A' for Active; 'I' for Inactive)
ROOT
ATOM      1  C   UNL d   1      -0.119   1.963   1.280  0.00  0.00     0.124 A 
ATOM      2  C1  UNL d   1      -0.597   3.266   1.281  0.00  0.00     0.062 A 
ATOM      3  C2  UNL d   1       0.100   4.267   1.953  0.00  0.00     0.162 A 
ATOM      4  C3  UNL d   1       1.283   3.969   2.629  0.00  0.00    -0.034 A 
ATOM      5  C4  UNL d   1       1.757   2.655   2.624  0.00  0.00     0.162 A 
ATOM      6  C5  UNL d   1       1.057   1.659   1.952  0.00  0.00     0.062 A 
ATOM      7  F   UNL d   1       1.521   0.401   1.952  0.00  0.00    -0.097 F 
ATOM      8  F1  UNL d   1       2.891   2.334   3.264  0.00  0.00    -0.096 F 
ATOM      9  I   UNL d   1       2.327   5.462   3.634  0.00  0.00    -0.060 I 
ATOM     10  F2  UNL d   1      -0.386   5.517   1.937  0.00  0.00    -0.096 F 
ATOM     11  F3  UNL d   1      -1.733   3.562   0.634  0.00  0.00    -0.097 F 
ATOM     12  F4  UNL d   1      -0.791   1.002   0.634  0.00  0.00    -0.092 F 
ENDROOT
TORSDOF 0
ENDMDL
