MODEL 1
REMARK minimizedAffinity 12.1811533
REMARK minimizedRMSD -1
REMARK  1 active torsions:
REMARK  status: ('A' for Active; 'I' for Inactive)
REMARK    1  A    between atoms: C1_2  and  C2_3 
ROOT
ATOM      1  C2  UNL d   1       0.223   3.291   1.173  0.00  0.00    -0.081 A 
ATOM      2  C3  UNL d   1       1.532   2.897   1.478  0.00  0.00     0.006 A 
ATOM      3  C4  UNL d   1       1.795   2.138   2.620  0.00  0.00     0.002 A 
ATOM      4  C5  UNL d   1       0.754   1.754   3.473  0.00  0.00    -0.080 A 
ATOM      5  C6  UNL d   1       1.018   0.914   4.687  0.00  0.00     0.076 C 
ATOM      6  C7  UNL d   1      -0.551   2.163   3.178  0.00  0.00     0.002 A 
ATOM      7  C8  UNL d   1      -0.815   2.923   2.036  0.00  0.00     0.006 A 
ENDROOT
BRANCH   1   8
ATOM      8  C1  UNL d   1      -0.072   4.055  -0.093  0.00  0.00     0.054 C 
ATOM      9  C   UNL d   1       1.029   5.059  -0.403  0.00  0.00     0.018 C 
ENDBRANCH   1   8
TORSDOF 1
ENDMDL
