MODEL 1
REMARK minimizedAffinity 11.6142502
REMARK minimizedRMSD -1
REMARK  1 active torsions:
REMARK  status: ('A' for Active; 'I' for Inactive)
REMARK    1  A    between atoms: C1_2  and  C2_3 
ROOT
ATOM      1  C2  UNL d   1      -0.088   4.979  -0.464  0.00  0.00    -0.081 A 
ATOM      2  C3  UNL d   1       0.823   3.918  -0.389  0.00  0.00     0.006 A 
ATOM      3  C4  UNL d   1       0.691   2.940   0.600  0.00  0.00     0.002 A 
ATOM      4  C5  UNL d   1      -0.357   3.002   1.524  0.00  0.00    -0.080 A 
ATOM      5  C6  UNL d   1      -0.528   1.942   2.572  0.00  0.00     0.076 C 
ATOM      6  C7  UNL d   1      -1.258   4.071   1.460  0.00  0.00     0.002 A 
ATOM      7  C8  UNL d   1      -1.126   5.049   0.472  0.00  0.00     0.006 A 
ENDROOT
BRANCH   1   8
ATOM      8  C1  UNL d   1       0.013   5.999  -1.569  0.00  0.00     0.054 C 
ATOM      9  C   UNL d   1      -1.236   6.000  -2.438  0.00  0.00     0.018 C 
ENDBRANCH   1   8
TORSDOF 1
ENDMDL
