MODEL 1
REMARK minimizedAffinity 12.5131025
REMARK minimizedRMSD -1
REMARK  1 active torsions:
REMARK  status: ('A' for Active; 'I' for Inactive)
REMARK    1  A    between atoms: C1_2  and  C2_3 
ROOT
ATOM      1  C2  UNL d   1      -2.962   0.419   0.075  0.00  0.00    -0.081 A 
ATOM      2  C3  UNL d   1      -3.208   1.367  -0.925  0.00  0.00     0.006 A 
ATOM      3  C4  UNL d   1      -2.646   1.218  -2.196  0.00  0.00     0.002 A 
ATOM      4  C5  UNL d   1      -1.836   0.116  -2.489  0.00  0.00    -0.080 A 
ATOM      5  C6  UNL d   1      -1.251  -0.072  -3.857  0.00  0.00     0.076 C 
ATOM      6  C7  UNL d   1      -1.576  -0.823  -1.484  0.00  0.00     0.002 A 
ATOM      7  C8  UNL d   1      -2.137  -0.674  -0.214  0.00  0.00     0.006 A 
ENDROOT
BRANCH   1   8
ATOM      8  C1  UNL d   1      -3.619   0.542   1.426  0.00  0.00     0.054 C 
ATOM      9  C   UNL d   1      -3.141  -0.547   2.375  0.00  0.00     0.018 C 
ENDBRANCH   1   8
TORSDOF 1
ENDMDL
