MODEL 1
REMARK minimizedAffinity 6.62819624
REMARK minimizedRMSD -1
REMARK  1 active torsions:
REMARK  status: ('A' for Active; 'I' for Inactive)
REMARK    1  A    between atoms: C1_2  and  C2_3 
ROOT
ATOM      1  C2  UNL d   1      -0.132   2.921   1.565  0.00  0.00    -0.081 A 
ATOM      2  C3  UNL d   1       1.197   2.572   1.833  0.00  0.00     0.006 A 
ATOM      3  C4  UNL d   1       1.505   1.716   2.894  0.00  0.00     0.002 A 
ATOM      4  C5  UNL d   1       0.488   1.189   3.698  0.00  0.00    -0.080 A 
ATOM      5  C6  UNL d   1       0.802   0.245   4.820  0.00  0.00     0.076 C 
ATOM      6  C7  UNL d   1      -0.838   1.551   3.440  0.00  0.00     0.002 A 
ATOM      7  C8  UNL d   1      -1.146   2.407   2.380  0.00  0.00     0.006 A 
ENDROOT
BRANCH   1   8
ATOM      8  C1  UNL d   1      -0.472   3.792   0.382  0.00  0.00     0.054 C 
ATOM      9  C   UNL d   1       0.785   4.274  -0.329  0.00  0.00     0.018 C 
ENDBRANCH   1   8
TORSDOF 1
ENDMDL
