MODEL 1
REMARK minimizedAffinity 10.9814053
REMARK minimizedRMSD -1
REMARK  1 active torsions:
REMARK  status: ('A' for Active; 'I' for Inactive)
REMARK    1  A    between atoms: C1_2  and  C2_3 
ROOT
ATOM      1  C2  UNL d   1       5.140  -3.790  -3.026  0.00  0.00    -0.081 A 
ATOM      2  C3  UNL d   1       4.972  -4.343  -1.750  0.00  0.00     0.006 A 
ATOM      3  C4  UNL d   1       4.735  -3.519  -0.647  0.00  0.00     0.002 A 
ATOM      4  C5  UNL d   1       4.654  -2.131  -0.802  0.00  0.00    -0.080 A 
ATOM      5  C6  UNL d   1       4.369  -1.238   0.368  0.00  0.00     0.076 C 
ATOM      6  C7  UNL d   1       4.839  -1.578  -2.074  0.00  0.00     0.002 A 
ATOM      7  C8  UNL d   1       5.077  -2.401  -3.177  0.00  0.00     0.006 A 
ENDROOT
BRANCH   1   8
ATOM      8  C1  UNL d   1       5.332  -4.680  -4.228  0.00  0.00     0.054 C 
ATOM      9  C   UNL d   1       4.283  -5.782  -4.273  0.00  0.00     0.018 C 
ENDBRANCH   1   8
TORSDOF 1
ENDMDL
