MODEL 1
REMARK minimizedAffinity 13.727457
REMARK minimizedRMSD -1
REMARK  1 active torsions:
REMARK  status: ('A' for Active; 'I' for Inactive)
REMARK    1  A    between atoms: C1_2  and  C2_3 
ROOT
ATOM      1  C2  UNL d   1      -0.733   1.450   0.074  0.00  0.00    -0.081 A 
ATOM      2  C3  UNL d   1       0.400   0.847  -0.484  0.00  0.00     0.006 A 
ATOM      3  C4  UNL d   1       0.267  -0.168  -1.435  0.00  0.00     0.002 A 
ATOM      4  C5  UNL d   1      -1.001  -0.590  -1.849  0.00  0.00    -0.080 A 
ATOM      5  C6  UNL d   1      -1.158  -1.657  -2.891  0.00  0.00     0.076 C 
ATOM      6  C7  UNL d   1      -2.134   0.001  -1.278  0.00  0.00     0.002 A 
ATOM      7  C8  UNL d   1      -2.001   1.015  -0.327  0.00  0.00     0.006 A 
ENDROOT
BRANCH   1   8
ATOM      8  C1  UNL d   1      -0.592   2.589   1.052  0.00  0.00     0.054 C 
ATOM      9  C   UNL d   1      -0.550   3.931   0.336  0.00  0.00     0.018 C 
ENDBRANCH   1   8
TORSDOF 1
ENDMDL
