MODEL 1
REMARK minimizedAffinity 5.01279545
REMARK minimizedRMSD -1
REMARK  1 active torsions:
REMARK  status: ('A' for Active; 'I' for Inactive)
REMARK    1  A    between atoms: C1_2  and  C2_3 
ROOT
ATOM      1  C2  UNL d   1      -0.391   5.224  -1.042  0.00  0.00    -0.081 A 
ATOM      2  C3  UNL d   1      -1.560   5.733  -1.622  0.00  0.00     0.006 A 
ATOM      3  C4  UNL d   1      -1.613   5.997  -2.992  0.00  0.00     0.002 A 
ATOM      4  C5  UNL d   1      -0.503   5.749  -3.807  0.00  0.00    -0.080 A 
ATOM      5  C6  UNL d   1      -0.557   5.999  -5.284  0.00  0.00     0.076 C 
ATOM      6  C7  UNL d   1       0.670   5.257  -3.224  0.00  0.00     0.002 A 
ATOM      7  C8  UNL d   1       0.724   4.993  -1.854  0.00  0.00     0.006 A 
ENDROOT
BRANCH   1   8
ATOM      8  C1  UNL d   1      -0.352   4.878   0.425  0.00  0.00     0.054 C 
ATOM      9  C   UNL d   1      -0.085   3.394   0.636  0.00  0.00     0.018 C 
ENDBRANCH   1   8
TORSDOF 1
ENDMDL
