MODEL 1
REMARK minimizedAffinity 1.23418617
REMARK minimizedRMSD -1
REMARK  0 active torsions:
REMARK  status: ('A' for Active; 'I' for Inactive)
ROOT
ATOM      1  C   UNL d   1       3.631   1.964  -0.148  0.00  0.00     0.023 A 
ATOM      2  C1  UNL d   1       3.845   0.777  -0.848  0.00  0.00     0.003 A 
ATOM      3  C2  UNL d   1       2.861  -0.214  -0.863  0.00  0.00     0.048 A 
ATOM      4  C3  UNL d   1       1.664  -0.009  -0.177  0.00  0.00     0.023 A 
ATOM      5  C4  UNL d   1       1.445   1.178   0.524  0.00  0.00     0.048 A 
ATOM      6  C5  UNL d   1       2.433   2.165   0.537  0.00  0.00     0.003 A 
ATOM      7  I   UNL d   1       0.197  -1.482  -0.198  0.00  0.00    -0.146 I 
ENDROOT
TORSDOF 0
ENDMDL
