MODEL 1
REMARK minimizedAffinity 4.17162848
REMARK minimizedRMSD -1
REMARK  0 active torsions:
REMARK  status: ('A' for Active; 'I' for Inactive)
ROOT
ATOM      1  C   UNL d   1       4.138   2.295   0.105  0.00  0.00     0.023 A 
ATOM      2  C1  UNL d   1       4.839   1.227  -0.454  0.00  0.00     0.003 A 
ATOM      3  C2  UNL d   1       4.241  -0.032  -0.542  0.00  0.00     0.048 A 
ATOM      4  C3  UNL d   1       2.941  -0.215  -0.071  0.00  0.00     0.023 A 
ATOM      5  C4  UNL d   1       2.236   0.852   0.488  0.00  0.00     0.048 A 
ATOM      6  C5  UNL d   1       2.838   2.109   0.575  0.00  0.00     0.003 A 
ATOM      7  I   UNL d   1       2.049  -2.087  -0.202  0.00  0.00    -0.146 I 
ENDROOT
TORSDOF 0
ENDMDL
