MODEL 1
REMARK minimizedAffinity 0.873615444
REMARK minimizedRMSD -1
REMARK  0 active torsions:
REMARK  status: ('A' for Active; 'I' for Inactive)
ROOT
ATOM      1  C   UNL d   1       3.079   0.305   1.477  0.00  0.00     0.023 A 
ATOM      2  C1  UNL d   1       3.502   1.026   0.361  0.00  0.00     0.003 A 
ATOM      3  C2  UNL d   1       3.726   0.371  -0.852  0.00  0.00     0.048 A 
ATOM      4  C3  UNL d   1       3.523  -1.005  -0.942  0.00  0.00     0.023 A 
ATOM      5  C4  UNL d   1       3.098  -1.731   0.172  0.00  0.00     0.048 A 
ATOM      6  C5  UNL d   1       2.877  -1.072   1.383  0.00  0.00     0.003 A 
ATOM      7  I   UNL d   1       3.854  -1.983  -2.746  0.00  0.00    -0.146 I 
ENDROOT
TORSDOF 0
ENDMDL
