MODEL 1
REMARK minimizedAffinity 4.07496834
REMARK minimizedRMSD -1
REMARK  0 active torsions:
REMARK  status: ('A' for Active; 'I' for Inactive)
ROOT
ATOM      1  C   UNL d   1       2.415   2.928   0.512  0.00  0.00     0.023 A 
ATOM      2  C1  UNL d   1       3.612   2.392   0.035  0.00  0.00     0.003 A 
ATOM      3  C2  UNL d   1       3.738   1.014  -0.144  0.00  0.00     0.048 A 
ATOM      4  C3  UNL d   1       2.664   0.176   0.153  0.00  0.00     0.023 A 
ATOM      5  C4  UNL d   1       1.464   0.707   0.629  0.00  0.00     0.048 A 
ATOM      6  C5  UNL d   1       1.343   2.087   0.809  0.00  0.00     0.003 A 
ATOM      7  I   UNL d   1       2.850  -1.877  -0.114  0.00  0.00    -0.146 I 
ENDROOT
TORSDOF 0
ENDMDL
