MODEL 1
REMARK minimizedAffinity -0.275480121
REMARK minimizedRMSD -1
REMARK  0 active torsions:
REMARK  status: ('A' for Active; 'I' for Inactive)
ROOT
ATOM      1  C   UNL d   1       3.573   2.434  -0.328  0.00  0.00     0.023 A 
ATOM      2  C1  UNL d   1       4.249   1.533  -1.151  0.00  0.00     0.003 A 
ATOM      3  C2  UNL d   1       3.921   0.176  -1.121  0.00  0.00     0.048 A 
ATOM      4  C3  UNL d   1       2.915  -0.273  -0.266  0.00  0.00     0.023 A 
ATOM      5  C4  UNL d   1       2.235   0.625   0.559  0.00  0.00     0.048 A 
ATOM      6  C5  UNL d   1       2.568   1.981   0.526  0.00  0.00     0.003 A 
ATOM      7  I   UNL d   1       2.424  -2.292  -0.220  0.00  0.00    -0.146 I 
ENDROOT
TORSDOF 0
ENDMDL
