MODEL 1
REMARK minimizedAffinity 0.787973404
REMARK minimizedRMSD -1
REMARK  0 active torsions:
REMARK  status: ('A' for Active; 'I' for Inactive)
ROOT
ATOM      1  C   UNL d   1       1.888   1.982   0.348  0.00  0.00     0.023 A 
ATOM      2  C1  UNL d   1       0.781   1.455  -0.317  0.00  0.00     0.003 A 
ATOM      3  C2  UNL d   1       0.785   0.122  -0.734  0.00  0.00     0.048 A 
ATOM      4  C3  UNL d   1       1.898  -0.678  -0.481  0.00  0.00     0.023 A 
ATOM      5  C4  UNL d   1       3.008  -0.156   0.185  0.00  0.00     0.048 A 
ATOM      6  C5  UNL d   1       3.000   1.178   0.598  0.00  0.00     0.003 A 
ATOM      7  I   UNL d   1       1.905  -2.662  -1.100  0.00  0.00    -0.146 I 
ENDROOT
TORSDOF 0
ENDMDL
