MODEL 1
REMARK minimizedAffinity 4.66486263
REMARK minimizedRMSD -1
REMARK  0 active torsions:
REMARK  status: ('A' for Active; 'I' for Inactive)
ROOT
ATOM      1  C   UNL d   1       0.156  -2.416  -0.558  0.00  0.00     0.023 A 
ATOM      2  C1  UNL d   1       1.431  -2.927  -0.805  0.00  0.00     0.003 A 
ATOM      3  C2  UNL d   1       2.502  -2.058  -1.021  0.00  0.00     0.048 A 
ATOM      4  C3  UNL d   1       2.293  -0.680  -0.988  0.00  0.00     0.023 A 
ATOM      5  C4  UNL d   1       1.019  -0.164  -0.741  0.00  0.00     0.048 A 
ATOM      6  C5  UNL d   1      -0.049  -1.037  -0.527  0.00  0.00     0.003 A 
ATOM      7  I   UNL d   1       3.886   0.615  -1.309  0.00  0.00    -0.146 I 
ENDROOT
TORSDOF 0
ENDMDL
