MODEL 1
REMARK minimizedAffinity 4.61424637
REMARK minimizedRMSD -1
REMARK  0 active torsions:
REMARK  status: ('A' for Active; 'I' for Inactive)
ROOT
ATOM      1  C   UNL d   1       2.798  -2.959  -0.391  0.00  0.00     0.023 A 
ATOM      2  C1  UNL d   1       2.561  -2.404  -1.648  0.00  0.00     0.003 A 
ATOM      3  C2  UNL d   1       1.400  -1.663  -1.878  0.00  0.00     0.048 A 
ATOM      4  C3  UNL d   1       0.481  -1.480  -0.845  0.00  0.00     0.023 A 
ATOM      5  C4  UNL d   1       0.714  -2.033   0.415  0.00  0.00     0.048 A 
ATOM      6  C5  UNL d   1       1.876  -2.774   0.639  0.00  0.00     0.003 A 
ATOM      7  I   UNL d   1      -1.248  -0.378  -1.185  0.00  0.00    -0.146 I 
ENDROOT
TORSDOF 0
ENDMDL
