MODEL 1
REMARK minimizedAffinity 0.233476013
REMARK minimizedRMSD -1
REMARK  0 active torsions:
REMARK  status: ('A' for Active; 'I' for Inactive)
ROOT
ATOM      1  C   UNL d   1      -5.141   2.492   4.923  0.00  0.00     0.172 C 
ATOM      2  N   UNL d   1      -5.056   3.905   5.211  0.00  0.00    -0.070 N 
ATOM      3  C1  UNL d   1      -4.032   4.735   4.840  0.00  0.00    -0.004 A 
ATOM      4  C2  UNL d   1      -4.326   6.000   5.302  0.00  0.00    -0.047 A 
ATOM      5  C3  UNL d   1      -5.569   5.927   5.975  0.00  0.00    -0.047 A 
ATOM      6  C4  UNL d   1      -5.998   4.618   5.904  0.00  0.00    -0.004 A 
ENDROOT
TORSDOF 0
ENDMDL
