MODEL 1
REMARK minimizedAffinity 0.827566922
REMARK minimizedRMSD -1
REMARK  0 active torsions:
REMARK  status: ('A' for Active; 'I' for Inactive)
ROOT
ATOM      1  C   UNL d   1       2.113  -2.284  -0.082  0.00  0.00     0.172 C 
ATOM      2  N   UNL d   1       0.874  -1.746  -0.592  0.00  0.00    -0.070 N 
ATOM      3  C1  UNL d   1      -0.187  -2.481  -1.047  0.00  0.00    -0.004 A 
ATOM      4  C2  UNL d   1      -1.171  -1.601  -1.445  0.00  0.00    -0.047 A 
ATOM      5  C3  UNL d   1      -0.682  -0.291  -1.221  0.00  0.00    -0.047 A 
ATOM      6  C4  UNL d   1       0.586  -0.411  -0.692  0.00  0.00    -0.004 A 
ENDROOT
TORSDOF 0
ENDMDL
