MODEL 1
REMARK minimizedAffinity 4.40871525
REMARK minimizedRMSD -1
REMARK  0 active torsions:
REMARK  status: ('A' for Active; 'I' for Inactive)
ROOT
ATOM      1  C   UNL d   1       2.364  -2.436  -0.323  0.00  0.00     0.172 C 
ATOM      2  N   UNL d   1       0.982  -2.120  -0.599  0.00  0.00    -0.070 N 
ATOM      3  C1  UNL d   1       0.335  -0.974  -0.223  0.00  0.00    -0.004 A 
ATOM      4  C2  UNL d   1      -0.965  -1.055  -0.674  0.00  0.00    -0.047 A 
ATOM      5  C3  UNL d   1      -1.104  -2.294  -1.344  0.00  0.00    -0.047 A 
ATOM      6  C4  UNL d   1       0.117  -2.933  -1.282  0.00  0.00    -0.004 A 
ENDROOT
TORSDOF 0
ENDMDL
