MODEL 1
REMARK minimizedAffinity -2.76720762
REMARK minimizedRMSD -1
REMARK  0 active torsions:
REMARK  status: ('A' for Active; 'I' for Inactive)
ROOT
ATOM      1  C   UNL d   1       0.922  -2.336  -0.345  0.00  0.00     0.172 C 
ATOM      2  N   UNL d   1       0.287  -1.128  -0.819  0.00  0.00    -0.070 N 
ATOM      3  C1  UNL d   1       0.601   0.146  -0.427  0.00  0.00    -0.004 A 
ATOM      4  C2  UNL d   1      -0.227   1.012  -1.107  0.00  0.00    -0.047 A 
ATOM      5  C3  UNL d   1      -1.068   0.232  -1.936  0.00  0.00    -0.047 A 
ATOM      6  C4  UNL d   1      -0.728  -1.089  -1.738  0.00  0.00    -0.004 A 
ENDROOT
TORSDOF 0
ENDMDL
