MODEL 1
REMARK minimizedAffinity 4.56563425
REMARK minimizedRMSD -1
REMARK  0 active torsions:
REMARK  status: ('A' for Active; 'I' for Inactive)
ROOT
ATOM      1  C   UNL d   1      -3.643   3.785   2.992  0.00  0.00     0.172 C 
ATOM      2  N   UNL d   1      -4.525   4.159   4.073  0.00  0.00    -0.070 N 
ATOM      3  C1  UNL d   1      -4.716   3.449   5.229  0.00  0.00    -0.004 A 
ATOM      4  C2  UNL d   1      -5.629   4.136   5.999  0.00  0.00    -0.047 A 
ATOM      5  C3  UNL d   1      -6.000   5.298   5.282  0.00  0.00    -0.047 A 
ATOM      6  C4  UNL d   1      -5.301   5.287   4.093  0.00  0.00    -0.004 A 
ENDROOT
TORSDOF 0
ENDMDL
