MODEL 1
REMARK minimizedAffinity 1.66287291
REMARK minimizedRMSD -1
REMARK  0 active torsions:
REMARK  status: ('A' for Active; 'I' for Inactive)
ROOT
ATOM      1  C   UNL d   1       4.258   2.508   1.948  0.00  0.00     0.172 C 
ATOM      2  N   UNL d   1       3.853   1.808   0.752  0.00  0.00    -0.070 N 
ATOM      3  C1  UNL d   1       3.270   0.570   0.710  0.00  0.00    -0.004 A 
ATOM      4  C2  UNL d   1       3.038   0.257  -0.612  0.00  0.00    -0.047 A 
ATOM      5  C3  UNL d   1       3.498   1.345  -1.392  0.00  0.00    -0.047 A 
ATOM      6  C4  UNL d   1       3.998   2.291  -0.522  0.00  0.00    -0.004 A 
ENDROOT
TORSDOF 0
ENDMDL
