MODEL 1
REMARK minimizedAffinity 5.00608921
REMARK minimizedRMSD -1
REMARK  0 active torsions:
REMARK  status: ('A' for Active; 'I' for Inactive)
ROOT
ATOM      1  C   UNL d   1      -2.723   0.904   0.625  0.00  0.00     0.172 C 
ATOM      2  N   UNL d   1      -2.628   0.370  -0.713  0.00  0.00    -0.070 N 
ATOM      3  C1  UNL d   1      -1.746   0.782  -1.676  0.00  0.00    -0.004 A 
ATOM      4  C2  UNL d   1      -1.974   0.028  -2.807  0.00  0.00    -0.047 A 
ATOM      5  C3  UNL d   1      -3.030  -0.867  -2.514  0.00  0.00    -0.047 A 
ATOM      6  C4  UNL d   1      -3.416  -0.633  -1.211  0.00  0.00    -0.004 A 
ENDROOT
TORSDOF 0
ENDMDL
