MODEL 1
REMARK minimizedAffinity 7.00175047
REMARK minimizedRMSD -1
REMARK  0 active torsions:
REMARK  status: ('A' for Active; 'I' for Inactive)
ROOT
ATOM      1  C   UNL d   1       3.485   2.056   2.017  0.00  0.00     0.172 C 
ATOM      2  N   UNL d   1       3.326   1.500   0.694  0.00  0.00    -0.070 N 
ATOM      3  C1  UNL d   1       2.898   0.232   0.407  0.00  0.00    -0.004 A 
ATOM      4  C2  UNL d   1       2.883   0.092  -0.964  0.00  0.00    -0.047 A 
ATOM      5  C3  UNL d   1       3.317   1.318  -1.520  0.00  0.00    -0.047 A 
ATOM      6  C4  UNL d   1       3.585   2.172  -0.471  0.00  0.00    -0.004 A 
ENDROOT
TORSDOF 0
ENDMDL
