MODEL 1
REMARK minimizedAffinity -2.43068671
REMARK minimizedRMSD -1
REMARK  0 active torsions:
REMARK  status: ('A' for Active; 'I' for Inactive)
ROOT
ATOM      1  C   UNL d   1       1.027  -0.823   3.454  0.00  0.00     0.172 C 
ATOM      2  N   UNL d   1       0.910  -2.255   3.312  0.00  0.00    -0.070 N 
ATOM      3  C1  UNL d   1       1.599  -3.028   2.416  0.00  0.00    -0.004 A 
ATOM      4  C2  UNL d   1       1.206  -4.336   2.597  0.00  0.00    -0.047 A 
ATOM      5  C3  UNL d   1       0.248  -4.350   3.638  0.00  0.00    -0.047 A 
ATOM      6  C4  UNL d   1       0.083  -3.049   4.062  0.00  0.00    -0.004 A 
ENDROOT
TORSDOF 0
ENDMDL
