MODEL 1
REMARK minimizedAffinity 10.0266266
REMARK minimizedRMSD -1
REMARK  1 active torsions:
REMARK  status: ('A' for Active; 'I' for Inactive)
REMARK    1  A    between atoms: C1_2  and  C2_3 
ROOT
ATOM      1  C2  UNL d   1      -1.622  -5.938  -1.078  0.00  0.00    -0.073 A 
ATOM      2  C3  UNL d   1      -1.014  -5.900   0.183  0.00  0.00    -0.002 A 
ATOM      3  C4  UNL d   1       0.377  -5.902   0.295  0.00  0.00     0.004 A 
ATOM      4  C5  UNL d   1       1.173  -5.936  -0.849  0.00  0.00    -0.004 A 
ATOM      5  C6  UNL d   1       0.585  -5.962  -2.118  0.00  0.00    -0.075 A 
ATOM      6  C7  UNL d   1       1.428  -6.000  -3.359  0.00  0.00     0.076 C 
ATOM      7  C8  UNL d   1      -0.813  -5.962  -2.222  0.00  0.00     0.001 A 
ENDROOT
BRANCH   1   8
ATOM      8  C1  UNL d   1      -3.123  -5.929  -1.204  0.00  0.00     0.053 C 
ATOM      9  C   UNL d   1      -3.723  -4.597  -0.782  0.00  0.00     0.018 C 
ENDBRANCH   1   8
TORSDOF 1
ENDMDL
