MODEL 1
REMARK minimizedAffinity 11.9330683
REMARK minimizedRMSD -1
REMARK  1 active torsions:
REMARK  status: ('A' for Active; 'I' for Inactive)
REMARK    1  A    between atoms: C1_2  and  C2_3 
ROOT
ATOM      1  C2  UNL d   1      -0.737   1.983  -5.971  0.00  0.00    -0.073 A 
ATOM      2  C3  UNL d   1      -0.672   3.381  -5.969  0.00  0.00    -0.002 A 
ATOM      3  C4  UNL d   1      -1.842   4.141  -5.985  0.00  0.00     0.004 A 
ATOM      4  C5  UNL d   1      -3.087   3.513  -5.996  0.00  0.00    -0.004 A 
ATOM      5  C6  UNL d   1      -3.173   2.117  -5.986  0.00  0.00    -0.075 A 
ATOM      6  C7  UNL d   1      -4.504   1.425  -6.000  0.00  0.00     0.076 C 
ATOM      7  C8  UNL d   1      -1.993   1.361  -5.973  0.00  0.00     0.001 A 
ENDROOT
BRANCH   1   8
ATOM      8  C1  UNL d   1       0.524   1.158  -5.947  0.00  0.00     0.053 C 
ATOM      9  C   UNL d   1       1.144   1.105  -4.560  0.00  0.00     0.018 C 
ENDBRANCH   1   8
TORSDOF 1
ENDMDL
