MODEL 1
REMARK minimizedAffinity 7.21773386
REMARK minimizedRMSD -1
REMARK  1 active torsions:
REMARK  status: ('A' for Active; 'I' for Inactive)
REMARK    1  A    between atoms: C1_2  and  C2_3 
ROOT
ATOM      1  C2  UNL d   1       0.608  -5.164  -0.999  0.00  0.00    -0.073 A 
ATOM      2  C3  UNL d   1       0.148  -5.622   0.241  0.00  0.00    -0.002 A 
ATOM      3  C4  UNL d   1       0.375  -4.874   1.397  0.00  0.00     0.004 A 
ATOM      4  C5  UNL d   1       1.058  -3.660   1.325  0.00  0.00    -0.004 A 
ATOM      5  C6  UNL d   1       1.515  -3.180   0.093  0.00  0.00    -0.075 A 
ATOM      6  C7  UNL d   1       2.253  -1.877  -0.002  0.00  0.00     0.076 C 
ATOM      7  C8  UNL d   1       1.285  -3.938  -1.063  0.00  0.00     0.001 A 
ENDROOT
BRANCH   1   8
ATOM      8  C1  UNL d   1       0.359  -5.965  -2.250  0.00  0.00     0.053 C 
ATOM      9  C   UNL d   1      -1.115  -6.000  -2.621  0.00  0.00     0.018 C 
ENDBRANCH   1   8
TORSDOF 1
ENDMDL
