MODEL 1
REMARK minimizedAffinity 10.2143641
REMARK minimizedRMSD -1
REMARK  1 active torsions:
REMARK  status: ('A' for Active; 'I' for Inactive)
REMARK    1  A    between atoms: C1_2  and  C2_3 
ROOT
ATOM      1  C2  UNL d   1       5.250   4.313   4.334  0.00  0.00    -0.073 A 
ATOM      2  C3  UNL d   1       5.810   3.054   4.090  0.00  0.00    -0.002 A 
ATOM      3  C4  UNL d   1       5.538   2.380   2.898  0.00  0.00     0.004 A 
ATOM      4  C5  UNL d   1       4.709   2.960   1.938  0.00  0.00    -0.004 A 
ATOM      5  C6  UNL d   1       4.149   4.222   2.158  0.00  0.00    -0.075 A 
ATOM      6  C7  UNL d   1       3.254   4.859   1.136  0.00  0.00     0.076 C 
ATOM      7  C8  UNL d   1       4.425   4.892   3.358  0.00  0.00     0.001 A 
ENDROOT
BRANCH   1   8
ATOM      8  C1  UNL d   1       5.546   5.047   5.616  0.00  0.00     0.053 C 
ATOM      9  C   UNL d   1       4.425   6.000   6.000  0.00  0.00     0.018 C 
ENDBRANCH   1   8
TORSDOF 1
ENDMDL
