MODEL 1
REMARK minimizedAffinity 3.1042552
REMARK minimizedRMSD -1
REMARK  1 active torsions:
REMARK  status: ('A' for Active; 'I' for Inactive)
REMARK    1  A    between atoms: C1_2  and  C2_3 
ROOT
ATOM      1  C2  UNL d   1      -2.405   2.643  -5.739  0.00  0.00    -0.073 A 
ATOM      2  C3  UNL d   1      -3.466   1.742  -5.879  0.00  0.00    -0.002 A 
ATOM      3  C4  UNL d   1      -4.776   2.209  -5.993  0.00  0.00     0.004 A 
ATOM      4  C5  UNL d   1      -5.038   3.579  -5.976  0.00  0.00    -0.004 A 
ATOM      5  C6  UNL d   1      -3.989   4.495  -5.850  0.00  0.00    -0.075 A 
ATOM      6  C7  UNL d   1      -4.253   5.972  -5.828  0.00  0.00     0.076 C 
ATOM      7  C8  UNL d   1      -2.676   4.018  -5.733  0.00  0.00     0.001 A 
ENDROOT
BRANCH   1   8
ATOM      8  C1  UNL d   1      -0.988   2.144  -5.622  0.00  0.00     0.053 C 
ATOM      9  C   UNL d   1      -0.421   2.360  -4.228  0.00  0.00     0.018 C 
ENDBRANCH   1   8
TORSDOF 1
ENDMDL
