MODEL 1
REMARK minimizedAffinity 3.60465884
REMARK minimizedRMSD -1
REMARK  1 active torsions:
REMARK  status: ('A' for Active; 'I' for Inactive)
REMARK    1  A    between atoms: C1_2  and  C2_3 
ROOT
ATOM      1  C2  UNL d   1      -3.709   4.358  -5.963  0.00  0.00    -0.073 A 
ATOM      2  C3  UNL d   1      -4.678   3.348  -5.960  0.00  0.00    -0.002 A 
ATOM      3  C4  UNL d   1      -4.297   2.006  -5.965  0.00  0.00     0.004 A 
ATOM      4  C5  UNL d   1      -2.946   1.659  -5.965  0.00  0.00    -0.004 A 
ATOM      5  C6  UNL d   1      -1.963   2.654  -5.956  0.00  0.00    -0.075 A 
ATOM      6  C7  UNL d   1      -0.505   2.297  -5.959  0.00  0.00     0.076 C 
ATOM      7  C8  UNL d   1      -2.353   4.000  -5.954  0.00  0.00     0.001 A 
ENDROOT
BRANCH   1   8
ATOM      8  C1  UNL d   1      -4.115   5.809  -5.952  0.00  0.00     0.053 C 
ATOM      9  C   UNL d   1      -5.626   5.978  -5.972  0.00  0.00     0.018 C 
ENDBRANCH   1   8
TORSDOF 1
ENDMDL
