MODEL 1
REMARK minimizedAffinity 2.84049463
REMARK minimizedRMSD -1
REMARK  1 active torsions:
REMARK  status: ('A' for Active; 'I' for Inactive)
REMARK    1  A    between atoms: C1_2  and  C2_3 
ROOT
ATOM      1  C2  UNL d   1      -1.597   0.017   1.073  0.00  0.00    -0.073 A 
ATOM      2  C3  UNL d   1      -0.995  -1.240   1.201  0.00  0.00    -0.002 A 
ATOM      3  C4  UNL d   1       0.392  -1.369   1.126  0.00  0.00     0.004 A 
ATOM      4  C5  UNL d   1       1.192  -0.243   0.929  0.00  0.00    -0.004 A 
ATOM      5  C6  UNL d   1       0.610   1.023   0.810  0.00  0.00    -0.075 A 
ATOM      6  C7  UNL d   1       1.456   2.244   0.596  0.00  0.00     0.076 C 
ATOM      7  C8  UNL d   1      -0.784   1.144   0.884  0.00  0.00     0.001 A 
ENDROOT
BRANCH   1   8
ATOM      8  C1  UNL d   1      -3.094   0.161   1.160  0.00  0.00     0.053 C 
ATOM      9  C   UNL d   1      -3.780  -0.220  -0.142  0.00  0.00     0.018 C 
ENDBRANCH   1   8
TORSDOF 1
ENDMDL
