MODEL 1
REMARK minimizedAffinity -0.938233078
REMARK minimizedRMSD -1
REMARK  1 active torsions:
REMARK  status: ('A' for Active; 'I' for Inactive)
REMARK    1  A    between atoms: C1_2  and  C2_3 
ROOT
ATOM      1  C2  UNL d   1      -1.307   3.556  -5.953  0.00  0.00    -0.073 A 
ATOM      2  C3  UNL d   1      -1.982   2.330  -5.972  0.00  0.00    -0.002 A 
ATOM      3  C4  UNL d   1      -3.376   2.293  -5.991  0.00  0.00     0.004 A 
ATOM      4  C5  UNL d   1      -4.110   3.479  -5.999  0.00  0.00    -0.004 A 
ATOM      5  C6  UNL d   1      -3.454   4.714  -5.992  0.00  0.00    -0.075 A 
ATOM      6  C7  UNL d   1      -4.229   5.999  -5.998  0.00  0.00     0.076 C 
ATOM      7  C8  UNL d   1      -2.054   4.744  -5.970  0.00  0.00     0.001 A 
ENDROOT
BRANCH   1   8
ATOM      8  C1  UNL d   1       0.199   3.602  -5.938  0.00  0.00     0.053 C 
ATOM      9  C   UNL d   1       0.727   5.027  -5.990  0.00  0.00     0.018 C 
ENDBRANCH   1   8
TORSDOF 1
ENDMDL
