MODEL 1
REMARK minimizedAffinity -3.52908707
REMARK minimizedRMSD -1
REMARK  1 active torsions:
REMARK  status: ('A' for Active; 'I' for Inactive)
REMARK    1  A    between atoms: C1_2  and  C2_3 
ROOT
ATOM      1  C2  UNL d   1      -0.870   2.616  -5.584  0.00  0.00    -0.073 A 
ATOM      2  C3  UNL d   1      -0.444   3.933  -5.790  0.00  0.00    -0.002 A 
ATOM      3  C4  UNL d   1      -1.375   4.951  -6.000  0.00  0.00     0.004 A 
ATOM      4  C5  UNL d   1      -2.740   4.664  -6.000  0.00  0.00    -0.004 A 
ATOM      5  C6  UNL d   1      -3.186   3.356  -5.784  0.00  0.00    -0.075 A 
ATOM      6  C7  UNL d   1      -4.651   3.031  -5.783  0.00  0.00     0.076 C 
ATOM      7  C8  UNL d   1      -2.245   2.339  -5.576  0.00  0.00     0.001 A 
ENDROOT
BRANCH   1   8
ATOM      8  C1  UNL d   1       0.132   1.515  -5.350  0.00  0.00     0.053 C 
ATOM      9  C   UNL d   1       1.500   1.860  -5.916  0.00  0.00     0.018 C 
ENDBRANCH   1   8
TORSDOF 1
ENDMDL
