MODEL 1
REMARK minimizedAffinity 2.5858593
REMARK minimizedRMSD -1
REMARK  1 active torsions:
REMARK  status: ('A' for Active; 'I' for Inactive)
REMARK    1  A    between atoms: C1_2  and  C2_3 
ROOT
ATOM      1  C2  UNL d   1      -1.426   3.140  -5.970  0.00  0.00    -0.073 A 
ATOM      2  C3  UNL d   1      -2.001   1.865  -5.961  0.00  0.00    -0.002 A 
ATOM      3  C4  UNL d   1      -3.388   1.717  -5.947  0.00  0.00     0.004 A 
ATOM      4  C5  UNL d   1      -4.214   2.841  -5.950  0.00  0.00    -0.004 A 
ATOM      5  C6  UNL d   1      -3.658   4.124  -5.971  0.00  0.00    -0.075 A 
ATOM      6  C7  UNL d   1      -4.533   5.343  -5.972  0.00  0.00     0.076 C 
ATOM      7  C8  UNL d   1      -2.264   4.264  -5.982  0.00  0.00     0.001 A 
ENDROOT
BRANCH   1   8
ATOM      8  C1  UNL d   1       0.072   3.305  -5.992  0.00  0.00     0.053 C 
ATOM      9  C   UNL d   1       0.489   4.754  -5.794  0.00  0.00     0.018 C 
ENDBRANCH   1   8
TORSDOF 1
ENDMDL
