MODEL 1
REMARK minimizedAffinity -0.347508818
REMARK minimizedRMSD -1
REMARK  1 active torsions:
REMARK  status: ('A' for Active; 'I' for Inactive)
REMARK    1  A    between atoms: C1_2  and  C2_3 
ROOT
ATOM      1  C2  UNL d   1       2.212   1.507  -1.899  0.00  0.00    -0.073 A 
ATOM      2  C3  UNL d   1       3.212   1.666  -0.932  0.00  0.00    -0.002 A 
ATOM      3  C4  UNL d   1       2.873   1.951   0.391  0.00  0.00     0.004 A 
ATOM      4  C5  UNL d   1       1.535   2.073   0.763  0.00  0.00    -0.004 A 
ATOM      5  C6  UNL d   1       0.521   1.907  -0.186  0.00  0.00    -0.075 A 
ATOM      6  C7  UNL d   1      -0.924   2.038   0.197  0.00  0.00     0.076 C 
ATOM      7  C8  UNL d   1       0.869   1.624  -1.514  0.00  0.00     0.001 A 
ENDROOT
BRANCH   1   8
ATOM      8  C1  UNL d   1       2.572   1.193  -3.328  0.00  0.00     0.053 C 
ATOM      9  C   UNL d   1       1.431   0.513  -4.067  0.00  0.00     0.018 C 
ENDBRANCH   1   8
TORSDOF 1
ENDMDL
