MODEL 1
REMARK minimizedAffinity 0.667355895
REMARK minimizedRMSD -1
REMARK  1 active torsions:
REMARK  status: ('A' for Active; 'I' for Inactive)
REMARK    1  A    between atoms: C1_2  and  C2_3 
ROOT
ATOM      1  C2  UNL d   1       0.291   2.171  -5.558  0.00  0.00    -0.073 A 
ATOM      2  C3  UNL d   1      -1.045   1.773  -5.680  0.00  0.00    -0.002 A 
ATOM      3  C4  UNL d   1      -2.046   2.721  -5.896  0.00  0.00     0.004 A 
ATOM      4  C5  UNL d   1      -1.721   4.073  -5.999  0.00  0.00    -0.004 A 
ATOM      5  C6  UNL d   1      -0.390   4.489  -5.892  0.00  0.00    -0.075 A 
ATOM      6  C7  UNL d   1      -0.024   5.941  -5.999  0.00  0.00     0.076 C 
ATOM      7  C8  UNL d   1       0.609   3.532  -5.672  0.00  0.00     0.001 A 
ENDROOT
BRANCH   1   8
ATOM      8  C1  UNL d   1       1.376   1.150  -5.331  0.00  0.00     0.053 C 
ATOM      9  C   UNL d   1       1.545   0.816  -3.857  0.00  0.00     0.018 C 
ENDBRANCH   1   8
TORSDOF 1
ENDMDL
