MODEL 1
REMARK minimizedAffinity 0.16567935
REMARK minimizedRMSD -1
REMARK  1 active torsions:
REMARK  status: ('A' for Active; 'I' for Inactive)
REMARK    1  A    between atoms: C1_2  and  C2_3 
ROOT
ATOM      1  C2  UNL d   1      -1.345   3.680  -5.953  0.00  0.00    -0.073 A 
ATOM      2  C3  UNL d   1      -1.657   5.044  -5.976  0.00  0.00    -0.002 A 
ATOM      3  C4  UNL d   1      -0.640   5.999  -5.995  0.00  0.00     0.004 A 
ATOM      4  C5  UNL d   1       0.697   5.601  -5.999  0.00  0.00    -0.004 A 
ATOM      5  C6  UNL d   1       1.028   4.242  -5.988  0.00  0.00    -0.075 A 
ATOM      6  C7  UNL d   1       2.462   3.797  -5.989  0.00  0.00     0.076 C 
ATOM      7  C8  UNL d   1       0.001   3.289  -5.966  0.00  0.00     0.001 A 
ENDROOT
BRANCH   1   8
ATOM      8  C1  UNL d   1      -2.441   2.645  -5.938  0.00  0.00     0.053 C 
ATOM      9  C   UNL d   1      -3.823   3.277  -5.965  0.00  0.00     0.018 C 
ENDBRANCH   1   8
TORSDOF 1
ENDMDL
