MODEL 1
REMARK minimizedAffinity -4.35374928
REMARK minimizedRMSD -1
REMARK  2 active torsions:
REMARK  status: ('A' for Active; 'I' for Inactive)
REMARK    1  A    between atoms: C1_2  and  C2_3 
REMARK    2  A    between atoms: C2_3  and  C3_4 
ROOT
ATOM      1  C3  UNL d   1       1.317   0.596  -2.526  0.00  0.00    -0.075 A 
ATOM      2  C4  UNL d   1       2.620   1.108  -2.606  0.00  0.00     0.002 A 
ATOM      3  C5  UNL d   1       3.083   1.685  -3.789  0.00  0.00     0.002 A 
ATOM      4  C6  UNL d   1       2.255   1.749  -4.907  0.00  0.00    -0.004 A 
ATOM      5  C7  UNL d   1       0.964   1.228  -4.844  0.00  0.00     0.002 A 
ATOM      6  C8  UNL d   1       0.497   0.654  -3.660  0.00  0.00     0.002 A 
ENDROOT
BRANCH   1   7
ATOM      7  C2  UNL d   1       0.800  -0.004  -1.240  0.00  0.00     0.056 C 
BRANCH   7   8
ATOM      8  C1  UNL d   1       1.842  -0.822  -0.470  0.00  0.00     0.007 C 
ATOM      9  C   UNL d   1       1.942  -0.436   1.000  0.00  0.00     0.009 C 
ENDBRANCH   7   8
ENDBRANCH   1   7
TORSDOF 2
ENDMDL
