MODEL 1
REMARK minimizedAffinity 1.28278935
REMARK minimizedRMSD -1
REMARK  2 active torsions:
REMARK  status: ('A' for Active; 'I' for Inactive)
REMARK    1  A    between atoms: C1_2  and  C2_3 
REMARK    2  A    between atoms: C2_3  and  C3_4 
ROOT
ATOM      1  C3  UNL d   1       1.459  -0.248   0.879  0.00  0.00    -0.075 A 
ATOM      2  C4  UNL d   1       0.800  -0.270   2.117  0.00  0.00     0.002 A 
ATOM      3  C5  UNL d   1       1.054   0.716   3.071  0.00  0.00     0.002 A 
ATOM      4  C6  UNL d   1       1.974   1.727   2.805  0.00  0.00    -0.004 A 
ATOM      5  C7  UNL d   1       2.646   1.749   1.585  0.00  0.00     0.002 A 
ATOM      6  C8  UNL d   1       2.391   0.767   0.627  0.00  0.00     0.002 A 
ENDROOT
BRANCH   1   7
ATOM      7  C2  UNL d   1       1.167  -1.294  -0.170  0.00  0.00     0.056 C 
BRANCH   7   8
ATOM      8  C1  UNL d   1      -0.312  -1.392  -0.559  0.00  0.00     0.007 C 
ATOM      9  C   UNL d   1      -0.886  -0.078  -1.073  0.00  0.00     0.009 C 
ENDBRANCH   7   8
ENDBRANCH   1   7
TORSDOF 2
ENDMDL
