MODEL 1
REMARK minimizedAffinity -0.106076114
REMARK minimizedRMSD -1
REMARK  2 active torsions:
REMARK  status: ('A' for Active; 'I' for Inactive)
REMARK    1  A    between atoms: C1_2  and  C2_3 
REMARK    2  A    between atoms: C2_3  and  C3_4 
ROOT
ATOM      1  C3  UNL d   1       0.921  -0.159   1.463  0.00  0.00    -0.075 A 
ATOM      2  C4  UNL d   1       1.629   0.963   1.916  0.00  0.00     0.002 A 
ATOM      3  C5  UNL d   1       1.433   1.451   3.208  0.00  0.00     0.002 A 
ATOM      4  C6  UNL d   1       0.521   0.831   4.059  0.00  0.00    -0.004 A 
ATOM      5  C7  UNL d   1      -0.200  -0.276   3.615  0.00  0.00     0.002 A 
ATOM      6  C8  UNL d   1      -0.002  -0.768   2.323  0.00  0.00     0.002 A 
ENDROOT
BRANCH   1   7
ATOM      7  C2  UNL d   1       1.151  -0.710   0.076  0.00  0.00     0.056 C 
BRANCH   7   8
ATOM      8  C1  UNL d   1      -0.123  -1.209  -0.615  0.00  0.00     0.007 C 
ATOM      9  C   UNL d   1      -0.991  -0.083  -1.160  0.00  0.00     0.009 C 
ENDBRANCH   7   8
ENDBRANCH   1   7
TORSDOF 2
ENDMDL
