MODEL 1
REMARK minimizedAffinity 0.629152596
REMARK minimizedRMSD -1
REMARK  2 active torsions:
REMARK  status: ('A' for Active; 'I' for Inactive)
REMARK    1  A    between atoms: C1_2  and  C2_3 
REMARK    2  A    between atoms: C2_3  and  C3_4 
ROOT
ATOM      1  C3  UNL d   1       1.628   0.387   1.272  0.00  0.00    -0.075 A 
ATOM      2  C4  UNL d   1       2.797  -0.167   0.732  0.00  0.00     0.002 A 
ATOM      3  C5  UNL d   1       2.725  -1.150  -0.256  0.00  0.00     0.002 A 
ATOM      4  C6  UNL d   1       1.485  -1.597  -0.708  0.00  0.00    -0.004 A 
ATOM      5  C7  UNL d   1       0.317  -1.065  -0.167  0.00  0.00     0.002 A 
ATOM      6  C8  UNL d   1       0.387  -0.078   0.818  0.00  0.00     0.002 A 
ENDROOT
BRANCH   1   7
ATOM      7  C2  UNL d   1       1.700   1.472   2.320  0.00  0.00     0.056 C 
BRANCH   7   8
ATOM      8  C1  UNL d   1       3.090   2.097   2.476  0.00  0.00     0.007 C 
ATOM      9  C   UNL d   1       3.805   1.662   3.748  0.00  0.00     0.009 C 
ENDBRANCH   7   8
ENDBRANCH   1   7
TORSDOF 2
ENDMDL
