MODEL 1
REMARK minimizedAffinity 6.89227676
REMARK minimizedRMSD -1
REMARK  2 active torsions:
REMARK  status: ('A' for Active; 'I' for Inactive)
REMARK    1  A    between atoms: C1_2  and  C2_3 
REMARK    2  A    between atoms: C2_3  and  C3_4 
ROOT
ATOM      1  C3  UNL d   1       1.144   2.066   1.474  0.00  0.00    -0.075 A 
ATOM      2  C4  UNL d   1       2.521   2.063   1.744  0.00  0.00     0.002 A 
ATOM      3  C5  UNL d   1       3.337   1.044   1.253  0.00  0.00     0.002 A 
ATOM      4  C6  UNL d   1       2.787   0.011   0.496  0.00  0.00    -0.004 A 
ATOM      5  C7  UNL d   1       1.419  -0.005   0.235  0.00  0.00     0.002 A 
ATOM      6  C8  UNL d   1       0.600   1.016   0.722  0.00  0.00     0.002 A 
ENDROOT
BRANCH   1   7
ATOM      7  C2  UNL d   1       0.261   3.182   1.978  0.00  0.00     0.056 C 
BRANCH   7   8
ATOM      8  C1  UNL d   1       0.033   4.305   0.960  0.00  0.00     0.007 C 
ATOM      9  C   UNL d   1      -1.396   4.830   0.956  0.00  0.00     0.009 C 
ENDBRANCH   7   8
ENDBRANCH   1   7
TORSDOF 2
ENDMDL
