MODEL 1
REMARK minimizedAffinity 1.33701599
REMARK minimizedRMSD -1
REMARK  2 active torsions:
REMARK  status: ('A' for Active; 'I' for Inactive)
REMARK    1  A    between atoms: C1_2  and  C2_3 
REMARK    2  A    between atoms: C2_3  and  C3_4 
ROOT
ATOM      1  C3  UNL d   1       1.027   0.024   1.424  0.00  0.00    -0.075 A 
ATOM      2  C4  UNL d   1      -0.211  -0.399   0.920  0.00  0.00     0.002 A 
ATOM      3  C5  UNL d   1      -0.283  -1.106  -0.280  0.00  0.00     0.002 A 
ATOM      4  C6  UNL d   1       0.878  -1.389  -0.996  0.00  0.00    -0.004 A 
ATOM      5  C7  UNL d   1       2.112  -0.959  -0.514  0.00  0.00     0.002 A 
ATOM      6  C8  UNL d   1       2.187  -0.255   0.690  0.00  0.00     0.002 A 
ENDROOT
BRANCH   1   7
ATOM      7  C2  UNL d   1       1.115   0.764   2.738  0.00  0.00     0.056 C 
BRANCH   7   8
ATOM      8  C1  UNL d   1       0.158   0.240   3.814  0.00  0.00     0.007 C 
ATOM      9  C   UNL d   1       0.623  -1.065   4.447  0.00  0.00     0.009 C 
ENDBRANCH   7   8
ENDBRANCH   1   7
TORSDOF 2
ENDMDL
