MODEL 1
REMARK minimizedAffinity 15.0609865
REMARK minimizedRMSD -1
REMARK  2 active torsions:
REMARK  status: ('A' for Active; 'I' for Inactive)
REMARK    1  A    between atoms: C1_2  and  C2_3 
REMARK    2  A    between atoms: C2_3  and  C3_4 
ROOT
ATOM      1  C3  UNL d   1       2.882  -0.042  -2.372  0.00  0.00    -0.075 A 
ATOM      2  C4  UNL d   1       3.713   1.087  -2.423  0.00  0.00     0.002 A 
ATOM      3  C5  UNL d   1       3.822   1.834  -3.597  0.00  0.00     0.002 A 
ATOM      4  C6  UNL d   1       3.111   1.457  -4.734  0.00  0.00    -0.004 A 
ATOM      5  C7  UNL d   1       2.296   0.328  -4.700  0.00  0.00     0.002 A 
ATOM      6  C8  UNL d   1       2.182  -0.419  -3.526  0.00  0.00     0.002 A 
ENDROOT
BRANCH   1   7
ATOM      7  C2  UNL d   1       2.737  -0.837  -1.097  0.00  0.00     0.056 C 
BRANCH   7   8
ATOM      8  C1  UNL d   1       1.725  -0.250  -0.107  0.00  0.00     0.007 C 
ATOM      9  C   UNL d   1       0.387  -0.976  -0.114  0.00  0.00     0.009 C 
ENDBRANCH   7   8
ENDBRANCH   1   7
TORSDOF 2
ENDMDL
