MODEL 1
REMARK minimizedAffinity -0.10187567
REMARK minimizedRMSD -1
REMARK  0 active torsions:
REMARK  status: ('A' for Active; 'I' for Inactive)
ROOT
ATOM      1  C   UNL d   1       1.738   4.837  -5.838  0.00  0.00     0.078 C 
ATOM      2  C1  UNL d   1       3.223   4.869  -5.627  0.00  0.00    -0.077 A 
ATOM      3  C2  UNL d   1       3.979   5.988  -5.996  0.00  0.00    -0.001 A 
ATOM      4  C3  UNL d   1       5.362   6.000  -5.804  0.00  0.00     0.003 A 
ATOM      5  C4  UNL d   1       5.999   4.895  -5.242  0.00  0.00    -0.005 A 
ATOM      6  C5  UNL d   1       5.255   3.777  -4.874  0.00  0.00     0.003 A 
ATOM      7  C6  UNL d   1       3.873   3.763  -5.066  0.00  0.00    -0.001 A 
ENDROOT
TORSDOF 0
ENDMDL
