MODEL 1
REMARK minimizedAffinity 3.83004975
REMARK minimizedRMSD -1
REMARK  0 active torsions:
REMARK  status: ('A' for Active; 'I' for Inactive)
ROOT
ATOM      1  C   UNL d   1       0.423   4.827  -5.882  0.00  0.00     0.078 C 
ATOM      2  C1  UNL d   1       1.911   4.850  -5.698  0.00  0.00    -0.077 A 
ATOM      3  C2  UNL d   1       2.657   5.996  -5.999  0.00  0.00    -0.001 A 
ATOM      4  C3  UNL d   1       4.043   6.000  -5.832  0.00  0.00     0.003 A 
ATOM      5  C4  UNL d   1       4.694   4.861  -5.364  0.00  0.00    -0.005 A 
ATOM      6  C5  UNL d   1       3.960   3.715  -5.063  0.00  0.00     0.003 A 
ATOM      7  C6  UNL d   1       2.575   3.709  -5.230  0.00  0.00    -0.001 A 
ENDROOT
TORSDOF 0
ENDMDL
