MODEL 1
REMARK minimizedAffinity 0.415112048
REMARK minimizedRMSD -1
REMARK  0 active torsions:
REMARK  status: ('A' for Active; 'I' for Inactive)
ROOT
ATOM      1  C   UNL d   1       1.518  -1.168  -2.049  0.00  0.00     0.078 C 
ATOM      2  C1  UNL d   1       1.343  -0.151  -0.962  0.00  0.00    -0.077 A 
ATOM      3  C2  UNL d   1       0.766  -0.499   0.266  0.00  0.00    -0.001 A 
ATOM      4  C3  UNL d   1       0.600   0.461   1.265  0.00  0.00     0.003 A 
ATOM      5  C4  UNL d   1       1.008   1.775   1.048  0.00  0.00    -0.005 A 
ATOM      6  C5  UNL d   1       1.581   2.132  -0.171  0.00  0.00     0.003 A 
ATOM      7  C6  UNL d   1       1.748   1.174  -1.172  0.00  0.00    -0.001 A 
ENDROOT
TORSDOF 0
ENDMDL
