MODEL 1
REMARK minimizedAffinity 2.47656393
REMARK minimizedRMSD -1
REMARK  0 active torsions:
REMARK  status: ('A' for Active; 'I' for Inactive)
ROOT
ATOM      1  C   UNL d   1       1.319  -1.015  -1.278  0.00  0.00     0.078 C 
ATOM      2  C1  UNL d   1       0.642  -0.341  -0.122  0.00  0.00    -0.077 A 
ATOM      3  C2  UNL d   1      -0.567  -0.828   0.389  0.00  0.00    -0.001 A 
ATOM      4  C3  UNL d   1      -1.191  -0.186   1.459  0.00  0.00     0.003 A 
ATOM      5  C4  UNL d   1      -0.614   0.949   2.027  0.00  0.00    -0.005 A 
ATOM      6  C5  UNL d   1       0.588   1.442   1.524  0.00  0.00     0.003 A 
ATOM      7  C6  UNL d   1       1.213   0.801   0.454  0.00  0.00    -0.001 A 
ENDROOT
TORSDOF 0
ENDMDL
