MODEL 1
REMARK minimizedAffinity -1.21549404
REMARK minimizedRMSD -1
REMARK  0 active torsions:
REMARK  status: ('A' for Active; 'I' for Inactive)
ROOT
ATOM      1  C   UNL d   1       0.930   5.989  -5.510  0.00  0.00     0.078 C 
ATOM      2  C1  UNL d   1      -0.187   5.986  -4.510  0.00  0.00    -0.077 A 
ATOM      3  C2  UNL d   1      -1.525   5.993  -4.923  0.00  0.00    -0.001 A 
ATOM      4  C3  UNL d   1      -2.554   6.000  -3.980  0.00  0.00     0.003 A 
ATOM      5  C4  UNL d   1      -2.257   6.000  -2.619  0.00  0.00    -0.005 A 
ATOM      6  C5  UNL d   1      -0.928   5.994  -2.199  0.00  0.00     0.003 A 
ATOM      7  C6  UNL d   1       0.103   5.988  -3.140  0.00  0.00    -0.001 A 
ENDROOT
TORSDOF 0
ENDMDL
