MODEL 1
REMARK minimizedAffinity 6.11592102
REMARK minimizedRMSD -1
REMARK  0 active torsions:
REMARK  status: ('A' for Active; 'I' for Inactive)
ROOT
ATOM      1  C   UNL d   1       1.221   2.550  -0.370  0.00  0.00     0.078 C 
ATOM      2  C1  UNL d   1       0.473   1.470   0.353  0.00  0.00    -0.077 A 
ATOM      3  C2  UNL d   1       1.036   0.817   1.457  0.00  0.00    -0.001 A 
ATOM      4  C3  UNL d   1       0.332  -0.193   2.115  0.00  0.00     0.003 A 
ATOM      5  C4  UNL d   1      -0.939  -0.560   1.676  0.00  0.00    -0.005 A 
ATOM      6  C5  UNL d   1      -1.506   0.083   0.577  0.00  0.00     0.003 A 
ATOM      7  C6  UNL d   1      -0.804   1.093  -0.082  0.00  0.00    -0.001 A 
ENDROOT
TORSDOF 0
ENDMDL
