MODEL 1
REMARK minimizedAffinity -1.18232262
REMARK minimizedRMSD -1
REMARK  0 active torsions:
REMARK  status: ('A' for Active; 'I' for Inactive)
ROOT
ATOM      1  C   UNL d   1       1.523   5.961  -5.730  0.00  0.00     0.078 C 
ATOM      2  C1  UNL d   1       0.239   5.967  -4.956  0.00  0.00    -0.077 A 
ATOM      3  C2  UNL d   1      -0.998   5.984  -5.612  0.00  0.00    -0.001 A 
ATOM      4  C3  UNL d   1      -2.186   6.000  -4.879  0.00  0.00     0.003 A 
ATOM      5  C4  UNL d   1      -2.148   6.000  -3.486  0.00  0.00    -0.005 A 
ATOM      6  C5  UNL d   1      -0.922   5.985  -2.825  0.00  0.00     0.003 A 
ATOM      7  C6  UNL d   1       0.266   5.969  -3.556  0.00  0.00    -0.001 A 
ENDROOT
TORSDOF 0
ENDMDL
