MODEL 1
REMARK minimizedAffinity 1.74700606
REMARK minimizedRMSD -1
REMARK  0 active torsions:
REMARK  status: ('A' for Active; 'I' for Inactive)
ROOT
ATOM      1  C   UNL d   1       1.314   2.384   1.115  0.00  0.00     0.078 C 
ATOM      2  C1  UNL d   1       0.564   1.109   0.866  0.00  0.00    -0.077 A 
ATOM      3  C2  UNL d   1       1.173   0.029   0.216  0.00  0.00    -0.001 A 
ATOM      4  C3  UNL d   1       0.460  -1.148  -0.018  0.00  0.00     0.003 A 
ATOM      5  C4  UNL d   1      -0.867  -1.255   0.393  0.00  0.00    -0.005 A 
ATOM      6  C5  UNL d   1      -1.483  -0.184   1.038  0.00  0.00     0.003 A 
ATOM      7  C6  UNL d   1      -0.771   0.993   1.273  0.00  0.00    -0.001 A 
ENDROOT
TORSDOF 0
ENDMDL
