MODEL 1
REMARK minimizedAffinity -2.42418671
REMARK minimizedRMSD -1
REMARK  0 active torsions:
REMARK  status: ('A' for Active; 'I' for Inactive)
ROOT
ATOM      1  C   UNL d   1       4.688   5.249  -5.030  0.00  0.00     0.078 C 
ATOM      2  C1  UNL d   1       3.189   5.233  -5.046  0.00  0.00    -0.077 A 
ATOM      3  C2  UNL d   1       2.486   4.473  -5.988  0.00  0.00    -0.001 A 
ATOM      4  C3  UNL d   1       1.090   4.475  -5.997  0.00  0.00     0.003 A 
ATOM      5  C4  UNL d   1       0.385   5.237  -5.068  0.00  0.00    -0.005 A 
ATOM      6  C5  UNL d   1       1.076   5.999  -4.128  0.00  0.00     0.003 A 
ATOM      7  C6  UNL d   1       2.472   5.998  -4.117  0.00  0.00    -0.001 A 
ENDROOT
TORSDOF 0
ENDMDL
