MODEL 1
REMARK minimizedAffinity -0.120046034
REMARK minimizedRMSD -1
REMARK  0 active torsions:
REMARK  status: ('A' for Active; 'I' for Inactive)
ROOT
ATOM      1  C   UNL d   1       1.329   3.011   0.316  0.00  0.00     0.078 C 
ATOM      2  C1  UNL d   1       0.806   1.855   1.114  0.00  0.00    -0.077 A 
ATOM      3  C2  UNL d   1       0.890   0.545   0.627  0.00  0.00    -0.001 A 
ATOM      4  C3  UNL d   1       0.389  -0.521   1.376  0.00  0.00     0.003 A 
ATOM      5  C4  UNL d   1      -0.199  -0.288   2.617  0.00  0.00    -0.005 A 
ATOM      6  C5  UNL d   1      -0.290   1.012   3.110  0.00  0.00     0.003 A 
ATOM      7  C6  UNL d   1       0.210   2.079   2.362  0.00  0.00    -0.001 A 
ENDROOT
TORSDOF 0
ENDMDL
