MODEL 1
REMARK minimizedAffinity 4.11029577
REMARK minimizedRMSD -1
REMARK  0 active torsions:
REMARK  status: ('A' for Active; 'I' for Inactive)
ROOT
ATOM      1  C   UNL d   1       4.842   5.507  -5.502  0.00  0.00     0.078 C 
ATOM      2  C1  UNL d   1       3.384   5.161  -5.432  0.00  0.00    -0.077 A 
ATOM      3  C2  UNL d   1       2.416   6.000  -5.997  0.00  0.00    -0.001 A 
ATOM      4  C3  UNL d   1       1.062   5.670  -5.916  0.00  0.00     0.003 A 
ATOM      5  C4  UNL d   1       0.664   4.502  -5.269  0.00  0.00    -0.005 A 
ATOM      6  C5  UNL d   1       1.620   3.662  -4.702  0.00  0.00     0.003 A 
ATOM      7  C6  UNL d   1       2.974   3.991  -4.782  0.00  0.00    -0.001 A 
ENDROOT
TORSDOF 0
ENDMDL
