MODEL 1
REMARK minimizedAffinity 1.8668468
REMARK minimizedRMSD -1
REMARK  0 active torsions:
REMARK  status: ('A' for Active; 'I' for Inactive)
ROOT
ATOM      1  C   UNL d   1       1.294   0.710   4.870  0.00  0.00     0.078 C 
ATOM      2  C1  UNL d   1       0.751   0.545   3.481  0.00  0.00    -0.077 A 
ATOM      3  C2  UNL d   1       1.608   0.457   2.378  0.00  0.00    -0.001 A 
ATOM      4  C3  UNL d   1       1.089   0.314   1.090  0.00  0.00     0.003 A 
ATOM      5  C4  UNL d   1      -0.290   0.258   0.894  0.00  0.00    -0.005 A 
ATOM      6  C5  UNL d   1      -1.151   0.347   1.986  0.00  0.00     0.003 A 
ATOM      7  C6  UNL d   1      -0.633   0.490   3.275  0.00  0.00    -0.001 A 
ENDROOT
TORSDOF 0
ENDMDL
