MODEL 1
REMARK minimizedAffinity -0.666810989
REMARK minimizedRMSD -1
REMARK  0 active torsions:
REMARK  status: ('A' for Active; 'I' for Inactive)
ROOT
ATOM      1  C   UNL d   1       2.030   5.674  -5.963  0.00  0.00     0.078 C 
ATOM      2  C1  UNL d   1       3.410   5.346  -5.476  0.00  0.00    -0.077 A 
ATOM      3  C2  UNL d   1       4.533   5.999  -6.000  0.00  0.00    -0.001 A 
ATOM      4  C3  UNL d   1       5.813   5.677  -5.545  0.00  0.00     0.003 A 
ATOM      5  C4  UNL d   1       5.982   4.701  -4.564  0.00  0.00    -0.005 A 
ATOM      6  C5  UNL d   1       4.870   4.045  -4.039  0.00  0.00     0.003 A 
ATOM      7  C6  UNL d   1       3.590   4.365  -4.493  0.00  0.00    -0.001 A 
ENDROOT
TORSDOF 0
ENDMDL
