MODEL 1
REMARK minimizedAffinity 1.10068309
REMARK minimizedRMSD -1
REMARK  0 active torsions:
REMARK  status: ('A' for Active; 'I' for Inactive)
ROOT
ATOM      1  C   UNL d   1       3.337   5.971  -5.339  0.00  0.00     0.078 C 
ATOM      2  C1  UNL d   1       1.913   5.988  -4.871  0.00  0.00    -0.077 A 
ATOM      3  C2  UNL d   1       1.603   5.993  -3.505  0.00  0.00    -0.001 A 
ATOM      4  C3  UNL d   1       0.272   5.999  -3.083  0.00  0.00     0.003 A 
ATOM      5  C4  UNL d   1      -0.759   6.000  -4.020  0.00  0.00    -0.005 A 
ATOM      6  C5  UNL d   1      -0.460   5.993  -5.381  0.00  0.00     0.003 A 
ATOM      7  C6  UNL d   1       0.869   5.986  -5.805  0.00  0.00    -0.001 A 
ENDROOT
TORSDOF 0
ENDMDL
