MODEL 1
REMARK minimizedAffinity 2.16707039
REMARK minimizedRMSD -1
REMARK  1 active torsions:
REMARK  status: ('A' for Active; 'I' for Inactive)
REMARK    1  A    between atoms: C1_2  and  C2_3 
ROOT
ATOM      1  C2  UNL d   1      -2.505   3.353  -5.952  0.00  0.00    -0.081 A 
ATOM      2  C3  UNL d   1      -2.322   4.741  -5.977  0.00  0.00     0.006 A 
ATOM      3  C4  UNL d   1      -3.423   5.600  -6.000  0.00  0.00     0.002 A 
ATOM      4  C5  UNL d   1      -4.724   5.087  -5.988  0.00  0.00    -0.080 A 
ATOM      5  C6  UNL d   1      -5.915   5.999  -5.982  0.00  0.00     0.076 C 
ATOM      6  C7  UNL d   1      -4.907   3.700  -5.980  0.00  0.00     0.002 A 
ATOM      7  C8  UNL d   1      -3.807   2.840  -5.959  0.00  0.00     0.006 A 
ENDROOT
BRANCH   1   8
ATOM      8  C1  UNL d   1      -1.320   2.425  -5.862  0.00  0.00     0.054 C 
ATOM      9  C   UNL d   1      -0.009   3.188  -5.986  0.00  0.00     0.018 C 
ENDBRANCH   1   8
TORSDOF 1
ENDMDL
