MODEL 1
REMARK minimizedAffinity 3.84393477
REMARK minimizedRMSD -1
REMARK  1 active torsions:
REMARK  status: ('A' for Active; 'I' for Inactive)
REMARK    1  A    between atoms: C1_2  and  C2_3 
ROOT
ATOM      1  C2  UNL d   1       0.200   2.598   1.938  0.00  0.00    -0.081 A 
ATOM      2  C3  UNL d   1      -1.039   3.233   2.090  0.00  0.00     0.006 A 
ATOM      3  C4  UNL d   1      -2.191   2.681   1.524  0.00  0.00     0.002 A 
ATOM      4  C5  UNL d   1      -2.125   1.483   0.805  0.00  0.00    -0.080 A 
ATOM      5  C6  UNL d   1      -3.359   0.864   0.219  0.00  0.00     0.076 C 
ATOM      6  C7  UNL d   1      -0.884   0.858   0.638  0.00  0.00     0.002 A 
ATOM      7  C8  UNL d   1       0.268   1.410   1.203  0.00  0.00     0.006 A 
ENDROOT
BRANCH   1   8
ATOM      8  C1  UNL d   1       1.434   3.157   2.601  0.00  0.00     0.054 C 
ATOM      9  C   UNL d   1       2.698   2.511   2.051  0.00  0.00     0.018 C 
ENDBRANCH   1   8
TORSDOF 1
ENDMDL
