MODEL 1
REMARK minimizedAffinity 4.02964306
REMARK minimizedRMSD -1
REMARK  1 active torsions:
REMARK  status: ('A' for Active; 'I' for Inactive)
REMARK    1  A    between atoms: C1_2  and  C2_3 
ROOT
ATOM      1  C2  UNL d   1      -1.957   4.106  -5.015  0.00  0.00    -0.081 A 
ATOM      2  C3  UNL d   1      -1.974   5.366  -5.626  0.00  0.00     0.006 A 
ATOM      3  C4  UNL d   1      -3.187   5.976  -5.957  0.00  0.00     0.002 A 
ATOM      4  C5  UNL d   1      -4.401   5.340  -5.677  0.00  0.00    -0.080 A 
ATOM      5  C6  UNL d   1      -5.710   5.996  -6.000  0.00  0.00     0.076 C 
ATOM      6  C7  UNL d   1      -4.383   4.073  -5.083  0.00  0.00     0.002 A 
ATOM      7  C8  UNL d   1      -3.171   3.463  -4.752  0.00  0.00     0.006 A 
ENDROOT
BRANCH   1   8
ATOM      8  C1  UNL d   1      -0.653   3.475  -4.598  0.00  0.00     0.054 C 
ATOM      9  C   UNL d   1      -0.478   3.514  -3.086  0.00  0.00     0.018 C 
ENDBRANCH   1   8
TORSDOF 1
ENDMDL
