MODEL 1
REMARK minimizedAffinity 8.91264439
REMARK minimizedRMSD -1
REMARK  1 active torsions:
REMARK  status: ('A' for Active; 'I' for Inactive)
REMARK    1  A    between atoms: C1_2  and  C2_3 
ROOT
ATOM      1  C2  UNL d   1       2.834   0.662  -1.775  0.00  0.00    -0.081 A 
ATOM      2  C3  UNL d   1       3.036   1.976  -2.216  0.00  0.00     0.006 A 
ATOM      3  C4  UNL d   1       3.039   2.272  -3.581  0.00  0.00     0.002 A 
ATOM      4  C5  UNL d   1       2.832   1.263  -4.527  0.00  0.00    -0.080 A 
ATOM      5  C6  UNL d   1       2.802   1.573  -5.994  0.00  0.00     0.076 C 
ATOM      6  C7  UNL d   1       2.647  -0.052  -4.088  0.00  0.00     0.002 A 
ATOM      7  C8  UNL d   1       2.644  -0.350  -2.723  0.00  0.00     0.006 A 
ENDROOT
BRANCH   1   8
ATOM      8  C1  UNL d   1       2.766   0.349  -0.302  0.00  0.00     0.054 C 
ATOM      9  C   UNL d   1       1.328   0.354   0.198  0.00  0.00     0.018 C 
ENDBRANCH   1   8
TORSDOF 1
ENDMDL
