MODEL 1
REMARK minimizedAffinity -2.15813565
REMARK minimizedRMSD -1
REMARK  1 active torsions:
REMARK  status: ('A' for Active; 'I' for Inactive)
REMARK    1  A    between atoms: C1_2  and  C2_3 
ROOT
ATOM      1  C2  UNL d   1      -3.762   4.985  -5.145  0.00  0.00    -0.081 A 
ATOM      2  C3  UNL d   1      -4.127   3.751  -5.697  0.00  0.00     0.006 A 
ATOM      3  C4  UNL d   1      -3.156   2.790  -5.986  0.00  0.00     0.002 A 
ATOM      4  C5  UNL d   1      -1.806   3.042  -5.720  0.00  0.00    -0.080 A 
ATOM      5  C6  UNL d   1      -0.757   2.006  -5.997  0.00  0.00     0.076 C 
ATOM      6  C7  UNL d   1      -1.439   4.281  -5.185  0.00  0.00     0.002 A 
ATOM      7  C8  UNL d   1      -2.410   5.244  -4.897  0.00  0.00     0.006 A 
ENDROOT
BRANCH   1   8
ATOM      8  C1  UNL d   1      -4.813   6.000  -4.773  0.00  0.00     0.054 C 
ATOM      9  C   UNL d   1      -5.993   5.951  -5.733  0.00  0.00     0.018 C 
ENDBRANCH   1   8
TORSDOF 1
ENDMDL
