MODEL 1
REMARK minimizedAffinity -0.171778724
REMARK minimizedRMSD -1
REMARK  1 active torsions:
REMARK  status: ('A' for Active; 'I' for Inactive)
REMARK    1  A    between atoms: C1_2  and  C2_3 
ROOT
ATOM      1  C2  UNL d   1      -0.159   1.851   0.636  0.00  0.00    -0.081 A 
ATOM      2  C3  UNL d   1       1.031   1.228   0.242  0.00  0.00     0.006 A 
ATOM      3  C4  UNL d   1       2.258   1.655   0.755  0.00  0.00     0.002 A 
ATOM      4  C5  UNL d   1       2.314   2.706   1.677  0.00  0.00    -0.080 A 
ATOM      5  C6  UNL d   1       3.622   3.154   2.259  0.00  0.00     0.076 C 
ATOM      6  C7  UNL d   1       1.127   3.340   2.058  0.00  0.00     0.002 A 
ATOM      7  C8  UNL d   1      -0.100   2.914   1.545  0.00  0.00     0.006 A 
ENDROOT
BRANCH   1   8
ATOM      8  C1  UNL d   1      -1.490   1.351   0.134  0.00  0.00     0.054 C 
ATOM      9  C   UNL d   1      -2.554   1.422   1.220  0.00  0.00     0.018 C 
ENDBRANCH   1   8
TORSDOF 1
ENDMDL
