MODEL 1
REMARK minimizedAffinity 3.54509211
REMARK minimizedRMSD -1
REMARK  1 active torsions:
REMARK  status: ('A' for Active; 'I' for Inactive)
REMARK    1  A    between atoms: C1_2  and  C2_3 
ROOT
ATOM      1  C2  UNL d   1      -0.815  -1.209   0.061  0.00  0.00    -0.081 A 
ATOM      2  C3  UNL d   1      -2.007  -0.582   0.444  0.00  0.00     0.006 A 
ATOM      3  C4  UNL d   1      -2.007   0.761   0.831  0.00  0.00     0.002 A 
ATOM      4  C5  UNL d   1      -0.819   1.499   0.834  0.00  0.00    -0.080 A 
ATOM      5  C6  UNL d   1      -0.811   2.948   1.219  0.00  0.00     0.076 C 
ATOM      6  C7  UNL d   1       0.374   0.867   0.468  0.00  0.00     0.002 A 
ATOM      7  C8  UNL d   1       0.375  -0.475   0.082  0.00  0.00     0.006 A 
ENDROOT
BRANCH   1   8
ATOM      8  C1  UNL d   1      -0.822  -2.638  -0.419  0.00  0.00     0.054 C 
ATOM      9  C   UNL d   1      -1.230  -2.728  -1.883  0.00  0.00     0.018 C 
ENDBRANCH   1   8
TORSDOF 1
ENDMDL
