MODEL 1
REMARK minimizedAffinity 8.72275639
REMARK minimizedRMSD -1
REMARK  1 active torsions:
REMARK  status: ('A' for Active; 'I' for Inactive)
REMARK    1  A    between atoms: C1_2  and  C2_3 
ROOT
ATOM      1  C2  UNL d   1       0.201   2.503   1.777  0.00  0.00    -0.081 A 
ATOM      2  C3  UNL d   1      -1.084   3.053   1.690  0.00  0.00     0.006 A 
ATOM      3  C4  UNL d   1      -2.087   2.398   0.972  0.00  0.00     0.002 A 
ATOM      4  C5  UNL d   1      -1.825   1.179   0.336  0.00  0.00    -0.080 A 
ATOM      5  C6  UNL d   1      -2.902   0.451  -0.412  0.00  0.00     0.076 C 
ATOM      6  C7  UNL d   1      -0.537   0.638   0.409  0.00  0.00     0.002 A 
ATOM      7  C8  UNL d   1       0.467   1.293   1.126  0.00  0.00     0.006 A 
ENDROOT
BRANCH   1   8
ATOM      8  C1  UNL d   1       1.267   3.174   2.605  0.00  0.00     0.054 C 
ATOM      9  C   UNL d   1       0.796   3.404   4.034  0.00  0.00     0.018 C 
ENDBRANCH   1   8
TORSDOF 1
ENDMDL
