MODEL 1
REMARK minimizedAffinity 2.66292405
REMARK minimizedRMSD -1
REMARK  1 active torsions:
REMARK  status: ('A' for Active; 'I' for Inactive)
REMARK    1  A    between atoms: C1_2  and  C2_3 
ROOT
ATOM      1  C2  UNL d   1       0.169   1.483   1.018  0.00  0.00    -0.081 A 
ATOM      2  C3  UNL d   1      -0.737   2.479   1.403  0.00  0.00     0.006 A 
ATOM      3  C4  UNL d   1      -2.101   2.195   1.502  0.00  0.00     0.002 A 
ATOM      4  C5  UNL d   1      -2.581   0.911   1.225  0.00  0.00    -0.080 A 
ATOM      5  C6  UNL d   1      -4.039   0.586   1.356  0.00  0.00     0.076 C 
ATOM      6  C7  UNL d   1      -1.679  -0.079   0.823  0.00  0.00     0.002 A 
ATOM      7  C8  UNL d   1      -0.315   0.203   0.723  0.00  0.00     0.006 A 
ENDROOT
BRANCH   1   8
ATOM      8  C1  UNL d   1       1.648   1.768   0.973  0.00  0.00     0.054 C 
ATOM      9  C   UNL d   1       2.067   2.700   2.102  0.00  0.00     0.018 C 
ENDBRANCH   1   8
TORSDOF 1
ENDMDL
