MODEL 1
REMARK minimizedAffinity 8.75751114
REMARK minimizedRMSD -1
REMARK  1 active torsions:
REMARK  status: ('A' for Active; 'I' for Inactive)
REMARK    1  A    between atoms: C1_2  and  C2_3 
ROOT
ATOM      1  C2  UNL d   1       2.800   0.428  -1.752  0.00  0.00    -0.081 A 
ATOM      2  C3  UNL d   1       3.124   1.701  -2.238  0.00  0.00     0.006 A 
ATOM      3  C4  UNL d   1       3.145   1.950  -3.612  0.00  0.00     0.002 A 
ATOM      4  C5  UNL d   1       2.834   0.935  -4.522  0.00  0.00    -0.080 A 
ATOM      5  C6  UNL d   1       2.822   1.198  -5.999  0.00  0.00     0.076 C 
ATOM      6  C7  UNL d   1       2.526  -0.341  -4.038  0.00  0.00     0.002 A 
ATOM      7  C8  UNL d   1       2.506  -0.591  -2.664  0.00  0.00     0.006 A 
ENDROOT
BRANCH   1   8
ATOM      8  C1  UNL d   1       2.714   0.173  -0.269  0.00  0.00     0.054 C 
ATOM      9  C   UNL d   1       1.267   0.134   0.203  0.00  0.00     0.018 C 
ENDBRANCH   1   8
TORSDOF 1
ENDMDL
