MODEL 1
REMARK minimizedAffinity 5.85535765
REMARK minimizedRMSD -1
REMARK  1 active torsions:
REMARK  status: ('A' for Active; 'I' for Inactive)
REMARK    1  A    between atoms: C1_2  and  C2_3 
ROOT
ATOM      1  C2  UNL d   1       2.246   2.608   1.986  0.00  0.00    -0.081 A 
ATOM      2  C3  UNL d   1       2.083   1.567   1.063  0.00  0.00     0.006 A 
ATOM      3  C4  UNL d   1       0.808   1.207   0.620  0.00  0.00     0.002 A 
ATOM      4  C5  UNL d   1      -0.323   1.885   1.085  0.00  0.00    -0.080 A 
ATOM      5  C6  UNL d   1      -1.695   1.528   0.594  0.00  0.00     0.076 C 
ATOM      6  C7  UNL d   1      -0.162   2.913   2.020  0.00  0.00     0.002 A 
ATOM      7  C8  UNL d   1       1.112   3.274   2.464  0.00  0.00     0.006 A 
ENDROOT
BRANCH   1   8
ATOM      8  C1  UNL d   1       3.624   3.042   2.417  0.00  0.00     0.054 C 
ATOM      9  C   UNL d   1       4.449   3.521   1.231  0.00  0.00     0.018 C 
ENDBRANCH   1   8
TORSDOF 1
ENDMDL
