MODEL 1
REMARK minimizedAffinity -1.63358402
REMARK minimizedRMSD -1
REMARK  1 active torsions:
REMARK  status: ('A' for Active; 'I' for Inactive)
REMARK    1  A    between atoms: C1_2  and  C2_3 
ROOT
ATOM      1  C2  UNL d   1       0.771   1.128   0.678  0.00  0.00    -0.081 A 
ATOM      2  C3  UNL d   1       0.141   2.368   0.840  0.00  0.00     0.006 A 
ATOM      3  C4  UNL d   1      -1.251   2.447   0.940  0.00  0.00     0.002 A 
ATOM      4  C5  UNL d   1      -2.033   1.289   0.887  0.00  0.00    -0.080 A 
ATOM      5  C6  UNL d   1      -3.525   1.357   1.023  0.00  0.00     0.076 C 
ATOM      6  C7  UNL d   1      -1.405   0.052   0.708  0.00  0.00     0.002 A 
ATOM      7  C8  UNL d   1      -0.014  -0.028   0.607  0.00  0.00     0.006 A 
ENDROOT
BRANCH   1   8
ATOM      8  C1  UNL d   1       2.275   1.033   0.636  0.00  0.00     0.054 C 
ATOM      9  C   UNL d   1       2.919   2.005   1.614  0.00  0.00     0.018 C 
ENDBRANCH   1   8
TORSDOF 1
ENDMDL
