MODEL 1
REMARK minimizedAffinity 3.5631659
REMARK minimizedRMSD -1
REMARK  1 active torsions:
REMARK  status: ('A' for Active; 'I' for Inactive)
REMARK    1  A    between atoms: C1_2  and  C2_3 
ROOT
ATOM      1  C2  UNL d   1       0.747  -1.615  -1.199  0.00  0.00    -0.081 A 
ATOM      2  C3  UNL d   1       0.389  -2.450  -2.265  0.00  0.00     0.006 A 
ATOM      3  C4  UNL d   1      -0.718  -3.295  -2.161  0.00  0.00     0.002 A 
ATOM      4  C5  UNL d   1      -1.490  -3.314  -0.995  0.00  0.00    -0.080 A 
ATOM      5  C6  UNL d   1      -2.699  -4.195  -0.882  0.00  0.00     0.076 C 
ATOM      6  C7  UNL d   1      -1.123  -2.493   0.077  0.00  0.00     0.002 A 
ATOM      7  C8  UNL d   1      -0.015  -1.648  -0.026  0.00  0.00     0.006 A 
ENDROOT
BRANCH   1   8
ATOM      8  C1  UNL d   1       1.901  -0.656  -1.331  0.00  0.00     0.054 C 
ATOM      9  C   UNL d   1       2.677  -0.898  -2.618  0.00  0.00     0.018 C 
ENDBRANCH   1   8
TORSDOF 1
ENDMDL
