MODEL 1
REMARK minimizedAffinity -3.03251719
REMARK minimizedRMSD -1
REMARK  0 active torsions:
REMARK  status: ('A' for Active; 'I' for Inactive)
ROOT
ATOM      1  C   UNL d   1      -1.584  -0.434   0.385  0.00  0.00     0.020 A 
ATOM      2  C1  UNL d   1      -0.791  -1.478   0.858  0.00  0.00     0.020 A 
ATOM      3  C2  UNL d   1       0.599  -1.344   0.882  0.00  0.00     0.034 A 
ATOM      4  C3  UNL d   1       1.200  -0.163   0.431  0.00  0.00     0.017 A 
ATOM      5  C4  UNL d   1       0.402   0.885  -0.045  0.00  0.00     0.017 A 
ATOM      6  C5  UNL d   1      -0.989   0.745  -0.066  0.00  0.00     0.034 A 
ATOM      7 Cl   UNL d   1       1.071   2.372  -0.618  0.00  0.00    -0.070 Cl
ATOM      8 Cl1  UNL d   1       2.924  -0.065   0.488  0.00  0.00    -0.070 Cl
ENDROOT
TORSDOF 0
ENDMDL
