MODEL 1
REMARK minimizedAffinity -4.52811861
REMARK minimizedRMSD -1
REMARK  0 active torsions:
REMARK  status: ('A' for Active; 'I' for Inactive)
ROOT
ATOM      1  C   UNL d   1       2.214  -1.257   0.739  0.00  0.00     0.020 A 
ATOM      2  C1  UNL d   1       2.975  -0.090   0.779  0.00  0.00     0.020 A 
ATOM      3  C2  UNL d   1       2.383   1.140   0.483  0.00  0.00     0.034 A 
ATOM      4  C3  UNL d   1       1.026   1.205   0.146  0.00  0.00     0.017 A 
ATOM      5  C4  UNL d   1       0.263   0.032   0.106  0.00  0.00     0.017 A 
ATOM      6  C5  UNL d   1       0.861  -1.197   0.403  0.00  0.00     0.034 A 
ATOM      7 Cl   UNL d   1      -1.416   0.032  -0.302  0.00  0.00    -0.070 Cl
ATOM      8 Cl1  UNL d   1       0.359   2.759  -0.208  0.00  0.00    -0.070 Cl
ENDROOT
TORSDOF 0
ENDMDL
