MODEL 1
REMARK minimizedAffinity -2.52141476
REMARK minimizedRMSD -1
REMARK  0 active torsions:
REMARK  status: ('A' for Active; 'I' for Inactive)
ROOT
ATOM      1  C   UNL d   1      -0.754   0.638   0.087  0.00  0.00     0.020 A 
ATOM      2  C1  UNL d   1       0.139   1.704   0.196  0.00  0.00     0.020 A 
ATOM      3  C2  UNL d   1       1.490   1.459   0.453  0.00  0.00     0.034 A 
ATOM      4  C3  UNL d   1       1.952   0.146   0.602  0.00  0.00     0.017 A 
ATOM      5  C4  UNL d   1       1.055  -0.922   0.492  0.00  0.00     0.017 A 
ATOM      6  C5  UNL d   1      -0.297  -0.672   0.235  0.00  0.00     0.034 A 
ATOM      7 Cl   UNL d   1       1.550  -2.569   0.663  0.00  0.00    -0.070 Cl
ATOM      8 Cl1  UNL d   1       3.635  -0.082   0.917  0.00  0.00    -0.070 Cl
ENDROOT
TORSDOF 0
ENDMDL
