MODEL 1
REMARK minimizedAffinity -4.24999714
REMARK minimizedRMSD -1
REMARK  0 active torsions:
REMARK  status: ('A' for Active; 'I' for Inactive)
ROOT
ATOM      1  C   UNL d   1      -0.526  -1.698   1.068  0.00  0.00     0.020 A 
ATOM      2  C1  UNL d   1      -1.298  -0.659   0.550  0.00  0.00     0.020 A 
ATOM      3  C2  UNL d   1      -0.694   0.549   0.195  0.00  0.00     0.034 A 
ATOM      4  C3  UNL d   1       0.685   0.721   0.356  0.00  0.00     0.017 A 
ATOM      5  C4  UNL d   1       1.459  -0.323   0.875  0.00  0.00     0.017 A 
ATOM      6  C5  UNL d   1       0.850  -1.530   1.230  0.00  0.00     0.034 A 
ATOM      7 Cl   UNL d   1       3.167  -0.186   1.103  0.00  0.00    -0.070 Cl
ATOM      8 Cl1  UNL d   1       1.365   2.241  -0.105  0.00  0.00    -0.070 Cl
ENDROOT
TORSDOF 0
ENDMDL
