MODEL 1
REMARK minimizedAffinity -2.92814207
REMARK minimizedRMSD -1
REMARK  0 active torsions:
REMARK  status: ('A' for Active; 'I' for Inactive)
ROOT
ATOM      1  C   UNL d   1       2.812  -0.520   0.944  0.00  0.00     0.020 A 
ATOM      2  C1  UNL d   1       2.014  -1.563   0.476  0.00  0.00     0.020 A 
ATOM      3  C2  UNL d   1       0.761  -1.290  -0.077  0.00  0.00     0.034 A 
ATOM      4  C3  UNL d   1       0.302   0.030  -0.164  0.00  0.00     0.017 A 
ATOM      5  C4  UNL d   1       1.104   1.076   0.305  0.00  0.00     0.017 A 
ATOM      6  C5  UNL d   1       2.358   0.797   0.858  0.00  0.00     0.034 A 
ATOM      7 Cl   UNL d   1       0.607   2.730   0.231  0.00  0.00    -0.070 Cl
ATOM      8 Cl1  UNL d   1      -1.257   0.294  -0.860  0.00  0.00    -0.070 Cl
ENDROOT
TORSDOF 0
ENDMDL
