MODEL 1
REMARK minimizedAffinity -3.0818162
REMARK minimizedRMSD -1
REMARK  0 active torsions:
REMARK  status: ('A' for Active; 'I' for Inactive)
ROOT
ATOM      1  C   UNL d   1       3.192  -0.131   0.636  0.00  0.00     0.020 A 
ATOM      2  C1  UNL d   1       2.513  -1.349   0.664  0.00  0.00     0.020 A 
ATOM      3  C2  UNL d   1       1.132  -1.383   0.457  0.00  0.00     0.034 A 
ATOM      4  C3  UNL d   1       0.426  -0.198   0.221  0.00  0.00     0.017 A 
ATOM      5  C4  UNL d   1       1.108   1.023   0.193  0.00  0.00     0.017 A 
ATOM      6  C5  UNL d   1       2.491   1.052   0.401  0.00  0.00     0.034 A 
ATOM      7 Cl   UNL d   1       0.305   2.527  -0.093  0.00  0.00    -0.070 Cl
ATOM      8 Cl1  UNL d   1      -1.280  -0.315  -0.028  0.00  0.00    -0.070 Cl
ENDROOT
TORSDOF 0
ENDMDL
