MODEL 1
REMARK minimizedAffinity -4.65703678
REMARK minimizedRMSD -1
REMARK  0 active torsions:
REMARK  status: ('A' for Active; 'I' for Inactive)
ROOT
ATOM      1  C   UNL d   1       2.653   0.659   1.136  0.00  0.00     0.020 A 
ATOM      2  C1  UNL d   1       1.705   1.581   0.694  0.00  0.00     0.020 A 
ATOM      3  C2  UNL d   1       0.377   1.187   0.516  0.00  0.00     0.034 A 
ATOM      4  C3  UNL d   1      -0.006  -0.133   0.780  0.00  0.00     0.017 A 
ATOM      5  C4  UNL d   1       0.946  -1.058   1.224  0.00  0.00     0.017 A 
ATOM      6  C5  UNL d   1       2.274  -0.658   1.400  0.00  0.00     0.034 A 
ATOM      7 Cl   UNL d   1       0.549  -2.704   1.570  0.00  0.00    -0.070 Cl
ATOM      8 Cl1  UNL d   1      -1.665  -0.551   0.539  0.00  0.00    -0.070 Cl
ENDROOT
TORSDOF 0
ENDMDL
