MODEL 1
REMARK minimizedAffinity 14.0948658
REMARK minimizedRMSD -1
REMARK  1 active torsions:
REMARK  status: ('A' for Active; 'I' for Inactive)
REMARK    1  A    between atoms: C1_2  and  C2_3 
ROOT
ATOM      1  C2  UNL d   1       2.384   1.347   0.433  0.00  0.00    -0.081 A 
ATOM      2  C3  UNL d   1       3.506   0.594   0.797  0.00  0.00     0.006 A 
ATOM      3  C4  UNL d   1       3.689   0.192   2.122  0.00  0.00     0.002 A 
ATOM      4  C5  UNL d   1       2.750   0.529   3.103  0.00  0.00    -0.080 A 
ATOM      5  C6  UNL d   1       2.919   0.077   4.523  0.00  0.00     0.076 C 
ATOM      6  C7  UNL d   1       1.637   1.296   2.742  0.00  0.00     0.002 A 
ATOM      7  C8  UNL d   1       1.454   1.699   1.417  0.00  0.00     0.006 A 
ENDROOT
BRANCH   1   8
ATOM      8  C1  UNL d   1       2.150   1.727  -1.007  0.00  0.00     0.054 C 
ATOM      9  C   UNL d   1       3.465   1.905  -1.753  0.00  0.00     0.018 C 
ENDBRANCH   1   8
TORSDOF 1
ENDMDL
