MODEL 1
REMARK minimizedAffinity 10.4611835
REMARK minimizedRMSD -1
REMARK  1 active torsions:
REMARK  status: ('A' for Active; 'I' for Inactive)
REMARK    1  A    between atoms: C1_2  and  C2_3 
ROOT
ATOM      1  C2  UNL d   1       1.335   1.076   2.451  0.00  0.00    -0.081 A 
ATOM      2  C3  UNL d   1       1.172   2.143   1.560  0.00  0.00     0.006 A 
ATOM      3  C4  UNL d   1       2.019   2.280   0.457  0.00  0.00     0.002 A 
ATOM      4  C5  UNL d   1       3.037   1.350   0.224  0.00  0.00    -0.080 A 
ATOM      5  C6  UNL d   1       3.934   1.469  -0.972  0.00  0.00     0.076 C 
ATOM      6  C7  UNL d   1       3.211   0.293   1.125  0.00  0.00     0.002 A 
ATOM      7  C8  UNL d   1       2.365   0.156   2.227  0.00  0.00     0.006 A 
ENDROOT
BRANCH   1   8
ATOM      8  C1  UNL d   1       0.383   0.889   3.605  0.00  0.00     0.054 C 
ATOM      9  C   UNL d   1       1.099   0.336   4.829  0.00  0.00     0.018 C 
ENDBRANCH   1   8
TORSDOF 1
ENDMDL
