MODEL 1
REMARK minimizedAffinity 12.4883871
REMARK minimizedRMSD -1
REMARK  1 active torsions:
REMARK  status: ('A' for Active; 'I' for Inactive)
REMARK    1  A    between atoms: C1_2  and  C2_3 
ROOT
ATOM      1  C2  UNL d   1      -3.177  -2.978  -2.181  0.00  0.00    -0.081 A 
ATOM      2  C3  UNL d   1      -4.265  -2.638  -2.994  0.00  0.00     0.006 A 
ATOM      3  C4  UNL d   1      -5.173  -3.615  -3.407  0.00  0.00     0.002 A 
ATOM      4  C5  UNL d   1      -5.015  -4.946  -3.007  0.00  0.00    -0.080 A 
ATOM      5  C6  UNL d   1      -6.000  -6.000  -3.418  0.00  0.00     0.076 C 
ATOM      6  C7  UNL d   1      -3.918  -5.290  -2.209  0.00  0.00     0.002 A 
ATOM      7  C8  UNL d   1      -3.009  -4.313  -1.797  0.00  0.00     0.006 A 
ENDROOT
BRANCH   1   8
ATOM      8  C1  UNL d   1      -2.231  -1.916  -1.681  0.00  0.00     0.054 C 
ATOM      9  C   UNL d   1      -2.199  -1.876  -0.159  0.00  0.00     0.018 C 
ENDBRANCH   1   8
TORSDOF 1
ENDMDL
