MODEL 1
REMARK minimizedAffinity 15.8275442
REMARK minimizedRMSD -1
REMARK  1 active torsions:
REMARK  status: ('A' for Active; 'I' for Inactive)
REMARK    1  A    between atoms: C1_2  and  C2_3 
ROOT
ATOM      1  C2  UNL d   1      -3.773  -3.471  -2.865  0.00  0.00    -0.081 A 
ATOM      2  C3  UNL d   1      -2.835  -2.632  -3.481  0.00  0.00     0.006 A 
ATOM      3  C4  UNL d   1      -1.549  -3.097  -3.765  0.00  0.00     0.002 A 
ATOM      4  C5  UNL d   1      -1.181  -4.408  -3.446  0.00  0.00    -0.080 A 
ATOM      5  C6  UNL d   1       0.187  -4.929  -3.773  0.00  0.00     0.076 C 
ATOM      6  C7  UNL d   1      -2.112  -5.241  -2.816  0.00  0.00     0.002 A 
ATOM      7  C8  UNL d   1      -3.398  -4.777  -2.530  0.00  0.00     0.006 A 
ENDROOT
BRANCH   1   8
ATOM      8  C1  UNL d   1      -5.180  -2.993  -2.616  0.00  0.00     0.054 C 
ATOM      9  C   UNL d   1      -6.000  -2.994  -3.899  0.00  0.00     0.018 C 
ENDBRANCH   1   8
TORSDOF 1
ENDMDL
