MODEL 1
REMARK minimizedAffinity 12.8216305
REMARK minimizedRMSD -1
REMARK  1 active torsions:
REMARK  status: ('A' for Active; 'I' for Inactive)
REMARK    1  A    between atoms: C1_2  and  C2_3 
ROOT
ATOM      1  C2  UNL d   1      -2.067  -2.892  -3.046  0.00  0.00    -0.081 A 
ATOM      2  C3  UNL d   1      -1.318  -2.133  -2.138  0.00  0.00     0.006 A 
ATOM      3  C4  UNL d   1      -1.802  -1.890  -0.850  0.00  0.00     0.002 A 
ATOM      4  C5  UNL d   1      -3.036  -2.410  -0.446  0.00  0.00    -0.080 A 
ATOM      5  C6  UNL d   1      -3.553  -2.183   0.944  0.00  0.00     0.076 C 
ATOM      6  C7  UNL d   1      -3.792  -3.154  -1.358  0.00  0.00     0.002 A 
ATOM      7  C8  UNL d   1      -3.309  -3.396  -2.646  0.00  0.00     0.006 A 
ENDROOT
BRANCH   1   8
ATOM      8  C1  UNL d   1      -1.519  -3.209  -4.414  0.00  0.00     0.054 C 
ATOM      9  C   UNL d   1      -0.647  -4.456  -4.385  0.00  0.00     0.018 C 
ENDBRANCH   1   8
TORSDOF 1
ENDMDL
