MODEL 1
REMARK minimizedAffinity 9.16855717
REMARK minimizedRMSD -1
REMARK  1 active torsions:
REMARK  status: ('A' for Active; 'I' for Inactive)
REMARK    1  A    between atoms: C1_2  and  C2_3 
ROOT
ATOM      1  C2  UNL d   1       3.369  -0.215   1.951  0.00  0.00    -0.081 A 
ATOM      2  C3  UNL d   1       4.349  -0.639   1.046  0.00  0.00     0.006 A 
ATOM      3  C4  UNL d   1       4.499   0.003  -0.186  0.00  0.00     0.002 A 
ATOM      4  C5  UNL d   1       3.678   1.082  -0.529  0.00  0.00    -0.080 A 
ATOM      5  C6  UNL d   1       3.849   1.799  -1.836  0.00  0.00     0.076 C 
ATOM      6  C7  UNL d   1       2.687   1.494   0.368  0.00  0.00     0.002 A 
ATOM      7  C8  UNL d   1       2.536   0.853   1.600  0.00  0.00     0.006 A 
ENDROOT
BRANCH   1   8
ATOM      8  C1  UNL d   1       3.247  -0.863   3.307  0.00  0.00     0.054 C 
ATOM      9  C   UNL d   1       4.519  -0.684   4.123  0.00  0.00     0.018 C 
ENDBRANCH   1   8
TORSDOF 1
ENDMDL
