MODEL 1
REMARK minimizedAffinity 12.6157417
REMARK minimizedRMSD -1
REMARK  1 active torsions:
REMARK  status: ('A' for Active; 'I' for Inactive)
REMARK    1  A    between atoms: C1_2  and  C2_3 
ROOT
ATOM      1  C2  UNL d   1      -3.712  -3.504  -3.206  0.00  0.00    -0.081 A 
ATOM      2  C3  UNL d   1      -2.794  -2.670  -3.856  0.00  0.00     0.006 A 
ATOM      3  C4  UNL d   1      -1.502  -3.121  -4.135  0.00  0.00     0.002 A 
ATOM      4  C5  UNL d   1      -1.109  -4.415  -3.778  0.00  0.00    -0.080 A 
ATOM      5  C6  UNL d   1       0.265  -4.923  -4.100  0.00  0.00     0.076 C 
ATOM      6  C7  UNL d   1      -2.020  -5.243  -3.114  0.00  0.00     0.002 A 
ATOM      7  C8  UNL d   1      -3.312  -4.792  -2.833  0.00  0.00     0.006 A 
ENDROOT
BRANCH   1   8
ATOM      8  C1  UNL d   1      -5.126  -3.043  -2.961  0.00  0.00     0.054 C 
ATOM      9  C   UNL d   1      -5.996  -3.248  -4.192  0.00  0.00     0.018 C 
ENDBRANCH   1   8
TORSDOF 1
ENDMDL
