MODEL 1
REMARK minimizedAffinity 8.29559135
REMARK minimizedRMSD -1
REMARK  1 active torsions:
REMARK  status: ('A' for Active; 'I' for Inactive)
REMARK    1  A    between atoms: C1_2  and  C2_3 
ROOT
ATOM      1  C2  UNL d   1       2.220   1.087   1.282  0.00  0.00    -0.081 A 
ATOM      2  C3  UNL d   1       2.618   2.080   0.378  0.00  0.00     0.006 A 
ATOM      3  C4  UNL d   1       3.845   1.985  -0.283  0.00  0.00     0.002 A 
ATOM      4  C5  UNL d   1       4.690   0.893  -0.059  0.00  0.00    -0.080 A 
ATOM      5  C6  UNL d   1       5.995   0.763  -0.785  0.00  0.00     0.076 C 
ATOM      6  C7  UNL d   1       4.300  -0.090   0.858  0.00  0.00     0.002 A 
ATOM      7  C8  UNL d   1       3.074   0.005   1.520  0.00  0.00     0.006 A 
ENDROOT
BRANCH   1   8
ATOM      8  C1  UNL d   1       0.869   1.154   1.948  0.00  0.00     0.054 C 
ATOM      9  C   UNL d   1       0.373  -0.232   2.332  0.00  0.00     0.018 C 
ENDBRANCH   1   8
TORSDOF 1
ENDMDL
