MODEL 1
REMARK minimizedAffinity 16.9681587
REMARK minimizedRMSD -1
REMARK  1 active torsions:
REMARK  status: ('A' for Active; 'I' for Inactive)
REMARK    1  A    between atoms: C1_2  and  C2_3 
ROOT
ATOM      1  C2  UNL d   1      -4.994   2.683   3.549  0.00  0.00    -0.081 A 
ATOM      2  C3  UNL d   1      -5.028   1.403   2.983  0.00  0.00     0.006 A 
ATOM      3  C4  UNL d   1      -5.338   0.290   3.768  0.00  0.00     0.002 A 
ATOM      4  C5  UNL d   1      -5.627   0.438   5.128  0.00  0.00    -0.080 A 
ATOM      5  C6  UNL d   1      -5.991  -0.745   5.975  0.00  0.00     0.076 C 
ATOM      6  C7  UNL d   1      -5.575   1.715   5.698  0.00  0.00     0.002 A 
ATOM      7  C8  UNL d   1      -5.264   2.829   4.914  0.00  0.00     0.006 A 
ENDROOT
BRANCH   1   8
ATOM      8  C1  UNL d   1      -4.723   3.893   2.692  0.00  0.00     0.054 C 
ATOM      9  C   UNL d   1      -5.770   4.041   1.597  0.00  0.00     0.018 C 
ENDBRANCH   1   8
TORSDOF 1
ENDMDL
