MODEL 1
REMARK minimizedAffinity 15.569005
REMARK minimizedRMSD -1
REMARK  1 active torsions:
REMARK  status: ('A' for Active; 'I' for Inactive)
REMARK    1  A    between atoms: C1_2  and  C2_3 
ROOT
ATOM      1  C2  UNL d   1       2.380   1.429   1.104  0.00  0.00    -0.081 A 
ATOM      2  C3  UNL d   1       3.037   0.192   1.087  0.00  0.00     0.006 A 
ATOM      3  C4  UNL d   1       4.202   0.019   0.335  0.00  0.00     0.002 A 
ATOM      4  C5  UNL d   1       4.732   1.081  -0.406  0.00  0.00    -0.080 A 
ATOM      5  C6  UNL d   1       5.998   0.917  -1.193  0.00  0.00     0.076 C 
ATOM      6  C7  UNL d   1       4.066   2.311  -0.403  0.00  0.00     0.002 A 
ATOM      7  C8  UNL d   1       2.902   2.484   0.348  0.00  0.00     0.006 A 
ENDROOT
BRANCH   1   8
ATOM      8  C1  UNL d   1       1.161   1.637   1.965  0.00  0.00     0.054 C 
ATOM      9  C   UNL d   1       0.701   0.331   2.599  0.00  0.00     0.018 C 
ENDBRANCH   1   8
TORSDOF 1
ENDMDL
