MODEL 1
REMARK minimizedAffinity 24.2191105
REMARK minimizedRMSD -1
REMARK  1 active torsions:
REMARK  status: ('A' for Active; 'I' for Inactive)
REMARK    1  A    between atoms: C1_2  and  C2_3 
ROOT
ATOM      1  C2  UNL d   1      -2.216  -2.522  -1.111  0.00  0.00    -0.081 A 
ATOM      2  C3  UNL d   1      -0.896  -2.835  -0.767  0.00  0.00     0.006 A 
ATOM      3  C4  UNL d   1      -0.518  -2.932   0.575  0.00  0.00     0.002 A 
ATOM      4  C5  UNL d   1      -1.455  -2.727   1.593  0.00  0.00    -0.080 A 
ATOM      5  C6  UNL d   1      -1.070  -2.858   3.036  0.00  0.00     0.076 C 
ATOM      6  C7  UNL d   1      -2.770  -2.397   1.249  0.00  0.00     0.002 A 
ATOM      7  C8  UNL d   1      -3.149  -2.299  -0.092  0.00  0.00     0.006 A 
ENDROOT
BRANCH   1   8
ATOM      8  C1  UNL d   1      -2.642  -2.480  -2.557  0.00  0.00     0.054 C 
ATOM      9  C   UNL d   1      -3.940  -3.244  -2.774  0.00  0.00     0.018 C 
ENDBRANCH   1   8
TORSDOF 1
ENDMDL
