MODEL 1
REMARK minimizedAffinity 11.5078239
REMARK minimizedRMSD -1
REMARK  1 active torsions:
REMARK  status: ('A' for Active; 'I' for Inactive)
REMARK    1  A    between atoms: C1_2  and  C2_3 
ROOT
ATOM      1  C2  UNL d   1       3.598  -0.265   1.004  0.00  0.00    -0.081 A 
ATOM      2  C3  UNL d   1       4.064  -0.768   2.225  0.00  0.00     0.006 A 
ATOM      3  C4  UNL d   1       3.279  -0.670   3.376  0.00  0.00     0.002 A 
ATOM      4  C5  UNL d   1       2.014  -0.075   3.325  0.00  0.00    -0.080 A 
ATOM      5  C6  UNL d   1       1.149   0.009   4.547  0.00  0.00     0.076 C 
ATOM      6  C7  UNL d   1       1.556   0.443   2.108  0.00  0.00     0.002 A 
ATOM      7  C8  UNL d   1       2.340   0.346   0.957  0.00  0.00     0.006 A 
ENDROOT
BRANCH   1   8
ATOM      8  C1  UNL d   1       4.415  -0.426  -0.253  0.00  0.00     0.054 C 
ATOM      9  C   UNL d   1       5.714  -1.169   0.023  0.00  0.00     0.018 C 
ENDBRANCH   1   8
TORSDOF 1
ENDMDL
