MODEL 1
REMARK minimizedAffinity 15.735754
REMARK minimizedRMSD -1
REMARK  1 active torsions:
REMARK  status: ('A' for Active; 'I' for Inactive)
REMARK    1  A    between atoms: C1_2  and  C2_3 
ROOT
ATOM      1  C2  UNL d   1      -4.291   2.097   3.794  0.00  0.00    -0.081 A 
ATOM      2  C3  UNL d   1      -4.196   2.690   5.059  0.00  0.00     0.006 A 
ATOM      3  C4  UNL d   1      -4.737   3.957   5.289  0.00  0.00     0.002 A 
ATOM      4  C5  UNL d   1      -5.388   4.649   4.262  0.00  0.00    -0.080 A 
ATOM      5  C6  UNL d   1      -5.999   5.997   4.503  0.00  0.00     0.076 C 
ATOM      6  C7  UNL d   1      -5.467   4.063   2.993  0.00  0.00     0.002 A 
ATOM      7  C8  UNL d   1      -4.926   2.797   2.763  0.00  0.00     0.006 A 
ENDROOT
BRANCH   1   8
ATOM      8  C1  UNL d   1      -3.766   0.703   3.560  0.00  0.00     0.054 C 
ATOM      9  C   UNL d   1      -4.861  -0.338   3.740  0.00  0.00     0.018 C 
ENDBRANCH   1   8
TORSDOF 1
ENDMDL
