MODEL 1
REMARK minimizedAffinity 16.1666584
REMARK minimizedRMSD -1
REMARK  1 active torsions:
REMARK  status: ('A' for Active; 'I' for Inactive)
REMARK    1  A    between atoms: C1_2  and  C2_3 
ROOT
ATOM      1  C2  UNL d   1       3.100   1.488  -0.566  0.00  0.00    -0.081 A 
ATOM      2  C3  UNL d   1       3.319   0.242   0.033  0.00  0.00     0.006 A 
ATOM      3  C4  UNL d   1       2.571  -0.151   1.145  0.00  0.00     0.002 A 
ATOM      4  C5  UNL d   1       1.586   0.692   1.672  0.00  0.00    -0.080 A 
ATOM      5  C6  UNL d   1       0.755   0.270   2.847  0.00  0.00     0.076 C 
ATOM      6  C7  UNL d   1       1.379   1.944   1.085  0.00  0.00     0.002 A 
ATOM      7  C8  UNL d   1       2.128   2.338  -0.027  0.00  0.00     0.006 A 
ENDROOT
BRANCH   1   8
ATOM      8  C1  UNL d   1       3.860   1.888  -1.804  0.00  0.00     0.054 C 
ATOM      9  C   UNL d   1       3.127   2.974  -2.577  0.00  0.00     0.018 C 
ENDBRANCH   1   8
TORSDOF 1
ENDMDL
