MODEL 1
REMARK minimizedAffinity 28.0905933
REMARK minimizedRMSD -1
REMARK  1 active torsions:
REMARK  status: ('A' for Active; 'I' for Inactive)
REMARK    1  A    between atoms: C1_2  and  C2_3 
ROOT
ATOM      1  C2  UNL d   1       1.602   0.040   3.685  0.00  0.00    -0.081 A 
ATOM      2  C3  UNL d   1       1.247   0.389   2.376  0.00  0.00     0.006 A 
ATOM      3  C4  UNL d   1       2.090   0.081   1.306  0.00  0.00     0.002 A 
ATOM      4  C5  UNL d   1       3.299  -0.588   1.526  0.00  0.00    -0.080 A 
ATOM      5  C6  UNL d   1       4.200  -0.952   0.383  0.00  0.00     0.076 C 
ATOM      6  C7  UNL d   1       3.663  -0.922   2.835  0.00  0.00     0.002 A 
ATOM      7  C8  UNL d   1       2.820  -0.613   3.905  0.00  0.00     0.006 A 
ENDROOT
BRANCH   1   8
ATOM      8  C1  UNL d   1       0.665   0.314   4.833  0.00  0.00     0.054 C 
ATOM      9  C   UNL d   1      -0.503  -0.662   4.838  0.00  0.00     0.018 C 
ENDBRANCH   1   8
TORSDOF 1
ENDMDL
