MODEL 1
REMARK minimizedAffinity 17.0501671
REMARK minimizedRMSD -1
REMARK  1 active torsions:
REMARK  status: ('A' for Active; 'I' for Inactive)
REMARK    1  A    between atoms: C1_2  and  C2_3 
ROOT
ATOM      1  C2  UNL d   1       2.984   0.793   1.481  0.00  0.00    -0.081 A 
ATOM      2  C3  UNL d   1       3.021   1.879   0.598  0.00  0.00     0.006 A 
ATOM      3  C4  UNL d   1       4.002   1.953  -0.393  0.00  0.00     0.002 A 
ATOM      4  C5  UNL d   1       4.958   0.940  -0.523  0.00  0.00    -0.080 A 
ATOM      5  C6  UNL d   1       5.999   0.993  -1.601  0.00  0.00     0.076 C 
ATOM      6  C7  UNL d   1       4.933  -0.136   0.371  0.00  0.00     0.002 A 
ATOM      7  C8  UNL d   1       3.952  -0.211   1.362  0.00  0.00     0.006 A 
ENDROOT
BRANCH   1   8
ATOM      8  C1  UNL d   1       1.888   0.677   2.509  0.00  0.00     0.054 C 
ATOM      9  C   UNL d   1       1.084   1.965   2.607  0.00  0.00     0.018 C 
ENDBRANCH   1   8
TORSDOF 1
ENDMDL
