MODEL 1
REMARK minimizedAffinity 2.8097322
REMARK minimizedRMSD -1
REMARK  0 active torsions:
REMARK  status: ('A' for Active; 'I' for Inactive)
ROOT
ATOM      1  O1  BZF d   1       4.659  -0.359   0.588  0.00  0.00    -0.204 OA
ATOM      2  C2  BZF d   1       5.773  -1.125   0.872  0.00  0.00     0.174 A 
ATOM      3  C3  BZF d   1       5.414  -2.341   1.331  0.00  0.00    -0.012 A 
ATOM      4  C3A BZF d   1       3.986  -2.368   1.247  0.00  0.00    -0.107 A 
ATOM      5  C4  BZF d   1       3.045  -3.312   1.544  0.00  0.00     0.055 A 
ATOM      6  C5  BZF d   1       1.729  -2.997   1.417  0.00  0.00    -0.016 A 
ATOM      7  C6  BZF d   1       1.319  -1.747   1.001  0.00  0.00     0.022 A 
ATOM      8  C7  BZF d   1       2.215  -0.779   0.691  0.00  0.00     0.029 A 
ATOM      9  C7A BZF d   1       3.546  -1.105   0.786  0.00  0.00     0.058 A 
ENDROOT
TORSDOF 0
ENDMDL
