MODEL 1
REMARK minimizedAffinity 10.9331179
REMARK minimizedRMSD -1
REMARK  0 active torsions:
REMARK  status: ('A' for Active; 'I' for Inactive)
ROOT
ATOM      1  O1  BZF d   1       1.659  -5.164   0.970  0.00  0.00    -0.204 OA
ATOM      2  C2  BZF d   1       2.623  -5.139  -0.019  0.00  0.00     0.174 A 
ATOM      3  C3  BZF d   1       2.965  -3.871  -0.322  0.00  0.00    -0.012 A 
ATOM      4  C3A BZF d   1       2.232  -3.054   0.596  0.00  0.00    -0.107 A 
ATOM      5  C4  BZF d   1       2.161  -1.706   0.803  0.00  0.00     0.055 A 
ATOM      6  C5  BZF d   1       1.292  -1.225   1.731  0.00  0.00    -0.016 A 
ATOM      7  C6  BZF d   1       0.477  -2.062   2.465  0.00  0.00     0.022 A 
ATOM      8  C7  BZF d   1       0.515  -3.406   2.298  0.00  0.00     0.029 A 
ATOM      9  C7A BZF d   1       1.415  -3.897   1.384  0.00  0.00     0.058 A 
ENDROOT
TORSDOF 0
ENDMDL
