MODEL 1
REMARK minimizedAffinity 7.0502429
REMARK minimizedRMSD -1
REMARK  0 active torsions:
REMARK  status: ('A' for Active; 'I' for Inactive)
ROOT
ATOM      1  O1  BZF d   1       0.157  -0.481   1.781  0.00  0.00    -0.204 OA
ATOM      2  C2  BZF d   1      -0.273  -0.860   3.038  0.00  0.00     0.174 A 
ATOM      3  C3  BZF d   1       0.243  -2.058   3.378  0.00  0.00    -0.012 A 
ATOM      4  C3A BZF d   1       1.118  -2.411   2.303  0.00  0.00    -0.107 A 
ATOM      5  C4  BZF d   1       1.931  -3.482   2.067  0.00  0.00     0.055 A 
ATOM      6  C5  BZF d   1       2.599  -3.557   0.886  0.00  0.00    -0.016 A 
ATOM      7  C6  BZF d   1       2.473  -2.582  -0.083  0.00  0.00     0.022 A 
ATOM      8  C7  BZF d   1       1.682  -1.499   0.108  0.00  0.00     0.029 A 
ATOM      9  C7A BZF d   1       1.032  -1.404   1.314  0.00  0.00     0.058 A 
ENDROOT
TORSDOF 0
ENDMDL
