MODEL 1
REMARK minimizedAffinity 8.20139503
REMARK minimizedRMSD -1
REMARK  0 active torsions:
REMARK  status: ('A' for Active; 'I' for Inactive)
ROOT
ATOM      1  O1  BZF d   1      -0.464  -1.578   3.817  0.00  0.00    -0.204 OA
ATOM      2  C2  BZF d   1      -1.357  -0.629   3.359  0.00  0.00     0.174 A 
ATOM      3  C3  BZF d   1      -1.168  -0.389   2.045  0.00  0.00    -0.012 A 
ATOM      4  C3A BZF d   1      -0.151  -1.309   1.637  0.00  0.00    -0.107 A 
ATOM      5  C4  BZF d   1       0.458  -1.567   0.442  0.00  0.00     0.055 A 
ATOM      6  C5  BZF d   1       1.464  -2.478   0.396  0.00  0.00    -0.016 A 
ATOM      7  C6  BZF d   1       1.891  -3.147   1.525  0.00  0.00     0.022 A 
ATOM      8  C7  BZF d   1       1.314  -2.929   2.732  0.00  0.00     0.029 A 
ATOM      9  C7A BZF d   1       0.274  -2.032   2.776  0.00  0.00     0.058 A 
ENDROOT
TORSDOF 0
ENDMDL
