MODEL 1
REMARK minimizedAffinity 3.28357577
REMARK minimizedRMSD -1
REMARK  0 active torsions:
REMARK  status: ('A' for Active; 'I' for Inactive)
ROOT
ATOM      1  O1  BZF d   1      -0.116  -2.631   2.906  0.00  0.00    -0.204 OA
ATOM      2  C2  BZF d   1      -0.350  -1.304   3.209  0.00  0.00     0.174 A 
ATOM      3  C3  BZF d   1       0.437  -0.498   2.468  0.00  0.00    -0.012 A 
ATOM      4  C3A BZF d   1       1.145  -1.372   1.585  0.00  0.00    -0.107 A 
ATOM      5  C4  BZF d   1       2.065  -1.165   0.597  0.00  0.00     0.055 A 
ATOM      6  C5  BZF d   1       2.617  -2.239  -0.027  0.00  0.00    -0.016 A 
ATOM      7  C6  BZF d   1       2.277  -3.531   0.314  0.00  0.00     0.022 A 
ATOM      8  C7  BZF d   1       1.365  -3.787   1.284  0.00  0.00     0.029 A 
ATOM      9  C7A BZF d   1       0.781  -2.703   1.894  0.00  0.00     0.058 A 
ENDROOT
TORSDOF 0
ENDMDL
