MODEL 1
REMARK minimizedAffinity 6.31803226
REMARK minimizedRMSD -1
REMARK  0 active torsions:
REMARK  status: ('A' for Active; 'I' for Inactive)
ROOT
ATOM      1  O1  BZF d   1       3.465  -1.685   1.291  0.00  0.00    -0.204 OA
ATOM      2  C2  BZF d   1       2.097  -1.518   1.374  0.00  0.00     0.174 A 
ATOM      3  C3  BZF d   1       1.466  -2.709   1.336  0.00  0.00    -0.012 A 
ATOM      4  C3A BZF d   1       2.510  -3.687   1.315  0.00  0.00    -0.107 A 
ATOM      5  C4  BZF d   1       2.517  -5.053   1.291  0.00  0.00     0.055 A 
ATOM      6  C5  BZF d   1       3.705  -5.706   1.201  0.00  0.00    -0.016 A 
ATOM      7  C6  BZF d   1       4.904  -5.026   1.128  0.00  0.00     0.022 A 
ATOM      8  C7  BZF d   1       4.947  -3.672   1.153  0.00  0.00     0.029 A 
ATOM      9  C7A BZF d   1       3.750  -3.010   1.277  0.00  0.00     0.058 A 
ENDROOT
TORSDOF 0
ENDMDL
