MODEL 1
REMARK minimizedAffinity 6.04822874
REMARK minimizedRMSD -1
REMARK  0 active torsions:
REMARK  status: ('A' for Active; 'I' for Inactive)
ROOT
ATOM      1  O1  BZF d   1      -0.577   3.160  -2.714  0.00  0.00    -0.204 OA
ATOM      2  C2  BZF d   1      -1.493   2.155  -2.956  0.00  0.00     0.174 A 
ATOM      3  C3  BZF d   1      -1.225   1.533  -4.122  0.00  0.00    -0.012 A 
ATOM      4  C3A BZF d   1      -0.015   2.131  -4.598  0.00  0.00    -0.107 A 
ATOM      5  C4  BZF d   1       0.763   1.926  -5.702  0.00  0.00     0.055 A 
ATOM      6  C5  BZF d   1       1.840   2.728  -5.908  0.00  0.00    -0.016 A 
ATOM      7  C6  BZF d   1       2.166   3.745  -5.035  0.00  0.00     0.022 A 
ATOM      8  C7  BZF d   1       1.428   3.983  -3.924  0.00  0.00     0.029 A 
ATOM      9  C7A BZF d   1       0.357   3.154  -3.695  0.00  0.00     0.058 A 
ENDROOT
TORSDOF 0
ENDMDL
