MODEL 1
REMARK minimizedAffinity 13.0639811
REMARK minimizedRMSD -1
REMARK  0 active torsions:
REMARK  status: ('A' for Active; 'I' for Inactive)
ROOT
ATOM      1  O1  BZF d   1       0.428  -5.184   1.430  0.00  0.00    -0.204 OA
ATOM      2  C2  BZF d   1       1.677  -4.742   1.039  0.00  0.00     0.174 A 
ATOM      3  C3  BZF d   1       1.831  -3.432   1.320  0.00  0.00    -0.012 A 
ATOM      4  C3A BZF d   1       0.636  -3.052   2.009  0.00  0.00    -0.107 A 
ATOM      5  C4  BZF d   1       0.201  -1.879   2.557  0.00  0.00     0.055 A 
ATOM      6  C5  BZF d   1      -1.047  -1.823   3.092  0.00  0.00    -0.016 A 
ATOM      7  C6  BZF d   1      -1.887  -2.917   3.091  0.00  0.00     0.022 A 
ATOM      8  C7  BZF d   1      -1.499  -4.103   2.563  0.00  0.00     0.029 A 
ATOM      9  C7A BZF d   1      -0.226  -4.172   2.051  0.00  0.00     0.058 A 
ENDROOT
TORSDOF 0
ENDMDL
