MODEL 1
REMARK minimizedAffinity 8.04140568
REMARK minimizedRMSD -1
REMARK  0 active torsions:
REMARK  status: ('A' for Active; 'I' for Inactive)
ROOT
ATOM      1  C   UNL d   1       0.030   4.669  -0.007  0.00  0.00     0.020 A 
ATOM      2  C1  UNL d   1      -1.044   3.840   0.315  0.00  0.00     0.020 A 
ATOM      3  C2  UNL d   1      -0.926   2.920   1.359  0.00  0.00     0.034 A 
ATOM      4  C3  UNL d   1       0.268   2.826   2.084  0.00  0.00     0.017 A 
ATOM      5  C4  UNL d   1       1.345   3.659   1.759  0.00  0.00     0.017 A 
ATOM      6  C5  UNL d   1       1.221   4.579   0.713  0.00  0.00     0.034 A 
ATOM      7 Cl   UNL d   1       2.849   3.602   2.608  0.00  0.00    -0.070 Cl
ATOM      8 Cl1  UNL d   1       0.343   1.666   3.362  0.00  0.00    -0.070 Cl
ENDROOT
TORSDOF 0
ENDMDL
