MODEL 1
REMARK minimizedAffinity 10.6279974
REMARK minimizedRMSD -1
REMARK  0 active torsions:
REMARK  status: ('A' for Active; 'I' for Inactive)
ROOT
ATOM      1  C   UNL d   1       0.056   5.434  -0.951  0.00  0.00     0.020 A 
ATOM      2  C1  UNL d   1       0.443   4.099  -0.842  0.00  0.00     0.020 A 
ATOM      3  C2  UNL d   1      -0.003   3.329   0.235  0.00  0.00     0.034 A 
ATOM      4  C3  UNL d   1      -0.838   3.893   1.206  0.00  0.00     0.017 A 
ATOM      5  C4  UNL d   1      -1.226   5.233   1.095  0.00  0.00     0.017 A 
ATOM      6  C5  UNL d   1      -0.776   6.000   0.015  0.00  0.00     0.034 A 
ATOM      7 Cl   UNL d   1      -2.254   6.000   2.253  0.00  0.00    -0.070 Cl
ATOM      8 Cl1  UNL d   1      -1.352   2.882   2.510  0.00  0.00    -0.070 Cl
ENDROOT
TORSDOF 0
ENDMDL
