MODEL 1
REMARK minimizedAffinity 9.58580303
REMARK minimizedRMSD -1
REMARK  0 active torsions:
REMARK  status: ('A' for Active; 'I' for Inactive)
ROOT
ATOM      1  C   UNL d   1       5.586  -3.620  -0.980  0.00  0.00     0.020 A 
ATOM      2  C1  UNL d   1       5.921  -2.283  -1.184  0.00  0.00     0.020 A 
ATOM      3  C2  UNL d   1       5.225  -1.278  -0.509  0.00  0.00     0.034 A 
ATOM      4  C3  UNL d   1       4.189  -1.609   0.373  0.00  0.00     0.017 A 
ATOM      5  C4  UNL d   1       3.853  -2.952   0.577  0.00  0.00     0.017 A 
ATOM      6  C5  UNL d   1       4.554  -3.954  -0.101  0.00  0.00     0.034 A 
ATOM      7 Cl   UNL d   1       2.588  -3.438   1.649  0.00  0.00    -0.070 Cl
ATOM      8 Cl1  UNL d   1       3.371  -0.314   1.173  0.00  0.00    -0.070 Cl
ENDROOT
TORSDOF 0
ENDMDL
