MODEL 1
REMARK minimizedAffinity 7.86977482
REMARK minimizedRMSD -1
REMARK  0 active torsions:
REMARK  status: ('A' for Active; 'I' for Inactive)
ROOT
ATOM      1  C   UNL d   1       5.695  -3.129  -1.939  0.00  0.00     0.020 A 
ATOM      2  C1  UNL d   1       5.269  -4.438  -1.719  0.00  0.00     0.020 A 
ATOM      3  C2  UNL d   1       4.016  -4.679  -1.152  0.00  0.00     0.034 A 
ATOM      4  C3  UNL d   1       3.183  -3.608  -0.804  0.00  0.00     0.017 A 
ATOM      5  C4  UNL d   1       3.612  -2.295  -1.026  0.00  0.00     0.017 A 
ATOM      6  C5  UNL d   1       4.868  -2.060  -1.593  0.00  0.00     0.034 A 
ATOM      7 Cl   UNL d   1       2.641  -0.923  -0.622  0.00  0.00    -0.070 Cl
ATOM      8 Cl1  UNL d   1       1.646  -3.979  -0.109  0.00  0.00    -0.070 Cl
ENDROOT
TORSDOF 0
ENDMDL
