MODEL 1
REMARK minimizedAffinity 6.34158373
REMARK minimizedRMSD -1
REMARK  0 active torsions:
REMARK  status: ('A' for Active; 'I' for Inactive)
ROOT
ATOM      1  C   UNL d   1       0.381   4.088  -0.565  0.00  0.00     0.020 A 
ATOM      2  C1  UNL d   1       0.005   5.429  -0.614  0.00  0.00     0.020 A 
ATOM      3  C2  UNL d   1      -0.689   6.000   0.455  0.00  0.00     0.034 A 
ATOM      4  C3  UNL d   1      -1.009   5.229   1.578  0.00  0.00     0.017 A 
ATOM      5  C4  UNL d   1      -0.631   3.882   1.627  0.00  0.00     0.017 A 
ATOM      6  C5  UNL d   1       0.063   3.316   0.553  0.00  0.00     0.034 A 
ATOM      7 Cl   UNL d   1      -0.991   2.867   2.979  0.00  0.00    -0.070 Cl
ATOM      8 Cl1  UNL d   1      -1.869   6.000   2.864  0.00  0.00    -0.070 Cl
ENDROOT
TORSDOF 0
ENDMDL
