MODEL 1
REMARK minimizedAffinity 9.3426075
REMARK minimizedRMSD -1
REMARK  0 active torsions:
REMARK  status: ('A' for Active; 'I' for Inactive)
ROOT
ATOM      1  C   UNL d   1       5.994  -2.923  -1.492  0.00  0.00     0.020 A 
ATOM      2  C1  UNL d   1       5.794  -4.158  -0.878  0.00  0.00     0.020 A 
ATOM      3  C2  UNL d   1       4.632  -4.391  -0.139  0.00  0.00     0.034 A 
ATOM      4  C3  UNL d   1       3.665  -3.387  -0.012  0.00  0.00     0.017 A 
ATOM      5  C4  UNL d   1       3.867  -2.147  -0.629  0.00  0.00     0.017 A 
ATOM      6  C5  UNL d   1       5.032  -1.919  -1.368  0.00  0.00     0.034 A 
ATOM      7 Cl   UNL d   1       2.720  -0.859  -0.518  0.00  0.00    -0.070 Cl
ATOM      8 Cl1  UNL d   1       2.252  -3.744   0.916  0.00  0.00    -0.070 Cl
ENDROOT
TORSDOF 0
ENDMDL
