MODEL 1
REMARK minimizedAffinity 5.85038996
REMARK minimizedRMSD -1
REMARK  0 active torsions:
REMARK  status: ('A' for Active; 'I' for Inactive)
ROOT
ATOM      1  C   UNL d   1       4.335  -2.387   0.251  0.00  0.00     0.020 A 
ATOM      2  C1  UNL d   1       5.482  -2.046  -0.466  0.00  0.00     0.020 A 
ATOM      3  C2  UNL d   1       5.741  -2.651  -1.697  0.00  0.00     0.034 A 
ATOM      4  C3  UNL d   1       4.854  -3.601  -2.215  0.00  0.00     0.017 A 
ATOM      5  C4  UNL d   1       3.704  -3.943  -1.495  0.00  0.00     0.017 A 
ATOM      6  C5  UNL d   1       3.449  -3.334  -0.263  0.00  0.00     0.034 A 
ATOM      7 Cl   UNL d   1       2.562  -5.107  -2.070  0.00  0.00    -0.070 Cl
ATOM      8 Cl1  UNL d   1       5.238  -4.309  -3.744  0.00  0.00    -0.070 Cl
ENDROOT
TORSDOF 0
ENDMDL
