MODEL 1
REMARK minimizedAffinity 10.3612108
REMARK minimizedRMSD -1
REMARK  0 active torsions:
REMARK  status: ('A' for Active; 'I' for Inactive)
ROOT
ATOM      1  C   UNL d   1       0.255   5.306  -1.331  0.00  0.00     0.020 A 
ATOM      2  C1  UNL d   1       0.924   5.752  -0.192  0.00  0.00     0.020 A 
ATOM      3  C2  UNL d   1       0.947   4.962   0.959  0.00  0.00     0.034 A 
ATOM      4  C3  UNL d   1       0.300   3.721   0.974  0.00  0.00     0.017 A 
ATOM      5  C4  UNL d   1      -0.371   3.273  -0.170  0.00  0.00     0.017 A 
ATOM      6  C5  UNL d   1      -0.391   4.069  -1.320  0.00  0.00     0.034 A 
ATOM      7 Cl   UNL d   1      -1.192   1.753  -0.228  0.00  0.00    -0.070 Cl
ATOM      8 Cl1  UNL d   1       0.369   2.796   2.432  0.00  0.00    -0.070 Cl
ENDROOT
TORSDOF 0
ENDMDL
