MODEL 1
REMARK minimizedAffinity 7.96740484
REMARK minimizedRMSD -1
REMARK  0 active torsions:
REMARK  status: ('A' for Active; 'I' for Inactive)
ROOT
ATOM      1  C   UNL d   1      -0.744   5.997   0.438  0.00  0.00     0.020 A 
ATOM      2  C1  UNL d   1      -0.114   5.589  -0.737  0.00  0.00     0.020 A 
ATOM      3  C2  UNL d   1       0.390   4.291  -0.844  0.00  0.00     0.034 A 
ATOM      4  C3  UNL d   1       0.264   3.397   0.226  0.00  0.00     0.017 A 
ATOM      5  C4  UNL d   1      -0.368   3.808   1.405  0.00  0.00     0.017 A 
ATOM      6  C5  UNL d   1      -0.871   5.109   1.506  0.00  0.00     0.034 A 
ATOM      7 Cl   UNL d   1      -0.561   2.761   2.767  0.00  0.00    -0.070 Cl
ATOM      8 Cl1  UNL d   1       0.910   1.807   0.024  0.00  0.00    -0.070 Cl
ENDROOT
TORSDOF 0
ENDMDL
