MODEL 1
REMARK minimizedAffinity -5.11117315
REMARK minimizedRMSD -1
REMARK  0 active torsions:
REMARK  status: ('A' for Active; 'I' for Inactive)
ROOT
ATOM      1  C   UNL d   1      -1.161  -3.001  -4.777  0.00  0.00    -0.002 A 
ATOM      2  C1  UNL d   1      -1.834  -1.812  -5.015  0.00  0.00     0.010 A 
ATOM      3  C2  UNL d   1      -1.746  -0.752  -4.110  0.00  0.00     0.041 A 
ATOM      4  C3  UNL d   1      -0.959  -0.909  -2.952  0.00  0.00    -0.075 A 
ATOM      5  S   UNL d   1      -0.703   0.253  -1.704  0.00  0.00     0.015 SA
ATOM      6  C4  UNL d   1       0.308  -0.802  -0.827  0.00  0.00     0.022 A 
ATOM      7  C5  UNL d   1       0.456  -2.016  -1.455  0.00  0.00     0.026 A 
ATOM      8  C6  UNL d   1      -0.271  -2.097  -2.691  0.00  0.00    -0.082 A 
ATOM      9  C7  UNL d   1      -0.382  -3.153  -3.627  0.00  0.00     0.045 A 
ENDROOT
TORSDOF 0
ENDMDL
