MODEL 1
REMARK minimizedAffinity -4.78792715
REMARK minimizedRMSD -1
REMARK  0 active torsions:
REMARK  status: ('A' for Active; 'I' for Inactive)
ROOT
ATOM      1  C   UNL d   1      -0.130   0.005   0.744  0.00  0.00    -0.002 A 
ATOM      2  C1  UNL d   1       0.231   1.343   0.675  0.00  0.00     0.010 A 
ATOM      3  C2  UNL d   1       0.729   1.884  -0.511  0.00  0.00     0.041 A 
ATOM      4  C3  UNL d   1       0.858   1.050  -1.639  0.00  0.00    -0.075 A 
ATOM      5  S   UNL d   1       1.444   1.494  -3.199  0.00  0.00     0.015 SA
ATOM      6  C4  UNL d   1       1.228  -0.082  -3.811  0.00  0.00     0.022 A 
ATOM      7  C5  UNL d   1       0.722  -0.939  -2.862  0.00  0.00     0.026 A 
ATOM      8  C6  UNL d   1       0.500  -0.300  -1.595  0.00  0.00    -0.082 A 
ATOM      9  C7  UNL d   1      -0.001  -0.819  -0.377  0.00  0.00     0.045 A 
ENDROOT
TORSDOF 0
ENDMDL
