MODEL 1
REMARK minimizedAffinity -3.64972377
REMARK minimizedRMSD -1
REMARK  0 active torsions:
REMARK  status: ('A' for Active; 'I' for Inactive)
ROOT
ATOM      1  C   UNL d   1      -1.496   0.337   2.748  0.00  0.00    -0.002 A 
ATOM      2  C1  UNL d   1      -0.397  -0.313   3.290  0.00  0.00     0.010 A 
ATOM      3  C2  UNL d   1       0.616  -0.806   2.465  0.00  0.00     0.041 A 
ATOM      4  C3  UNL d   1       0.504  -0.632   1.071  0.00  0.00    -0.075 A 
ATOM      5  S   UNL d   1       1.621  -1.151  -0.134  0.00  0.00     0.015 SA
ATOM      6  C4  UNL d   1       0.666  -0.522  -1.398  0.00  0.00     0.022 A 
ATOM      7  C5  UNL d   1      -0.481   0.073  -0.929  0.00  0.00     0.026 A 
ATOM      8  C6  UNL d   1      -0.594   0.020   0.501  0.00  0.00    -0.082 A 
ATOM      9  C7  UNL d   1      -1.604   0.508   1.365  0.00  0.00     0.045 A 
ENDROOT
TORSDOF 0
ENDMDL
