MODEL 1
REMARK minimizedAffinity -3.72813988
REMARK minimizedRMSD -1
REMARK  0 active torsions:
REMARK  status: ('A' for Active; 'I' for Inactive)
ROOT
ATOM      1  C   UNL d   1      -0.771   1.495   2.126  0.00  0.00    -0.002 A 
ATOM      2  C1  UNL d   1      -1.588   1.436   1.006  0.00  0.00     0.010 A 
ATOM      3  C2  UNL d   1      -1.302   0.552  -0.036  0.00  0.00     0.041 A 
ATOM      4  C3  UNL d   1      -0.171  -0.282   0.069  0.00  0.00    -0.075 A 
ATOM      5  S   UNL d   1       0.374  -1.443  -1.083  0.00  0.00     0.015 SA
ATOM      6  C4  UNL d   1       1.704  -1.889  -0.115  0.00  0.00     0.022 A 
ATOM      7  C5  UNL d   1       1.746  -1.179   1.062  0.00  0.00     0.026 A 
ATOM      8  C6  UNL d   1       0.666  -0.242   1.187  0.00  0.00    -0.082 A 
ATOM      9  C7  UNL d   1       0.350   0.666   2.227  0.00  0.00     0.045 A 
ENDROOT
TORSDOF 0
ENDMDL
