MODEL 1
REMARK minimizedAffinity 6.11007309
REMARK minimizedRMSD -1
REMARK  1 active torsions:
REMARK  status: ('A' for Active; 'I' for Inactive)
REMARK    1  A    between atoms: C1_2  and  C2_3 
ROOT
ATOM      1  C2  UNL d   1      -3.234  -2.554  -2.247  0.00  0.00    -0.077 A 
ATOM      2  C3  UNL d   1      -4.373  -2.889  -1.502  0.00  0.00     0.002 A 
ATOM      3  C4  UNL d   1      -4.269  -3.732  -0.394  0.00  0.00     0.002 A 
ATOM      4  C5  UNL d   1      -3.029  -4.244  -0.019  0.00  0.00    -0.004 A 
ATOM      5  C6  UNL d   1      -1.890  -3.919  -0.755  0.00  0.00     0.002 A 
ATOM      6  C7  UNL d   1      -1.992  -3.077  -1.864  0.00  0.00     0.002 A 
ENDROOT
BRANCH   1   7
ATOM      7  C1  UNL d   1      -3.336  -1.606  -3.413  0.00  0.00     0.055 C 
ATOM      8  C   UNL d   1      -4.395  -0.541  -3.169  0.00  0.00     0.019 C 
ENDBRANCH   1   7
TORSDOF 1
ENDMDL
