MODEL 1
REMARK minimizedAffinity 4.20496798
REMARK minimizedRMSD -1
REMARK  1 active torsions:
REMARK  status: ('A' for Active; 'I' for Inactive)
REMARK    1  A    between atoms: C1_2  and  C2_3 
ROOT
ATOM      1  C2  UNL d   1      -3.338  -1.471   3.037  0.00  0.00    -0.077 A 
ATOM      2  C3  UNL d   1      -3.701  -1.953   4.303  0.00  0.00     0.002 A 
ATOM      3  C4  UNL d   1      -5.026  -2.299   4.574  0.00  0.00     0.002 A 
ATOM      4  C5  UNL d   1      -5.998  -2.172   3.584  0.00  0.00    -0.004 A 
ATOM      5  C6  UNL d   1      -5.648  -1.692   2.323  0.00  0.00     0.002 A 
ATOM      6  C7  UNL d   1      -4.324  -1.344   2.050  0.00  0.00     0.002 A 
ENDROOT
BRANCH   1   7
ATOM      7  C1  UNL d   1      -1.901  -1.144   2.728  0.00  0.00     0.055 C 
ATOM      8  C   UNL d   1      -1.436  -1.841   1.457  0.00  0.00     0.019 C 
ENDBRANCH   1   7
TORSDOF 1
ENDMDL
