MODEL 1
REMARK minimizedAffinity 1.33012223
REMARK minimizedRMSD -1
REMARK  1 active torsions:
REMARK  status: ('A' for Active; 'I' for Inactive)
REMARK    1  A    between atoms: C1_2  and  C2_3 
ROOT
ATOM      1  C2  UNL d   1       4.137   5.880   3.267  0.00  0.00    -0.077 A 
ATOM      2  C3  UNL d   1       3.124   5.707   4.220  0.00  0.00     0.002 A 
ATOM      3  C4  UNL d   1       3.436   5.651   5.580  0.00  0.00     0.002 A 
ATOM      4  C5  UNL d   1       4.760   5.770   5.998  0.00  0.00    -0.004 A 
ATOM      5  C6  UNL d   1       5.775   5.941   5.058  0.00  0.00     0.002 A 
ATOM      6  C7  UNL d   1       5.465   5.996   3.698  0.00  0.00     0.002 A 
ENDROOT
BRANCH   1   7
ATOM      7  C1  UNL d   1       3.798   5.991   1.803  0.00  0.00     0.055 C 
ATOM      8  C   UNL d   1       5.052   5.989   0.942  0.00  0.00     0.019 C 
ENDBRANCH   1   7
TORSDOF 1
ENDMDL
