MODEL 1
REMARK minimizedAffinity -2.56149077
REMARK minimizedRMSD -1
REMARK  1 active torsions:
REMARK  status: ('A' for Active; 'I' for Inactive)
REMARK    1  A    between atoms: C1_2  and  C2_3 
ROOT
ATOM      1  C2  UNL d   1       0.923  -0.411   0.796  0.00  0.00    -0.077 A 
ATOM      2  C3  UNL d   1       1.880  -1.326   0.335  0.00  0.00     0.002 A 
ATOM      3  C4  UNL d   1       1.494  -2.603  -0.079  0.00  0.00     0.002 A 
ATOM      4  C5  UNL d   1       0.152  -2.974  -0.041  0.00  0.00    -0.004 A 
ATOM      5  C6  UNL d   1      -0.807  -2.072   0.418  0.00  0.00     0.002 A 
ATOM      6  C7  UNL d   1      -0.424  -0.796   0.834  0.00  0.00     0.002 A 
ENDROOT
BRANCH   1   7
ATOM      7  C1  UNL d   1       1.330   0.983   1.197  0.00  0.00     0.055 C 
ATOM      8  C   UNL d   1       2.799   1.039   1.589  0.00  0.00     0.019 C 
ENDBRANCH   1   7
TORSDOF 1
ENDMDL
