MODEL 1
REMARK minimizedAffinity 12.2171202
REMARK minimizedRMSD -1
REMARK  1 active torsions:
REMARK  status: ('A' for Active; 'I' for Inactive)
REMARK    1  A    between atoms: C1_2  and  C2_3 
ROOT
ATOM      1  C2  UNL d   1       3.498   5.963   4.132  0.00  0.00    -0.077 A 
ATOM      2  C3  UNL d   1       2.492   5.967   3.155  0.00  0.00     0.002 A 
ATOM      3  C4  UNL d   1       2.825   5.984   1.799  0.00  0.00     0.002 A 
ATOM      4  C5  UNL d   1       4.162   5.992   1.409  0.00  0.00    -0.004 A 
ATOM      5  C6  UNL d   1       5.170   5.990   2.373  0.00  0.00     0.002 A 
ATOM      6  C7  UNL d   1       4.839   5.974   3.728  0.00  0.00     0.002 A 
ENDROOT
BRANCH   1   7
ATOM      7  C1  UNL d   1       3.141   5.895   5.594  0.00  0.00     0.055 C 
ATOM      8  C   UNL d   1       2.618   4.517   5.973  0.00  0.00     0.019 C 
ENDBRANCH   1   7
TORSDOF 1
ENDMDL
