MODEL 1
REMARK minimizedAffinity 4.07112598
REMARK minimizedRMSD -1
REMARK  1 active torsions:
REMARK  status: ('A' for Active; 'I' for Inactive)
REMARK    1  A    between atoms: C1_2  and  C2_3 
ROOT
ATOM      1  C2  UNL d   1      -0.143   2.637  -4.873  0.00  0.00    -0.077 A 
ATOM      2  C3  UNL d   1      -0.871   3.046  -6.000  0.00  0.00     0.002 A 
ATOM      3  C4  UNL d   1      -2.264   3.137  -5.946  0.00  0.00     0.002 A 
ATOM      4  C5  UNL d   1      -2.939   2.824  -4.768  0.00  0.00    -0.004 A 
ATOM      5  C6  UNL d   1      -2.224   2.414  -3.643  0.00  0.00     0.002 A 
ATOM      6  C7  UNL d   1      -0.832   2.322  -3.695  0.00  0.00     0.002 A 
ENDROOT
BRANCH   1   7
ATOM      7  C1  UNL d   1       1.362   2.586  -4.915  0.00  0.00     0.055 C 
ATOM      8  C   UNL d   1       1.902   1.464  -4.040  0.00  0.00     0.019 C 
ENDBRANCH   1   7
TORSDOF 1
ENDMDL
