MODEL 1
REMARK minimizedAffinity 5.48276997
REMARK minimizedRMSD -1
REMARK  1 active torsions:
REMARK  status: ('A' for Active; 'I' for Inactive)
REMARK    1  A    between atoms: C1_2  and  C2_3 
ROOT
ATOM      1  C2  UNL d   1      -0.428   2.814  -3.617  0.00  0.00    -0.077 A 
ATOM      2  C3  UNL d   1       0.767   2.084  -3.681  0.00  0.00     0.002 A 
ATOM      3  C4  UNL d   1       1.499   2.030  -4.868  0.00  0.00     0.002 A 
ATOM      4  C5  UNL d   1       1.047   2.706  -5.999  0.00  0.00    -0.004 A 
ATOM      5  C6  UNL d   1      -0.142   3.433  -5.947  0.00  0.00     0.002 A 
ATOM      6  C7  UNL d   1      -0.876   3.487  -4.761  0.00  0.00     0.002 A 
ENDROOT
BRANCH   1   7
ATOM      7  C1  UNL d   1      -1.194   2.915  -2.324  0.00  0.00     0.055 C 
ATOM      8  C   UNL d   1      -2.623   2.419  -2.487  0.00  0.00     0.019 C 
ENDBRANCH   1   7
TORSDOF 1
ENDMDL
