MODEL 1
REMARK minimizedAffinity -0.798306823
REMARK minimizedRMSD -1
REMARK  1 active torsions:
REMARK  status: ('A' for Active; 'I' for Inactive)
REMARK    1  A    between atoms: C1_2  and  C2_3 
ROOT
ATOM      1  C2  UNL d   1       2.352  -1.441   0.216  0.00  0.00    -0.077 A 
ATOM      2  C3  UNL d   1       2.934  -2.324  -0.704  0.00  0.00     0.002 A 
ATOM      3  C4  UNL d   1       2.613  -3.682  -0.679  0.00  0.00     0.002 A 
ATOM      4  C5  UNL d   1       1.706  -4.169   0.260  0.00  0.00    -0.004 A 
ATOM      5  C6  UNL d   1       1.123  -3.299   1.181  0.00  0.00     0.002 A 
ATOM      6  C7  UNL d   1       1.444  -1.941   1.158  0.00  0.00     0.002 A 
ENDROOT
BRANCH   1   7
ATOM      7  C1  UNL d   1       2.659   0.033   0.160  0.00  0.00     0.055 C 
ATOM      8  C   UNL d   1       1.878   0.802   1.215  0.00  0.00     0.019 C 
ENDBRANCH   1   7
TORSDOF 1
ENDMDL
