MODEL 1
REMARK minimizedAffinity -1.65301156
REMARK minimizedRMSD -1
REMARK  1 active torsions:
REMARK  status: ('A' for Active; 'I' for Inactive)
REMARK    1  A    between atoms: C1_2  and  C2_3 
ROOT
ATOM      1  C2  UNL d   1      -4.380   1.167   0.707  0.00  0.00    -0.077 A 
ATOM      2  C3  UNL d   1      -3.722   2.385   0.931  0.00  0.00     0.002 A 
ATOM      3  C4  UNL d   1      -2.691   2.468   1.869  0.00  0.00     0.002 A 
ATOM      4  C5  UNL d   1      -2.306   1.338   2.586  0.00  0.00    -0.004 A 
ATOM      5  C6  UNL d   1      -2.955   0.123   2.372  0.00  0.00     0.002 A 
ATOM      6  C7  UNL d   1      -3.987   0.037   1.436  0.00  0.00     0.002 A 
ENDROOT
BRANCH   1   7
ATOM      7  C1  UNL d   1      -5.459   1.064  -0.339  0.00  0.00     0.055 C 
ATOM      8  C   UNL d   1      -4.924   1.407  -1.722  0.00  0.00     0.019 C 
ENDBRANCH   1   7
TORSDOF 1
ENDMDL
