MODEL 1
REMARK minimizedAffinity 1.03453326
REMARK minimizedRMSD -1
REMARK  1 active torsions:
REMARK  status: ('A' for Active; 'I' for Inactive)
REMARK    1  A    between atoms: C1_2  and  C2_3 
ROOT
ATOM      1  C2  UNL d   1       4.600   5.935   3.659  0.00  0.00    -0.077 A 
ATOM      2  C3  UNL d   1       3.392   5.999   2.950  0.00  0.00     0.002 A 
ATOM      3  C4  UNL d   1       3.383   5.894   1.558  0.00  0.00     0.002 A 
ATOM      4  C5  UNL d   1       4.578   5.720   0.864  0.00  0.00    -0.004 A 
ATOM      5  C6  UNL d   1       5.785   5.657   1.559  0.00  0.00     0.002 A 
ATOM      6  C7  UNL d   1       5.796   5.763   2.951  0.00  0.00     0.002 A 
ENDROOT
BRANCH   1   7
ATOM      7  C1  UNL d   1       4.606   5.999   5.164  0.00  0.00     0.055 C 
ATOM      8  C   UNL d   1       5.999   5.745   5.723  0.00  0.00     0.019 C 
ENDBRANCH   1   7
TORSDOF 1
ENDMDL
