MODEL 1
REMARK minimizedAffinity -3.77275085
REMARK minimizedRMSD -1
REMARK  1 active torsions:
REMARK  status: ('A' for Active; 'I' for Inactive)
REMARK    1  A    between atoms: C1_2  and  C2_3 
ROOT
ATOM      1  C2  UNL d   1       0.720  -3.399  -0.789  0.00  0.00    -0.077 A 
ATOM      2  C3  UNL d   1       0.586  -2.775   0.459  0.00  0.00     0.002 A 
ATOM      3  C4  UNL d   1      -0.678  -2.445   0.951  0.00  0.00     0.002 A 
ATOM      4  C5  UNL d   1      -1.817  -2.740   0.204  0.00  0.00    -0.004 A 
ATOM      5  C6  UNL d   1      -1.694  -3.358  -1.039  0.00  0.00     0.002 A 
ATOM      6  C7  UNL d   1      -0.431  -3.688  -1.533  0.00  0.00     0.002 A 
ENDROOT
BRANCH   1   7
ATOM      7  C1  UNL d   1       2.080  -3.800  -1.300  0.00  0.00     0.055 C 
ATOM      8  C   UNL d   1       3.034  -4.104  -0.154  0.00  0.00     0.019 C 
ENDBRANCH   1   7
TORSDOF 1
ENDMDL
