MODEL 1
REMARK minimizedAffinity -0.044494953
REMARK minimizedRMSD -1
REMARK  1 active torsions:
REMARK  status: ('A' for Active; 'I' for Inactive)
REMARK    1  A    between atoms: C1_2  and  C2_3 
ROOT
ATOM      1  C2  UNL d   1      -2.197  -0.160   1.723  0.00  0.00    -0.077 A 
ATOM      2  C3  UNL d   1      -3.491  -0.445   1.264  0.00  0.00     0.002 A 
ATOM      3  C4  UNL d   1      -4.409   0.586   1.055  0.00  0.00     0.002 A 
ATOM      4  C5  UNL d   1      -4.042   1.908   1.297  0.00  0.00    -0.004 A 
ATOM      5  C6  UNL d   1      -2.759   2.201   1.755  0.00  0.00     0.002 A 
ATOM      6  C7  UNL d   1      -1.840   1.172   1.966  0.00  0.00     0.002 A 
ENDROOT
BRANCH   1   7
ATOM      7  C1  UNL d   1      -1.190  -1.266   1.902  0.00  0.00     0.055 C 
ATOM      8  C   UNL d   1      -1.371  -2.354   0.854  0.00  0.00     0.019 C 
ENDBRANCH   1   7
TORSDOF 1
ENDMDL
