MODEL 1
REMARK minimizedAffinity 0.123075254
REMARK minimizedRMSD -1
REMARK  1 active torsions:
REMARK  status: ('A' for Active; 'I' for Inactive)
REMARK    1  A    between atoms: C1_2  and  C2_3 
ROOT
ATOM      1  C2  UNL d   1      -1.819   4.260  -5.990  0.00  0.00    -0.077 A 
ATOM      2  C3  UNL d   1      -2.755   5.304  -5.994  0.00  0.00     0.002 A 
ATOM      3  C4  UNL d   1      -4.123   5.026  -5.999  0.00  0.00     0.002 A 
ATOM      4  C5  UNL d   1      -4.567   3.706  -5.996  0.00  0.00    -0.004 A 
ATOM      5  C6  UNL d   1      -3.645   2.661  -5.994  0.00  0.00     0.002 A 
ATOM      6  C7  UNL d   1      -2.277   2.937  -5.990  0.00  0.00     0.002 A 
ENDROOT
BRANCH   1   7
ATOM      7  C1  UNL d   1      -0.343   4.558  -5.934  0.00  0.00     0.055 C 
ATOM      8  C   UNL d   1       0.389   3.564  -5.044  0.00  0.00     0.019 C 
ENDBRANCH   1   7
TORSDOF 1
ENDMDL
