MODEL 1
REMARK minimizedAffinity -2.48080754
REMARK minimizedRMSD -1
REMARK  0 active torsions:
REMARK  status: ('A' for Active; 'I' for Inactive)
ROOT
ATOM      1  C1  DEN d   1      -2.597  -1.154   4.468  0.00  0.00     0.130 A 
ATOM      2  C2  DEN d   1      -3.583  -1.988   3.785  0.00  0.00    -0.031 A 
ATOM      3  C3  DEN d   1      -3.821  -1.410   2.447  0.00  0.00     0.027 A 
ATOM      4  C4  DEN d   1      -2.761   0.681   1.371  0.00  0.00     0.027 A 
ATOM      5  C5  DEN d   1      -1.880   1.721   1.569  0.00  0.00    -0.003 A 
ATOM      6  C6  DEN d   1      -1.207   1.893   2.749  0.00  0.00     0.001 A 
ATOM      7  C7  DEN d   1      -1.371   0.986   3.762  0.00  0.00     0.017 A 
ATOM      8  C8  DEN d   1      -2.263  -0.061   3.573  0.00  0.00    -0.094 A 
ATOM      9  C9  DEN d   1      -2.925  -0.225   2.368  0.00  0.00    -0.072 A 
ENDROOT
TORSDOF 0
ENDMDL
