MODEL 1
REMARK minimizedAffinity -2.64491439
REMARK minimizedRMSD -1
REMARK  0 active torsions:
REMARK  status: ('A' for Active; 'I' for Inactive)
ROOT
ATOM      1  C1  DEN d   1      -0.334  -1.236  -0.173  0.00  0.00     0.130 A 
ATOM      2  C2  DEN d   1      -1.321  -0.195   0.102  0.00  0.00    -0.031 A 
ATOM      3  C3  DEN d   1      -0.783   1.087  -0.396  0.00  0.00     0.027 A 
ATOM      4  C4  DEN d   1       1.468   1.558  -1.564  0.00  0.00     0.027 A 
ATOM      5  C5  DEN d   1       2.643   0.992  -2.005  0.00  0.00    -0.003 A 
ATOM      6  C6  DEN d   1       2.921  -0.338  -1.838  0.00  0.00     0.001 A 
ATOM      7  C7  DEN d   1       1.992  -1.158  -1.254  0.00  0.00     0.017 A 
ATOM      8  C8  DEN d   1       0.807  -0.593  -0.799  0.00  0.00    -0.094 A 
ATOM      9  C9  DEN d   1       0.540   0.752  -0.988  0.00  0.00    -0.072 A 
ENDROOT
TORSDOF 0
ENDMDL
