MODEL 1
REMARK minimizedAffinity -2.62346172
REMARK minimizedRMSD -1
REMARK  0 active torsions:
REMARK  status: ('A' for Active; 'I' for Inactive)
ROOT
ATOM      1  C1  DEN d   1      -0.141   1.371   0.447  0.00  0.00     0.130 A 
ATOM      2  C2  DEN d   1      -0.273   0.322  -0.561  0.00  0.00    -0.031 A 
ATOM      3  C3  DEN d   1      -1.262  -0.659  -0.071  0.00  0.00     0.027 A 
ATOM      4  C4  DEN d   1      -2.597  -0.655   2.135  0.00  0.00     0.027 A 
ATOM      5  C5  DEN d   1      -2.815   0.023   3.314  0.00  0.00    -0.003 A 
ATOM      6  C6  DEN d   1      -2.138   1.170   3.633  0.00  0.00     0.001 A 
ATOM      7  C7  DEN d   1      -1.242   1.699   2.741  0.00  0.00     0.017 A 
ATOM      8  C8  DEN d   1      -1.011   1.017   1.554  0.00  0.00    -0.094 A 
ATOM      9  C9  DEN d   1      -1.715  -0.135   1.245  0.00  0.00    -0.072 A 
ENDROOT
TORSDOF 0
ENDMDL
