MODEL 1
REMARK minimizedAffinity -3.58218479
REMARK minimizedRMSD -1
REMARK  0 active torsions:
REMARK  status: ('A' for Active; 'I' for Inactive)
ROOT
ATOM      1  C1  DEN d   1      -0.449   1.706  -0.149  0.00  0.00     0.130 A 
ATOM      2  C2  DEN d   1      -1.669   1.041   0.300  0.00  0.00    -0.031 A 
ATOM      3  C3  DEN d   1      -1.475  -0.415   0.152  0.00  0.00     0.027 A 
ATOM      4  C4  DEN d   1       0.586  -1.698  -0.719  0.00  0.00     0.027 A 
ATOM      5  C5  DEN d   1       1.859  -1.565  -1.227  0.00  0.00    -0.003 A 
ATOM      6  C6  DEN d   1       2.435  -0.340  -1.442  0.00  0.00     0.001 A 
ATOM      7  C7  DEN d   1       1.753   0.799  -1.105  0.00  0.00     0.017 A 
ATOM      8  C8  DEN d   1       0.466   0.672  -0.599  0.00  0.00    -0.094 A 
ATOM      9  C9  DEN d   1      -0.094  -0.575  -0.378  0.00  0.00    -0.072 A 
ENDROOT
TORSDOF 0
ENDMDL
