MODEL 1
REMARK minimizedAffinity 1.02048624
REMARK minimizedRMSD -1
REMARK  0 active torsions:
REMARK  status: ('A' for Active; 'I' for Inactive)
ROOT
ATOM      1  C1  DEN d   1       1.007  -1.913  -2.420  0.00  0.00     0.130 A 
ATOM      2  C2  DEN d   1       0.094  -3.053  -2.427  0.00  0.00    -0.031 A 
ATOM      3  C3  DEN d   1       0.383  -3.876  -1.236  0.00  0.00     0.027 A 
ATOM      4  C4  DEN d   1       2.141  -3.496   0.613  0.00  0.00     0.027 A 
ATOM      5  C5  DEN d   1       3.155  -2.670   1.044  0.00  0.00    -0.003 A 
ATOM      6  C6  DEN d   1       3.545  -1.562   0.339  0.00  0.00     0.001 A 
ATOM      7  C7  DEN d   1       2.885  -1.224  -0.813  0.00  0.00     0.017 A 
ATOM      8  C8  DEN d   1       1.866  -2.056  -1.258  0.00  0.00    -0.094 A 
ATOM      9  C9  DEN d   1       1.479  -3.165  -0.525  0.00  0.00    -0.072 A 
ENDROOT
TORSDOF 0
ENDMDL
