MODEL 1
REMARK minimizedAffinity 1.70706165
REMARK minimizedRMSD -1
REMARK  0 active torsions:
REMARK  status: ('A' for Active; 'I' for Inactive)
ROOT
ATOM      1  C1  DEN d   1      -2.373   2.780   2.657  0.00  0.00     0.130 A 
ATOM      2  C2  DEN d   1      -3.564   2.138   3.207  0.00  0.00    -0.031 A 
ATOM      3  C3  DEN d   1      -4.058   1.165   2.213  0.00  0.00     0.027 A 
ATOM      4  C4  DEN d   1      -3.098   0.587  -0.110  0.00  0.00     0.027 A 
ATOM      5  C5  DEN d   1      -2.103   0.879  -1.017  0.00  0.00    -0.003 A 
ATOM      6  C6  DEN d   1      -1.157   1.840  -0.780  0.00  0.00     0.001 A 
ATOM      7  C7  DEN d   1      -1.158   2.513   0.413  0.00  0.00     0.017 A 
ATOM      8  C8  DEN d   1      -2.162   2.231   1.330  0.00  0.00    -0.094 A 
ATOM      9  C9  DEN d   1      -3.102   1.247   1.076  0.00  0.00    -0.072 A 
ENDROOT
TORSDOF 0
ENDMDL
