MODEL 1
REMARK minimizedAffinity -2.94059014
REMARK minimizedRMSD -1
REMARK  0 active torsions:
REMARK  status: ('A' for Active; 'I' for Inactive)
ROOT
ATOM      1  C1  DEN d   1       2.365   0.936  -1.483  0.00  0.00     0.130 A 
ATOM      2  C2  DEN d   1       3.172  -0.243  -1.786  0.00  0.00    -0.031 A 
ATOM      3  C3  DEN d   1       2.397  -1.439  -1.398  0.00  0.00     0.027 A 
ATOM      4  C4  DEN d   1       0.037  -1.579  -0.367  0.00  0.00     0.027 A 
ATOM      5  C5  DEN d   1      -1.036  -0.844   0.084  0.00  0.00    -0.003 A 
ATOM      6  C6  DEN d   1      -1.038   0.526   0.075  0.00  0.00     0.001 A 
ATOM      7  C7  DEN d   1       0.038   1.203  -0.435  0.00  0.00     0.017 A 
ATOM      8  C8  DEN d   1       1.127   0.468  -0.884  0.00  0.00    -0.094 A 
ATOM      9  C9  DEN d   1       1.105  -0.916  -0.879  0.00  0.00    -0.072 A 
ENDROOT
TORSDOF 0
ENDMDL
