MODEL 1
REMARK minimizedAffinity 1.47781181
REMARK minimizedRMSD -1
REMARK  0 active torsions:
REMARK  status: ('A' for Active; 'I' for Inactive)
ROOT
ATOM      1  C1  DEN d   1       2.267   1.547  -1.388  0.00  0.00     0.130 A 
ATOM      2  C2  DEN d   1       1.683   2.066  -2.622  0.00  0.00    -0.031 A 
ATOM      3  C3  DEN d   1       1.095   0.931  -3.362  0.00  0.00     0.027 A 
ATOM      4  C4  DEN d   1       1.030  -1.566  -2.719  0.00  0.00     0.027 A 
ATOM      5  C5  DEN d   1       1.405  -2.491  -1.770  0.00  0.00    -0.003 A 
ATOM      6  C6  DEN d   1       2.118  -2.143  -0.653  0.00  0.00     0.001 A 
ATOM      7  C7  DEN d   1       2.439  -0.829  -0.435  0.00  0.00     0.017 A 
ATOM      8  C8  DEN d   1       2.070   0.108  -1.391  0.00  0.00    -0.094 A 
ATOM      9  C9  DEN d   1       1.339  -0.262  -2.507  0.00  0.00    -0.072 A 
ENDROOT
TORSDOF 0
ENDMDL
