MODEL 1
REMARK minimizedAffinity -3.51890755
REMARK minimizedRMSD -1
REMARK  0 active torsions:
REMARK  status: ('A' for Active; 'I' for Inactive)
ROOT
ATOM      1  C1  DEN d   1       0.501  -1.225  -2.376  0.00  0.00     0.130 A 
ATOM      2  C2  DEN d   1      -0.067  -2.514  -2.760  0.00  0.00    -0.031 A 
ATOM      3  C3  DEN d   1      -0.754  -3.079  -1.581  0.00  0.00     0.027 A 
ATOM      4  C4  DEN d   1      -0.995  -2.086   0.787  0.00  0.00     0.027 A 
ATOM      5  C5  DEN d   1      -0.671  -1.019   1.595  0.00  0.00    -0.003 A 
ATOM      6  C6  DEN d   1       0.089   0.030   1.149  0.00  0.00     0.001 A 
ATOM      7  C7  DEN d   1       0.513   0.056  -0.153  0.00  0.00     0.017 A 
ATOM      8  C8  DEN d   1       0.196  -1.020  -0.972  0.00  0.00    -0.094 A 
ATOM      9  C9  DEN d   1      -0.584  -2.065  -0.506  0.00  0.00    -0.072 A 
ENDROOT
TORSDOF 0
ENDMDL
