MODEL 1
REMARK minimizedAffinity -3.56162477
REMARK minimizedRMSD -1
REMARK  0 active torsions:
REMARK  status: ('A' for Active; 'I' for Inactive)
ROOT
ATOM      1  C1  DEN d   1       0.722  -0.657  -1.670  0.00  0.00     0.130 A 
ATOM      2  C2  DEN d   1       0.256   0.725  -1.584  0.00  0.00    -0.031 A 
ATOM      3  C3  DEN d   1      -0.440   0.893  -0.293  0.00  0.00     0.027 A 
ATOM      4  C4  DEN d   1      -0.836  -0.842   1.575  0.00  0.00     0.027 A 
ATOM      5  C5  DEN d   1      -0.635  -2.152   1.951  0.00  0.00    -0.003 A 
ATOM      6  C6  DEN d   1      -0.004  -3.056   1.140  0.00  0.00     0.001 A 
ATOM      7  C7  DEN d   1       0.490  -2.651  -0.072  0.00  0.00     0.017 A 
ATOM      8  C8  DEN d   1       0.286  -1.334  -0.462  0.00  0.00    -0.094 A 
ATOM      9  C9  DEN d   1      -0.345  -0.432   0.378  0.00  0.00    -0.072 A 
ENDROOT
TORSDOF 0
ENDMDL
