MODEL 1
REMARK minimizedAffinity -2.31206322
REMARK minimizedRMSD -1
REMARK  0 active torsions:
REMARK  status: ('A' for Active; 'I' for Inactive)
ROOT
ATOM      1  C1  DEN d   1      -1.055   0.620   1.100  0.00  0.00     0.130 A 
ATOM      2  C2  DEN d   1      -0.887  -0.657   0.412  0.00  0.00    -0.031 A 
ATOM      3  C3  DEN d   1       0.365  -0.594  -0.369  0.00  0.00     0.027 A 
ATOM      4  C4  DEN d   1       2.053   1.346  -0.573  0.00  0.00     0.027 A 
ATOM      5  C5  DEN d   1       2.332   2.637  -0.182  0.00  0.00    -0.003 A 
ATOM      6  C6  DEN d   1       1.493   3.352   0.630  0.00  0.00     0.001 A 
ATOM      7  C7  DEN d   1       0.354   2.764   1.114  0.00  0.00     0.017 A 
ATOM      8  C8  DEN d   1       0.061   1.466   0.718  0.00  0.00    -0.094 A 
ATOM      9  C9  DEN d   1       0.929   0.755  -0.094  0.00  0.00    -0.072 A 
ENDROOT
TORSDOF 0
ENDMDL
