MODEL 1
REMARK minimizedAffinity -4.88476658
REMARK minimizedRMSD -1
REMARK  0 active torsions:
REMARK  status: ('A' for Active; 'I' for Inactive)
ROOT
ATOM      1  C1  DEN d   1       1.432  -0.913   1.425  0.00  0.00     0.130 A 
ATOM      2  C2  DEN d   1       0.373  -1.756   0.877  0.00  0.00    -0.031 A 
ATOM      3  C3  DEN d   1      -0.474  -0.917   0.005  0.00  0.00     0.027 A 
ATOM      4  C4  DEN d   1      -0.246   1.591  -0.550  0.00  0.00     0.027 A 
ATOM      5  C5  DEN d   1       0.490   2.731  -0.314  0.00  0.00    -0.003 A 
ATOM      6  C6  DEN d   1       1.562   2.744   0.538  0.00  0.00     0.001 A 
ATOM      7  C7  DEN d   1       1.957   1.584   1.151  0.00  0.00     0.017 A 
ATOM      8  C8  DEN d   1       1.215   0.432   0.923  0.00  0.00    -0.094 A 
ATOM      9  C9  DEN d   1       0.141   0.437   0.048  0.00  0.00    -0.072 A 
ENDROOT
TORSDOF 0
ENDMDL
