MODEL 1
REMARK minimizedAffinity -5.27704477
REMARK minimizedRMSD -1
REMARK  0 active torsions:
REMARK  status: ('A' for Active; 'I' for Inactive)
ROOT
ATOM      1  C1  DEN d   1       0.564  -2.974   0.299  0.00  0.00     0.130 A 
ATOM      2  C2  DEN d   1      -0.665  -3.696   0.616  0.00  0.00    -0.031 A 
ATOM      3  C3  DEN d   1      -1.713  -2.701   0.921  0.00  0.00     0.027 A 
ATOM      4  C4  DEN d   1      -1.553  -0.126   0.929  0.00  0.00     0.027 A 
ATOM      5  C5  DEN d   1      -0.710   0.946   0.737  0.00  0.00    -0.003 A 
ATOM      6  C6  DEN d   1       0.613   0.788   0.421  0.00  0.00     0.001 A 
ATOM      7  C7  DEN d   1       1.123  -0.471   0.244  0.00  0.00     0.017 A 
ATOM      8  C8  DEN d   1       0.282  -1.557   0.443  0.00  0.00    -0.094 A 
ATOM      9  C9  DEN d   1      -1.056  -1.377   0.750  0.00  0.00    -0.072 A 
ENDROOT
TORSDOF 0
ENDMDL
