MODEL 1
REMARK minimizedAffinity -1.74237311
REMARK minimizedRMSD -1
REMARK  0 active torsions:
REMARK  status: ('A' for Active; 'I' for Inactive)
ROOT
ATOM      1  C1  DEN d   1       0.415  -2.479  -0.758  0.00  0.00     0.130 A 
ATOM      2  C2  DEN d   1      -0.603  -3.355  -0.184  0.00  0.00    -0.031 A 
ATOM      3  C3  DEN d   1      -1.438  -2.547   0.727  0.00  0.00     0.027 A 
ATOM      4  C4  DEN d   1      -1.259  -0.038   1.298  0.00  0.00     0.027 A 
ATOM      5  C5  DEN d   1      -0.546   1.117   1.066  0.00  0.00    -0.003 A 
ATOM      6  C6  DEN d   1       0.549   1.147   0.243  0.00  0.00     0.001 A 
ATOM      7  C7  DEN d   1       0.936   0.009  -0.413  0.00  0.00     0.017 A 
ATOM      8  C8  DEN d   1       0.227  -1.161  -0.179  0.00  0.00    -0.094 A 
ATOM      9  C9  DEN d   1      -0.885  -1.169   0.647  0.00  0.00    -0.072 A 
ENDROOT
TORSDOF 0
ENDMDL
