MODEL 1
REMARK minimizedAffinity -3.32538581
REMARK minimizedRMSD -1
REMARK  0 active torsions:
REMARK  status: ('A' for Active; 'I' for Inactive)
ROOT
ATOM      1  C1  DEN d   1       0.039   0.601  -0.878  0.00  0.00     0.130 A 
ATOM      2  C2  DEN d   1      -0.386   1.055   0.443  0.00  0.00    -0.031 A 
ATOM      3  C3  DEN d   1      -0.970  -0.098   1.156  0.00  0.00     0.027 A 
ATOM      4  C4  DEN d   1      -1.253  -2.532   0.349  0.00  0.00     0.027 A 
ATOM      5  C5  DEN d   1      -1.054  -3.395  -0.705  0.00  0.00    -0.003 A 
ATOM      6  C6  DEN d   1      -0.512  -2.983  -1.894  0.00  0.00     0.001 A 
ATOM      7  C7  DEN d   1      -0.108  -1.682  -2.041  0.00  0.00     0.017 A 
ATOM      8  C8  DEN d   1      -0.313  -0.804  -0.985  0.00  0.00    -0.094 A 
ATOM      9  C9  DEN d   1      -0.852  -1.242   0.213  0.00  0.00    -0.072 A 
ENDROOT
TORSDOF 0
ENDMDL
