MODEL 1
REMARK minimizedAffinity -2.9251945
REMARK minimizedRMSD -1
REMARK  0 active torsions:
REMARK  status: ('A' for Active; 'I' for Inactive)
ROOT
ATOM      1  C1  DEN d   1      -0.390   0.246   0.958  0.00  0.00     0.130 A 
ATOM      2  C2  DEN d   1       0.374   1.000  -0.033  0.00  0.00    -0.031 A 
ATOM      3  C3  DEN d   1       0.716   0.084  -1.139  0.00  0.00     0.027 A 
ATOM      4  C4  DEN d   1       0.138  -2.414  -1.415  0.00  0.00     0.027 A 
ATOM      5  C5  DEN d   1      -0.484  -3.494  -0.829  0.00  0.00    -0.003 A 
ATOM      6  C6  DEN d   1      -1.085  -3.412   0.400  0.00  0.00     0.001 A 
ATOM      7  C7  DEN d   1      -1.115  -2.213   1.062  0.00  0.00     0.017 A 
ATOM      8  C8  DEN d   1      -0.482  -1.122   0.480  0.00  0.00    -0.094 A 
ATOM      9  C9  DEN d   1       0.108  -1.222  -0.768  0.00  0.00    -0.072 A 
ENDROOT
TORSDOF 0
ENDMDL
