MODEL 1
REMARK minimizedAffinity -5.63796282
REMARK minimizedRMSD -1
REMARK  0 active torsions:
REMARK  status: ('A' for Active; 'I' for Inactive)
ROOT
ATOM      1  C1  DEN d   1      -1.213  -3.278   0.657  0.00  0.00     0.130 A 
ATOM      2  C2  DEN d   1      -0.616  -3.957  -0.490  0.00  0.00    -0.031 A 
ATOM      3  C3  DEN d   1       0.099  -2.948  -1.296  0.00  0.00     0.027 A 
ATOM      4  C4  DEN d   1       0.343  -0.414  -0.881  0.00  0.00     0.027 A 
ATOM      5  C5  DEN d   1       0.000   0.624  -0.043  0.00  0.00    -0.003 A 
ATOM      6  C6  DEN d   1      -0.792   0.442   1.059  0.00  0.00     0.001 A 
ATOM      7  C7  DEN d   1      -1.232  -0.816   1.379  0.00  0.00     0.017 A 
ATOM      8  C8  DEN d   1      -0.897  -1.866   0.534  0.00  0.00    -0.094 A 
ATOM      9  C9  DEN d   1      -0.085  -1.663  -0.568  0.00  0.00    -0.072 A 
ENDROOT
TORSDOF 0
ENDMDL
