MODEL 1
REMARK minimizedAffinity -1.5947175
REMARK minimizedRMSD -1
REMARK  0 active torsions:
REMARK  status: ('A' for Active; 'I' for Inactive)
ROOT
ATOM      1  C1  DEN d   1       0.536  -0.215  -2.857  0.00  0.00     0.130 A 
ATOM      2  C2  DEN d   1       1.055  -1.555  -3.114  0.00  0.00    -0.031 A 
ATOM      3  C3  DEN d   1       1.048  -2.300  -1.839  0.00  0.00     0.027 A 
ATOM      4  C4  DEN d   1       0.283  -1.514   0.495  0.00  0.00     0.027 A 
ATOM      5  C5  DEN d   1      -0.223  -0.452   1.212  0.00  0.00    -0.003 A 
ATOM      6  C6  DEN d   1      -0.478   0.764   0.634  0.00  0.00     0.001 A 
ATOM      7  C7  DEN d   1      -0.269   0.934  -0.709  0.00  0.00     0.017 A 
ATOM      8  C8  DEN d   1       0.248  -0.129  -1.437  0.00  0.00    -0.094 A 
ATOM      9  C9  DEN d   1       0.488  -1.354  -0.837  0.00  0.00    -0.072 A 
ENDROOT
TORSDOF 0
ENDMDL
