MODEL 1
REMARK minimizedAffinity -3.87716866
REMARK minimizedRMSD -1
REMARK  0 active torsions:
REMARK  status: ('A' for Active; 'I' for Inactive)
ROOT
ATOM      1  C1  DEN d   1       0.059   0.855  -1.231  0.00  0.00     0.130 A 
ATOM      2  C2  DEN d   1       0.282   1.915  -0.252  0.00  0.00    -0.031 A 
ATOM      3  C3  DEN d   1       0.194   1.319   1.096  0.00  0.00     0.027 A 
ATOM      4  C4  DEN d   1      -0.259  -1.133   1.759  0.00  0.00     0.027 A 
ATOM      5  C5  DEN d   1      -0.522  -2.396   1.277  0.00  0.00    -0.003 A 
ATOM      6  C6  DEN d   1      -0.643  -2.655  -0.063  0.00  0.00     0.001 A 
ATOM      7  C7  DEN d   1      -0.455  -1.646  -0.970  0.00  0.00     0.017 A 
ATOM      8  C8  DEN d   1      -0.197  -0.368  -0.491  0.00  0.00    -0.094 A 
ATOM      9  C9  DEN d   1      -0.067  -0.128   0.867  0.00  0.00    -0.072 A 
ENDROOT
TORSDOF 0
ENDMDL
