MODEL 1
REMARK minimizedAffinity -5.73543215
REMARK minimizedRMSD -1
REMARK  0 active torsions:
REMARK  status: ('A' for Active; 'I' for Inactive)
ROOT
ATOM      1  C1  DEN d   1      -0.108  -3.366  -1.716  0.00  0.00     0.130 A 
ATOM      2  C2  DEN d   1       0.003  -2.635  -2.976  0.00  0.00    -0.031 A 
ATOM      3  C3  DEN d   1      -0.062  -1.191  -2.674  0.00  0.00     0.027 A 
ATOM      4  C4  DEN d   1      -0.316  -0.021  -0.389  0.00  0.00     0.027 A 
ATOM      5  C5  DEN d   1      -0.459  -0.223   0.966  0.00  0.00    -0.003 A 
ATOM      6  C6  DEN d   1      -0.530  -1.477   1.514  0.00  0.00     0.001 A 
ATOM      7  C7  DEN d   1      -0.411  -2.578   0.707  0.00  0.00     0.017 A 
ATOM      8  C8  DEN d   1      -0.273  -2.382  -0.661  0.00  0.00    -0.094 A 
ATOM      9  C9  DEN d   1      -0.192  -1.107  -1.194  0.00  0.00    -0.072 A 
ENDROOT
TORSDOF 0
ENDMDL
