MODEL 1
REMARK minimizedAffinity -5.91020489
REMARK minimizedRMSD -1
REMARK  0 active torsions:
REMARK  status: ('A' for Active; 'I' for Inactive)
ROOT
ATOM      1  C1  DEN d   1       0.125   2.879   0.644  0.00  0.00     0.130 A 
ATOM      2  C2  DEN d   1       1.289   3.259  -0.152  0.00  0.00    -0.031 A 
ATOM      3  C3  DEN d   1       1.905   2.025  -0.678  0.00  0.00     0.027 A 
ATOM      4  C4  DEN d   1       1.171  -0.425  -0.344  0.00  0.00     0.027 A 
ATOM      5  C5  DEN d   1       0.247  -1.247   0.262  0.00  0.00    -0.003 A 
ATOM      6  C6  DEN d   1      -0.754  -0.758   1.059  0.00  0.00     0.001 A 
ATOM      7  C7  DEN d   1      -0.882   0.595   1.235  0.00  0.00     0.017 A 
ATOM      8  C8  DEN d   1       0.050   1.429   0.633  0.00  0.00    -0.094 A 
ATOM      9  C9  DEN d   1       1.047   0.917  -0.179  0.00  0.00    -0.072 A 
ENDROOT
TORSDOF 0
ENDMDL
