MODEL 1
REMARK minimizedAffinity -3.99201274
REMARK minimizedRMSD -1
REMARK  0 active torsions:
REMARK  status: ('A' for Active; 'I' for Inactive)
ROOT
ATOM      1  C1  DEN d   1       1.444  -1.114   1.546  0.00  0.00     0.130 A 
ATOM      2  C2  DEN d   1       0.414  -1.889   0.859  0.00  0.00    -0.031 A 
ATOM      3  C3  DEN d   1      -0.197  -1.024  -0.170  0.00  0.00     0.027 A 
ATOM      4  C4  DEN d   1       0.351   1.425  -0.766  0.00  0.00     0.027 A 
ATOM      5  C5  DEN d   1       1.142   2.507  -0.450  0.00  0.00    -0.003 A 
ATOM      6  C6  DEN d   1       2.058   2.469   0.567  0.00  0.00     0.001 A 
ATOM      7  C7  DEN d   1       2.238   1.311   1.277  0.00  0.00     0.017 A 
ATOM      8  C8  DEN d   1       1.439   0.218   0.969  0.00  0.00    -0.094 A 
ATOM      9  C9  DEN d   1       0.527   0.272  -0.072  0.00  0.00    -0.072 A 
ENDROOT
TORSDOF 0
ENDMDL
