MODEL 1
REMARK minimizedAffinity 2.77143717
REMARK minimizedRMSD -1
REMARK  2 active torsions:
REMARK  status: ('A' for Active; 'I' for Inactive)
REMARK    1  A    between atoms: C2'_3  and  C1'_4 
REMARK    2  A    between atoms: C1'_4  and  C1_5 
ROOT
ATOM      1  C1  I4B d   1      -2.385   1.263  -0.081  0.00  0.00    -0.075 A 
ATOM      2  C2  I4B d   1      -2.615   1.875   1.126  0.00  0.00     0.003 A 
ATOM      3  C3  I4B d   1      -3.868   1.732   1.770  0.00  0.00     0.002 A 
ATOM      4  C4  I4B d   1      -4.871   1.014   1.153  0.00  0.00    -0.004 A 
ATOM      5  C5  I4B d   1      -4.629   0.375  -0.060  0.00  0.00     0.002 A 
ATOM      6  C6  I4B d   1      -3.374   0.490  -0.675  0.00  0.00     0.003 A 
ENDROOT
BRANCH   1   7
ATOM      7  C1' I4B d   1      -1.062   1.463  -0.750  0.00  0.00     0.060 C 
BRANCH   7   8
ATOM      8  C2' I4B d   1      -0.176   2.250   0.194  0.00  0.00    -0.013 C 
ATOM      9  C4' I4B d   1       1.153   1.568   0.390  0.00  0.00     0.013 C 
ATOM     10  C3' I4B d   1       0.000   3.626  -0.375  0.00  0.00     0.013 C 
ENDBRANCH   7   8
ENDBRANCH   1   7
TORSDOF 2
ENDMDL
