MODEL 1
REMARK minimizedAffinity 4.95562935
REMARK minimizedRMSD -1
REMARK  2 active torsions:
REMARK  status: ('A' for Active; 'I' for Inactive)
REMARK    1  A    between atoms: C2'_3  and  C1'_4 
REMARK    2  A    between atoms: C1'_4  and  C1_5 
ROOT
ATOM      1  C1  I4B d   1       0.796   2.346   0.957  0.00  0.00    -0.075 A 
ATOM      2  C2  I4B d   1       0.879   1.445   1.989  0.00  0.00     0.003 A 
ATOM      3  C3  I4B d   1      -0.139   1.390   2.972  0.00  0.00     0.002 A 
ATOM      4  C4  I4B d   1      -1.189   2.283   2.913  0.00  0.00    -0.004 A 
ATOM      5  C5  I4B d   1      -1.284   3.181   1.853  0.00  0.00     0.002 A 
ATOM      6  C6  I4B d   1      -0.292   3.205   0.862  0.00  0.00     0.003 A 
ENDROOT
BRANCH   1   7
ATOM      7  C1' I4B d   1       1.905   2.399  -0.045  0.00  0.00     0.060 C 
BRANCH   7   8
ATOM      8  C2' I4B d   1       2.852   1.252   0.246  0.00  0.00    -0.013 C 
ATOM      9  C4' I4B d   1       2.315  -0.047  -0.295  0.00  0.00     0.013 C 
ATOM     10  C3' I4B d   1       4.182   1.584  -0.363  0.00  0.00     0.013 C 
ENDBRANCH   7   8
ENDBRANCH   1   7
TORSDOF 2
ENDMDL
