MODEL 1
REMARK minimizedAffinity 2.24302626
REMARK minimizedRMSD -1
REMARK  2 active torsions:
REMARK  status: ('A' for Active; 'I' for Inactive)
REMARK    1  A    between atoms: C2'_3  and  C1'_4 
REMARK    2  A    between atoms: C1'_4  and  C1_5 
ROOT
ATOM      1  C1  I4B d   1      -3.556   0.762  -2.409  0.00  0.00    -0.075 A 
ATOM      2  C2  I4B d   1      -2.324   0.878  -3.002  0.00  0.00     0.003 A 
ATOM      3  C3  I4B d   1      -2.186   1.568  -4.231  0.00  0.00     0.002 A 
ATOM      4  C4  I4B d   1      -3.307   2.078  -4.853  0.00  0.00    -0.004 A 
ATOM      5  C5  I4B d   1      -4.552   1.979  -4.240  0.00  0.00     0.002 A 
ATOM      6  C6  I4B d   1      -4.677   1.328  -3.004  0.00  0.00     0.003 A 
ENDROOT
BRANCH   1   7
ATOM      7  C1' I4B d   1      -3.671  -0.001  -1.128  0.00  0.00     0.060 C 
BRANCH   7   8
ATOM      8  C2' I4B d   1      -4.687   0.705  -0.253  0.00  0.00    -0.013 C 
ATOM      9  C4' I4B d   1      -5.937  -0.121  -0.095  0.00  0.00     0.013 C 
ATOM     10  C3' I4B d   1      -4.046   0.977   1.075  0.00  0.00     0.013 C 
ENDBRANCH   7   8
ENDBRANCH   1   7
TORSDOF 2
ENDMDL
