MODEL 1
REMARK minimizedAffinity 4.34091425
REMARK minimizedRMSD -1
REMARK  2 active torsions:
REMARK  status: ('A' for Active; 'I' for Inactive)
REMARK    1  A    between atoms: C2'_3  and  C1'_4 
REMARK    2  A    between atoms: C1'_4  and  C1_5 
ROOT
ATOM      1  C1  I4B d   1      -5.287   1.330  -2.371  0.00  0.00    -0.075 A 
ATOM      2  C2  I4B d   1      -4.677   0.119  -2.583  0.00  0.00     0.003 A 
ATOM      3  C3  I4B d   1      -4.392  -0.314  -3.901  0.00  0.00     0.002 A 
ATOM      4  C4  I4B d   1      -4.777   0.467  -4.971  0.00  0.00    -0.004 A 
ATOM      5  C5  I4B d   1      -5.375   1.705  -4.753  0.00  0.00     0.002 A 
ATOM      6  C6  I4B d   1      -5.621   2.145  -3.444  0.00  0.00     0.003 A 
ENDROOT
BRANCH   1   7
ATOM      7  C1' I4B d   1      -5.603   1.741  -0.968  0.00  0.00     0.060 C 
BRANCH   7   8
ATOM      8  C2' I4B d   1      -5.241   0.591  -0.051  0.00  0.00    -0.013 C 
ATOM      9  C4' I4B d   1      -5.552   0.919   1.386  0.00  0.00     0.013 C 
ATOM     10  C3' I4B d   1      -6.000  -0.620  -0.506  0.00  0.00     0.013 C 
ENDBRANCH   7   8
ENDBRANCH   1   7
TORSDOF 2
ENDMDL
