MODEL 1
REMARK minimizedAffinity -4.10174274
REMARK minimizedRMSD -1
REMARK  2 active torsions:
REMARK  status: ('A' for Active; 'I' for Inactive)
REMARK    1  A    between atoms: C2'_3  and  C1'_4 
REMARK    2  A    between atoms: C1'_4  and  C1_5 
ROOT
ATOM      1  C1  I4B d   1      -0.098   0.054   0.075  0.00  0.00    -0.075 A 
ATOM      2  C2  I4B d   1       0.499   1.287  -0.009  0.00  0.00     0.003 A 
ATOM      3  C3  I4B d   1       1.291   1.620  -1.135  0.00  0.00     0.002 A 
ATOM      4  C4  I4B d   1       1.500   0.678  -2.121  0.00  0.00    -0.004 A 
ATOM      5  C5  I4B d   1       0.875  -0.564  -2.045  0.00  0.00     0.002 A 
ATOM      6  C6  I4B d   1       0.061  -0.874  -0.946  0.00  0.00     0.003 A 
ENDROOT
BRANCH   1   7
ATOM      7  C1' I4B d   1      -0.901  -0.276   1.294  0.00  0.00     0.060 C 
BRANCH   7   8
ATOM      8  C2' I4B d   1      -2.252   0.397   1.158  0.00  0.00    -0.013 C 
ATOM      9  C4' I4B d   1      -3.326  -0.601   0.815  0.00  0.00     0.013 C 
ATOM     10  C3' I4B d   1      -2.554   1.094   2.451  0.00  0.00     0.013 C 
ENDBRANCH   7   8
ENDBRANCH   1   7
TORSDOF 2
ENDMDL
