MODEL 1
REMARK minimizedAffinity -3.35292625
REMARK minimizedRMSD -1
REMARK  2 active torsions:
REMARK  status: ('A' for Active; 'I' for Inactive)
REMARK    1  A    between atoms: C2'_3  and  C1'_4 
REMARK    2  A    between atoms: C1'_4  and  C1_5 
ROOT
ATOM      1  C1  I4B d   1       0.893  -0.599  -1.453  0.00  0.00    -0.075 A 
ATOM      2  C2  I4B d   1       0.444  -1.657  -0.702  0.00  0.00     0.003 A 
ATOM      3  C3  I4B d   1      -0.298  -1.426   0.482  0.00  0.00     0.002 A 
ATOM      4  C4  I4B d   1      -0.522  -0.131   0.902  0.00  0.00    -0.004 A 
ATOM      5  C5  I4B d   1      -0.085   0.940   0.128  0.00  0.00     0.002 A 
ATOM      6  C6  I4B d   1       0.616   0.705  -1.063  0.00  0.00     0.003 A 
ENDROOT
BRANCH   1   7
ATOM      7  C1' I4B d   1       1.701  -0.878  -2.680  0.00  0.00     0.060 C 
BRANCH   7   8
ATOM      8  C2' I4B d   1       3.153  -1.002  -2.264  0.00  0.00    -0.013 C 
ATOM      9  C4' I4B d   1       3.580   0.169  -1.419  0.00  0.00     0.013 C 
ATOM     10  C3' I4B d   1       3.313  -2.294  -1.521  0.00  0.00     0.013 C 
ENDBRANCH   7   8
ENDBRANCH   1   7
TORSDOF 2
ENDMDL
