MODEL 1
REMARK minimizedAffinity -3.94867134
REMARK minimizedRMSD -1
REMARK  2 active torsions:
REMARK  status: ('A' for Active; 'I' for Inactive)
REMARK    1  A    between atoms: C2'_3  and  C1'_4 
REMARK    2  A    between atoms: C1'_4  and  C1_5 
ROOT
ATOM      1  C1  I4B d   1       0.343   0.154  -0.905  0.00  0.00    -0.075 A 
ATOM      2  C2  I4B d   1       0.522  -0.918  -1.743  0.00  0.00     0.003 A 
ATOM      3  C3  I4B d   1       1.729  -1.061  -2.469  0.00  0.00     0.002 A 
ATOM      4  C4  I4B d   1       2.703  -0.088  -2.367  0.00  0.00    -0.004 A 
ATOM      5  C5  I4B d   1       2.529   0.986  -1.499  0.00  0.00     0.002 A 
ATOM      6  C6  I4B d   1       1.346   1.102  -0.754  0.00  0.00     0.003 A 
ENDROOT
BRANCH   1   7
ATOM      7  C1' I4B d   1      -0.958   0.291  -0.178  0.00  0.00     0.060 C 
BRANCH   7   8
ATOM      8  C2' I4B d   1      -0.696   0.053   1.296  0.00  0.00    -0.013 C 
ATOM      9  C4' I4B d   1      -1.909   0.382   2.125  0.00  0.00     0.013 C 
ATOM     10  C3' I4B d   1      -0.295  -1.382   1.468  0.00  0.00     0.013 C 
ENDBRANCH   7   8
ENDBRANCH   1   7
TORSDOF 2
ENDMDL
