MODEL 1
REMARK minimizedAffinity -5.46152449
REMARK minimizedRMSD -1
REMARK  2 active torsions:
REMARK  status: ('A' for Active; 'I' for Inactive)
REMARK    1  A    between atoms: C2'_3  and  C1'_4 
REMARK    2  A    between atoms: C1'_4  and  C1_5 
ROOT
ATOM      1  C1  I4B d   1      -0.849   0.206   0.298  0.00  0.00    -0.075 A 
ATOM      2  C2  I4B d   1      -1.298   1.296  -0.404  0.00  0.00     0.003 A 
ATOM      3  C3  I4B d   1      -0.716   1.630  -1.651  0.00  0.00     0.002 A 
ATOM      4  C4  I4B d   1       0.339   0.880  -2.131  0.00  0.00    -0.004 A 
ATOM      5  C5  I4B d   1       0.778  -0.238  -1.429  0.00  0.00     0.002 A 
ATOM      6  C6  I4B d   1       0.172  -0.586  -0.212  0.00  0.00     0.003 A 
ENDROOT
BRANCH   1   7
ATOM      7  C1' I4B d   1      -1.464  -0.098   1.628  0.00  0.00     0.060 C 
BRANCH   7   8
ATOM      8  C2' I4B d   1      -2.689   0.779   1.787  0.00  0.00    -0.013 C 
ATOM      9  C4' I4B d   1      -3.955  -0.031   1.694  0.00  0.00     0.013 C 
ATOM     10  C3' I4B d   1      -2.589   1.478   3.110  0.00  0.00     0.013 C 
ENDBRANCH   7   8
ENDBRANCH   1   7
TORSDOF 2
ENDMDL
