MODEL 1
REMARK minimizedAffinity 6.11371279
REMARK minimizedRMSD -1
REMARK  2 active torsions:
REMARK  status: ('A' for Active; 'I' for Inactive)
REMARK    1  A    between atoms: C2'_3  and  C1'_4 
REMARK    2  A    between atoms: C1'_4  and  C1_5 
ROOT
ATOM      1  C1  I4B d   1       1.378  -0.281   0.673  0.00  0.00    -0.075 A 
ATOM      2  C2  I4B d   1       1.166  -1.139  -0.377  0.00  0.00     0.003 A 
ATOM      3  C3  I4B d   1       0.385  -2.306  -0.197  0.00  0.00     0.002 A 
ATOM      4  C4  I4B d   1      -0.119  -2.600   1.054  0.00  0.00    -0.004 A 
ATOM      5  C5  I4B d   1       0.078  -1.718   2.111  0.00  0.00     0.002 A 
ATOM      6  C6  I4B d   1       0.821  -0.544   1.918  0.00  0.00     0.003 A 
ENDROOT
BRANCH   1   7
ATOM      7  C1' I4B d   1       2.235   0.926   0.456  0.00  0.00     0.060 C 
BRANCH   7   8
ATOM      8  C2' I4B d   1       1.890   1.505  -0.901  0.00  0.00    -0.013 C 
ATOM      9  C4' I4B d   1       1.908   3.011  -0.871  0.00  0.00     0.013 C 
ATOM     10  C3' I4B d   1       2.876   0.972  -1.897  0.00  0.00     0.013 C 
ENDBRANCH   7   8
ENDBRANCH   1   7
TORSDOF 2
ENDMDL
