MODEL 1
REMARK minimizedAffinity -4.7343936
REMARK minimizedRMSD -1
REMARK  2 active torsions:
REMARK  status: ('A' for Active; 'I' for Inactive)
REMARK    1  A    between atoms: C2'_3  and  C1'_4 
REMARK    2  A    between atoms: C1'_4  and  C1_5 
ROOT
ATOM      1  C1  I4B d   1       1.010  -0.428  -0.820  0.00  0.00    -0.075 A 
ATOM      2  C2  I4B d   1       0.808  -1.767  -0.593  0.00  0.00     0.003 A 
ATOM      3  C3  I4B d   1       1.268  -2.725  -1.528  0.00  0.00     0.002 A 
ATOM      4  C4  I4B d   1       1.876  -2.302  -2.692  0.00  0.00    -0.004 A 
ATOM      5  C5  I4B d   1       2.101  -0.946  -2.909  0.00  0.00     0.002 A 
ATOM      6  C6  I4B d   1       1.677  -0.003  -1.962  0.00  0.00     0.003 A 
ENDROOT
BRANCH   1   7
ATOM      7  C1' I4B d   1       0.483   0.559   0.173  0.00  0.00     0.060 C 
BRANCH   7   8
ATOM      8  C2' I4B d   1       0.168   1.843  -0.567  0.00  0.00    -0.013 C 
ATOM      9  C4' I4B d   1      -1.317   2.020  -0.745  0.00  0.00     0.013 C 
ATOM     10  C3' I4B d   1       0.760   2.981   0.208  0.00  0.00     0.013 C 
ENDBRANCH   7   8
ENDBRANCH   1   7
TORSDOF 2
ENDMDL
