MODEL 1
REMARK minimizedAffinity -5.41699409
REMARK minimizedRMSD -1
REMARK  2 active torsions:
REMARK  status: ('A' for Active; 'I' for Inactive)
REMARK    1  A    between atoms: C2'_3  and  C1'_4 
REMARK    2  A    between atoms: C1'_4  and  C1_5 
ROOT
ATOM      1  C1  I4B d   1      -1.033   0.157   0.391  0.00  0.00    -0.075 A 
ATOM      2  C2  I4B d   1      -2.113   0.852  -0.093  0.00  0.00     0.003 A 
ATOM      3  C3  I4B d   1      -3.139   1.279   0.785  0.00  0.00     0.002 A 
ATOM      4  C4  I4B d   1      -3.070   0.947   2.123  0.00  0.00    -0.004 A 
ATOM      5  C5  I4B d   1      -1.963   0.262   2.616  0.00  0.00     0.002 A 
ATOM      6  C6  I4B d   1      -0.932  -0.125   1.747  0.00  0.00     0.003 A 
ENDROOT
BRANCH   1   7
ATOM      7  C1' I4B d   1       0.015  -0.306  -0.569  0.00  0.00     0.060 C 
BRANCH   7   8
ATOM      8  C2' I4B d   1       0.627   0.918  -1.220  0.00  0.00    -0.013 C 
ATOM      9  C4' I4B d   1       1.335   1.777  -0.206  0.00  0.00     0.013 C 
ATOM     10  C3' I4B d   1       1.570   0.452  -2.288  0.00  0.00     0.013 C 
ENDBRANCH   7   8
ENDBRANCH   1   7
TORSDOF 2
ENDMDL
