MODEL 1
REMARK minimizedAffinity -2.71537566
REMARK minimizedRMSD -1
REMARK  2 active torsions:
REMARK  status: ('A' for Active; 'I' for Inactive)
REMARK    1  A    between atoms: C2'_3  and  C1'_4 
REMARK    2  A    between atoms: C1'_4  and  C1_5 
ROOT
ATOM      1  C1  I4B d   1      -0.901   0.110   0.259  0.00  0.00    -0.075 A 
ATOM      2  C2  I4B d   1      -0.384  -0.711  -0.712  0.00  0.00     0.003 A 
ATOM      3  C3  I4B d   1       0.937  -0.515  -1.183  0.00  0.00     0.002 A 
ATOM      4  C4  I4B d   1       1.683   0.538  -0.694  0.00  0.00    -0.004 A 
ATOM      5  C5  I4B d   1       1.166   1.356   0.306  0.00  0.00     0.002 A 
ATOM      6  C6  I4B d   1      -0.130   1.133   0.795  0.00  0.00     0.003 A 
ENDROOT
BRANCH   1   7
ATOM      7  C1' I4B d   1      -2.311  -0.105   0.709  0.00  0.00     0.060 C 
BRANCH   7   8
ATOM      8  C2' I4B d   1      -2.701   1.061   1.596  0.00  0.00    -0.013 C 
ATOM      9  C4' I4B d   1      -3.966   1.716   1.109  0.00  0.00     0.013 C 
ATOM     10  C3' I4B d   1      -2.861   0.545   2.995  0.00  0.00     0.013 C 
ENDBRANCH   7   8
ENDBRANCH   1   7
TORSDOF 2
ENDMDL
