MODEL 1
REMARK minimizedAffinity -0.31509608
REMARK minimizedRMSD -1
REMARK  2 active torsions:
REMARK  status: ('A' for Active; 'I' for Inactive)
REMARK    1  A    between atoms: C2'_3  and  C1'_4 
REMARK    2  A    between atoms: C1'_4  and  C1_5 
ROOT
ATOM      1  C1  I4B d   1      -1.322   0.056   0.835  0.00  0.00    -0.075 A 
ATOM      2  C2  I4B d   1      -2.381   0.047  -0.038  0.00  0.00     0.003 A 
ATOM      3  C3  I4B d   1      -3.687   0.341   0.422  0.00  0.00     0.002 A 
ATOM      4  C4  I4B d   1      -3.896   0.589   1.763  0.00  0.00    -0.004 A 
ATOM      5  C5  I4B d   1      -2.818   0.620   2.643  0.00  0.00     0.002 A 
ATOM      6  C6  I4B d   1      -1.521   0.364   2.175  0.00  0.00     0.003 A 
ENDROOT
BRANCH   1   7
ATOM      7  C1' I4B d   1       0.039  -0.293   0.322  0.00  0.00     0.060 C 
BRANCH   7   8
ATOM      8  C2' I4B d   1       0.554   0.889  -0.475  0.00  0.00    -0.013 C 
ATOM      9  C4' I4B d   1       1.228   1.897   0.419  0.00  0.00     0.013 C 
ATOM     10  C3' I4B d   1       1.501   0.369  -1.515  0.00  0.00     0.013 C 
ENDBRANCH   7   8
ENDBRANCH   1   7
TORSDOF 2
ENDMDL
