MODEL 1
REMARK minimizedAffinity -6.05092192
REMARK minimizedRMSD -1
REMARK  2 active torsions:
REMARK  status: ('A' for Active; 'I' for Inactive)
REMARK    1  A    between atoms: C2'_3  and  C1'_4 
REMARK    2  A    between atoms: C1'_4  and  C1_5 
ROOT
ATOM      1  C1  I4B d   1      -0.204   0.223   0.145  0.00  0.00    -0.075 A 
ATOM      2  C2  I4B d   1       0.725   1.223  -0.003  0.00  0.00     0.003 A 
ATOM      3  C3  I4B d   1       1.605   1.220  -1.113  0.00  0.00     0.002 A 
ATOM      4  C4  I4B d   1       1.555   0.178  -2.017  0.00  0.00    -0.004 A 
ATOM      5  C5  I4B d   1       0.598  -0.822  -1.878  0.00  0.00     0.002 A 
ATOM      6  C6  I4B d   1      -0.295  -0.794  -0.797  0.00  0.00     0.003 A 
ENDROOT
BRANCH   1   7
ATOM      7  C1' I4B d   1      -1.095   0.239   1.346  0.00  0.00     0.060 C 
BRANCH   7   8
ATOM      8  C2' I4B d   1      -2.512   0.493   0.872  0.00  0.00    -0.013 C 
ATOM      9  C4' I4B d   1      -3.275  -0.796   0.719  0.00  0.00     0.013 C 
ATOM     10  C3' I4B d   1      -3.176   1.401   1.864  0.00  0.00     0.013 C 
ENDBRANCH   7   8
ENDBRANCH   1   7
TORSDOF 2
ENDMDL
