MODEL 1
REMARK minimizedAffinity -2.7248807
REMARK minimizedRMSD -1
REMARK  1 active torsions:
REMARK  status: ('A' for Active; 'I' for Inactive)
REMARK    1  A    between atoms: C1_2  and  C2_3 
ROOT
ATOM      1  C2  UNL d   1      -2.374  -2.762  -2.003  0.00  0.00    -0.081 A 
ATOM      2  C3  UNL d   1      -2.977  -3.018  -0.766  0.00  0.00     0.006 A 
ATOM      3  C4  UNL d   1      -2.594  -2.302   0.371  0.00  0.00     0.002 A 
ATOM      4  C5  UNL d   1      -1.608  -1.314   0.288  0.00  0.00    -0.080 A 
ATOM      5  C6  UNL d   1      -1.209  -0.517   1.494  0.00  0.00     0.076 C 
ATOM      6  C7  UNL d   1      -0.992  -1.070  -0.944  0.00  0.00     0.002 A 
ATOM      7  C8  UNL d   1      -1.374  -1.786  -2.081  0.00  0.00     0.006 A 
ENDROOT
BRANCH   1   8
ATOM      8  C1  UNL d   1      -2.830  -3.488  -3.243  0.00  0.00     0.054 C 
ATOM      9  C   UNL d   1      -2.260  -2.846  -4.500  0.00  0.00     0.018 C 
ENDBRANCH   1   8
TORSDOF 1
ENDMDL
