MODEL 1
REMARK minimizedAffinity -0.266997904
REMARK minimizedRMSD -1
REMARK  1 active torsions:
REMARK  status: ('A' for Active; 'I' for Inactive)
REMARK    1  A    between atoms: C1_2  and  C2_3 
ROOT
ATOM      1  C2  UNL d   1      -2.110  -1.911  -2.781  0.00  0.00    -0.081 A 
ATOM      2  C3  UNL d   1      -1.543  -0.631  -2.786  0.00  0.00     0.006 A 
ATOM      3  C4  UNL d   1      -0.865  -0.152  -1.662  0.00  0.00     0.002 A 
ATOM      4  C5  UNL d   1      -0.737  -0.948  -0.518  0.00  0.00    -0.080 A 
ATOM      5  C6  UNL d   1       0.014  -0.458   0.684  0.00  0.00     0.076 C 
ATOM      6  C7  UNL d   1      -1.319  -2.220  -0.507  0.00  0.00     0.002 A 
ATOM      7  C8  UNL d   1      -1.997  -2.699  -1.631  0.00  0.00     0.006 A 
ENDROOT
BRANCH   1   8
ATOM      8  C1  UNL d   1      -2.785  -2.455  -4.015  0.00  0.00     0.054 C 
ATOM      9  C   UNL d   1      -2.274  -3.847  -4.357  0.00  0.00     0.018 C 
ENDBRANCH   1   8
TORSDOF 1
ENDMDL
