MODEL 1
REMARK minimizedAffinity -2.18543053
REMARK minimizedRMSD -1
REMARK  1 active torsions:
REMARK  status: ('A' for Active; 'I' for Inactive)
REMARK    1  A    between atoms: C1_2  and  C2_3 
ROOT
ATOM      1  C2  UNL d   1      -3.084  -3.085  -1.338  0.00  0.00    -0.081 A 
ATOM      2  C3  UNL d   1      -2.523  -2.461  -0.217  0.00  0.00     0.006 A 
ATOM      3  C4  UNL d   1      -1.631  -1.398  -0.370  0.00  0.00     0.002 A 
ATOM      4  C5  UNL d   1      -1.290  -0.935  -1.645  0.00  0.00    -0.080 A 
ATOM      5  C6  UNL d   1      -0.357   0.226  -1.823  0.00  0.00     0.076 C 
ATOM      6  C7  UNL d   1      -1.837  -1.568  -2.766  0.00  0.00     0.002 A 
ATOM      7  C8  UNL d   1      -2.729  -2.632  -2.614  0.00  0.00     0.006 A 
ENDROOT
BRANCH   1   8
ATOM      8  C1  UNL d   1      -4.096  -4.189  -1.175  0.00  0.00     0.054 C 
ATOM      9  C   UNL d   1      -5.188  -3.798  -0.189  0.00  0.00     0.018 C 
ENDBRANCH   1   8
TORSDOF 1
ENDMDL
