MODEL 1
REMARK minimizedAffinity 0.0418195687
REMARK minimizedRMSD -1
REMARK  1 active torsions:
REMARK  status: ('A' for Active; 'I' for Inactive)
REMARK    1  A    between atoms: C1_2  and  C2_3 
ROOT
ATOM      1  C2  UNL d   1      -1.312  -1.343  -0.535  0.00  0.00    -0.081 A 
ATOM      2  C3  UNL d   1      -1.664  -2.185  -1.597  0.00  0.00     0.006 A 
ATOM      3  C4  UNL d   1      -2.970  -2.663  -1.719  0.00  0.00     0.002 A 
ATOM      4  C5  UNL d   1      -3.949  -2.300  -0.787  0.00  0.00    -0.080 A 
ATOM      5  C6  UNL d   1      -5.363  -2.782  -0.924  0.00  0.00     0.076 C 
ATOM      6  C7  UNL d   1      -3.593  -1.474   0.284  0.00  0.00     0.002 A 
ATOM      7  C8  UNL d   1      -2.287  -0.996   0.407  0.00  0.00     0.006 A 
ENDROOT
BRANCH   1   8
ATOM      8  C1  UNL d   1       0.081  -0.774  -0.436  0.00  0.00     0.054 C 
ATOM      9  C   UNL d   1       0.057   0.748  -0.419  0.00  0.00     0.018 C 
ENDBRANCH   1   8
TORSDOF 1
ENDMDL
