MODEL 1
REMARK minimizedAffinity 4.8267889
REMARK minimizedRMSD -1
REMARK  1 active torsions:
REMARK  status: ('A' for Active; 'I' for Inactive)
REMARK    1  A    between atoms: C1_2  and  C2_3 
ROOT
ATOM      1  C2  UNL d   1      -3.748   3.212   3.576  0.00  0.00    -0.081 A 
ATOM      2  C3  UNL d   1      -4.121   4.508   3.955  0.00  0.00     0.006 A 
ATOM      3  C4  UNL d   1      -4.592   5.416   3.005  0.00  0.00     0.002 A 
ATOM      4  C5  UNL d   1      -4.705   5.043   1.661  0.00  0.00    -0.080 A 
ATOM      5  C6  UNL d   1      -5.238   5.999   0.636  0.00  0.00     0.076 C 
ATOM      6  C7  UNL d   1      -4.317   3.755   1.279  0.00  0.00     0.002 A 
ATOM      7  C8  UNL d   1      -3.845   2.846   2.229  0.00  0.00     0.006 A 
ENDROOT
BRANCH   1   8
ATOM      8  C1  UNL d   1      -3.302   2.210   4.609  0.00  0.00     0.054 C 
ATOM      9  C   UNL d   1      -3.427   0.785   4.088  0.00  0.00     0.018 C 
ENDBRANCH   1   8
TORSDOF 1
ENDMDL
