MODEL 1
REMARK minimizedAffinity 12.8634415
REMARK minimizedRMSD -1
REMARK  1 active torsions:
REMARK  status: ('A' for Active; 'I' for Inactive)
REMARK    1  A    between atoms: C1_2  and  C2_3 
ROOT
ATOM      1  C2  UNL d   1      -3.875  -4.498  -1.571  0.00  0.00    -0.081 A 
ATOM      2  C3  UNL d   1      -3.870  -3.100  -1.493  0.00  0.00     0.006 A 
ATOM      3  C4  UNL d   1      -3.360  -2.334  -2.544  0.00  0.00     0.002 A 
ATOM      4  C5  UNL d   1      -2.854  -2.953  -3.692  0.00  0.00    -0.080 A 
ATOM      5  C6  UNL d   1      -2.331  -2.141  -4.840  0.00  0.00     0.076 C 
ATOM      6  C7  UNL d   1      -2.843  -4.350  -3.762  0.00  0.00     0.002 A 
ATOM      7  C8  UNL d   1      -3.352  -5.116  -2.712  0.00  0.00     0.006 A 
ENDROOT
BRANCH   1   8
ATOM      8  C1  UNL d   1      -4.484  -5.325  -0.467  0.00  0.00     0.054 C 
ATOM      9  C   UNL d   1      -5.999  -5.186  -0.443  0.00  0.00     0.018 C 
ENDBRANCH   1   8
TORSDOF 1
ENDMDL
