MODEL 1
REMARK minimizedAffinity 2.61520195
REMARK minimizedRMSD -1
REMARK  1 active torsions:
REMARK  status: ('A' for Active; 'I' for Inactive)
REMARK    1  A    between atoms: C1_2  and  C2_3 
ROOT
ATOM      1  C2  UNL d   1      -5.234   5.855   1.202  0.00  0.00    -0.081 A 
ATOM      2  C3  UNL d   1      -6.000   5.997   2.366  0.00  0.00     0.006 A 
ATOM      3  C4  UNL d   1      -5.397   5.922   3.624  0.00  0.00     0.002 A 
ATOM      4  C5  UNL d   1      -4.019   5.712   3.739  0.00  0.00    -0.080 A 
ATOM      5  C6  UNL d   1      -3.355   5.660   5.083  0.00  0.00     0.076 C 
ATOM      6  C7  UNL d   1      -3.256   5.553   2.577  0.00  0.00     0.002 A 
ATOM      7  C8  UNL d   1      -3.859   5.627   1.319  0.00  0.00     0.006 A 
ENDROOT
BRANCH   1   8
ATOM      8  C1  UNL d   1      -5.871   5.999  -0.156  0.00  0.00     0.054 C 
ATOM      9  C   UNL d   1      -6.000   4.652  -0.853  0.00  0.00     0.018 C 
ENDBRANCH   1   8
TORSDOF 1
ENDMDL
