MODEL 1
REMARK minimizedAffinity 0.822427034
REMARK minimizedRMSD -1
REMARK  1 active torsions:
REMARK  status: ('A' for Active; 'I' for Inactive)
REMARK    1  A    between atoms: C1_2  and  C2_3 
ROOT
ATOM      1  C2  UNL d   1      -5.044   4.862   3.701  0.00  0.00    -0.081 A 
ATOM      2  C3  UNL d   1      -4.863   3.693   2.952  0.00  0.00     0.006 A 
ATOM      3  C4  UNL d   1      -5.183   3.666   1.593  0.00  0.00     0.002 A 
ATOM      4  C5  UNL d   1      -5.681   4.810   0.958  0.00  0.00    -0.080 A 
ATOM      5  C6  UNL d   1      -6.000   4.804  -0.507  0.00  0.00     0.076 C 
ATOM      6  C7  UNL d   1      -5.879   5.972   1.711  0.00  0.00     0.002 A 
ATOM      7  C8  UNL d   1      -5.560   5.999   3.070  0.00  0.00     0.006 A 
ENDROOT
BRANCH   1   8
ATOM      8  C1  UNL d   1      -4.640   4.912   5.153  0.00  0.00     0.054 C 
ATOM      9  C   UNL d   1      -5.610   5.754   5.969  0.00  0.00     0.018 C 
ENDBRANCH   1   8
TORSDOF 1
ENDMDL
