MODEL 1
REMARK minimizedAffinity -1.30417252
REMARK minimizedRMSD -1
REMARK  1 active torsions:
REMARK  status: ('A' for Active; 'I' for Inactive)
REMARK    1  A    between atoms: C1_2  and  C2_3 
ROOT
ATOM      1  C2  UNL d   1      -5.562   5.385   2.244  0.00  0.00    -0.081 A 
ATOM      2  C3  UNL d   1      -4.869   4.168   2.263  0.00  0.00     0.006 A 
ATOM      3  C4  UNL d   1      -4.517   3.573   3.476  0.00  0.00     0.002 A 
ATOM      4  C5  UNL d   1      -4.857   4.179   4.690  0.00  0.00    -0.080 A 
ATOM      5  C6  UNL d   1      -4.512   3.535   6.000  0.00  0.00     0.076 C 
ATOM      6  C7  UNL d   1      -5.534   5.404   4.671  0.00  0.00     0.002 A 
ATOM      7  C8  UNL d   1      -5.886   6.000   3.458  0.00  0.00     0.006 A 
ENDROOT
BRANCH   1   8
ATOM      8  C1  UNL d   1      -6.000   5.997   0.938  0.00  0.00     0.054 C 
ATOM      9  C   UNL d   1      -4.871   5.991  -0.082  0.00  0.00     0.018 C 
ENDBRANCH   1   8
TORSDOF 1
ENDMDL
