MODEL 1
REMARK minimizedAffinity -4.52788591
REMARK minimizedRMSD -1
REMARK  1 active torsions:
REMARK  status: ('A' for Active; 'I' for Inactive)
REMARK    1  A    between atoms: C1_2  and  C2_3 
ROOT
ATOM      1  C2  UNL d   1      -4.120   2.477   3.693  0.00  0.00    -0.081 A 
ATOM      2  C3  UNL d   1      -4.639   2.252   4.974  0.00  0.00     0.006 A 
ATOM      3  C4  UNL d   1      -5.157   3.310   5.724  0.00  0.00     0.002 A 
ATOM      4  C5  UNL d   1      -5.171   4.609   5.204  0.00  0.00    -0.080 A 
ATOM      5  C6  UNL d   1      -5.752   5.749   5.987  0.00  0.00     0.076 C 
ATOM      6  C7  UNL d   1      -4.637   4.837   3.931  0.00  0.00     0.002 A 
ATOM      7  C8  UNL d   1      -4.119   3.779   3.181  0.00  0.00     0.006 A 
ENDROOT
BRANCH   1   8
ATOM      8  C1  UNL d   1      -3.620   1.328   2.855  0.00  0.00     0.054 C 
ATOM      9  C   UNL d   1      -3.085   0.200   3.726  0.00  0.00     0.018 C 
ENDBRANCH   1   8
TORSDOF 1
ENDMDL
