MODEL 1
REMARK minimizedAffinity 3.80746293
REMARK minimizedRMSD -1
REMARK  1 active torsions:
REMARK  status: ('A' for Active; 'I' for Inactive)
REMARK    1  A    between atoms: C1_2  and  C2_3 
ROOT
ATOM      1  C2  UNL d   1      -1.454  -0.982  -0.805  0.00  0.00    -0.081 A 
ATOM      2  C3  UNL d   1      -1.811  -2.333  -0.891  0.00  0.00     0.006 A 
ATOM      3  C4  UNL d   1      -2.376  -2.844  -2.061  0.00  0.00     0.002 A 
ATOM      4  C5  UNL d   1      -2.587  -2.014  -3.168  0.00  0.00    -0.080 A 
ATOM      5  C6  UNL d   1      -3.165  -2.556  -4.441  0.00  0.00     0.076 C 
ATOM      6  C7  UNL d   1      -2.247  -0.660  -3.077  0.00  0.00     0.002 A 
ATOM      7  C8  UNL d   1      -1.683  -0.149  -1.906  0.00  0.00     0.006 A 
ENDROOT
BRANCH   1   8
ATOM      8  C1  UNL d   1      -0.785  -0.443   0.433  0.00  0.00     0.054 C 
ATOM      9  C   UNL d   1       0.684  -0.135   0.179  0.00  0.00     0.018 C 
ENDBRANCH   1   8
TORSDOF 1
ENDMDL
