MODEL 1
REMARK minimizedAffinity -2.84004784
REMARK minimizedRMSD -1
REMARK  2 active torsions:
REMARK  status: ('A' for Active; 'I' for Inactive)
REMARK    1  A    between atoms: C2'_3  and  C1'_4 
REMARK    2  A    between atoms: C1'_4  and  C1_5 
ROOT
ATOM      1  C1  I4B d   1       0.073   0.411  -0.834  0.00  0.00    -0.075 A 
ATOM      2  C2  I4B d   1      -1.265   0.600  -0.592  0.00  0.00     0.003 A 
ATOM      3  C3  I4B d   1      -1.759   0.583   0.735  0.00  0.00     0.002 A 
ATOM      4  C4  I4B d   1      -0.894   0.324   1.778  0.00  0.00    -0.004 A 
ATOM      5  C5  I4B d   1       0.466   0.156   1.533  0.00  0.00     0.002 A 
ATOM      6  C6  I4B d   1       0.955   0.211   0.220  0.00  0.00     0.003 A 
ENDROOT
BRANCH   1   7
ATOM      7  C1' I4B d   1       0.555   0.403  -2.250  0.00  0.00     0.060 C 
BRANCH   7   8
ATOM      8  C2' I4B d   1       0.994  -1.008  -2.585  0.00  0.00    -0.013 C 
ATOM      9  C4' I4B d   1       0.141  -1.601  -3.676  0.00  0.00     0.013 C 
ATOM     10  C3' I4B d   1       2.437  -0.959  -2.993  0.00  0.00     0.013 C 
ENDBRANCH   7   8
ENDBRANCH   1   7
TORSDOF 2
ENDMDL
