MODEL 1
REMARK minimizedAffinity -2.44668722
REMARK minimizedRMSD -1
REMARK  2 active torsions:
REMARK  status: ('A' for Active; 'I' for Inactive)
REMARK    1  A    between atoms: C2'_3  and  C1'_4 
REMARK    2  A    between atoms: C1'_4  and  C1_5 
ROOT
ATOM      1  C1  I4B d   1       0.212   0.216  -0.566  0.00  0.00    -0.075 A 
ATOM      2  C2  I4B d   1      -1.043   0.032  -0.039  0.00  0.00     0.003 A 
ATOM      3  C3  I4B d   1      -1.230   0.008   1.364  0.00  0.00     0.002 A 
ATOM      4  C4  I4B d   1      -0.135   0.119   2.198  0.00  0.00    -0.004 A 
ATOM      5  C5  I4B d   1       1.132   0.329   1.662  0.00  0.00     0.002 A 
ATOM      6  C6  I4B d   1       1.306   0.390   0.272  0.00  0.00     0.003 A 
ENDROOT
BRANCH   1   7
ATOM      7  C1' I4B d   1       0.378   0.204  -2.052  0.00  0.00     0.060 C 
BRANCH   7   8
ATOM      8  C2' I4B d   1       1.084  -1.081  -2.433  0.00  0.00    -0.013 C 
ATOM      9  C4' I4B d   1       0.137  -2.047  -3.096  0.00  0.00     0.013 C 
ATOM     10  C3' I4B d   1       2.225  -0.732  -3.341  0.00  0.00     0.013 C 
ENDBRANCH   7   8
ENDBRANCH   1   7
TORSDOF 2
ENDMDL
