MODEL 1
REMARK minimizedAffinity -4.03063154
REMARK minimizedRMSD -1
REMARK  2 active torsions:
REMARK  status: ('A' for Active; 'I' for Inactive)
REMARK    1  A    between atoms: C2'_3  and  C1'_4 
REMARK    2  A    between atoms: C1'_4  and  C1_5 
ROOT
ATOM      1  C1  I4B d   1      -0.755  -0.717   0.753  0.00  0.00    -0.075 A 
ATOM      2  C2  I4B d   1       0.190  -0.350  -0.172  0.00  0.00     0.003 A 
ATOM      3  C3  I4B d   1      -0.174   0.444  -1.286  0.00  0.00     0.002 A 
ATOM      4  C4  I4B d   1      -1.495   0.804  -1.462  0.00  0.00    -0.004 A 
ATOM      5  C5  I4B d   1      -2.447   0.451  -0.510  0.00  0.00     0.002 A 
ATOM      6  C6  I4B d   1      -2.073  -0.304   0.611  0.00  0.00     0.003 A 
ENDROOT
BRANCH   1   7
ATOM      7  C1' I4B d   1      -0.342  -1.584   1.900  0.00  0.00     0.060 C 
BRANCH   7   8
ATOM      8  C2' I4B d   1      -0.271  -0.715   3.140  0.00  0.00    -0.013 C 
ATOM      9  C4' I4B d   1       0.258   0.657   2.815  0.00  0.00     0.013 C 
ATOM     10  C3' I4B d   1      -1.648  -0.639   3.731  0.00  0.00     0.013 C 
ENDBRANCH   7   8
ENDBRANCH   1   7
TORSDOF 2
ENDMDL
