MODEL 1
REMARK minimizedAffinity -4.65278959
REMARK minimizedRMSD -1
REMARK  2 active torsions:
REMARK  status: ('A' for Active; 'I' for Inactive)
REMARK    1  A    between atoms: C2'_3  and  C1'_4 
REMARK    2  A    between atoms: C1'_4  and  C1_5 
ROOT
ATOM      1  C1  I4B d   1      -0.910  -0.030   1.553  0.00  0.00    -0.075 A 
ATOM      2  C2  I4B d   1      -2.005   0.635   1.059  0.00  0.00     0.003 A 
ATOM      3  C3  I4B d   1      -3.038   1.054   1.932  0.00  0.00     0.002 A 
ATOM      4  C4  I4B d   1      -2.960   0.745   3.275  0.00  0.00    -0.004 A 
ATOM      5  C5  I4B d   1      -1.839   0.091   3.777  0.00  0.00     0.002 A 
ATOM      6  C6  I4B d   1      -0.802  -0.289   2.913  0.00  0.00     0.003 A 
ENDROOT
BRANCH   1   7
ATOM      7  C1' I4B d   1       0.146  -0.488   0.598  0.00  0.00     0.060 C 
BRANCH   7   8
ATOM      8  C2' I4B d   1       0.272   0.555  -0.494  0.00  0.00    -0.013 C 
ATOM      9  C4' I4B d   1       1.368   1.540  -0.184  0.00  0.00     0.013 C 
ATOM     10  C3' I4B d   1       0.534  -0.158  -1.787  0.00  0.00     0.013 C 
ENDBRANCH   7   8
ENDBRANCH   1   7
TORSDOF 2
ENDMDL
