MODEL 1
REMARK minimizedAffinity -3.56739259
REMARK minimizedRMSD -1
REMARK  2 active torsions:
REMARK  status: ('A' for Active; 'I' for Inactive)
REMARK    1  A    between atoms: C2'_3  and  C1'_4 
REMARK    2  A    between atoms: C1'_4  and  C1_5 
ROOT
ATOM      1  C1  I4B d   1      -0.930   0.503   1.149  0.00  0.00    -0.075 A 
ATOM      2  C2  I4B d   1      -2.008   0.661   0.315  0.00  0.00     0.003 A 
ATOM      3  C3  I4B d   1      -3.260   1.068   0.837  0.00  0.00     0.002 A 
ATOM      4  C4  I4B d   1      -3.400   1.256   2.197  0.00  0.00    -0.004 A 
ATOM      5  C5  I4B d   1      -2.300   1.118   3.038  0.00  0.00     0.002 A 
ATOM      6  C6  I4B d   1      -1.054   0.751   2.510  0.00  0.00     0.003 A 
ENDROOT
BRANCH   1   7
ATOM      7  C1' I4B d   1       0.369   0.040   0.569  0.00  0.00     0.060 C 
BRANCH   7   8
ATOM      8  C2' I4B d   1       1.484   0.812   1.245  0.00  0.00    -0.013 C 
ATOM      9  C4' I4B d   1       2.522  -0.118   1.815  0.00  0.00     0.013 C 
ATOM     10  C3' I4B d   1       2.085   1.740   0.233  0.00  0.00     0.013 C 
ENDBRANCH   7   8
ENDBRANCH   1   7
TORSDOF 2
ENDMDL
