MODEL 1
REMARK minimizedAffinity 2.45007348
REMARK minimizedRMSD -1
REMARK  2 active torsions:
REMARK  status: ('A' for Active; 'I' for Inactive)
REMARK    1  A    between atoms: C2'_3  and  C1'_4 
REMARK    2  A    between atoms: C1'_4  and  C1_5 
ROOT
ATOM      1  C1  I4B d   1       0.038  -0.188  -1.222  0.00  0.00    -0.075 A 
ATOM      2  C2  I4B d   1      -1.097   0.548  -0.989  0.00  0.00     0.003 A 
ATOM      3  C3  I4B d   1      -1.886   0.296   0.159  0.00  0.00     0.002 A 
ATOM      4  C4  I4B d   1      -1.534  -0.727   1.014  0.00  0.00    -0.004 A 
ATOM      5  C5  I4B d   1      -0.371  -1.457   0.789  0.00  0.00     0.002 A 
ATOM      6  C6  I4B d   1       0.427  -1.178  -0.330  0.00  0.00     0.003 A 
ENDROOT
BRANCH   1   7
ATOM      7  C1' I4B d   1       0.831   0.083  -2.462  0.00  0.00     0.060 C 
BRANCH   7   8
ATOM      8  C2' I4B d   1       1.349  -1.242  -2.983  0.00  0.00    -0.013 C 
ATOM      9  C4' I4B d   1       0.272  -2.000  -3.713  0.00  0.00     0.013 C 
ATOM     10  C3' I4B d   1       2.517  -0.962  -3.880  0.00  0.00     0.013 C 
ENDBRANCH   7   8
ENDBRANCH   1   7
TORSDOF 2
ENDMDL
