MODEL 1
REMARK minimizedAffinity -1.86599791
REMARK minimizedRMSD -1
REMARK  2 active torsions:
REMARK  status: ('A' for Active; 'I' for Inactive)
REMARK    1  A    between atoms: C2'_3  and  C1'_4 
REMARK    2  A    between atoms: C1'_4  and  C1_5 
ROOT
ATOM      1  C1  I4B d   1       0.895  -0.168  -0.199  0.00  0.00    -0.075 A 
ATOM      2  C2  I4B d   1       1.298   0.820   0.665  0.00  0.00     0.003 A 
ATOM      3  C3  I4B d   1       0.749   0.894   1.968  0.00  0.00     0.002 A 
ATOM      4  C4  I4B d   1      -0.230  -0.002   2.346  0.00  0.00    -0.004 A 
ATOM      5  C5  I4B d   1      -0.621  -1.017   1.477  0.00  0.00     0.002 A 
ATOM      6  C6  I4B d   1      -0.046  -1.108   0.201  0.00  0.00     0.003 A 
ENDROOT
BRANCH   1   7
ATOM      7  C1' I4B d   1       1.471  -0.197  -1.579  0.00  0.00     0.060 C 
BRANCH   7   8
ATOM      8  C2' I4B d   1       0.353   0.095  -2.558  0.00  0.00    -0.013 C 
ATOM      9  C4' I4B d   1      -0.170  -1.172  -3.183  0.00  0.00     0.013 C 
ATOM     10  C3' I4B d   1      -0.731   0.821  -1.819  0.00  0.00     0.013 C 
ENDBRANCH   7   8
ENDBRANCH   1   7
TORSDOF 2
ENDMDL
