MODEL 1
REMARK minimizedAffinity 1.64993036
REMARK minimizedRMSD -1
REMARK  2 active torsions:
REMARK  status: ('A' for Active; 'I' for Inactive)
REMARK    1  A    between atoms: C2'_3  and  C1'_4 
REMARK    2  A    between atoms: C1'_4  and  C1_5 
ROOT
ATOM      1  C1  I4B d   1       0.322  -0.014  -0.896  0.00  0.00    -0.075 A 
ATOM      2  C2  I4B d   1       1.145  -0.117   0.198  0.00  0.00     0.003 A 
ATOM      3  C3  I4B d   1       0.613   0.011   1.504  0.00  0.00     0.002 A 
ATOM      4  C4  I4B d   1      -0.728   0.290   1.668  0.00  0.00    -0.004 A 
ATOM      5  C5  I4B d   1      -1.565   0.371   0.559  0.00  0.00     0.002 A 
ATOM      6  C6  I4B d   1      -1.039   0.207  -0.731  0.00  0.00     0.003 A 
ENDROOT
BRANCH   1   7
ATOM      7  C1' I4B d   1       0.922  -0.121  -2.262  0.00  0.00     0.060 C 
BRANCH   7   8
ATOM      8  C2' I4B d   1       1.071  -1.592  -2.592  0.00  0.00    -0.013 C 
ATOM      9  C4' I4B d   1      -0.093  -2.088  -3.408  0.00  0.00     0.013 C 
ATOM     10  C3' I4B d   1       2.365  -1.772  -3.329  0.00  0.00     0.013 C 
ENDBRANCH   7   8
ENDBRANCH   1   7
TORSDOF 2
ENDMDL
