MODEL 1
REMARK minimizedAffinity -3.14985418
REMARK minimizedRMSD -1
REMARK  2 active torsions:
REMARK  status: ('A' for Active; 'I' for Inactive)
REMARK    1  A    between atoms: C2'_3  and  C1'_4 
REMARK    2  A    between atoms: C1'_4  and  C1_5 
ROOT
ATOM      1  C1  I4B d   1       0.361  -0.031  -0.667  0.00  0.00    -0.075 A 
ATOM      2  C2  I4B d   1       1.381  -0.134   0.246  0.00  0.00     0.003 A 
ATOM      3  C3  I4B d   1       1.117   0.009   1.630  0.00  0.00     0.002 A 
ATOM      4  C4  I4B d   1      -0.165   0.302   2.050  0.00  0.00    -0.004 A 
ATOM      5  C5  I4B d   1      -1.202   0.383   1.125  0.00  0.00     0.002 A 
ATOM      6  C6  I4B d   1      -0.940   0.203  -0.241  0.00  0.00     0.003 A 
ENDROOT
BRANCH   1   7
ATOM      7  C1' I4B d   1       0.682  -0.154  -2.123  0.00  0.00     0.060 C 
BRANCH   7   8
ATOM      8  C2' I4B d   1       0.769  -1.629  -2.458  0.00  0.00    -0.013 C 
ATOM      9  C4' I4B d   1      -0.515  -2.127  -3.068  0.00  0.00     0.013 C 
ATOM     10  C3' I4B d   1       1.924  -1.823  -3.394  0.00  0.00     0.013 C 
ENDBRANCH   7   8
ENDBRANCH   1   7
TORSDOF 2
ENDMDL
