MODEL 1
REMARK minimizedAffinity -4.05241489
REMARK minimizedRMSD -1
REMARK  1 active torsions:
REMARK  status: ('A' for Active; 'I' for Inactive)
REMARK    1  A    between atoms: C3_4  and  O_7 
ROOT
ATOM      1  C   UNL d   1      -0.706  -0.308  -0.535  0.00  0.00    -0.033 A 
ATOM      2  C1  UNL d   1       0.082   0.794  -0.873  0.00  0.00     0.039 A 
ATOM      3  C2  UNL d   1       1.454   0.638  -1.078  0.00  0.00    -0.080 A 
ATOM      4  C3  UNL d   1       2.025  -0.625  -0.943  0.00  0.00     0.150 A 
ATOM      5  C4  UNL d   1       1.246  -1.728  -0.611  0.00  0.00    -0.007 A 
ATOM      6  C5  UNL d   1      -0.124  -1.570  -0.406  0.00  0.00     0.039 A 
ENDROOT
BRANCH   4   7
ATOM      7  O   UNL d   1       3.361  -0.826  -1.129  0.00  0.00    -0.526 OA
ATOM      8  H5  UNL d   1       3.777   0.031  -1.325  0.00  0.00     0.418 HD
ENDBRANCH   4   7
TORSDOF 1
ENDMDL
