MODEL 1
REMARK minimizedAffinity -4.92853928
REMARK minimizedRMSD -1
REMARK  1 active torsions:
REMARK  status: ('A' for Active; 'I' for Inactive)
REMARK    1  A    between atoms: C3_4  and  O_7 
ROOT
ATOM      1  C   UNL d   1       2.540  -0.824  -1.432  0.00  0.00    -0.033 A 
ATOM      2  C1  UNL d   1       1.311  -1.465  -1.263  0.00  0.00     0.039 A 
ATOM      3  C2  UNL d   1       0.395  -0.986  -0.324  0.00  0.00    -0.080 A 
ATOM      4  C3  UNL d   1       0.719   0.133   0.438  0.00  0.00     0.150 A 
ATOM      5  C4  UNL d   1       1.940   0.779   0.272  0.00  0.00    -0.007 A 
ATOM      6  C5  UNL d   1       2.854   0.299  -0.665  0.00  0.00     0.039 A 
ENDROOT
BRANCH   4   7
ATOM      7  O   UNL d   1      -0.140   0.634   1.370  0.00  0.00    -0.526 OA
ATOM      8  H5  UNL d   1      -0.931   0.069   1.394  0.00  0.00     0.418 HD
ENDBRANCH   4   7
TORSDOF 1
ENDMDL
