MODEL 1
REMARK minimizedAffinity -4.75939894
REMARK minimizedRMSD -1
REMARK  1 active torsions:
REMARK  status: ('A' for Active; 'I' for Inactive)
REMARK    1  A    between atoms: C3_4  and  O_7 
ROOT
ATOM      1  C   UNL d   1       2.068  -0.828  -1.655  0.00  0.00    -0.033 A 
ATOM      2  C1  UNL d   1       1.757  -1.609  -0.540  0.00  0.00     0.039 A 
ATOM      3  C2  UNL d   1       0.638  -1.306   0.237  0.00  0.00    -0.080 A 
ATOM      4  C3  UNL d   1      -0.162  -0.220  -0.111  0.00  0.00     0.150 A 
ATOM      5  C4  UNL d   1       0.140   0.560  -1.223  0.00  0.00    -0.007 A 
ATOM      6  C5  UNL d   1       1.259   0.255  -1.997  0.00  0.00     0.039 A 
ENDROOT
BRANCH   4   7
ATOM      7  O   UNL d   1      -1.262   0.118   0.619  0.00  0.00    -0.526 OA
ATOM      8  H5  UNL d   1      -1.330  -0.492   1.373  0.00  0.00     0.418 HD
ENDBRANCH   4   7
TORSDOF 1
ENDMDL
