MODEL 1
REMARK minimizedAffinity -4.47373867
REMARK minimizedRMSD -1
REMARK  1 active torsions:
REMARK  status: ('A' for Active; 'I' for Inactive)
REMARK    1  A    between atoms: C3_4  and  O_7 
ROOT
ATOM      1  C   UNL d   1       1.487  -1.133  -0.574  0.00  0.00    -0.033 A 
ATOM      2  C1  UNL d   1       1.914   0.053  -1.175  0.00  0.00     0.039 A 
ATOM      3  C2  UNL d   1       1.015   1.104  -1.367  0.00  0.00    -0.080 A 
ATOM      4  C3  UNL d   1      -0.306   0.957  -0.952  0.00  0.00     0.150 A 
ATOM      5  C4  UNL d   1      -0.737  -0.220  -0.348  0.00  0.00    -0.007 A 
ATOM      6  C5  UNL d   1       0.161  -1.268  -0.159  0.00  0.00     0.039 A 
ENDROOT
BRANCH   4   7
ATOM      7  O   UNL d   1      -1.221   1.953  -1.122  0.00  0.00    -0.526 OA
ATOM      8  H5  UNL d   1      -0.788   2.694  -1.577  0.00  0.00     0.418 HD
ENDBRANCH   4   7
TORSDOF 1
ENDMDL
