MODEL 1
REMARK minimizedAffinity -5.13472652
REMARK minimizedRMSD -1
REMARK  1 active torsions:
REMARK  status: ('A' for Active; 'I' for Inactive)
REMARK    1  A    between atoms: C3_4  and  O_7 
ROOT
ATOM      1  C   UNL d   1      -0.247  -0.329   0.003  0.00  0.00    -0.033 A 
ATOM      2  C1  UNL d   1       0.611   0.762  -0.150  0.00  0.00     0.039 A 
ATOM      3  C2  UNL d   1       1.859   0.592  -0.752  0.00  0.00    -0.080 A 
ATOM      4  C3  UNL d   1       2.237  -0.672  -1.197  0.00  0.00     0.150 A 
ATOM      5  C4  UNL d   1       1.387  -1.762  -1.051  0.00  0.00    -0.007 A 
ATOM      6  C5  UNL d   1       0.141  -1.591  -0.449  0.00  0.00     0.039 A 
ENDROOT
BRANCH   4   7
ATOM      7  O   UNL d   1       3.448  -0.887  -1.786  0.00  0.00    -0.526 OA
ATOM      8  H5  UNL d   1       3.940  -0.049  -1.793  0.00  0.00     0.418 HD
ENDBRANCH   4   7
TORSDOF 1
ENDMDL
