MODEL 1
REMARK minimizedAffinity -4.26973248
REMARK minimizedRMSD -1
REMARK  1 active torsions:
REMARK  status: ('A' for Active; 'I' for Inactive)
REMARK    1  A    between atoms: C3_4  and  O_7 
ROOT
ATOM      1  C   UNL d   1       0.431  -0.166   0.222  0.00  0.00    -0.033 A 
ATOM      2  C1  UNL d   1       1.553   0.606   0.531  0.00  0.00     0.039 A 
ATOM      3  C2  UNL d   1       2.750   0.408  -0.159  0.00  0.00    -0.080 A 
ATOM      4  C3  UNL d   1       2.813  -0.563  -1.155  0.00  0.00     0.150 A 
ATOM      5  C4  UNL d   1       1.698  -1.333  -1.470  0.00  0.00    -0.007 A 
ATOM      6  C5  UNL d   1       0.504  -1.135  -0.780  0.00  0.00     0.039 A 
ENDROOT
BRANCH   4   7
ATOM      7  O   UNL d   1       3.961  -0.795  -1.852  0.00  0.00    -0.526 OA
ATOM      8  H5  UNL d   1       4.655  -0.209  -1.506  0.00  0.00     0.418 HD
ENDBRANCH   4   7
TORSDOF 1
ENDMDL
