MODEL 1
REMARK minimizedAffinity -5.04299545
REMARK minimizedRMSD -1
REMARK  1 active torsions:
REMARK  status: ('A' for Active; 'I' for Inactive)
REMARK    1  A    between atoms: C3_4  and  O_7 
ROOT
ATOM      1  C   UNL d   1      -0.506  -0.087  -0.188  0.00  0.00    -0.033 A 
ATOM      2  C1  UNL d   1       0.305   0.963  -0.620  0.00  0.00     0.039 A 
ATOM      3  C2  UNL d   1       1.625   0.716  -1.002  0.00  0.00    -0.080 A 
ATOM      4  C3  UNL d   1       2.120  -0.584  -0.950  0.00  0.00     0.150 A 
ATOM      5  C4  UNL d   1       1.316  -1.636  -0.525  0.00  0.00    -0.007 A 
ATOM      6  C5  UNL d   1      -0.002  -1.387  -0.142  0.00  0.00     0.039 A 
ENDROOT
BRANCH   4   7
ATOM      7  O   UNL d   1       3.403  -0.873  -1.308  0.00  0.00    -0.526 OA
ATOM      8  H5  UNL d   1       3.849  -0.045  -1.552  0.00  0.00     0.418 HD
ENDBRANCH   4   7
TORSDOF 1
ENDMDL
