MODEL 1
REMARK minimizedAffinity -3.52775693
REMARK minimizedRMSD -1
REMARK  1 active torsions:
REMARK  status: ('A' for Active; 'I' for Inactive)
REMARK    1  A    between atoms: C3_4  and  O_7 
ROOT
ATOM      1  C   UNL d   1       0.610  -1.028  -0.166  0.00  0.00    -0.033 A 
ATOM      2  C1  UNL d   1      -0.734  -0.929  -0.533  0.00  0.00     0.039 A 
ATOM      3  C2  UNL d   1      -1.208   0.233  -1.145  0.00  0.00    -0.080 A 
ATOM      4  C3  UNL d   1      -0.330   1.286  -1.385  0.00  0.00     0.150 A 
ATOM      5  C4  UNL d   1       1.011   1.192  -1.026  0.00  0.00    -0.007 A 
ATOM      6  C5  UNL d   1       1.482   0.032  -0.414  0.00  0.00     0.039 A 
ENDROOT
BRANCH   4   7
ATOM      7  O   UNL d   1      -0.748   2.442  -1.975  0.00  0.00    -0.526 OA
ATOM      8  H5  UNL d   1      -1.703   2.374  -2.142  0.00  0.00     0.418 HD
ENDBRANCH   4   7
TORSDOF 1
ENDMDL
