MODEL 1
REMARK minimizedAffinity -5.25953007
REMARK minimizedRMSD -1
REMARK  1 active torsions:
REMARK  status: ('A' for Active; 'I' for Inactive)
REMARK    1  A    between atoms: C3_4  and  O_7 
ROOT
ATOM      1  C   UNL d   1      -0.441   0.038   0.038  0.00  0.00    -0.033 A 
ATOM      2  C1  UNL d   1       0.430   1.065  -0.334  0.00  0.00     0.039 A 
ATOM      3  C2  UNL d   1       1.735   0.766  -0.730  0.00  0.00    -0.080 A 
ATOM      4  C3  UNL d   1       2.156  -0.561  -0.752  0.00  0.00     0.150 A 
ATOM      5  C4  UNL d   1       1.293  -1.588  -0.387  0.00  0.00    -0.007 A 
ATOM      6  C5  UNL d   1      -0.010  -1.288   0.010  0.00  0.00     0.039 A 
ENDROOT
BRANCH   4   7
ATOM      7  O   UNL d   1       3.422  -0.900  -1.127  0.00  0.00    -0.526 OA
ATOM      8  H5  UNL d   1       3.914  -0.086  -1.323  0.00  0.00     0.418 HD
ENDBRANCH   4   7
TORSDOF 1
ENDMDL
