MODEL 1
REMARK minimizedAffinity -4.45114994
REMARK minimizedRMSD -1
REMARK  1 active torsions:
REMARK  status: ('A' for Active; 'I' for Inactive)
REMARK    1  A    between atoms: C3_4  and  O_7 
ROOT
ATOM      1  C   UNL d   1      -0.884   0.045  -0.375  0.00  0.00    -0.033 A 
ATOM      2  C1  UNL d   1      -0.432  -1.202   0.061  0.00  0.00     0.039 A 
ATOM      3  C2  UNL d   1       0.885  -1.594  -0.184  0.00  0.00    -0.080 A 
ATOM      4  C3  UNL d   1       1.740  -0.731  -0.863  0.00  0.00     0.150 A 
ATOM      5  C4  UNL d   1       1.298   0.515  -1.297  0.00  0.00    -0.007 A 
ATOM      6  C5  UNL d   1      -0.018   0.904  -1.052  0.00  0.00     0.039 A 
ENDROOT
BRANCH   4   7
ATOM      7  O   UNL d   1       3.033  -1.072  -1.130  0.00  0.00    -0.526 OA
ATOM      8  H5  UNL d   1       3.189  -1.971  -0.797  0.00  0.00     0.418 HD
ENDBRANCH   4   7
TORSDOF 1
ENDMDL
