MODEL 1
REMARK minimizedAffinity -5.53101969
REMARK minimizedRMSD -1
REMARK  1 active torsions:
REMARK  status: ('A' for Active; 'I' for Inactive)
REMARK    1  A    between atoms: C3_4  and  O_7 
ROOT
ATOM      1  C   UNL d   1      -0.465  -0.511  -0.665  0.00  0.00    -0.033 A 
ATOM      2  C1  UNL d   1       0.207  -1.732  -0.586  0.00  0.00     0.039 A 
ATOM      3  C2  UNL d   1       1.601  -1.770  -0.666  0.00  0.00    -0.080 A 
ATOM      4  C3  UNL d   1       2.309  -0.582  -0.823  0.00  0.00     0.150 A 
ATOM      5  C4  UNL d   1       1.646   0.638  -0.898  0.00  0.00    -0.007 A 
ATOM      6  C5  UNL d   1       0.255   0.674  -0.820  0.00  0.00     0.039 A 
ENDROOT
BRANCH   4   7
ATOM      7  O   UNL d   1       3.670  -0.570  -0.910  0.00  0.00    -0.526 OA
ATOM      8  H5  UNL d   1       3.989  -1.487  -0.871  0.00  0.00     0.418 HD
ENDBRANCH   4   7
TORSDOF 1
ENDMDL
