MODEL 1
REMARK minimizedAffinity -3.77841544
REMARK minimizedRMSD -1
REMARK  1 active torsions:
REMARK  status: ('A' for Active; 'I' for Inactive)
REMARK    1  A    between atoms: C3_4  and  O_7 
ROOT
ATOM      1  C   UNL d   1       1.803  -1.125  -1.221  0.00  0.00    -0.033 A 
ATOM      2  C1  UNL d   1       1.305   0.131  -1.572  0.00  0.00     0.039 A 
ATOM      3  C2  UNL d   1       0.243   0.687  -0.855  0.00  0.00    -0.080 A 
ATOM      4  C3  UNL d   1      -0.310  -0.021   0.208  0.00  0.00     0.150 A 
ATOM      5  C4  UNL d   1       0.185  -1.271   0.565  0.00  0.00    -0.007 A 
ATOM      6  C5  UNL d   1       1.244  -1.826  -0.152  0.00  0.00     0.039 A 
ENDROOT
BRANCH   4   7
ATOM      7  O   UNL d   1      -1.350   0.479   0.933  0.00  0.00    -0.526 OA
ATOM      8  H5  UNL d   1      -1.605   1.337   0.555  0.00  0.00     0.418 HD
ENDBRANCH   4   7
TORSDOF 1
ENDMDL
