MODEL 1
REMARK minimizedAffinity -4.12240267
REMARK minimizedRMSD -1
REMARK  1 active torsions:
REMARK  status: ('A' for Active; 'I' for Inactive)
REMARK    1  A    between atoms: C3_4  and  O_7 
ROOT
ATOM      1  C   UNL d   1      -0.123  -0.334  -0.436  0.00  0.00    -0.033 A 
ATOM      2  C1  UNL d   1      -1.456  -0.221  -0.037  0.00  0.00     0.039 A 
ATOM      3  C2  UNL d   1      -1.780   0.461   1.138  0.00  0.00    -0.080 A 
ATOM      4  C3  UNL d   1      -0.762   1.026   1.902  0.00  0.00     0.150 A 
ATOM      5  C4  UNL d   1       0.568   0.921   1.508  0.00  0.00    -0.007 A 
ATOM      6  C5  UNL d   1       0.889   0.238   0.335  0.00  0.00     0.039 A 
ENDROOT
BRANCH   4   7
ATOM      7  O   UNL d   1      -1.029   1.697   3.059  0.00  0.00    -0.526 OA
ATOM      8  H5  UNL d   1      -1.986   1.664   3.220  0.00  0.00     0.418 HD
ENDBRANCH   4   7
TORSDOF 1
ENDMDL
