MODEL 1
REMARK minimizedAffinity 7.51548386
REMARK minimizedRMSD -1
REMARK  0 active torsions:
REMARK  status: ('A' for Active; 'I' for Inactive)
ROOT
ATOM      1  C   UNL d   1       3.592   2.979   2.352  0.00  0.00     0.172 C 
ATOM      2  N   UNL d   1       2.493   2.322   1.684  0.00  0.00    -0.070 N 
ATOM      3  C1  UNL d   1       2.598   1.495   0.598  0.00  0.00    -0.004 A 
ATOM      4  C2  UNL d   1       1.330   1.074   0.263  0.00  0.00    -0.047 A 
ATOM      5  C3  UNL d   1       0.430   1.669   1.180  0.00  0.00    -0.047 A 
ATOM      6  C4  UNL d   1       1.177   2.436   2.048  0.00  0.00    -0.004 A 
ENDROOT
TORSDOF 0
ENDMDL
