MODEL 1
REMARK minimizedAffinity 5.44460535
REMARK minimizedRMSD -1
REMARK  0 active torsions:
REMARK  status: ('A' for Active; 'I' for Inactive)
ROOT
ATOM      1  C   UNL d   1       3.435   2.348   2.787  0.00  0.00     0.172 C 
ATOM      2  N   UNL d   1       2.285   1.854   2.067  0.00  0.00    -0.070 N 
ATOM      3  C1  UNL d   1       0.984   2.220   2.292  0.00  0.00    -0.004 A 
ATOM      4  C2  UNL d   1       0.191   1.529   1.402  0.00  0.00    -0.047 A 
ATOM      5  C3  UNL d   1       1.045   0.719   0.615  0.00  0.00    -0.047 A 
ATOM      6  C4  UNL d   1       2.335   0.940   1.048  0.00  0.00    -0.004 A 
ENDROOT
TORSDOF 0
ENDMDL
