MODEL 1
REMARK minimizedAffinity 6.91972399
REMARK minimizedRMSD -1
REMARK  0 active torsions:
REMARK  status: ('A' for Active; 'I' for Inactive)
ROOT
ATOM      1  C   UNL d   1       2.180   0.167  -1.194  0.00  0.00     0.172 C 
ATOM      2  N   UNL d   1       1.683   0.794   0.008  0.00  0.00    -0.070 N 
ATOM      3  C1  UNL d   1       2.446   1.423   0.955  0.00  0.00    -0.004 A 
ATOM      4  C2  UNL d   1       1.600   1.886   1.940  0.00  0.00    -0.047 A 
ATOM      5  C3  UNL d   1       0.283   1.523   1.572  0.00  0.00    -0.047 A 
ATOM      6  C4  UNL d   1       0.363   0.848   0.372  0.00  0.00    -0.004 A 
ENDROOT
TORSDOF 0
ENDMDL
