MODEL 1
REMARK minimizedAffinity -0.603523135
REMARK minimizedRMSD -1
REMARK  0 active torsions:
REMARK  status: ('A' for Active; 'I' for Inactive)
ROOT
ATOM      1  C   UNL d   1       3.505   3.297   2.873  0.00  0.00     0.172 C 
ATOM      2  N   UNL d   1       2.457   2.566   2.201  0.00  0.00    -0.070 N 
ATOM      3  C1  UNL d   1       1.113   2.733   2.402  0.00  0.00    -0.004 A 
ATOM      4  C2  UNL d   1       0.450   1.852   1.575  0.00  0.00    -0.047 A 
ATOM      5  C3  UNL d   1       1.430   1.129   0.854  0.00  0.00    -0.047 A 
ATOM      6  C4  UNL d   1       2.663   1.591   1.261  0.00  0.00    -0.004 A 
ENDROOT
TORSDOF 0
ENDMDL
