MODEL 1
REMARK minimizedAffinity 7.17952919
REMARK minimizedRMSD -1
REMARK  0 active torsions:
REMARK  status: ('A' for Active; 'I' for Inactive)
ROOT
ATOM      1  C   UNL d   1       1.632   0.570   0.146  0.00  0.00     0.172 C 
ATOM      2  N   UNL d   1       1.961   0.364  -1.245  0.00  0.00    -0.070 N 
ATOM      3  C1  UNL d   1       1.174   0.710  -2.311  0.00  0.00    -0.004 A 
ATOM      4  C2  UNL d   1       1.840   0.349  -3.462  0.00  0.00    -0.047 A 
ATOM      5  C3  UNL d   1       3.069  -0.235  -3.075  0.00  0.00    -0.047 A 
ATOM      6  C4  UNL d   1       3.118  -0.212  -1.697  0.00  0.00    -0.004 A 
ENDROOT
TORSDOF 0
ENDMDL
