MODEL 1
REMARK minimizedAffinity 2.57149911
REMARK minimizedRMSD -1
REMARK  0 active torsions:
REMARK  status: ('A' for Active; 'I' for Inactive)
ROOT
ATOM      1  C   UNL d   1       2.645   0.113  -2.853  0.00  0.00     0.172 C 
ATOM      2  N   UNL d   1       2.191  -0.168  -1.512  0.00  0.00    -0.070 N 
ATOM      3  C1  UNL d   1       1.956  -1.414  -0.993  0.00  0.00    -0.004 A 
ATOM      4  C2  UNL d   1       1.537  -1.256   0.311  0.00  0.00    -0.047 A 
ATOM      5  C3  UNL d   1       1.518   0.132   0.584  0.00  0.00    -0.047 A 
ATOM      6  C4  UNL d   1       1.927   0.782  -0.561  0.00  0.00    -0.004 A 
ENDROOT
TORSDOF 0
ENDMDL
