MODEL 1
REMARK minimizedAffinity 4.38728094
REMARK minimizedRMSD -1
REMARK  0 active torsions:
REMARK  status: ('A' for Active; 'I' for Inactive)
ROOT
ATOM      1  C   UNL d   1       2.673   0.225  -2.191  0.00  0.00     0.172 C 
ATOM      2  N   UNL d   1       2.161   0.709  -0.930  0.00  0.00    -0.070 N 
ATOM      3  C1  UNL d   1       2.383   1.953  -0.403  0.00  0.00    -0.004 A 
ATOM      4  C2  UNL d   1       1.726   2.022   0.806  0.00  0.00    -0.047 A 
ATOM      5  C3  UNL d   1       1.088   0.776   1.014  0.00  0.00    -0.047 A 
ATOM      6  C4  UNL d   1       1.374  -0.018  -0.077  0.00  0.00    -0.004 A 
ENDROOT
TORSDOF 0
ENDMDL
