MODEL 1
REMARK minimizedAffinity 5.77191305
REMARK minimizedRMSD -1
REMARK  0 active torsions:
REMARK  status: ('A' for Active; 'I' for Inactive)
ROOT
ATOM      1  C   UNL d   1       1.997   1.037   0.461  0.00  0.00     0.172 C 
ATOM      2  N   UNL d   1       2.471   0.760  -0.875  0.00  0.00    -0.070 N 
ATOM      3  C1  UNL d   1       3.696   1.110  -1.376  0.00  0.00    -0.004 A 
ATOM      4  C2  UNL d   1       3.761   0.667  -2.680  0.00  0.00    -0.047 A 
ATOM      5  C3  UNL d   1       2.532   0.029  -2.972  0.00  0.00    -0.047 A 
ATOM      6  C4  UNL d   1       1.752   0.101  -1.837  0.00  0.00    -0.004 A 
ENDROOT
TORSDOF 0
ENDMDL
