MODEL 1
REMARK minimizedAffinity 5.44428825
REMARK minimizedRMSD -1
REMARK  0 active torsions:
REMARK  status: ('A' for Active; 'I' for Inactive)
ROOT
ATOM      1  C   UNL d   1       0.158   2.358  -3.155  0.00  0.00     0.172 C 
ATOM      2  N   UNL d   1       1.034   1.246  -2.872  0.00  0.00    -0.070 N 
ATOM      3  C1  UNL d   1       2.400   1.260  -2.970  0.00  0.00    -0.004 A 
ATOM      4  C2  UNL d   1       2.861   0.010  -2.615  0.00  0.00    -0.047 A 
ATOM      5  C3  UNL d   1       1.733  -0.782  -2.294  0.00  0.00    -0.047 A 
ATOM      6  C4  UNL d   1       0.615   0.007  -2.462  0.00  0.00    -0.004 A 
ENDROOT
TORSDOF 0
ENDMDL
