MODEL 1
REMARK minimizedAffinity 2.29241943
REMARK minimizedRMSD -1
REMARK  0 active torsions:
REMARK  status: ('A' for Active; 'I' for Inactive)
ROOT
ATOM      1  C   UNL d   1       1.879   0.241  -0.300  0.00  0.00     0.172 C 
ATOM      2  N   UNL d   1       1.228   1.081   0.677  0.00  0.00    -0.070 N 
ATOM      3  C1  UNL d   1       1.820   1.618   1.789  0.00  0.00    -0.004 A 
ATOM      4  C2  UNL d   1       0.868   2.354   2.461  0.00  0.00    -0.047 A 
ATOM      5  C3  UNL d   1      -0.339   2.254   1.728  0.00  0.00    -0.047 A 
ATOM      6  C4  UNL d   1      -0.087   1.461   0.629  0.00  0.00    -0.004 A 
ENDROOT
TORSDOF 0
ENDMDL
