MODEL 1
REMARK minimizedAffinity 4.26509619
REMARK minimizedRMSD -1
REMARK  0 active torsions:
REMARK  status: ('A' for Active; 'I' for Inactive)
ROOT
ATOM      1  C   UNL d   1       3.010   0.085  -1.820  0.00  0.00     0.172 C 
ATOM      2  N   UNL d   1       2.516   0.558  -0.548  0.00  0.00    -0.070 N 
ATOM      3  C1  UNL d   1       1.423   0.069   0.116  0.00  0.00    -0.004 A 
ATOM      4  C2  UNL d   1       1.286   0.783   1.287  0.00  0.00    -0.047 A 
ATOM      5  C3  UNL d   1       2.333   1.735   1.327  0.00  0.00    -0.047 A 
ATOM      6  C4  UNL d   1       3.079   1.573   0.179  0.00  0.00    -0.004 A 
ENDROOT
TORSDOF 0
ENDMDL
