MODEL 1
REMARK minimizedAffinity 0.989356101
REMARK minimizedRMSD -1
REMARK  0 active torsions:
REMARK  status: ('A' for Active; 'I' for Inactive)
ROOT
ATOM      1  C   UNL d   1       3.237   0.426  -2.390  0.00  0.00     0.172 C 
ATOM      2  N   UNL d   1       2.776   0.352  -1.024  0.00  0.00    -0.070 N 
ATOM      3  C1  UNL d   1       2.345  -0.781  -0.387  0.00  0.00    -0.004 A 
ATOM      4  C2  UNL d   1       1.994  -0.434   0.900  0.00  0.00    -0.047 A 
ATOM      5  C3  UNL d   1       2.221   0.956   1.041  0.00  0.00    -0.047 A 
ATOM      6  C4  UNL d   1       2.705   1.417  -0.165  0.00  0.00    -0.004 A 
ENDROOT
TORSDOF 0
ENDMDL
