MODEL 1
REMARK minimizedAffinity 2.29983735
REMARK minimizedRMSD -1
REMARK  0 active torsions:
REMARK  status: ('A' for Active; 'I' for Inactive)
ROOT
ATOM      1  C   UNL d   1      -4.825   1.409   0.833  0.00  0.00     0.172 C 
ATOM      2  N   UNL d   1      -5.282   2.728   0.462  0.00  0.00    -0.070 N 
ATOM      3  C1  UNL d   1      -5.606   3.133  -0.805  0.00  0.00    -0.004 A 
ATOM      4  C2  UNL d   1      -5.995   4.454  -0.740  0.00  0.00    -0.047 A 
ATOM      5  C3  UNL d   1      -5.901   4.856   0.614  0.00  0.00    -0.047 A 
ATOM      6  C4  UNL d   1      -5.457   3.768   1.336  0.00  0.00    -0.004 A 
ENDROOT
TORSDOF 0
ENDMDL
