MODEL 1
REMARK minimizedAffinity 1.9490782
REMARK minimizedRMSD -1
REMARK  0 active torsions:
REMARK  status: ('A' for Active; 'I' for Inactive)
ROOT
ATOM      1  C   UNL d   1       0.499   1.885  -4.695  0.00  0.00     0.172 C 
ATOM      2  N   UNL d   1       1.360   1.321  -3.682  0.00  0.00    -0.070 N 
ATOM      3  C1  UNL d   1       1.730   0.006  -3.591  0.00  0.00    -0.004 A 
ATOM      4  C2  UNL d   1       2.552  -0.126  -2.493  0.00  0.00    -0.047 A 
ATOM      5  C3  UNL d   1       2.681   1.154  -1.904  0.00  0.00    -0.047 A 
ATOM      6  C4  UNL d   1       1.933   2.031  -2.660  0.00  0.00    -0.004 A 
ENDROOT
TORSDOF 0
ENDMDL
