MODEL 1
REMARK minimizedAffinity 5.87014437
REMARK minimizedRMSD -1
REMARK  0 active torsions:
REMARK  status: ('A' for Active; 'I' for Inactive)
ROOT
ATOM      1  C   UNL d   1      -0.620   1.782   1.124  0.00  0.00     0.172 C 
ATOM      2  N   UNL d   1       0.724   1.310   0.891  0.00  0.00    -0.070 N 
ATOM      3  C1  UNL d   1       1.851   1.768   1.520  0.00  0.00    -0.004 A 
ATOM      4  C2  UNL d   1       2.928   1.066   1.021  0.00  0.00    -0.047 A 
ATOM      5  C3  UNL d   1       2.430   0.156   0.058  0.00  0.00    -0.047 A 
ATOM      6  C4  UNL d   1       1.064   0.329  -0.003  0.00  0.00    -0.004 A 
ENDROOT
TORSDOF 0
ENDMDL
