MODEL 1
REMARK minimizedAffinity 3.44215751
REMARK minimizedRMSD -1
REMARK  0 active torsions:
REMARK  status: ('A' for Active; 'I' for Inactive)
ROOT
ATOM      1  C   UNL d   1       1.336   1.317   1.305  0.00  0.00     0.172 C 
ATOM      2  N   UNL d   1       1.851   0.281   0.441  0.00  0.00    -0.070 N 
ATOM      3  C1  UNL d   1       2.065   0.399  -0.907  0.00  0.00    -0.004 A 
ATOM      4  C2  UNL d   1       2.560  -0.803  -1.363  0.00  0.00    -0.047 A 
ATOM      5  C3  UNL d   1       2.645  -1.675  -0.251  0.00  0.00    -0.047 A 
ATOM      6  C4  UNL d   1       2.200  -0.978   0.852  0.00  0.00    -0.004 A 
ENDROOT
TORSDOF 0
ENDMDL
