MODEL 1
REMARK minimizedAffinity 15.129138
REMARK minimizedRMSD -1
REMARK  1 active torsions:
REMARK  status: ('A' for Active; 'I' for Inactive)
REMARK    1  A    between atoms: C1_2  and  C2_3 
ROOT
ATOM      1  C2  UNL d   1       1.011   1.375   2.953  0.00  0.00    -0.076 A 
ATOM      2  C3  UNL d   1       1.980   2.077   3.690  0.00  0.00     0.004 A 
ATOM      3  C4  UNL d   1       2.162   3.447   3.515  0.00  0.00    -0.003 A 
ATOM      4  C5  UNL d   1       1.375   4.139   2.600  0.00  0.00     0.000 A 
ATOM      5  C6  UNL d   1       0.396   3.463   1.873  0.00  0.00     0.000 A 
ATOM      6  C7  UNL d   1       0.190   2.084   2.050  0.00  0.00    -0.073 A 
ATOM      7  C8  UNL d   1      -0.876   1.404   1.235  0.00  0.00     0.078 C 
ENDROOT
BRANCH   1   8
ATOM      8  C1  UNL d   1       0.878  -0.116   3.166  0.00  0.00     0.053 C 
ATOM      9  C   UNL d   1       1.622  -0.923   2.113  0.00  0.00     0.018 C 
ENDBRANCH   1   8
TORSDOF 1
ENDMDL
