MODEL 1
REMARK minimizedAffinity 11.9958181
REMARK minimizedRMSD -1
REMARK  1 active torsions:
REMARK  status: ('A' for Active; 'I' for Inactive)
REMARK    1  A    between atoms: C1_2  and  C2_3 
ROOT
ATOM      1  C2  UNL d   1       0.828   2.793   1.501  0.00  0.00    -0.076 A 
ATOM      2  C3  UNL d   1       1.454   2.374   2.688  0.00  0.00     0.004 A 
ATOM      3  C4  UNL d   1       2.246   3.250   3.429  0.00  0.00    -0.003 A 
ATOM      4  C5  UNL d   1       2.425   4.559   2.995  0.00  0.00     0.000 A 
ATOM      5  C6  UNL d   1       1.797   4.996   1.829  0.00  0.00     0.000 A 
ATOM      6  C7  UNL d   1       0.982   4.131   1.079  0.00  0.00    -0.073 A 
ATOM      7  C8  UNL d   1       0.335   4.653  -0.174  0.00  0.00     0.078 C 
ENDROOT
BRANCH   1   8
ATOM      8  C1  UNL d   1       0.004   1.791   0.725  0.00  0.00     0.053 C 
ATOM      9  C   UNL d   1       0.647   0.413   0.685  0.00  0.00     0.018 C 
ENDBRANCH   1   8
TORSDOF 1
ENDMDL
