MODEL 1
REMARK minimizedAffinity -3.06263185
REMARK minimizedRMSD -1
REMARK  1 active torsions:
REMARK  status: ('A' for Active; 'I' for Inactive)
REMARK    1  A    between atoms: C1_2  and  C2_3 
ROOT
ATOM      1  C2  UNL d   1       0.575   1.598   1.455  0.00  0.00    -0.076 A 
ATOM      2  C3  UNL d   1      -0.515   1.515   0.571  0.00  0.00     0.004 A 
ATOM      3  C4  UNL d   1      -1.409   2.575   0.433  0.00  0.00    -0.003 A 
ATOM      4  C5  UNL d   1      -1.227   3.737   1.176  0.00  0.00     0.000 A 
ATOM      5  C6  UNL d   1      -0.142   3.843   2.045  0.00  0.00     0.000 A 
ATOM      6  C7  UNL d   1       0.778   2.790   2.184  0.00  0.00    -0.073 A 
ATOM      7  C8  UNL d   1       1.928   2.956   3.139  0.00  0.00     0.078 C 
ENDROOT
BRANCH   1   8
ATOM      8  C1  UNL d   1       1.496   0.406   1.583  0.00  0.00     0.053 C 
ATOM      9  C   UNL d   1       0.838  -0.889   1.134  0.00  0.00     0.018 C 
ENDBRANCH   1   8
TORSDOF 1
ENDMDL
