MODEL 1
REMARK minimizedAffinity -1.04518402
REMARK minimizedRMSD -1
REMARK  1 active torsions:
REMARK  status: ('A' for Active; 'I' for Inactive)
REMARK    1  A    between atoms: C1_2  and  C2_3 
ROOT
ATOM      1  C2  UNL d   1       0.421   0.618   0.413  0.00  0.00    -0.076 A 
ATOM      2  C3  UNL d   1       0.751  -0.726   0.661  0.00  0.00     0.004 A 
ATOM      3  C4  UNL d   1       1.164  -1.141   1.926  0.00  0.00    -0.003 A 
ATOM      4  C5  UNL d   1       1.254  -0.220   2.963  0.00  0.00     0.000 A 
ATOM      5  C6  UNL d   1       0.913   1.114   2.739  0.00  0.00     0.000 A 
ATOM      6  C7  UNL d   1       0.479   1.546   1.475  0.00  0.00    -0.073 A 
ATOM      7  C8  UNL d   1       0.130   2.997   1.288  0.00  0.00     0.078 C 
ENDROOT
BRANCH   1   8
ATOM      8  C1  UNL d   1       0.005   1.015  -0.985  0.00  0.00     0.053 C 
ATOM      9  C   UNL d   1      -1.445   0.667  -1.283  0.00  0.00     0.018 C 
ENDBRANCH   1   8
TORSDOF 1
ENDMDL
