MODEL 1
REMARK minimizedAffinity -0.568975091
REMARK minimizedRMSD -1
REMARK  1 active torsions:
REMARK  status: ('A' for Active; 'I' for Inactive)
REMARK    1  A    between atoms: C1_2  and  C2_3 
ROOT
ATOM      1  C2  UNL d   1       0.739   3.454   1.023  0.00  0.00    -0.076 A 
ATOM      2  C3  UNL d   1       0.917   4.845   0.929  0.00  0.00     0.004 A 
ATOM      3  C4  UNL d   1       0.824   5.499  -0.299  0.00  0.00    -0.003 A 
ATOM      4  C5  UNL d   1       0.550   4.772  -1.452  0.00  0.00     0.000 A 
ATOM      5  C6  UNL d   1       0.353   3.394  -1.375  0.00  0.00     0.000 A 
ATOM      6  C7  UNL d   1       0.427   2.722  -0.143  0.00  0.00    -0.073 A 
ATOM      7  C8  UNL d   1       0.211   1.233  -0.119  0.00  0.00     0.078 C 
ENDROOT
BRANCH   1   8
ATOM      8  C1  UNL d   1       0.878   2.796   2.377  0.00  0.00     0.053 C 
ATOM      9  C   UNL d   1       2.181   3.161   3.071  0.00  0.00     0.018 C 
ENDBRANCH   1   8
TORSDOF 1
ENDMDL
