MODEL 1
REMARK minimizedAffinity -2.55473542
REMARK minimizedRMSD -1
REMARK  1 active torsions:
REMARK  status: ('A' for Active; 'I' for Inactive)
REMARK    1  A    between atoms: C1_2  and  C2_3 
ROOT
ATOM      1  C2  UNL d   1       1.402  -2.502   0.981  0.00  0.00    -0.073 A 
ATOM      2  C3  UNL d   1       0.193  -2.327   1.664  0.00  0.00    -0.002 A 
ATOM      3  C4  UNL d   1      -1.003  -2.198   0.957  0.00  0.00     0.004 A 
ATOM      4  C5  UNL d   1      -1.004  -2.248  -0.437  0.00  0.00    -0.004 A 
ATOM      5  C6  UNL d   1       0.192  -2.434  -1.137  0.00  0.00    -0.075 A 
ATOM      6  C7  UNL d   1       0.208  -2.489  -2.636  0.00  0.00     0.076 C 
ATOM      7  C8  UNL d   1       1.390  -2.561  -0.420  0.00  0.00     0.001 A 
ENDROOT
BRANCH   1   8
ATOM      8  C1  UNL d   1       2.696  -2.649   1.739  0.00  0.00     0.053 C 
ATOM      9  C   UNL d   1       3.602  -1.442   1.559  0.00  0.00     0.018 C 
ENDBRANCH   1   8
TORSDOF 1
ENDMDL
