MODEL 1
REMARK minimizedAffinity 0.400512427
REMARK minimizedRMSD -1
REMARK  1 active torsions:
REMARK  status: ('A' for Active; 'I' for Inactive)
REMARK    1  A    between atoms: C1_2  and  C2_3 
ROOT
ATOM      1  C2  UNL d   1       1.014  -0.614   1.342  0.00  0.00    -0.073 A 
ATOM      2  C3  UNL d   1       0.863  -2.001   1.236  0.00  0.00    -0.002 A 
ATOM      3  C4  UNL d   1      -0.397  -2.558   1.015  0.00  0.00     0.004 A 
ATOM      4  C5  UNL d   1      -1.516  -1.735   0.891  0.00  0.00    -0.004 A 
ATOM      5  C6  UNL d   1      -1.384  -0.345   0.982  0.00  0.00    -0.075 A 
ATOM      6  C7  UNL d   1      -2.578   0.554   0.852  0.00  0.00     0.076 C 
ATOM      7  C8  UNL d   1      -0.115   0.206   1.206  0.00  0.00     0.001 A 
ENDROOT
BRANCH   1   8
ATOM      8  C1  UNL d   1       2.374  -0.008   1.574  0.00  0.00     0.053 C 
ATOM      9  C   UNL d   1       2.537   1.321   0.853  0.00  0.00     0.018 C 
ENDBRANCH   1   8
TORSDOF 1
ENDMDL
