MODEL 1
REMARK minimizedAffinity 11.6540985
REMARK minimizedRMSD -1
REMARK  1 active torsions:
REMARK  status: ('A' for Active; 'I' for Inactive)
REMARK    1  A    between atoms: C1_2  and  C2_3 
ROOT
ATOM      1  C2  UNL d   1       1.555  -1.228   1.739  0.00  0.00    -0.073 A 
ATOM      2  C3  UNL d   1       1.559  -0.183   2.670  0.00  0.00    -0.002 A 
ATOM      3  C4  UNL d   1       2.511   0.833   2.585  0.00  0.00     0.004 A 
ATOM      4  C5  UNL d   1       3.464   0.818   1.566  0.00  0.00    -0.004 A 
ATOM      5  C6  UNL d   1       3.469  -0.211   0.620  0.00  0.00    -0.075 A 
ATOM      6  C7  UNL d   1       4.488  -0.242  -0.481  0.00  0.00     0.076 C 
ATOM      7  C8  UNL d   1       2.511  -1.229   0.713  0.00  0.00     0.001 A 
ENDROOT
BRANCH   1   8
ATOM      8  C1  UNL d   1       0.524  -2.324   1.823  0.00  0.00     0.053 C 
ATOM      9  C   UNL d   1      -0.713  -2.008   0.998  0.00  0.00     0.018 C 
ENDBRANCH   1   8
TORSDOF 1
ENDMDL
