MODEL 1
REMARK minimizedAffinity 7.66133976
REMARK minimizedRMSD -1
REMARK  1 active torsions:
REMARK  status: ('A' for Active; 'I' for Inactive)
REMARK    1  A    between atoms: C1_2  and  C2_3 
ROOT
ATOM      1  C2  UNL d   1       3.704   0.205  -0.320  0.00  0.00    -0.073 A 
ATOM      2  C3  UNL d   1       3.412   1.447   0.255  0.00  0.00    -0.002 A 
ATOM      3  C4  UNL d   1       2.550   1.533   1.348  0.00  0.00     0.004 A 
ATOM      4  C5  UNL d   1       1.977   0.378   1.883  0.00  0.00    -0.004 A 
ATOM      5  C6  UNL d   1       2.267  -0.873   1.330  0.00  0.00    -0.075 A 
ATOM      6  C7  UNL d   1       1.657  -2.124   1.892  0.00  0.00     0.076 C 
ATOM      7  C8  UNL d   1       3.131  -0.950   0.230  0.00  0.00     0.001 A 
ENDROOT
BRANCH   1   8
ATOM      8  C1  UNL d   1       4.640   0.107  -1.497  0.00  0.00     0.053 C 
ATOM      9  C   UNL d   1       3.889   0.031  -2.817  0.00  0.00     0.018 C 
ENDBRANCH   1   8
TORSDOF 1
ENDMDL
