MODEL 1
REMARK minimizedAffinity 1.96643043
REMARK minimizedRMSD -1
REMARK  1 active torsions:
REMARK  status: ('A' for Active; 'I' for Inactive)
REMARK    1  A    between atoms: C1_2  and  C2_3 
ROOT
ATOM      1  C2  UNL d   1       1.950   0.394   1.432  0.00  0.00    -0.073 A 
ATOM      2  C3  UNL d   1       3.007  -0.439   1.050  0.00  0.00    -0.002 A 
ATOM      3  C4  UNL d   1       2.782  -1.793   0.797  0.00  0.00     0.004 A 
ATOM      4  C5  UNL d   1       1.499  -2.326   0.917  0.00  0.00    -0.004 A 
ATOM      5  C6  UNL d   1       0.427  -1.507   1.286  0.00  0.00    -0.075 A 
ATOM      6  C7  UNL d   1      -0.959  -2.065   1.421  0.00  0.00     0.076 C 
ATOM      7  C8  UNL d   1       0.661  -0.149   1.541  0.00  0.00     0.001 A 
ENDROOT
BRANCH   1   8
ATOM      8  C1  UNL d   1       2.186   1.857   1.700  0.00  0.00     0.053 C 
ATOM      9  C   UNL d   1       2.498   2.627   0.426  0.00  0.00     0.018 C 
ENDBRANCH   1   8
TORSDOF 1
ENDMDL
