MODEL 1
REMARK minimizedAffinity 10.5018349
REMARK minimizedRMSD -1
REMARK  1 active torsions:
REMARK  status: ('A' for Active; 'I' for Inactive)
REMARK    1  A    between atoms: C1_2  and  C2_3 
ROOT
ATOM      1  C2  UNL d   1       0.501  -1.172   0.316  0.00  0.00    -0.073 A 
ATOM      2  C3  UNL d   1       0.193  -0.322   1.384  0.00  0.00    -0.002 A 
ATOM      3  C4  UNL d   1       1.194   0.098   2.262  0.00  0.00     0.004 A 
ATOM      4  C5  UNL d   1       2.511  -0.321   2.076  0.00  0.00    -0.004 A 
ATOM      5  C6  UNL d   1       2.841  -1.161   1.008  0.00  0.00    -0.075 A 
ATOM      6  C7  UNL d   1       4.253  -1.623   0.796  0.00  0.00     0.076 C 
ATOM      7  C8  UNL d   1       1.830  -1.581   0.133  0.00  0.00     0.001 A 
ENDROOT
BRANCH   1   8
ATOM      8  C1  UNL d   1      -0.575  -1.623  -0.637  0.00  0.00     0.053 C 
ATOM      9  C   UNL d   1      -0.047  -1.793  -2.053  0.00  0.00     0.018 C 
ENDBRANCH   1   8
TORSDOF 1
ENDMDL
