MODEL 1
REMARK minimizedAffinity -3.79063249
REMARK minimizedRMSD -1
REMARK  1 active torsions:
REMARK  status: ('A' for Active; 'I' for Inactive)
REMARK    1  A    between atoms: C1_2  and  C2_3 
ROOT
ATOM      1  C2  UNL d   1       0.050  -0.362   0.091  0.00  0.00    -0.073 A 
ATOM      2  C3  UNL d   1       0.498   0.964   0.102  0.00  0.00    -0.002 A 
ATOM      3  C4  UNL d   1       1.763   1.277   0.604  0.00  0.00     0.004 A 
ATOM      4  C5  UNL d   1       2.593   0.268   1.092  0.00  0.00    -0.004 A 
ATOM      5  C6  UNL d   1       2.168  -1.064   1.078  0.00  0.00    -0.075 A 
ATOM      6  C7  UNL d   1       3.049  -2.161   1.602  0.00  0.00     0.076 C 
ATOM      7  C8  UNL d   1       0.896  -1.370   0.576  0.00  0.00     0.001 A 
ENDROOT
BRANCH   1   8
ATOM      8  C1  UNL d   1      -1.312  -0.705  -0.455  0.00  0.00     0.053 C 
ATOM      9  C   UNL d   1      -1.586  -0.010  -1.779  0.00  0.00     0.018 C 
ENDBRANCH   1   8
TORSDOF 1
ENDMDL
