MODEL 1
REMARK minimizedAffinity 19.0822029
REMARK minimizedRMSD -1
REMARK  0 active torsions:
REMARK  status: ('A' for Active; 'I' for Inactive)
ROOT
ATOM      1  N1  IND d   1       5.445   3.680  -5.952  0.00  0.00    -0.196 N 
ATOM      2  C2  IND d   1       5.646   5.032  -5.915  0.00  0.00     0.054 A 
ATOM      3  C3  IND d   1       4.461   5.683  -5.910  0.00  0.00    -0.031 A 
ATOM      4  C4  IND d   1       2.071   4.729  -5.856  0.00  0.00     0.051 A 
ATOM      5  C5  IND d   1       1.379   3.552  -5.915  0.00  0.00    -0.031 A 
ATOM      6  C6  IND d   1       2.020   2.332  -5.988  0.00  0.00     0.015 A 
ATOM      7  C7  IND d   1       3.384   2.244  -5.994  0.00  0.00    -0.016 A 
ATOM      8  C8  IND d   1       4.089   3.438  -5.941  0.00  0.00    -0.047 A 
ATOM      9  C9  IND d   1       3.444   4.680  -5.909  0.00  0.00    -0.096 A 
ATOM     10  HN1 IND d   1       6.062   3.082  -5.978  0.00  0.00     0.298 HD
ENDROOT
TORSDOF 0
ENDMDL
