MODEL 1
REMARK minimizedAffinity 3.53993654
REMARK minimizedRMSD -1
REMARK  0 active torsions:
REMARK  status: ('A' for Active; 'I' for Inactive)
ROOT
ATOM      1  N1  IND d   1       2.989  -3.397  -0.776  0.00  0.00    -0.196 N 
ATOM      2  C2  IND d   1       3.063  -3.390   0.589  0.00  0.00     0.054 A 
ATOM      3  C3  IND d   1       4.036  -4.229   1.011  0.00  0.00    -0.031 A 
ATOM      4  C4  IND d   1       5.696  -5.633  -0.367  0.00  0.00     0.051 A 
ATOM      5  C5  IND d   1       5.994  -5.995  -1.651  0.00  0.00    -0.031 A 
ATOM      6  C6  IND d   1       5.294  -5.497  -2.730  0.00  0.00     0.015 A 
ATOM      7  C7  IND d   1       4.272  -4.606  -2.566  0.00  0.00    -0.016 A 
ATOM      8  C8  IND d   1       3.961  -4.242  -1.264  0.00  0.00    -0.047 A 
ATOM      9  C9  IND d   1       4.640  -4.776  -0.162  0.00  0.00    -0.096 A 
ATOM     10  HN1 IND d   1       2.429  -2.948  -1.250  0.00  0.00     0.298 HD
ENDROOT
TORSDOF 0
ENDMDL
