MODEL 1
REMARK minimizedAffinity 4.04158258
REMARK minimizedRMSD -1
REMARK  0 active torsions:
REMARK  status: ('A' for Active; 'I' for Inactive)
ROOT
ATOM      1  N1  IND d   1       4.605   3.396  -5.958  0.00  0.00    -0.196 N 
ATOM      2  C2  IND d   1       5.440   4.479  -5.971  0.00  0.00     0.054 A 
ATOM      3  C3  IND d   1       4.724   5.625  -6.000  0.00  0.00    -0.031 A 
ATOM      4  C4  IND d   1       2.172   5.962  -5.929  0.00  0.00     0.051 A 
ATOM      5  C5  IND d   1       0.994   5.270  -5.950  0.00  0.00    -0.031 A 
ATOM      6  C6  IND d   1       0.958   3.891  -5.972  0.00  0.00     0.015 A 
ATOM      7  C7  IND d   1       2.104   3.148  -5.963  0.00  0.00    -0.016 A 
ATOM      8  C8  IND d   1       3.303   3.847  -5.949  0.00  0.00    -0.047 A 
ATOM      9  C9  IND d   1       3.346   5.247  -5.970  0.00  0.00    -0.096 A 
ATOM     10  HN1 IND d   1       4.851   2.573  -5.956  0.00  0.00     0.298 HD
ENDROOT
TORSDOF 0
ENDMDL
