MODEL 1
REMARK minimizedAffinity 2.25786233
REMARK minimizedRMSD -1
REMARK  0 active torsions:
REMARK  status: ('A' for Active; 'I' for Inactive)
ROOT
ATOM      1  N1  IND d   1       1.914  -2.841  -0.122  0.00  0.00    -0.196 N 
ATOM      2  C2  IND d   1       1.092  -2.265   0.805  0.00  0.00     0.054 A 
ATOM      3  C3  IND d   1       1.530  -2.535   2.055  0.00  0.00    -0.031 A 
ATOM      4  C4  IND d   1       3.630  -3.818   2.810  0.00  0.00     0.051 A 
ATOM      5  C5  IND d   1       4.672  -4.559   2.327  0.00  0.00    -0.031 A 
ATOM      6  C6  IND d   1       4.852  -4.768   0.974  0.00  0.00     0.015 A 
ATOM      7  C7  IND d   1       4.001  -4.231   0.051  0.00  0.00    -0.016 A 
ATOM      8  C8  IND d   1       2.938  -3.483   0.539  0.00  0.00    -0.047 A 
ATOM      9  C9  IND d   1       2.726  -3.303   1.912  0.00  0.00    -0.096 A 
ATOM     10  HN1 IND d   1       1.810  -2.808  -0.975  0.00  0.00     0.298 HD
ENDROOT
TORSDOF 0
ENDMDL
