MODEL 1
REMARK minimizedAffinity 0.258701175
REMARK minimizedRMSD -1
REMARK  0 active torsions:
REMARK  status: ('A' for Active; 'I' for Inactive)
ROOT
ATOM      1  N1  IND d   1       2.714   2.473  -5.997  0.00  0.00    -0.196 N 
ATOM      2  C2  IND d   1       3.652   1.481  -5.933  0.00  0.00     0.054 A 
ATOM      3  C3  IND d   1       4.894   2.011  -5.868  0.00  0.00    -0.031 A 
ATOM      4  C4  IND d   1       5.615   4.480  -5.750  0.00  0.00     0.051 A 
ATOM      5  C5  IND d   1       5.117   5.751  -5.814  0.00  0.00    -0.031 A 
ATOM      6  C6  IND d   1       3.766   6.000  -5.942  0.00  0.00     0.015 A 
ATOM      7  C7  IND d   1       2.857   4.982  -6.000  0.00  0.00    -0.016 A 
ATOM      8  C8  IND d   1       3.359   3.690  -5.942  0.00  0.00    -0.047 A 
ATOM      9  C9  IND d   1       4.733   3.430  -5.855  0.00  0.00    -0.096 A 
ATOM     10  HN1 IND d   1       1.865   2.357  -6.061  0.00  0.00     0.298 HD
ENDROOT
TORSDOF 0
ENDMDL
