MODEL 1
REMARK minimizedAffinity 7.34621143
REMARK minimizedRMSD -1
REMARK  0 active torsions:
REMARK  status: ('A' for Active; 'I' for Inactive)
ROOT
ATOM      1  N1  IND d   1       2.435   5.164  -5.999  0.00  0.00    -0.196 N 
ATOM      2  C2  IND d   1       1.127   4.765  -5.993  0.00  0.00     0.054 A 
ATOM      3  C3  IND d   1       1.047   3.416  -5.998  0.00  0.00    -0.031 A 
ATOM      4  C4  IND d   1       2.932   1.665  -5.913  0.00  0.00     0.051 A 
ATOM      5  C5  IND d   1       4.293   1.545  -5.943  0.00  0.00    -0.031 A 
ATOM      6  C6  IND d   1       5.121   2.647  -5.991  0.00  0.00     0.015 A 
ATOM      7  C7  IND d   1       4.617   3.917  -6.000  0.00  0.00    -0.016 A 
ATOM      8  C8  IND d   1       3.235   4.042  -5.977  0.00  0.00    -0.047 A 
ATOM      9  C9  IND d   1       2.389   2.926  -5.971  0.00  0.00    -0.096 A 
ATOM     10  HN1 IND d   1       2.712   5.978  -6.013  0.00  0.00     0.298 HD
ENDROOT
TORSDOF 0
ENDMDL
