MODEL 1
REMARK minimizedAffinity -0.811204731
REMARK minimizedRMSD -1
REMARK  0 active torsions:
REMARK  status: ('A' for Active; 'I' for Inactive)
ROOT
ATOM      1  N1  IND d   1       5.642   3.426  -5.967  0.00  0.00    -0.196 N 
ATOM      2  C2  IND d   1       5.900   2.084  -5.947  0.00  0.00     0.054 A 
ATOM      3  C3  IND d   1       4.745   1.383  -5.917  0.00  0.00    -0.031 A 
ATOM      4  C4  IND d   1       2.315   2.230  -6.000  0.00  0.00     0.051 A 
ATOM      5  C5  IND d   1       1.574   3.378  -5.988  0.00  0.00    -0.031 A 
ATOM      6  C6  IND d   1       2.163   4.626  -5.971  0.00  0.00     0.015 A 
ATOM      7  C7  IND d   1       3.521   4.773  -5.977  0.00  0.00    -0.016 A 
ATOM      8  C8  IND d   1       4.277   3.609  -5.982  0.00  0.00    -0.047 A 
ATOM      9  C9  IND d   1       3.685   2.340  -5.956  0.00  0.00    -0.096 A 
ATOM     10  HN1 IND d   1       6.233   4.051  -5.971  0.00  0.00     0.298 HD
ENDROOT
TORSDOF 0
ENDMDL
