MODEL 1
REMARK minimizedAffinity 4.9988842
REMARK minimizedRMSD -1
REMARK  0 active torsions:
REMARK  status: ('A' for Active; 'I' for Inactive)
ROOT
ATOM      1  N1  IND d   1       4.516  -5.955   4.386  0.00  0.00    -0.196 N 
ATOM      2  C2  IND d   1       4.308  -5.997   3.036  0.00  0.00     0.054 A 
ATOM      3  C3  IND d   1       4.491  -4.772   2.493  0.00  0.00    -0.031 A 
ATOM      4  C4  IND d   1       5.235  -2.579   3.618  0.00  0.00     0.051 A 
ATOM      5  C5  IND d   1       5.509  -2.036   4.841  0.00  0.00    -0.031 A 
ATOM      6  C6  IND d   1       5.469  -2.786   5.999  0.00  0.00     0.015 A 
ATOM      7  C7  IND d   1       5.162  -4.117   5.974  0.00  0.00    -0.016 A 
ATOM      8  C8  IND d   1       4.875  -4.671   4.734  0.00  0.00    -0.047 A 
ATOM      9  C9  IND d   1       4.873  -3.905   3.562  0.00  0.00    -0.096 A 
ATOM     10  HN1 IND d   1       4.436  -6.618   4.927  0.00  0.00     0.298 HD
ENDROOT
TORSDOF 0
ENDMDL
