MODEL 1
REMARK minimizedAffinity 5.89703512
REMARK minimizedRMSD -1
REMARK  0 active torsions:
REMARK  status: ('A' for Active; 'I' for Inactive)
ROOT
ATOM      1  N1  IND d   1       2.594  -1.401   0.330  0.00  0.00    -0.196 N 
ATOM      2  C2  IND d   1       1.482  -1.593   1.101  0.00  0.00     0.054 A 
ATOM      3  C3  IND d   1       1.092  -0.428   1.664  0.00  0.00    -0.031 A 
ATOM      4  C4  IND d   1       2.073   1.935   1.378  0.00  0.00     0.051 A 
ATOM      5  C5  IND d   1       3.115   2.606   0.801  0.00  0.00    -0.031 A 
ATOM      6  C6  IND d   1       4.054   1.964   0.021  0.00  0.00     0.015 A 
ATOM      7  C7  IND d   1       3.979   0.621  -0.223  0.00  0.00    -0.016 A 
ATOM      8  C8  IND d   1       2.927  -0.065   0.366  0.00  0.00    -0.047 A 
ATOM      9  C9  IND d   1       1.995   0.575   1.194  0.00  0.00    -0.096 A 
ATOM     10  HN1 IND d   1       3.016  -2.012  -0.103  0.00  0.00     0.298 HD
ENDROOT
TORSDOF 0
ENDMDL
