MODEL 1
REMARK minimizedAffinity -4.21418619
REMARK minimizedRMSD -1
REMARK  0 active torsions:
REMARK  status: ('A' for Active; 'I' for Inactive)
ROOT
ATOM      1  C   UNL d   1       0.385   5.139   4.294  0.00  0.00     0.078 C 
ATOM      2  C1  UNL d   1      -1.038   4.885   4.694  0.00  0.00    -0.077 A 
ATOM      3  C2  UNL d   1      -1.422   3.661   5.253  0.00  0.00    -0.001 A 
ATOM      4  C3  UNL d   1      -2.752   3.435   5.612  0.00  0.00     0.003 A 
ATOM      5  C4  UNL d   1      -3.708   4.429   5.414  0.00  0.00    -0.005 A 
ATOM      6  C5  UNL d   1      -3.336   5.650   4.856  0.00  0.00     0.003 A 
ATOM      7  C6  UNL d   1      -2.006   5.877   4.496  0.00  0.00    -0.001 A 
ENDROOT
TORSDOF 0
ENDMDL
