MODEL 1
REMARK minimizedAffinity -1.75598574
REMARK minimizedRMSD -1
REMARK  0 active torsions:
REMARK  status: ('A' for Active; 'I' for Inactive)
ROOT
ATOM      1  C   UNL d   1      -3.532   5.169   5.999  0.00  0.00     0.078 C 
ATOM      2  C1  UNL d   1      -2.174   5.235   5.366  0.00  0.00    -0.077 A 
ATOM      3  C2  UNL d   1      -1.913   4.590   4.152  0.00  0.00    -0.001 A 
ATOM      4  C3  UNL d   1      -0.641   4.651   3.579  0.00  0.00     0.003 A 
ATOM      5  C4  UNL d   1       0.379   5.355   4.216  0.00  0.00    -0.005 A 
ATOM      6  C5  UNL d   1       0.129   5.998   5.426  0.00  0.00     0.003 A 
ATOM      7  C6  UNL d   1      -1.142   5.938   6.000  0.00  0.00    -0.001 A 
ENDROOT
TORSDOF 0
ENDMDL
