MODEL 1
REMARK minimizedAffinity -2.75701237
REMARK minimizedRMSD -1
REMARK  0 active torsions:
REMARK  status: ('A' for Active; 'I' for Inactive)
ROOT
ATOM      1  C   UNL d   1       2.310   6.000   4.868  0.00  0.00     0.078 C 
ATOM      2  C1  UNL d   1       0.849   5.663   4.884  0.00  0.00    -0.077 A 
ATOM      3  C2  UNL d   1       0.262   5.053   6.000  0.00  0.00    -0.001 A 
ATOM      4  C3  UNL d   1      -1.097   4.736   5.998  0.00  0.00     0.003 A 
ATOM      5  C4  UNL d   1      -1.881   5.024   4.882  0.00  0.00    -0.005 A 
ATOM      6  C5  UNL d   1      -1.305   5.629   3.766  0.00  0.00     0.003 A 
ATOM      7  C6  UNL d   1       0.054   5.947   3.767  0.00  0.00    -0.001 A 
ENDROOT
TORSDOF 0
ENDMDL
