MODEL 1
REMARK minimizedAffinity -2.47956181
REMARK minimizedRMSD -1
REMARK  0 active torsions:
REMARK  status: ('A' for Active; 'I' for Inactive)
ROOT
ATOM      1  C   UNL d   1       0.304   5.938   4.540  0.00  0.00     0.078 C 
ATOM      2  C1  UNL d   1      -0.961   5.300   5.033  0.00  0.00    -0.077 A 
ATOM      3  C2  UNL d   1      -2.174   6.000   5.021  0.00  0.00    -0.001 A 
ATOM      4  C3  UNL d   1      -3.341   5.398   5.492  0.00  0.00     0.003 A 
ATOM      5  C4  UNL d   1      -3.307   4.093   5.980  0.00  0.00    -0.005 A 
ATOM      6  C5  UNL d   1      -2.105   3.390   5.999  0.00  0.00     0.003 A 
ATOM      7  C6  UNL d   1      -0.936   3.990   5.529  0.00  0.00    -0.001 A 
ENDROOT
TORSDOF 0
ENDMDL
