MODEL 1
REMARK minimizedAffinity -4.90154266
REMARK minimizedRMSD -1
REMARK  2 active torsions:
REMARK  status: ('A' for Active; 'I' for Inactive)
REMARK    1  A    between atoms: C1_2  and  C2_3 
REMARK    2  A    between atoms: C2_3  and  C3_4 
ROOT
ATOM      1  C3  UNL d   1      -0.052  -0.339  -0.388  0.00  0.00    -0.075 A 
ATOM      2  C4  UNL d   1       0.270  -0.022   0.940  0.00  0.00     0.002 A 
ATOM      3  C5  UNL d   1      -0.714   0.436   1.817  0.00  0.00     0.002 A 
ATOM      4  C6  UNL d   1      -2.026   0.592   1.376  0.00  0.00    -0.004 A 
ATOM      5  C7  UNL d   1      -2.353   0.296   0.055  0.00  0.00     0.002 A 
ATOM      6  C8  UNL d   1      -1.372  -0.167  -0.824  0.00  0.00     0.002 A 
ENDROOT
BRANCH   1   7
ATOM      7  C2  UNL d   1       1.002  -0.864  -1.334  0.00  0.00     0.056 C 
BRANCH   7   8
ATOM      8  C1  UNL d   1       1.569   0.195  -2.285  0.00  0.00     0.007 C 
ATOM      9  C   UNL d   1       1.252  -0.081  -3.749  0.00  0.00     0.009 C 
ENDBRANCH   7   8
ENDBRANCH   1   7
TORSDOF 2
ENDMDL
