MODEL 1
REMARK minimizedAffinity -4.54696417
REMARK minimizedRMSD -1
REMARK  2 active torsions:
REMARK  status: ('A' for Active; 'I' for Inactive)
REMARK    1  A    between atoms: C1_2  and  C2_3 
REMARK    2  A    between atoms: C2_3  and  C3_4 
ROOT
ATOM      1  C3  UNL d   1       0.330  -0.254  -1.618  0.00  0.00    -0.075 A 
ATOM      2  C4  UNL d   1       1.546   0.367  -1.940  0.00  0.00     0.002 A 
ATOM      3  C5  UNL d   1       1.853   0.679  -3.264  0.00  0.00     0.002 A 
ATOM      4  C6  UNL d   1       0.956   0.366  -4.283  0.00  0.00    -0.004 A 
ATOM      5  C7  UNL d   1      -0.247  -0.266  -3.977  0.00  0.00     0.002 A 
ATOM      6  C8  UNL d   1      -0.559  -0.575  -2.652  0.00  0.00     0.002 A 
ENDROOT
BRANCH   1   7
ATOM      7  C2  UNL d   1      -0.021  -0.568  -0.183  0.00  0.00     0.056 C 
BRANCH   7   8
ATOM      8  C1  UNL d   1      -1.417  -0.094   0.235  0.00  0.00     0.007 C 
ATOM      9  C   UNL d   1      -1.493   0.338   1.693  0.00  0.00     0.009 C 
ENDBRANCH   7   8
ENDBRANCH   1   7
TORSDOF 2
ENDMDL
