MODEL 1
REMARK minimizedAffinity -1.14903784
REMARK minimizedRMSD -1
REMARK  2 active torsions:
REMARK  status: ('A' for Active; 'I' for Inactive)
REMARK    1  A    between atoms: C1_2  and  C2_3 
REMARK    2  A    between atoms: C2_3  and  C3_4 
ROOT
ATOM      1  C3  UNL d   1       0.667   0.007   1.243  0.00  0.00    -0.075 A 
ATOM      2  C4  UNL d   1       1.417  -0.485   2.321  0.00  0.00     0.002 A 
ATOM      3  C5  UNL d   1       0.893  -0.470   3.614  0.00  0.00     0.002 A 
ATOM      4  C6  UNL d   1      -0.381   0.045   3.846  0.00  0.00    -0.004 A 
ATOM      5  C7  UNL d   1      -1.128   0.552   2.785  0.00  0.00     0.002 A 
ATOM      6  C8  UNL d   1      -0.607   0.534   1.490  0.00  0.00     0.002 A 
ENDROOT
BRANCH   1   7
ATOM      7  C2  UNL d   1       1.218  -0.033  -0.163  0.00  0.00     0.056 C 
BRANCH   7   8
ATOM      8  C1  UNL d   1       0.293  -0.717  -1.175  0.00  0.00     0.007 C 
ATOM      9  C   UNL d   1       0.672  -0.433  -2.622  0.00  0.00     0.009 C 
ENDBRANCH   7   8
ENDBRANCH   1   7
TORSDOF 2
ENDMDL
