MODEL 1
REMARK minimizedAffinity -4.17890596
REMARK minimizedRMSD -1
REMARK  2 active torsions:
REMARK  status: ('A' for Active; 'I' for Inactive)
REMARK    1  A    between atoms: C1_2  and  C2_3 
REMARK    2  A    between atoms: C2_3  and  C3_4 
ROOT
ATOM      1  C3  UNL d   1       0.541  -0.179  -1.348  0.00  0.00    -0.075 A 
ATOM      2  C4  UNL d   1       1.791   0.457  -1.368  0.00  0.00     0.002 A 
ATOM      3  C5  UNL d   1       2.410   0.765  -2.579  0.00  0.00     0.002 A 
ATOM      4  C6  UNL d   1       1.794   0.433  -3.784  0.00  0.00    -0.004 A 
ATOM      5  C7  UNL d   1       0.560  -0.213  -3.776  0.00  0.00     0.002 A 
ATOM      6  C8  UNL d   1      -0.064  -0.519  -2.565  0.00  0.00     0.002 A 
ENDROOT
BRANCH   1   7
ATOM      7  C2  UNL d   1      -0.147  -0.489  -0.040  0.00  0.00     0.056 C 
BRANCH   7   8
ATOM      8  C1  UNL d   1      -1.507   0.197   0.127  0.00  0.00     0.007 C 
ATOM      9  C   UNL d   1      -1.664   0.901   1.468  0.00  0.00     0.009 C 
ENDBRANCH   7   8
ENDBRANCH   1   7
TORSDOF 2
ENDMDL
