MODEL 1
REMARK minimizedAffinity -2.76239657
REMARK minimizedRMSD -1
REMARK  2 active torsions:
REMARK  status: ('A' for Active; 'I' for Inactive)
REMARK    1  A    between atoms: C1_2  and  C2_3 
REMARK    2  A    between atoms: C2_3  and  C3_4 
ROOT
ATOM      1  C3  UNL d   1      -0.100  -0.006  -0.477  0.00  0.00    -0.075 A 
ATOM      2  C4  UNL d   1      -1.305   0.385   0.125  0.00  0.00     0.002 A 
ATOM      3  C5  UNL d   1      -1.384   0.556   1.507  0.00  0.00     0.002 A 
ATOM      4  C6  UNL d   1      -0.264   0.329   2.305  0.00  0.00    -0.004 A 
ATOM      5  C7  UNL d   1       0.933  -0.075   1.719  0.00  0.00     0.002 A 
ATOM      6  C8  UNL d   1       1.016  -0.242   0.336  0.00  0.00     0.002 A 
ENDROOT
BRANCH   1   7
ATOM      7  C2  UNL d   1      -0.001  -0.164  -1.976  0.00  0.00     0.056 C 
BRANCH   7   8
ATOM      8  C1  UNL d   1       1.008   0.781  -2.637  0.00  0.00     0.007 C 
ATOM      9  C   UNL d   1       0.668   1.104  -4.085  0.00  0.00     0.009 C 
ENDBRANCH   7   8
ENDBRANCH   1   7
TORSDOF 2
ENDMDL
