MODEL 1
REMARK minimizedAffinity -4.61064577
REMARK minimizedRMSD -1
REMARK  2 active torsions:
REMARK  status: ('A' for Active; 'I' for Inactive)
REMARK    1  A    between atoms: C1_2  and  C2_3 
REMARK    2  A    between atoms: C2_3  and  C3_4 
ROOT
ATOM      1  C3  UNL d   1      -0.371   0.034  -0.477  0.00  0.00    -0.075 A 
ATOM      2  C4  UNL d   1       0.108  -0.307   0.796  0.00  0.00     0.002 A 
ATOM      3  C5  UNL d   1      -0.590   0.078   1.942  0.00  0.00     0.002 A 
ATOM      4  C6  UNL d   1      -1.765   0.817   1.829  0.00  0.00    -0.004 A 
ATOM      5  C7  UNL d   1      -2.241   1.176   0.570  0.00  0.00     0.002 A 
ATOM      6  C8  UNL d   1      -1.548   0.788  -0.578  0.00  0.00     0.002 A 
ENDROOT
BRANCH   1   7
ATOM      7  C2  UNL d   1       0.363  -0.405  -1.721  0.00  0.00     0.056 C 
BRANCH   7   8
ATOM      8  C1  UNL d   1       1.188   0.703  -2.384  0.00  0.00     0.007 C 
ATOM      9  C   UNL d   1       1.130   0.667  -3.905  0.00  0.00     0.009 C 
ENDBRANCH   7   8
ENDBRANCH   1   7
TORSDOF 2
ENDMDL
