MODEL 1
REMARK minimizedAffinity -2.04382014
REMARK minimizedRMSD -1
REMARK  2 active torsions:
REMARK  status: ('A' for Active; 'I' for Inactive)
REMARK    1  A    between atoms: C1_2  and  C2_3 
REMARK    2  A    between atoms: C2_3  and  C3_4 
ROOT
ATOM      1  C3  UNL d   1      -0.162  -0.089  -0.152  0.00  0.00    -0.075 A 
ATOM      2  C4  UNL d   1       0.892  -0.206   0.766  0.00  0.00     0.002 A 
ATOM      3  C5  UNL d   1       0.699   0.116   2.110  0.00  0.00     0.002 A 
ATOM      4  C6  UNL d   1      -0.543   0.568   2.550  0.00  0.00    -0.004 A 
ATOM      5  C7  UNL d   1      -1.592   0.704   1.643  0.00  0.00     0.002 A 
ATOM      6  C8  UNL d   1      -1.403   0.378   0.299  0.00  0.00     0.002 A 
ENDROOT
BRANCH   1   7
ATOM      7  C2  UNL d   1       0.032  -0.464  -1.602  0.00  0.00     0.056 C 
BRANCH   7   8
ATOM      8  C1  UNL d   1       1.043   0.416  -2.344  0.00  0.00     0.007 C 
ATOM      9  C   UNL d   1       0.930   0.313  -3.860  0.00  0.00     0.009 C 
ENDBRANCH   7   8
ENDBRANCH   1   7
TORSDOF 2
ENDMDL
