MODEL 1
REMARK minimizedAffinity -2.48152304
REMARK minimizedRMSD -1
REMARK  2 active torsions:
REMARK  status: ('A' for Active; 'I' for Inactive)
REMARK    1  A    between atoms: C1_2  and  C2_3 
REMARK    2  A    between atoms: C2_3  and  C3_4 
ROOT
ATOM      1  C3  UNL d   1       0.744  -0.188  -1.806  0.00  0.00    -0.075 A 
ATOM      2  C4  UNL d   1       0.204  -0.856  -2.915  0.00  0.00     0.002 A 
ATOM      3  C5  UNL d   1       0.523  -0.451  -4.211  0.00  0.00     0.002 A 
ATOM      4  C6  UNL d   1       1.377   0.631  -4.416  0.00  0.00    -0.004 A 
ATOM      5  C7  UNL d   1       1.907   1.312  -3.322  0.00  0.00     0.002 A 
ATOM      6  C8  UNL d   1       1.592   0.906  -2.024  0.00  0.00     0.002 A 
ENDROOT
BRANCH   1   7
ATOM      7  C2  UNL d   1       0.426  -0.640  -0.401  0.00  0.00     0.056 C 
BRANCH   7   8
ATOM      8  C1  UNL d   1      -0.879  -0.064   0.159  0.00  0.00     0.007 C 
ATOM      9  C   UNL d   1      -2.093  -0.939  -0.127  0.00  0.00     0.009 C 
ENDBRANCH   7   8
ENDBRANCH   1   7
TORSDOF 2
ENDMDL
