MODEL 1
REMARK minimizedAffinity -5.68636084
REMARK minimizedRMSD -1
REMARK  0 active torsions:
REMARK  status: ('A' for Active; 'I' for Inactive)
ROOT
ATOM      1  N1  IND d   1       0.389   1.315   0.697  0.00  0.00    -0.196 N 
ATOM      2  C2  IND d   1      -0.789   0.852   0.181  0.00  0.00     0.054 A 
ATOM      3  C3  IND d   1      -0.627  -0.396  -0.314  0.00  0.00    -0.031 A 
ATOM      4  C4  IND d   1       1.457  -1.906  -0.293  0.00  0.00     0.051 A 
ATOM      5  C5  IND d   1       2.784  -1.907   0.038  0.00  0.00    -0.031 A 
ATOM      6  C6  IND d   1       3.391  -0.813   0.619  0.00  0.00     0.015 A 
ATOM      7  C7  IND d   1       2.689   0.324   0.903  0.00  0.00    -0.016 A 
ATOM      8  C8  IND d   1       1.344   0.331   0.563  0.00  0.00    -0.047 A 
ATOM      9  C9  IND d   1       0.732  -0.760  -0.066  0.00  0.00    -0.096 A 
ATOM     10  HN1 IND d   1       0.513   2.091   1.047  0.00  0.00     0.298 HD
ENDROOT
TORSDOF 0
ENDMDL
