MODEL 1
REMARK minimizedAffinity -4.51509285
REMARK minimizedRMSD -1
REMARK  0 active torsions:
REMARK  status: ('A' for Active; 'I' for Inactive)
ROOT
ATOM      1  N1  IND d   1      -0.787  -0.398  -0.822  0.00  0.00    -0.196 N 
ATOM      2  C2  IND d   1      -1.065   0.841  -0.316  0.00  0.00     0.054 A 
ATOM      3  C3  IND d   1      -0.076   1.243   0.513  0.00  0.00    -0.031 A 
ATOM      4  C4  IND d   1       2.139   0.072   1.105  0.00  0.00     0.051 A 
ATOM      5  C5  IND d   1       2.824  -1.095   0.917  0.00  0.00    -0.031 A 
ATOM      6  C6  IND d   1       2.332  -2.110   0.121  0.00  0.00     0.015 A 
ATOM      7  C7  IND d   1       1.136  -1.989  -0.528  0.00  0.00    -0.016 A 
ATOM      8  C8  IND d   1       0.434  -0.808  -0.334  0.00  0.00    -0.047 A 
ATOM      9  C9  IND d   1       0.909   0.208   0.506  0.00  0.00    -0.096 A 
ATOM     10  HN1 IND d   1      -1.291  -0.847  -1.356  0.00  0.00     0.298 HD
ENDROOT
TORSDOF 0
ENDMDL
