MODEL 1
REMARK minimizedAffinity -2.10386777
REMARK minimizedRMSD -1
REMARK  0 active torsions:
REMARK  status: ('A' for Active; 'I' for Inactive)
ROOT
ATOM      1  N1  IND d   1      -0.548   0.963  -0.636  0.00  0.00    -0.196 N 
ATOM      2  C2  IND d   1       0.100   2.103  -0.252  0.00  0.00     0.054 A 
ATOM      3  C3  IND d   1       1.230   1.797   0.425  0.00  0.00    -0.031 A 
ATOM      4  C4  IND d   1       2.260  -0.508   0.929  0.00  0.00     0.051 A 
ATOM      5  C5  IND d   1       2.014  -1.847   0.811  0.00  0.00    -0.031 A 
ATOM      6  C6  IND d   1       0.879  -2.328   0.190  0.00  0.00     0.015 A 
ATOM      7  C7  IND d   1      -0.050  -1.483  -0.349  0.00  0.00    -0.016 A 
ATOM      8  C8  IND d   1       0.194  -0.123  -0.225  0.00  0.00    -0.047 A 
ATOM      9  C9  IND d   1       1.322   0.371   0.442  0.00  0.00    -0.096 A 
ATOM     10  HN1 IND d   1      -1.294   0.929  -1.063  0.00  0.00     0.298 HD
ENDROOT
TORSDOF 0
ENDMDL
