MODEL 1
REMARK minimizedAffinity -4.65875769
REMARK minimizedRMSD -1
REMARK  0 active torsions:
REMARK  status: ('A' for Active; 'I' for Inactive)
ROOT
ATOM      1  N1  IND d   1       1.120  -3.313  -0.479  0.00  0.00    -0.196 N 
ATOM      2  C2  IND d   1      -0.049  -3.276  -1.187  0.00  0.00     0.054 A 
ATOM      3  C3  IND d   1      -0.596  -2.041  -1.128  0.00  0.00    -0.031 A 
ATOM      4  C4  IND d   1       0.306   0.095  -0.010  0.00  0.00     0.051 A 
ATOM      5  C5  IND d   1       1.319   0.548   0.787  0.00  0.00    -0.031 A 
ATOM      6  C6  IND d   1       2.340  -0.279   1.209  0.00  0.00     0.015 A 
ATOM      7  C7  IND d   1       2.392  -1.593   0.838  0.00  0.00    -0.016 A 
ATOM      8  C8  IND d   1       1.361  -2.058   0.035  0.00  0.00    -0.047 A 
ATOM      9  C9  IND d   1       0.299  -1.234  -0.361  0.00  0.00    -0.096 A 
ATOM     10  HN1 IND d   1       1.620  -4.004  -0.373  0.00  0.00     0.298 HD
ENDROOT
TORSDOF 0
ENDMDL
