MODEL 1
REMARK minimizedAffinity -2.51237464
REMARK minimizedRMSD -1
REMARK  0 active torsions:
REMARK  status: ('A' for Active; 'I' for Inactive)
ROOT
ATOM      1  N1  IND d   1       0.623   0.909  -0.024  0.00  0.00    -0.196 N 
ATOM      2  C2  IND d   1      -0.675   1.233  -0.307  0.00  0.00     0.054 A 
ATOM      3  C3  IND d   1      -1.366   0.131  -0.673  0.00  0.00    -0.031 A 
ATOM      4  C4  IND d   1      -0.595  -2.323  -0.779  0.00  0.00     0.051 A 
ATOM      5  C5  IND d   1       0.515  -3.110  -0.646  0.00  0.00    -0.031 A 
ATOM      6  C6  IND d   1       1.741  -2.588  -0.289  0.00  0.00     0.015 A 
ATOM      7  C7  IND d   1       1.902  -1.254  -0.039  0.00  0.00    -0.016 A 
ATOM      8  C8  IND d   1       0.779  -0.451  -0.180  0.00  0.00    -0.047 A 
ATOM      9  C9  IND d   1      -0.458  -0.969  -0.584  0.00  0.00    -0.096 A 
ATOM     10  HN1 IND d   1       1.238   1.461   0.213  0.00  0.00     0.298 HD
ENDROOT
TORSDOF 0
ENDMDL
