MODEL 1
REMARK minimizedAffinity 0.503169
REMARK minimizedRMSD -1
REMARK  0 active torsions:
REMARK  status: ('A' for Active; 'I' for Inactive)
ROOT
ATOM      1  N1  IND d   1      -0.918   1.323  -0.673  0.00  0.00    -0.196 N 
ATOM      2  C2  IND d   1      -0.376   0.079  -0.841  0.00  0.00     0.054 A 
ATOM      3  C3  IND d   1      -1.227  -0.869  -0.387  0.00  0.00    -0.031 A 
ATOM      4  C4  IND d   1      -3.601  -0.612   0.575  0.00  0.00     0.051 A 
ATOM      5  C5  IND d   1      -4.512   0.332   0.956  0.00  0.00    -0.031 A 
ATOM      6  C6  IND d   1      -4.268   1.683   0.808  0.00  0.00     0.015 A 
ATOM      7  C7  IND d   1      -3.103   2.140   0.261  0.00  0.00    -0.016 A 
ATOM      8  C8  IND d   1      -2.172   1.184  -0.121  0.00  0.00    -0.047 A 
ATOM      9  C9  IND d   1      -2.397  -0.186   0.065  0.00  0.00    -0.096 A 
ATOM     10  HN1 IND d   1      -0.539   2.067  -0.878  0.00  0.00     0.298 HD
ENDROOT
TORSDOF 0
ENDMDL
