MODEL 1
REMARK minimizedAffinity -4.52607489
REMARK minimizedRMSD -1
REMARK  0 active torsions:
REMARK  status: ('A' for Active; 'I' for Inactive)
ROOT
ATOM      1  N1  IND d   1       1.409  -1.852  -2.321  0.00  0.00    -0.196 N 
ATOM      2  C2  IND d   1       2.563  -2.228  -2.951  0.00  0.00     0.054 A 
ATOM      3  C3  IND d   1       3.634  -1.955  -2.173  0.00  0.00    -0.031 A 
ATOM      4  C4  IND d   1       3.720  -0.986   0.211  0.00  0.00     0.051 A 
ATOM      5  C5  IND d   1       2.924  -0.455   1.187  0.00  0.00    -0.031 A 
ATOM      6  C6  IND d   1       1.555  -0.363   1.042  0.00  0.00     0.015 A 
ATOM      7  C7  IND d   1       0.927  -0.812  -0.085  0.00  0.00    -0.016 A 
ATOM      8  C8  IND d   1       1.732  -1.345  -1.082  0.00  0.00    -0.047 A 
ATOM      9  C9  IND d   1       3.126  -1.402  -0.958  0.00  0.00    -0.096 A 
ATOM     10  HN1 IND d   1       0.616  -1.921  -2.645  0.00  0.00     0.298 HD
ENDROOT
TORSDOF 0
ENDMDL
