MODEL 1
REMARK minimizedAffinity -1.17983174
REMARK minimizedRMSD -1
REMARK  0 active torsions:
REMARK  status: ('A' for Active; 'I' for Inactive)
ROOT
ATOM      1  N1  IND d   1       1.619  -3.099  -0.362  0.00  0.00    -0.196 N 
ATOM      2  C2  IND d   1       0.386  -3.689  -0.334  0.00  0.00     0.054 A 
ATOM      3  C3  IND d   1      -0.582  -2.750  -0.230  0.00  0.00    -0.031 A 
ATOM      4  C4  IND d   1      -0.375  -0.185  -0.193  0.00  0.00     0.051 A 
ATOM      5  C5  IND d   1       0.550   0.821  -0.158  0.00  0.00    -0.031 A 
ATOM      6  C6  IND d   1       1.905   0.567  -0.194  0.00  0.00     0.015 A 
ATOM      7  C7  IND d   1       2.389  -0.708  -0.276  0.00  0.00    -0.016 A 
ATOM      8  C8  IND d   1       1.453  -1.733  -0.304  0.00  0.00    -0.047 A 
ATOM      9  C9  IND d   1       0.077  -1.483  -0.226  0.00  0.00    -0.096 A 
ATOM     10  HN1 IND d   1       2.372  -3.512  -0.407  0.00  0.00     0.298 HD
ENDROOT
TORSDOF 0
ENDMDL
