MODEL 1
REMARK minimizedAffinity -4.8301487
REMARK minimizedRMSD -1
REMARK  0 active torsions:
REMARK  status: ('A' for Active; 'I' for Inactive)
ROOT
ATOM      1  N1  IND d   1      -0.498  -0.274  -0.984  0.00  0.00    -0.196 N 
ATOM      2  C2  IND d   1      -0.455  -1.531  -1.521  0.00  0.00     0.054 A 
ATOM      3  C3  IND d   1       0.683  -2.161  -1.151  0.00  0.00    -0.031 A 
ATOM      4  C4  IND d   1       2.564  -1.357   0.412  0.00  0.00     0.051 A 
ATOM      5  C5  IND d   1       2.986  -0.264   1.116  0.00  0.00    -0.031 A 
ATOM      6  C6  IND d   1       2.253   0.904   1.158  0.00  0.00     0.015 A 
ATOM      7  C7  IND d   1       1.058   1.019   0.505  0.00  0.00    -0.016 A 
ATOM      8  C8  IND d   1       0.629  -0.086  -0.216  0.00  0.00    -0.047 A 
ATOM      9  C9  IND d   1       1.390  -1.259  -0.297  0.00  0.00    -0.096 A 
ATOM     10  HN1 IND d   1      -1.125   0.302  -1.106  0.00  0.00     0.298 HD
ENDROOT
TORSDOF 0
ENDMDL
