MODEL 1
REMARK minimizedAffinity -1.80577362
REMARK minimizedRMSD -1
REMARK  0 active torsions:
REMARK  status: ('A' for Active; 'I' for Inactive)
ROOT
ATOM      1  N1  IND d   1       1.572   1.294  -0.007  0.00  0.00    -0.196 N 
ATOM      2  C2  IND d   1       0.288   1.763  -0.003  0.00  0.00     0.054 A 
ATOM      3  C3  IND d   1      -0.550   0.843  -0.531  0.00  0.00    -0.031 A 
ATOM      4  C4  IND d   1      -0.047  -1.538  -1.371  0.00  0.00     0.051 A 
ATOM      5  C5  IND d   1       0.987  -2.400  -1.608  0.00  0.00    -0.031 A 
ATOM      6  C6  IND d   1       2.294  -2.069  -1.315  0.00  0.00     0.015 A 
ATOM      7  C7  IND d   1       2.617  -0.863  -0.761  0.00  0.00    -0.016 A 
ATOM      8  C8  IND d   1       1.571   0.018  -0.526  0.00  0.00    -0.047 A 
ATOM      9  C9  IND d   1       0.247  -0.295  -0.860  0.00  0.00    -0.096 A 
ATOM     10  HN1 IND d   1       2.264   1.724   0.268  0.00  0.00     0.298 HD
ENDROOT
TORSDOF 0
ENDMDL
