MODEL 1
REMARK minimizedAffinity 2.84022498
REMARK minimizedRMSD -1
REMARK  0 active torsions:
REMARK  status: ('A' for Active; 'I' for Inactive)
ROOT
ATOM      1  C   UNL d   1       1.824  -5.986  -3.566  0.00  0.00     0.078 C 
ATOM      2  C1  UNL d   1       1.733  -5.998  -2.070  0.00  0.00    -0.077 A 
ATOM      3  C2  UNL d   1       0.491  -5.995  -1.423  0.00  0.00    -0.001 A 
ATOM      4  C3  UNL d   1       0.421  -5.996  -0.029  0.00  0.00     0.003 A 
ATOM      5  C4  UNL d   1       1.590  -5.999   0.730  0.00  0.00    -0.005 A 
ATOM      6  C5  UNL d   1       2.830  -5.999   0.095  0.00  0.00     0.003 A 
ATOM      7  C6  UNL d   1       2.902  -5.998  -1.298  0.00  0.00    -0.001 A 
ENDROOT
TORSDOF 0
ENDMDL
