MODEL 1
REMARK minimizedAffinity 0.171386257
REMARK minimizedRMSD -1
REMARK  0 active torsions:
REMARK  status: ('A' for Active; 'I' for Inactive)
ROOT
ATOM      1  C   UNL d   1       4.905  -5.999  -1.679  0.00  0.00     0.078 C 
ATOM      2  C1  UNL d   1       4.833  -5.976  -3.177  0.00  0.00    -0.077 A 
ATOM      3  C2  UNL d   1       5.996  -5.918  -3.954  0.00  0.00    -0.001 A 
ATOM      4  C3  UNL d   1       5.913  -5.888  -5.347  0.00  0.00     0.003 A 
ATOM      5  C4  UNL d   1       4.669  -5.913  -5.975  0.00  0.00    -0.005 A 
ATOM      6  C5  UNL d   1       3.506  -5.967  -5.210  0.00  0.00     0.003 A 
ATOM      7  C6  UNL d   1       3.587  -5.998  -3.817  0.00  0.00    -0.001 A 
ENDROOT
TORSDOF 0
ENDMDL
