MODEL 1
REMARK minimizedAffinity 0.442341417
REMARK minimizedRMSD -1
REMARK  0 active torsions:
REMARK  status: ('A' for Active; 'I' for Inactive)
ROOT
ATOM      1  C   UNL d   1       2.422  -0.982   2.581  0.00  0.00     0.078 C 
ATOM      2  C1  UNL d   1       2.023  -2.329   3.103  0.00  0.00    -0.077 A 
ATOM      3  C2  UNL d   1       2.522  -3.503   2.526  0.00  0.00    -0.001 A 
ATOM      4  C3  UNL d   1       2.133  -4.751   3.016  0.00  0.00     0.003 A 
ATOM      5  C4  UNL d   1       1.243  -4.837   4.085  0.00  0.00    -0.005 A 
ATOM      6  C5  UNL d   1       0.739  -3.674   4.664  0.00  0.00     0.003 A 
ATOM      7  C6  UNL d   1       1.126  -2.426   4.175  0.00  0.00    -0.001 A 
ENDROOT
TORSDOF 0
ENDMDL
