MODEL 1
REMARK minimizedAffinity -0.719144464
REMARK minimizedRMSD -1
REMARK  0 active torsions:
REMARK  status: ('A' for Active; 'I' for Inactive)
ROOT
ATOM      1  C   UNL d   1       2.392  -0.320   1.963  0.00  0.00     0.078 C 
ATOM      2  C1  UNL d   1       2.279  -1.566   2.790  0.00  0.00    -0.077 A 
ATOM      3  C2  UNL d   1       3.380  -2.411   2.976  0.00  0.00    -0.001 A 
ATOM      4  C3  UNL d   1       3.257  -3.572   3.740  0.00  0.00     0.003 A 
ATOM      5  C4  UNL d   1       2.036  -3.900   4.325  0.00  0.00    -0.005 A 
ATOM      6  C5  UNL d   1       0.934  -3.066   4.144  0.00  0.00     0.003 A 
ATOM      7  C6  UNL d   1       1.054  -1.904   3.380  0.00  0.00    -0.001 A 
ENDROOT
TORSDOF 0
ENDMDL
