MODEL 1
REMARK minimizedAffinity 0.374090075
REMARK minimizedRMSD -1
REMARK  0 active torsions:
REMARK  status: ('A' for Active; 'I' for Inactive)
ROOT
ATOM      1  C   UNL d   1       1.045  -2.793   3.660  0.00  0.00     0.078 C 
ATOM      2  C1  UNL d   1       1.506  -1.399   3.356  0.00  0.00    -0.077 A 
ATOM      3  C2  UNL d   1       1.218  -0.338   4.224  0.00  0.00    -0.001 A 
ATOM      4  C3  UNL d   1       1.646   0.956   3.923  0.00  0.00     0.003 A 
ATOM      5  C4  UNL d   1       2.363   1.202   2.754  0.00  0.00    -0.005 A 
ATOM      6  C5  UNL d   1       2.653   0.153   1.883  0.00  0.00     0.003 A 
ATOM      7  C6  UNL d   1       2.226  -1.141   2.182  0.00  0.00    -0.001 A 
ENDROOT
TORSDOF 0
ENDMDL
