MODEL 1
REMARK minimizedAffinity 1.06028831
REMARK minimizedRMSD -1
REMARK  0 active torsions:
REMARK  status: ('A' for Active; 'I' for Inactive)
ROOT
ATOM      1  C   UNL d   1       2.358  -5.998  -1.740  0.00  0.00     0.078 C 
ATOM      2  C1  UNL d   1       3.363  -5.988  -2.853  0.00  0.00    -0.077 A 
ATOM      3  C2  UNL d   1       2.955  -5.999  -4.192  0.00  0.00    -0.001 A 
ATOM      4  C3  UNL d   1       3.902  -5.999  -5.218  0.00  0.00     0.003 A 
ATOM      5  C4  UNL d   1       5.262  -5.991  -4.915  0.00  0.00    -0.005 A 
ATOM      6  C5  UNL d   1       5.677  -5.983  -3.585  0.00  0.00     0.003 A 
ATOM      7  C6  UNL d   1       4.732  -5.982  -2.558  0.00  0.00    -0.001 A 
ENDROOT
TORSDOF 0
ENDMDL
