MODEL 1
REMARK minimizedAffinity 1.73898172
REMARK minimizedRMSD -1
REMARK  0 active torsions:
REMARK  status: ('A' for Active; 'I' for Inactive)
ROOT
ATOM      1  C   UNL d   1       4.848  -5.998  -2.258  0.00  0.00     0.078 C 
ATOM      2  C1  UNL d   1       3.727  -5.992  -3.255  0.00  0.00    -0.077 A 
ATOM      3  C2  UNL d   1       2.391  -5.996  -2.838  0.00  0.00    -0.001 A 
ATOM      4  C3  UNL d   1       1.358  -5.999  -3.777  0.00  0.00     0.003 A 
ATOM      5  C4  UNL d   1       1.651  -6.000  -5.139  0.00  0.00    -0.005 A 
ATOM      6  C5  UNL d   1       2.978  -5.998  -5.564  0.00  0.00     0.003 A 
ATOM      7  C6  UNL d   1       4.012  -5.995  -4.626  0.00  0.00    -0.001 A 
ENDROOT
TORSDOF 0
ENDMDL
