MODEL 1
REMARK minimizedAffinity 2.08991885
REMARK minimizedRMSD -1
REMARK  0 active torsions:
REMARK  status: ('A' for Active; 'I' for Inactive)
ROOT
ATOM      1  C   UNL d   1       4.482  -3.110   5.650  0.00  0.00     0.078 C 
ATOM      2  C1  UNL d   1       3.408  -3.169   4.605  0.00  0.00    -0.077 A 
ATOM      3  C2  UNL d   1       2.562  -2.076   4.378  0.00  0.00    -0.001 A 
ATOM      4  C3  UNL d   1       1.561  -2.148   3.409  0.00  0.00     0.003 A 
ATOM      5  C4  UNL d   1       1.395  -3.311   2.659  0.00  0.00    -0.005 A 
ATOM      6  C5  UNL d   1       2.231  -4.404   2.878  0.00  0.00     0.003 A 
ATOM      7  C6  UNL d   1       3.233  -4.334   3.848  0.00  0.00    -0.001 A 
ENDROOT
TORSDOF 0
ENDMDL
