MODEL 1
REMARK minimizedAffinity 7.3313942
REMARK minimizedRMSD -1
REMARK  0 active torsions:
REMARK  status: ('A' for Active; 'I' for Inactive)
ROOT
ATOM      1  C   UNL d   1       2.981  -2.041  -2.239  0.00  0.00     0.078 C 
ATOM      2  C1  UNL d   1       3.373  -3.422  -1.806  0.00  0.00    -0.077 A 
ATOM      3  C2  UNL d   1       3.001  -3.917  -0.550  0.00  0.00    -0.001 A 
ATOM      4  C3  UNL d   1       3.381  -5.201  -0.156  0.00  0.00     0.003 A 
ATOM      5  C4  UNL d   1       4.137  -6.000  -1.012  0.00  0.00    -0.005 A 
ATOM      6  C5  UNL d   1       4.514  -5.515  -2.263  0.00  0.00     0.003 A 
ATOM      7  C6  UNL d   1       4.135  -4.232  -2.658  0.00  0.00    -0.001 A 
ENDROOT
TORSDOF 0
ENDMDL
