MODEL 1
REMARK minimizedAffinity 1.61478722
REMARK minimizedRMSD -1
REMARK  0 active torsions:
REMARK  status: ('A' for Active; 'I' for Inactive)
ROOT
ATOM      1  C   UNL d   1       5.349  -2.577   3.560  0.00  0.00     0.078 C 
ATOM      2  C1  UNL d   1       3.866  -2.657   3.355  0.00  0.00    -0.077 A 
ATOM      3  C2  UNL d   1       3.133  -1.536   2.944  0.00  0.00    -0.001 A 
ATOM      4  C3  UNL d   1       1.752  -1.622   2.767  0.00  0.00     0.003 A 
ATOM      5  C4  UNL d   1       1.090  -2.827   2.999  0.00  0.00    -0.005 A 
ATOM      6  C5  UNL d   1       1.810  -3.946   3.410  0.00  0.00     0.003 A 
ATOM      7  C6  UNL d   1       3.192  -3.862   3.588  0.00  0.00    -0.001 A 
ENDROOT
TORSDOF 0
ENDMDL
