MODEL 1
REMARK minimizedAffinity 4.64832926
REMARK minimizedRMSD -1
REMARK  0 active torsions:
REMARK  status: ('A' for Active; 'I' for Inactive)
ROOT
ATOM      1  C   UNL d   1       1.599  -0.768   2.608  0.00  0.00     0.078 C 
ATOM      2  C1  UNL d   1       1.983  -2.086   3.213  0.00  0.00    -0.077 A 
ATOM      3  C2  UNL d   1       3.088  -2.194   4.065  0.00  0.00    -0.001 A 
ATOM      4  C3  UNL d   1       3.439  -3.429   4.613  0.00  0.00     0.003 A 
ATOM      5  C4  UNL d   1       2.690  -4.566   4.314  0.00  0.00    -0.005 A 
ATOM      6  C5  UNL d   1       1.590  -4.468   3.465  0.00  0.00     0.003 A 
ATOM      7  C6  UNL d   1       1.237  -3.234   2.916  0.00  0.00    -0.001 A 
ENDROOT
TORSDOF 0
ENDMDL
