MODEL 1
REMARK minimizedAffinity -4.35457468
REMARK minimizedRMSD -1
REMARK  0 active torsions:
REMARK  status: ('A' for Active; 'I' for Inactive)
ROOT
ATOM      1  C   UNL d   1       4.796  -1.483   1.552  0.00  0.00     0.078 C 
ATOM      2  C1  UNL d   1       3.493  -1.886   2.176  0.00  0.00    -0.077 A 
ATOM      3  C2  UNL d   1       2.805  -1.020   3.034  0.00  0.00    -0.001 A 
ATOM      4  C3  UNL d   1       1.598  -1.413   3.615  0.00  0.00     0.003 A 
ATOM      5  C4  UNL d   1       1.070  -2.673   3.345  0.00  0.00    -0.005 A 
ATOM      6  C5  UNL d   1       1.748  -3.543   2.494  0.00  0.00     0.003 A 
ATOM      7  C6  UNL d   1       2.955  -3.152   1.912  0.00  0.00    -0.001 A 
ENDROOT
TORSDOF 0
ENDMDL
