MODEL 1
REMARK minimizedAffinity 4.96910334
REMARK minimizedRMSD -1
REMARK  1 active torsions:
REMARK  status: ('A' for Active; 'I' for Inactive)
REMARK    1  A    between atoms: N_2  and  C1_3 
ROOT
ATOM      1  C1  UNL d   1      -0.437  -2.077  -1.503  0.00  0.00     0.143 A 
ATOM      2  C2  UNL d   1      -1.622  -2.815  -1.423  0.00  0.00    -0.057 A 
ATOM      3  C3  UNL d   1      -2.213  -3.109  -0.187  0.00  0.00     0.033 A 
ATOM      4  C4  UNL d   1      -1.610  -2.692   0.995  0.00  0.00    -0.042 A 
ATOM      5  C5  UNL d   1      -0.418  -1.979   0.940  0.00  0.00     0.033 A 
ATOM      6  C6  UNL d   1       0.163  -1.683  -0.297  0.00  0.00    -0.057 A 
ENDROOT
BRANCH   1   7
ATOM      7  N   UNL d   1       0.251  -1.838  -2.695  0.00  0.00    -0.732 N 
ATOM      8  C   UNL d   1       1.630  -2.250  -2.846  0.00  0.00     0.284 C 
ATOM      9  H3  UNL d   1      -0.325  -2.006  -3.517  0.00  0.00     0.395 HD
ENDBRANCH   1   7
TORSDOF 1
ENDMDL
