MODEL 1
REMARK minimizedAffinity 1.49064207
REMARK minimizedRMSD -1
REMARK  1 active torsions:
REMARK  status: ('A' for Active; 'I' for Inactive)
REMARK    1  A    between atoms: N_2  and  C1_3 
ROOT
ATOM      1  C1  UNL d   1       5.129   5.452  -3.400  0.00  0.00     0.143 A 
ATOM      2  C2  UNL d   1       5.945   4.351  -3.679  0.00  0.00    -0.057 A 
ATOM      3  C3  UNL d   1       6.000   3.794  -4.962  0.00  0.00     0.033 A 
ATOM      4  C4  UNL d   1       5.213   4.312  -5.986  0.00  0.00    -0.042 A 
ATOM      5  C5  UNL d   1       4.375   5.391  -5.725  0.00  0.00     0.033 A 
ATOM      6  C6  UNL d   1       4.330   5.947  -4.443  0.00  0.00    -0.057 A 
ENDROOT
BRANCH   1   7
ATOM      7  N   UNL d   1       4.956   5.989  -2.122  0.00  0.00    -0.732 N 
ATOM      8  C   UNL d   1       5.995   5.860  -1.122  0.00  0.00     0.284 C 
ATOM      9  H3  UNL d   1       4.509   6.903  -2.141  0.00  0.00     0.395 HD
ENDBRANCH   1   7
TORSDOF 1
ENDMDL
