MODEL 1
REMARK minimizedAffinity -1.29182911
REMARK minimizedRMSD -1
REMARK  1 active torsions:
REMARK  status: ('A' for Active; 'I' for Inactive)
REMARK    1  A    between atoms: N_2  and  C1_3 
ROOT
ATOM      1  C1  UNL d   1       4.347   4.788  -2.804  0.00  0.00     0.143 A 
ATOM      2  C2  UNL d   1       5.292   5.778  -3.092  0.00  0.00    -0.057 A 
ATOM      3  C3  UNL d   1       5.999   5.778  -4.301  0.00  0.00     0.033 A 
ATOM      4  C4  UNL d   1       5.792   4.767  -5.234  0.00  0.00    -0.042 A 
ATOM      5  C5  UNL d   1       4.876   3.759  -4.958  0.00  0.00     0.033 A 
ATOM      6  C6  UNL d   1       4.169   3.768  -3.752  0.00  0.00    -0.057 A 
ENDROOT
BRANCH   1   7
ATOM      7  N   UNL d   1       3.684   4.678  -1.579  0.00  0.00    -0.732 N 
ATOM      8  C   UNL d   1       2.251   4.861  -1.497  0.00  0.00     0.284 C 
ATOM      9  H3  UNL d   1       4.038   3.910  -1.014  0.00  0.00     0.395 HD
ENDBRANCH   1   7
TORSDOF 1
ENDMDL
