MODEL 1
REMARK minimizedAffinity 5.28565407
REMARK minimizedRMSD -1
REMARK  1 active torsions:
REMARK  status: ('A' for Active; 'I' for Inactive)
REMARK    1  A    between atoms: N_2  and  C1_3 
ROOT
ATOM      1  C1  UNL d   1      -1.301  -2.559  -1.331  0.00  0.00     0.143 A 
ATOM      2  C2  UNL d   1      -0.291  -1.602  -1.190  0.00  0.00    -0.057 A 
ATOM      3  C3  UNL d   1       0.722  -1.468  -2.148  0.00  0.00     0.033 A 
ATOM      4  C4  UNL d   1       0.757  -2.312  -3.253  0.00  0.00    -0.042 A 
ATOM      5  C5  UNL d   1      -0.223  -3.287  -3.401  0.00  0.00     0.033 A 
ATOM      6  C6  UNL d   1      -1.235  -3.411  -2.444  0.00  0.00    -0.057 A 
ENDROOT
BRANCH   1   7
ATOM      7  N   UNL d   1      -2.279  -2.806  -0.364  0.00  0.00    -0.732 N 
ATOM      8  C   UNL d   1      -1.911  -3.304   0.945  0.00  0.00     0.284 C 
ATOM      9  H3  UNL d   1      -3.000  -2.089  -0.348  0.00  0.00     0.395 HD
ENDBRANCH   1   7
TORSDOF 1
ENDMDL
