MODEL 1
REMARK minimizedAffinity 0.140504256
REMARK minimizedRMSD -1
REMARK  1 active torsions:
REMARK  status: ('A' for Active; 'I' for Inactive)
REMARK    1  A    between atoms: N_2  and  C1_3 
ROOT
ATOM      1  C1  UNL d   1       3.561   4.857  -2.751  0.00  0.00     0.143 A 
ATOM      2  C2  UNL d   1       4.759   5.387  -2.262  0.00  0.00    -0.057 A 
ATOM      3  C3  UNL d   1       5.966   5.211  -2.950  0.00  0.00     0.033 A 
ATOM      4  C4  UNL d   1       6.000   4.474  -4.129  0.00  0.00    -0.042 A 
ATOM      5  C5  UNL d   1       4.825   3.916  -4.621  0.00  0.00     0.033 A 
ATOM      6  C6  UNL d   1       3.622   4.101  -3.933  0.00  0.00    -0.057 A 
ENDROOT
BRANCH   1   7
ATOM      7  N   UNL d   1       2.346   4.914  -2.063  0.00  0.00    -0.732 N 
ATOM      8  C   UNL d   1       2.285   4.610  -0.650  0.00  0.00     0.284 C 
ATOM      9  H3  UNL d   1       1.779   5.712  -2.341  0.00  0.00     0.395 HD
ENDBRANCH   1   7
TORSDOF 1
ENDMDL
