MODEL 1
REMARK minimizedAffinity 0.642793834
REMARK minimizedRMSD -1
REMARK  1 active torsions:
REMARK  status: ('A' for Active; 'I' for Inactive)
REMARK    1  A    between atoms: N_2  and  C1_3 
ROOT
ATOM      1  C1  UNL d   1       5.584   4.822  -2.132  0.00  0.00     0.143 A 
ATOM      2  C2  UNL d   1       5.018   5.934  -2.766  0.00  0.00    -0.057 A 
ATOM      3  C3  UNL d   1       4.828   5.960  -4.153  0.00  0.00     0.033 A 
ATOM      4  C4  UNL d   1       5.228   4.882  -4.937  0.00  0.00    -0.042 A 
ATOM      5  C5  UNL d   1       5.815   3.777  -4.331  0.00  0.00     0.033 A 
ATOM      6  C6  UNL d   1       5.996   3.754  -2.945  0.00  0.00    -0.057 A 
ENDROOT
BRANCH   1   7
ATOM      7  N   UNL d   1       5.890   4.775  -0.770  0.00  0.00    -0.732 N 
ATOM      8  C   UNL d   1       5.997   5.993   0.004  0.00  0.00     0.284 C 
ATOM      9  H3  UNL d   1       5.408   4.018  -0.290  0.00  0.00     0.395 HD
ENDBRANCH   1   7
TORSDOF 1
ENDMDL
