MODEL 1
REMARK minimizedAffinity 8.57986927
REMARK minimizedRMSD -1
REMARK  1 active torsions:
REMARK  status: ('A' for Active; 'I' for Inactive)
REMARK    1  A    between atoms: N_2  and  C1_3 
ROOT
ATOM      1  C1  UNL d   1       0.964  -2.188  -3.293  0.00  0.00     0.143 A 
ATOM      2  C2  UNL d   1      -0.198  -2.377  -4.049  0.00  0.00    -0.057 A 
ATOM      3  C3  UNL d   1      -1.465  -2.348  -3.454  0.00  0.00     0.033 A 
ATOM      4  C4  UNL d   1      -1.591  -2.158  -2.082  0.00  0.00    -0.042 A 
ATOM      5  C5  UNL d   1      -0.450  -1.993  -1.307  0.00  0.00     0.033 A 
ATOM      6  C6  UNL d   1       0.813  -2.016  -1.908  0.00  0.00    -0.057 A 
ENDROOT
BRANCH   1   7
ATOM      7  N   UNL d   1       2.256  -2.303  -3.809  0.00  0.00    -0.732 N 
ATOM      8  C   UNL d   1       3.392  -1.785  -3.077  0.00  0.00     0.284 C 
ATOM      9  H3  UNL d   1       2.421  -3.208  -4.246  0.00  0.00     0.395 HD
ENDBRANCH   1   7
TORSDOF 1
ENDMDL
