MODEL 1
REMARK minimizedAffinity -2.9233954
REMARK minimizedRMSD -1
REMARK  1 active torsions:
REMARK  status: ('A' for Active; 'I' for Inactive)
REMARK    1  A    between atoms: N_2  and  C1_3 
ROOT
ATOM      1  C1  UNL d   1       4.870   4.281  -4.362  0.00  0.00     0.143 A 
ATOM      2  C2  UNL d   1       5.986   4.797  -3.695  0.00  0.00    -0.057 A 
ATOM      3  C3  UNL d   1       5.858   5.450  -2.464  0.00  0.00     0.033 A 
ATOM      4  C4  UNL d   1       4.603   5.625  -1.889  0.00  0.00    -0.042 A 
ATOM      5  C5  UNL d   1       3.477   5.142  -2.547  0.00  0.00     0.033 A 
ATOM      6  C6  UNL d   1       3.613   4.485  -3.773  0.00  0.00    -0.057 A 
ENDROOT
BRANCH   1   7
ATOM      7  N   UNL d   1       4.921   3.708  -5.636  0.00  0.00    -0.732 N 
ATOM      8  C   UNL d   1       6.000   2.815  -6.000  0.00  0.00     0.284 C 
ATOM      9  H3  UNL d   1       4.005   3.410  -5.964  0.00  0.00     0.395 HD
ENDBRANCH   1   7
TORSDOF 1
ENDMDL
