MODEL 1
REMARK minimizedAffinity 2.98610735
REMARK minimizedRMSD -1
REMARK  1 active torsions:
REMARK  status: ('A' for Active; 'I' for Inactive)
REMARK    1  A    between atoms: N_2  and  C1_3 
ROOT
ATOM      1  C1  UNL d   1       1.338  -2.324  -2.158  0.00  0.00     0.143 A 
ATOM      2  C2  UNL d   1       0.284  -1.924  -2.987  0.00  0.00    -0.057 A 
ATOM      3  C3  UNL d   1      -1.033  -1.876  -2.514  0.00  0.00     0.033 A 
ATOM      4  C4  UNL d   1      -1.324  -2.255  -1.208  0.00  0.00    -0.042 A 
ATOM      5  C5  UNL d   1      -0.296  -2.680  -0.374  0.00  0.00     0.033 A 
ATOM      6  C6  UNL d   1       1.019  -2.720  -0.850  0.00  0.00    -0.057 A 
ENDROOT
BRANCH   1   7
ATOM      7  N   UNL d   1       2.654  -2.487  -2.597  0.00  0.00    -0.732 N 
ATOM      8  C   UNL d   1       3.071  -1.971  -3.884  0.00  0.00     0.284 C 
ATOM      9  H3  UNL d   1       3.333  -2.344  -1.853  0.00  0.00     0.395 HD
ENDBRANCH   1   7
TORSDOF 1
ENDMDL
