MODEL 1
REMARK minimizedAffinity -3.47963762
REMARK minimizedRMSD -1
REMARK  0 active torsions:
REMARK  status: ('A' for Active; 'I' for Inactive)
ROOT
ATOM      1  C   UNL d   1      -0.135   3.879  -0.036  0.00  0.00     0.077 C 
ATOM      2  C1  UNL d   1      -0.287   2.483   0.492  0.00  0.00    -0.074 A 
ATOM      3  C2  UNL d   1      -0.892   2.246   1.731  0.00  0.00    -0.005 A 
ATOM      4  C3  UNL d   1      -1.035   0.942   2.205  0.00  0.00     0.006 A 
ATOM      5  C4  UNL d   1      -0.575  -0.136   1.447  0.00  0.00    -0.005 A 
ATOM      6  C5  UNL d   1       0.032   0.082   0.206  0.00  0.00    -0.074 A 
ATOM      7  C6  UNL d   1       0.522  -1.065  -0.626  0.00  0.00     0.077 C 
ATOM      8  C7  UNL d   1       0.165   1.395  -0.267  0.00  0.00    -0.001 A 
ENDROOT
TORSDOF 0
ENDMDL
