MODEL 1
REMARK minimizedAffinity -2.85618925
REMARK minimizedRMSD -1
REMARK  0 active torsions:
REMARK  status: ('A' for Active; 'I' for Inactive)
ROOT
ATOM      1  C   UNL d   1       0.189   3.750   0.006  0.00  0.00     0.077 C 
ATOM      2  C1  UNL d   1      -0.062   2.344   0.461  0.00  0.00    -0.074 A 
ATOM      3  C2  UNL d   1      -0.910   2.078   1.541  0.00  0.00    -0.005 A 
ATOM      4  C3  UNL d   1      -1.142   0.764   1.946  0.00  0.00     0.006 A 
ATOM      5  C4  UNL d   1      -0.529  -0.297   1.277  0.00  0.00    -0.005 A 
ATOM      6  C5  UNL d   1       0.321  -0.050   0.195  0.00  0.00    -0.074 A 
ATOM      7  C6  UNL d   1       0.980  -1.179  -0.541  0.00  0.00     0.077 C 
ATOM      8  C7  UNL d   1       0.544   1.273  -0.211  0.00  0.00    -0.001 A 
ENDROOT
TORSDOF 0
ENDMDL
