MODEL 1
REMARK minimizedAffinity -3.98378015
REMARK minimizedRMSD -1
REMARK  0 active torsions:
REMARK  status: ('A' for Active; 'I' for Inactive)
ROOT
ATOM      1  C   UNL d   1       0.843  -1.135  -0.862  0.00  0.00     0.077 C 
ATOM      2  C1  UNL d   1       0.290  -0.027  -0.015  0.00  0.00    -0.074 A 
ATOM      3  C2  UNL d   1      -0.306  -0.296   1.221  0.00  0.00    -0.005 A 
ATOM      4  C3  UNL d   1      -0.807   0.745   2.002  0.00  0.00     0.006 A 
ATOM      5  C4  UNL d   1      -0.718   2.064   1.555  0.00  0.00    -0.005 A 
ATOM      6  C5  UNL d   1      -0.124   2.353   0.322  0.00  0.00    -0.074 A 
ATOM      7  C6  UNL d   1      -0.010   3.766  -0.168  0.00  0.00     0.077 C 
ATOM      8  C7  UNL d   1       0.384   1.301  -0.453  0.00  0.00    -0.001 A 
ENDROOT
TORSDOF 0
ENDMDL
