MODEL 1
REMARK minimizedAffinity -3.16669965
REMARK minimizedRMSD -1
REMARK  0 active torsions:
REMARK  status: ('A' for Active; 'I' for Inactive)
ROOT
ATOM      1  C   UNL d   1       0.023  -3.280  -2.411  0.00  0.00     0.077 C 
ATOM      2  C1  UNL d   1       0.345  -2.131  -1.503  0.00  0.00    -0.074 A 
ATOM      3  C2  UNL d   1       1.551  -1.433  -1.627  0.00  0.00    -0.005 A 
ATOM      4  C3  UNL d   1       1.832  -0.360  -0.781  0.00  0.00     0.006 A 
ATOM      5  C4  UNL d   1       0.913   0.025   0.196  0.00  0.00    -0.005 A 
ATOM      6  C5  UNL d   1      -0.299  -0.660   0.333  0.00  0.00    -0.074 A 
ATOM      7  C6  UNL d   1      -1.302  -0.253   1.371  0.00  0.00     0.077 C 
ATOM      8  C7  UNL d   1      -0.577  -1.733  -0.525  0.00  0.00    -0.001 A 
ENDROOT
TORSDOF 0
ENDMDL
