MODEL 1
REMARK minimizedAffinity -4.35725641
REMARK minimizedRMSD -1
REMARK  0 active torsions:
REMARK  status: ('A' for Active; 'I' for Inactive)
ROOT
ATOM      1  C   UNL d   1      -0.749  -3.730  -2.332  0.00  0.00     0.077 C 
ATOM      2  C1  UNL d   1       0.064  -2.623  -1.730  0.00  0.00    -0.074 A 
ATOM      3  C2  UNL d   1       1.351  -2.340  -2.199  0.00  0.00    -0.005 A 
ATOM      4  C3  UNL d   1       2.092  -1.300  -1.636  0.00  0.00     0.006 A 
ATOM      5  C4  UNL d   1       1.554  -0.535  -0.601  0.00  0.00    -0.005 A 
ATOM      6  C5  UNL d   1       0.268  -0.803  -0.120  0.00  0.00    -0.074 A 
ATOM      7  C6  UNL d   1      -0.328   0.017   0.986  0.00  0.00     0.077 C 
ATOM      8  C7  UNL d   1      -0.472  -1.844  -0.695  0.00  0.00    -0.001 A 
ENDROOT
TORSDOF 0
ENDMDL
