MODEL 1
REMARK minimizedAffinity -3.77315068
REMARK minimizedRMSD -1
REMARK  0 active torsions:
REMARK  status: ('A' for Active; 'I' for Inactive)
ROOT
ATOM      1  C   UNL d   1       0.668  -1.173  -0.806  0.00  0.00     0.077 C 
ATOM      2  C1  UNL d   1       0.095  -0.120   0.095  0.00  0.00    -0.074 A 
ATOM      3  C2  UNL d   1      -0.641  -0.470   1.232  0.00  0.00    -0.005 A 
ATOM      4  C3  UNL d   1      -1.159   0.520   2.066  0.00  0.00     0.006 A 
ATOM      5  C4  UNL d   1      -0.947   1.868   1.773  0.00  0.00    -0.005 A 
ATOM      6  C5  UNL d   1      -0.213   2.237   0.642  0.00  0.00    -0.074 A 
ATOM      7  C6  UNL d   1       0.033   3.680   0.318  0.00  0.00     0.077 C 
ATOM      8  C7  UNL d   1       0.311   1.236  -0.188  0.00  0.00    -0.001 A 
ENDROOT
TORSDOF 0
ENDMDL
