MODEL 1
REMARK minimizedAffinity -3.12795615
REMARK minimizedRMSD -1
REMARK  0 active torsions:
REMARK  status: ('A' for Active; 'I' for Inactive)
ROOT
ATOM      1  C   UNL d   1      -1.816  -1.082   0.648  0.00  0.00     0.077 C 
ATOM      2  C1  UNL d   1      -0.558  -1.086  -0.169  0.00  0.00    -0.074 A 
ATOM      3  C2  UNL d   1       0.443  -0.134   0.048  0.00  0.00    -0.005 A 
ATOM      4  C3  UNL d   1       1.612  -0.156  -0.713  0.00  0.00     0.006 A 
ATOM      5  C4  UNL d   1       1.791  -1.129  -1.697  0.00  0.00    -0.005 A 
ATOM      6  C5  UNL d   1       0.802  -2.091  -1.927  0.00  0.00    -0.074 A 
ATOM      7  C6  UNL d   1       0.983  -3.150  -2.974  0.00  0.00     0.077 C 
ATOM      8  C7  UNL d   1      -0.367  -2.066  -1.154  0.00  0.00    -0.001 A 
ENDROOT
TORSDOF 0
ENDMDL
