MODEL 1
REMARK minimizedAffinity -0.726227105
REMARK minimizedRMSD -1
REMARK  0 active torsions:
REMARK  status: ('A' for Active; 'I' for Inactive)
ROOT
ATOM      1  C   UNL d   1       1.147  -4.925  -0.756  0.00  0.00     0.077 C 
ATOM      2  C1  UNL d   1       0.725  -3.624  -1.371  0.00  0.00    -0.074 A 
ATOM      3  C2  UNL d   1       0.328  -3.556  -2.710  0.00  0.00    -0.005 A 
ATOM      4  C3  UNL d   1      -0.071  -2.341  -3.265  0.00  0.00     0.006 A 
ATOM      5  C4  UNL d   1      -0.076  -1.182  -2.488  0.00  0.00    -0.005 A 
ATOM      6  C5  UNL d   1       0.317  -1.230  -1.147  0.00  0.00    -0.074 A 
ATOM      7  C6  UNL d   1       0.308   0.005  -0.295  0.00  0.00     0.077 C 
ATOM      8  C7  UNL d   1       0.710  -2.456  -0.594  0.00  0.00    -0.001 A 
ENDROOT
TORSDOF 0
ENDMDL
