MODEL 1
REMARK minimizedAffinity -4.47362947
REMARK minimizedRMSD -1
REMARK  0 active torsions:
REMARK  status: ('A' for Active; 'I' for Inactive)
ROOT
ATOM      1  C   UNL d   1       0.440  -1.006  -0.998  0.00  0.00     0.077 C 
ATOM      2  C1  UNL d   1      -0.043   0.068  -0.069  0.00  0.00    -0.074 A 
ATOM      3  C2  UNL d   1      -0.660  -0.254   1.144  0.00  0.00    -0.005 A 
ATOM      4  C3  UNL d   1      -1.096   0.756   2.001  0.00  0.00     0.006 A 
ATOM      5  C4  UNL d   1      -0.920   2.096   1.655  0.00  0.00    -0.005 A 
ATOM      6  C5  UNL d   1      -0.305   2.438   0.446  0.00  0.00    -0.074 A 
ATOM      7  C6  UNL d   1      -0.099   3.873   0.063  0.00  0.00     0.077 C 
ATOM      8  C7  UNL d   1       0.137   1.417  -0.407  0.00  0.00    -0.001 A 
ENDROOT
TORSDOF 0
ENDMDL
