MODEL 1
REMARK minimizedAffinity -3.28567839
REMARK minimizedRMSD -1
REMARK  0 active torsions:
REMARK  status: ('A' for Active; 'I' for Inactive)
ROOT
ATOM      1  C   UNL d   1       0.179   3.519  -0.033  0.00  0.00     0.077 C 
ATOM      2  C1  UNL d   1      -0.057   2.107   0.415  0.00  0.00    -0.074 A 
ATOM      3  C2  UNL d   1      -0.827   1.832   1.549  0.00  0.00    -0.005 A 
ATOM      4  C3  UNL d   1      -1.046   0.513   1.948  0.00  0.00     0.006 A 
ATOM      5  C4  UNL d   1      -0.497  -0.542   1.218  0.00  0.00    -0.005 A 
ATOM      6  C5  UNL d   1       0.275  -0.286   0.080  0.00  0.00    -0.074 A 
ATOM      7  C6  UNL d   1       0.863  -1.409  -0.722  0.00  0.00     0.077 C 
ATOM      8  C7  UNL d   1       0.484   1.041  -0.318  0.00  0.00    -0.001 A 
ENDROOT
TORSDOF 0
ENDMDL
