MODEL 1
REMARK minimizedAffinity -5.44816542
REMARK minimizedRMSD -1
REMARK  0 active torsions:
REMARK  status: ('A' for Active; 'I' for Inactive)
ROOT
ATOM      1  C   UNL d   1      -0.098   3.550  -0.317  0.00  0.00     0.077 C 
ATOM      2  C1  UNL d   1      -0.351   2.210   0.307  0.00  0.00    -0.074 A 
ATOM      3  C2  UNL d   1      -0.834   2.106   1.615  0.00  0.00    -0.005 A 
ATOM      4  C3  UNL d   1      -1.073   0.853   2.179  0.00  0.00     0.006 A 
ATOM      5  C4  UNL d   1      -0.832  -0.307   1.442  0.00  0.00    -0.005 A 
ATOM      6  C5  UNL d   1      -0.350  -0.223   0.132  0.00  0.00    -0.074 A 
ATOM      7  C6  UNL d   1      -0.095  -1.459  -0.678  0.00  0.00     0.077 C 
ATOM      8  C7  UNL d   1      -0.118   1.040  -0.430  0.00  0.00    -0.001 A 
ENDROOT
TORSDOF 0
ENDMDL
