MODEL 1
REMARK minimizedAffinity -2.43759251
REMARK minimizedRMSD -1
REMARK  0 active torsions:
REMARK  status: ('A' for Active; 'I' for Inactive)
ROOT
ATOM      1  C   UNL d   1      -0.015  -0.869   1.578  0.00  0.00     0.077 C 
ATOM      2  C1  UNL d   1      -0.220   0.581   1.253  0.00  0.00    -0.074 A 
ATOM      3  C2  UNL d   1      -0.830   1.444   2.169  0.00  0.00    -0.005 A 
ATOM      4  C3  UNL d   1      -1.005   2.792   1.857  0.00  0.00     0.006 A 
ATOM      5  C4  UNL d   1      -0.572   3.290   0.627  0.00  0.00    -0.005 A 
ATOM      6  C5  UNL d   1       0.041   2.443  -0.301  0.00  0.00    -0.074 A 
ATOM      7  C6  UNL d   1       0.521   2.964  -1.623  0.00  0.00     0.077 C 
ATOM      8  C7  UNL d   1       0.220   1.091   0.023  0.00  0.00    -0.001 A 
ENDROOT
TORSDOF 0
ENDMDL
