MODEL 1
REMARK minimizedAffinity -3.65709496
REMARK minimizedRMSD -1
REMARK  0 active torsions:
REMARK  status: ('A' for Active; 'I' for Inactive)
ROOT
ATOM      1  C   UNL d   1       0.998  -1.266  -0.736  0.00  0.00     0.077 C 
ATOM      2  C1  UNL d   1       0.570  -0.039   0.014  0.00  0.00    -0.074 A 
ATOM      3  C2  UNL d   1       0.031  -0.135   1.301  0.00  0.00    -0.005 A 
ATOM      4  C3  UNL d   1      -0.353   1.016   1.990  0.00  0.00     0.006 A 
ATOM      5  C4  UNL d   1      -0.203   2.271   1.400  0.00  0.00    -0.005 A 
ATOM      6  C5  UNL d   1       0.334   2.387   0.114  0.00  0.00    -0.074 A 
ATOM      7  C6  UNL d   1       0.511   3.729  -0.531  0.00  0.00     0.077 C 
ATOM      8  C7  UNL d   1       0.725   1.227  -0.569  0.00  0.00    -0.001 A 
ENDROOT
TORSDOF 0
ENDMDL
