MODEL 1
REMARK minimizedAffinity -4.31223631
REMARK minimizedRMSD -1
REMARK  0 active torsions:
REMARK  status: ('A' for Active; 'I' for Inactive)
ROOT
ATOM      1  C   UNL d   1       0.615  -0.720  -0.443  0.00  0.00     0.077 C 
ATOM      2  C1  UNL d   1       0.012   0.431   0.305  0.00  0.00    -0.074 A 
ATOM      3  C2  UNL d   1      -0.781   0.216   1.437  0.00  0.00    -0.005 A 
ATOM      4  C3  UNL d   1      -1.327   1.298   2.128  0.00  0.00     0.006 A 
ATOM      5  C4  UNL d   1      -1.087   2.602   1.695  0.00  0.00    -0.005 A 
ATOM      6  C5  UNL d   1      -0.297   2.836   0.566  0.00  0.00    -0.074 A 
ATOM      7  C6  UNL d   1      -0.021   4.233   0.092  0.00  0.00     0.077 C 
ATOM      8  C7  UNL d   1       0.255   1.745  -0.119  0.00  0.00    -0.001 A 
ENDROOT
TORSDOF 0
ENDMDL
