MODEL 1
REMARK minimizedAffinity -2.53967047
REMARK minimizedRMSD -1
REMARK  0 active torsions:
REMARK  status: ('A' for Active; 'I' for Inactive)
ROOT
ATOM      1  C   UNL d   1      -0.131  -2.025  -1.048  0.00  0.00     0.077 C 
ATOM      2  C1  UNL d   1       0.038  -0.582  -0.675  0.00  0.00    -0.074 A 
ATOM      3  C2  UNL d   1       0.686   0.311  -1.535  0.00  0.00    -0.005 A 
ATOM      4  C3  UNL d   1       0.828   1.652  -1.179  0.00  0.00     0.006 A 
ATOM      5  C4  UNL d   1       0.323   2.113   0.037  0.00  0.00    -0.005 A 
ATOM      6  C5  UNL d   1      -0.329   1.236   0.909  0.00  0.00    -0.074 A 
ATOM      7  C6  UNL d   1      -0.886   1.717   2.216  0.00  0.00     0.077 C 
ATOM      8  C7  UNL d   1      -0.473  -0.109   0.541  0.00  0.00    -0.001 A 
ENDROOT
TORSDOF 0
ENDMDL
