MODEL 1
REMARK minimizedAffinity 6.69676113
REMARK minimizedRMSD -1
REMARK  1 active torsions:
REMARK  status: ('A' for Active; 'I' for Inactive)
REMARK    1  A    between atoms: C1_2  and  C2_3 
ROOT
ATOM      1  C2  UNL d   1      -3.410  -2.094  -2.428  0.00  0.00    -0.076 A 
ATOM      2  C3  UNL d   1      -3.644  -2.031  -3.813  0.00  0.00     0.004 A 
ATOM      3  C4  UNL d   1      -4.215  -3.104  -4.494  0.00  0.00    -0.003 A 
ATOM      4  C5  UNL d   1      -4.562  -4.259  -3.802  0.00  0.00     0.000 A 
ATOM      5  C6  UNL d   1      -4.353  -4.333  -2.425  0.00  0.00     0.000 A 
ATOM      6  C7  UNL d   1      -3.793  -3.253  -1.720  0.00  0.00    -0.073 A 
ATOM      7  C8  UNL d   1      -3.585  -3.390  -0.237  0.00  0.00     0.078 C 
ENDROOT
BRANCH   1   8
ATOM      8  C1  UNL d   1      -2.763  -0.909  -1.748  0.00  0.00     0.053 C 
ATOM      9  C   UNL d   1      -3.092   0.408  -2.433  0.00  0.00     0.018 C 
ENDBRANCH   1   8
TORSDOF 1
ENDMDL
