MODEL 1
REMARK minimizedAffinity 8.19192314
REMARK minimizedRMSD -1
REMARK  1 active torsions:
REMARK  status: ('A' for Active; 'I' for Inactive)
REMARK    1  A    between atoms: C1_2  and  C2_3 
ROOT
ATOM      1  C2  UNL d   1      -3.584   0.592  -3.197  0.00  0.00    -0.076 A 
ATOM      2  C3  UNL d   1      -3.033   1.537  -2.314  0.00  0.00     0.004 A 
ATOM      3  C4  UNL d   1      -2.126   1.153  -1.327  0.00  0.00    -0.003 A 
ATOM      4  C5  UNL d   1      -1.755  -0.182  -1.209  0.00  0.00     0.000 A 
ATOM      5  C6  UNL d   1      -2.277  -1.130  -2.088  0.00  0.00     0.000 A 
ATOM      6  C7  UNL d   1      -3.180  -0.757  -3.099  0.00  0.00    -0.073 A 
ATOM      7  C8  UNL d   1      -3.717  -1.821  -4.016  0.00  0.00     0.078 C 
ENDROOT
BRANCH   1   8
ATOM      8  C1  UNL d   1      -4.583   1.063  -4.230  0.00  0.00     0.053 C 
ATOM      9  C   UNL d   1      -5.474   2.181  -3.711  0.00  0.00     0.018 C 
ENDBRANCH   1   8
TORSDOF 1
ENDMDL
