MODEL 1
REMARK minimizedAffinity 9.60214043
REMARK minimizedRMSD -1
REMARK  1 active torsions:
REMARK  status: ('A' for Active; 'I' for Inactive)
REMARK    1  A    between atoms: C1_2  and  C2_3 
ROOT
ATOM      1  C2  UNL d   1       2.495  -5.942  -0.457  0.00  0.00    -0.076 A 
ATOM      2  C3  UNL d   1       1.439  -5.984  -1.384  0.00  0.00     0.004 A 
ATOM      3  C4  UNL d   1       1.687  -5.994  -2.755  0.00  0.00    -0.003 A 
ATOM      4  C5  UNL d   1       2.997  -5.962  -3.222  0.00  0.00     0.000 A 
ATOM      5  C6  UNL d   1       4.057  -5.938  -2.318  0.00  0.00     0.000 A 
ATOM      6  C7  UNL d   1       3.825  -5.944  -0.932  0.00  0.00    -0.073 A 
ATOM      7  C8  UNL d   1       5.006  -5.911  -0.001  0.00  0.00     0.078 C 
ENDROOT
BRANCH   1   8
ATOM      8  C1  UNL d   1       2.164  -5.906   1.018  0.00  0.00     0.053 C 
ATOM      9  C   UNL d   1       0.670  -6.000   1.282  0.00  0.00     0.018 C 
ENDBRANCH   1   8
TORSDOF 1
ENDMDL
