MODEL 1
REMARK minimizedAffinity 5.79185009
REMARK minimizedRMSD -1
REMARK  1 active torsions:
REMARK  status: ('A' for Active; 'I' for Inactive)
REMARK    1  A    between atoms: C1_2  and  C2_3 
ROOT
ATOM      1  C2  UNL d   1       2.088  -3.975   1.735  0.00  0.00    -0.076 A 
ATOM      2  C3  UNL d   1       2.047  -3.677   0.362  0.00  0.00     0.004 A 
ATOM      3  C4  UNL d   1       2.641  -4.522  -0.574  0.00  0.00    -0.003 A 
ATOM      4  C5  UNL d   1       3.285  -5.679  -0.151  0.00  0.00     0.000 A 
ATOM      5  C6  UNL d   1       3.320  -6.000   1.206  0.00  0.00     0.000 A 
ATOM      6  C7  UNL d   1       2.712  -5.167   2.160  0.00  0.00    -0.073 A 
ATOM      7  C8  UNL d   1       2.786  -5.558   3.611  0.00  0.00     0.078 C 
ENDROOT
BRANCH   1   8
ATOM      8  C1  UNL d   1       1.449  -3.007   2.706  0.00  0.00     0.053 C 
ATOM      9  C   UNL d   1       1.426  -1.581   2.177  0.00  0.00     0.018 C 
ENDBRANCH   1   8
TORSDOF 1
ENDMDL
