MODEL 1
REMARK minimizedAffinity 4.21251488
REMARK minimizedRMSD -1
REMARK  1 active torsions:
REMARK  status: ('A' for Active; 'I' for Inactive)
REMARK    1  A    between atoms: C1_2  and  C2_3 
ROOT
ATOM      1  C2  UNL d   1       3.496  -5.960  -0.422  0.00  0.00    -0.076 A 
ATOM      2  C3  UNL d   1       3.572  -6.000   0.981  0.00  0.00     0.004 A 
ATOM      3  C4  UNL d   1       2.418  -5.962   1.763  0.00  0.00    -0.003 A 
ATOM      4  C5  UNL d   1       1.171  -5.885   1.154  0.00  0.00     0.000 A 
ATOM      5  C6  UNL d   1       1.076  -5.863  -0.237  0.00  0.00     0.000 A 
ATOM      6  C7  UNL d   1       2.228  -5.917  -1.040  0.00  0.00    -0.073 A 
ATOM      7  C8  UNL d   1       2.068  -5.884  -2.535  0.00  0.00     0.078 C 
ENDROOT
BRANCH   1   8
ATOM      8  C1  UNL d   1       4.782  -5.977  -1.217  0.00  0.00     0.053 C 
ATOM      9  C   UNL d   1       4.539  -5.962  -2.718  0.00  0.00     0.018 C 
ENDBRANCH   1   8
TORSDOF 1
ENDMDL
