MODEL 1
REMARK minimizedAffinity 11.7591276
REMARK minimizedRMSD -1
REMARK  1 active torsions:
REMARK  status: ('A' for Active; 'I' for Inactive)
REMARK    1  A    between atoms: C1_2  and  C2_3 
ROOT
ATOM      1  C2  UNL d   1       1.889  -3.454   3.426  0.00  0.00    -0.076 A 
ATOM      2  C3  UNL d   1       2.391  -2.655   2.384  0.00  0.00     0.004 A 
ATOM      3  C4  UNL d   1       2.104  -1.293   2.323  0.00  0.00    -0.003 A 
ATOM      4  C5  UNL d   1       1.311  -0.707   3.303  0.00  0.00     0.000 A 
ATOM      5  C6  UNL d   1       0.819  -1.481   4.354  0.00  0.00     0.000 A 
ATOM      6  C7  UNL d   1       1.113  -2.853   4.439  0.00  0.00    -0.073 A 
ATOM      7  C8  UNL d   1       0.551  -3.641   5.590  0.00  0.00     0.078 C 
ENDROOT
BRANCH   1   8
ATOM      8  C1  UNL d   1       2.211  -4.932   3.425  0.00  0.00     0.053 C 
ATOM      9  C   UNL d   1       2.289  -5.510   2.020  0.00  0.00     0.018 C 
ENDBRANCH   1   8
TORSDOF 1
ENDMDL
