MODEL 1
REMARK minimizedAffinity 3.4877317
REMARK minimizedRMSD -1
REMARK  1 active torsions:
REMARK  status: ('A' for Active; 'I' for Inactive)
REMARK    1  A    between atoms: C1_2  and  C2_3 
ROOT
ATOM      1  C2  UNL d   1       0.955   0.886   1.414  0.00  0.00    -0.076 A 
ATOM      2  C3  UNL d   1       2.194   0.307   1.738  0.00  0.00     0.004 A 
ATOM      3  C4  UNL d   1       2.290  -1.041   2.079  0.00  0.00    -0.003 A 
ATOM      4  C5  UNL d   1       1.147  -1.833   2.101  0.00  0.00     0.000 A 
ATOM      5  C6  UNL d   1      -0.088  -1.280   1.764  0.00  0.00     0.000 A 
ATOM      6  C7  UNL d   1      -0.199   0.073   1.402  0.00  0.00    -0.073 A 
ATOM      7  C8  UNL d   1      -1.558   0.619   1.055  0.00  0.00     0.078 C 
ENDROOT
BRANCH   1   8
ATOM      8  C1  UNL d   1       0.909   2.359   1.079  0.00  0.00     0.053 C 
ATOM      9  C   UNL d   1       2.141   2.822   0.317  0.00  0.00     0.018 C 
ENDBRANCH   1   8
TORSDOF 1
ENDMDL
