MODEL 1
REMARK minimizedAffinity 6.66659498
REMARK minimizedRMSD -1
REMARK  1 active torsions:
REMARK  status: ('A' for Active; 'I' for Inactive)
REMARK    1  A    between atoms: C1_2  and  C2_3 
ROOT
ATOM      1  C2  UNL d   1       0.167   0.787  -0.089  0.00  0.00    -0.076 A 
ATOM      2  C3  UNL d   1       0.441   0.113   1.114  0.00  0.00     0.004 A 
ATOM      3  C4  UNL d   1       1.054  -1.139   1.111  0.00  0.00    -0.003 A 
ATOM      4  C5  UNL d   1       1.404  -1.737  -0.095  0.00  0.00     0.000 A 
ATOM      5  C6  UNL d   1       1.155  -1.074  -1.297  0.00  0.00     0.000 A 
ATOM      6  C7  UNL d   1       0.553   0.195  -1.311  0.00  0.00    -0.073 A 
ATOM      7  C8  UNL d   1       0.303   0.861  -2.636  0.00  0.00     0.078 C 
ENDROOT
BRANCH   1   8
ATOM      8  C1  UNL d   1      -0.525   2.130  -0.025  0.00  0.00     0.053 C 
ATOM      9  C   UNL d   1       0.409   3.245   0.420  0.00  0.00     0.018 C 
ENDBRANCH   1   8
TORSDOF 1
ENDMDL
