MODEL 1
REMARK minimizedAffinity -2.71116543
REMARK minimizedRMSD -1
REMARK  1 active torsions:
REMARK  status: ('A' for Active; 'I' for Inactive)
REMARK    1  A    between atoms: C1_2  and  C2_3 
ROOT
ATOM      1  C2  UNL d   1       4.270  -3.144  -5.940  0.00  0.00    -0.076 A 
ATOM      2  C3  UNL d   1       2.921  -2.748  -5.959  0.00  0.00     0.004 A 
ATOM      3  C4  UNL d   1       1.896  -3.693  -5.989  0.00  0.00    -0.003 A 
ATOM      4  C5  UNL d   1       2.204  -5.049  -6.000  0.00  0.00     0.000 A 
ATOM      5  C6  UNL d   1       3.537  -5.460  -5.964  0.00  0.00     0.000 A 
ATOM      6  C7  UNL d   1       4.581  -4.520  -5.918  0.00  0.00    -0.073 A 
ATOM      7  C8  UNL d   1       6.000  -5.019  -5.886  0.00  0.00     0.078 C 
ENDROOT
BRANCH   1   8
ATOM      8  C1  UNL d   1       5.338  -2.074  -5.936  0.00  0.00     0.053 C 
ATOM      9  C   UNL d   1       4.779  -0.693  -5.629  0.00  0.00     0.018 C 
ENDBRANCH   1   8
TORSDOF 1
ENDMDL
