MODEL 1
REMARK minimizedAffinity 4.40620089
REMARK minimizedRMSD -1
REMARK  1 active torsions:
REMARK  status: ('A' for Active; 'I' for Inactive)
REMARK    1  A    between atoms: C1_2  and  C2_3 
ROOT
ATOM      1  C2  UNL d   1       5.425  -1.583  -5.017  0.00  0.00    -0.076 A 
ATOM      2  C3  UNL d   1       5.593  -2.574  -6.000  0.00  0.00     0.004 A 
ATOM      3  C4  UNL d   1       5.106  -3.866  -5.807  0.00  0.00    -0.003 A 
ATOM      4  C5  UNL d   1       4.442  -4.188  -4.628  0.00  0.00     0.000 A 
ATOM      5  C6  UNL d   1       4.252  -3.213  -3.650  0.00  0.00     0.000 A 
ATOM      6  C7  UNL d   1       4.722  -1.901  -3.835  0.00  0.00    -0.073 A 
ATOM      7  C8  UNL d   1       4.494  -0.892  -2.744  0.00  0.00     0.078 C 
ENDROOT
BRANCH   1   8
ATOM      8  C1  UNL d   1       5.999  -0.207  -5.270  0.00  0.00     0.053 C 
ATOM      9  C   UNL d   1       4.939   0.796  -5.699  0.00  0.00     0.018 C 
ENDBRANCH   1   8
TORSDOF 1
ENDMDL
