MODEL 1
REMARK minimizedAffinity -1.282287
REMARK minimizedRMSD -1
REMARK  0 active torsions:
REMARK  status: ('A' for Active; 'I' for Inactive)
ROOT
ATOM      1  C   UNL d   1       0.846   2.836  -0.256  0.00  0.00     0.078 C 
ATOM      2  C1  UNL d   1       0.820   1.350  -0.057  0.00  0.00    -0.077 A 
ATOM      3  C2  UNL d   1       2.006   0.622   0.098  0.00  0.00    -0.001 A 
ATOM      4  C3  UNL d   1       1.967  -0.762   0.273  0.00  0.00     0.003 A 
ATOM      5  C4  UNL d   1       0.745  -1.431   0.293  0.00  0.00    -0.005 A 
ATOM      6  C5  UNL d   1      -0.440  -0.716   0.137  0.00  0.00     0.003 A 
ATOM      7  C6  UNL d   1      -0.404   0.669  -0.038  0.00  0.00    -0.001 A 
ENDROOT
TORSDOF 0
ENDMDL
