MODEL 1
REMARK minimizedAffinity -5.63152075
REMARK minimizedRMSD -1
REMARK  0 active torsions:
REMARK  status: ('A' for Active; 'I' for Inactive)
ROOT
ATOM      1  C   UNL d   1       0.287  -0.940   0.060  0.00  0.00     0.078 C 
ATOM      2  C1  UNL d   1       0.231   0.558   0.052  0.00  0.00    -0.077 A 
ATOM      3  C2  UNL d   1       1.099   1.309  -0.749  0.00  0.00    -0.001 A 
ATOM      4  C3  UNL d   1       1.042   2.703  -0.739  0.00  0.00     0.003 A 
ATOM      5  C4  UNL d   1       0.119   3.360   0.072  0.00  0.00    -0.005 A 
ATOM      6  C5  UNL d   1      -0.749   2.622   0.875  0.00  0.00     0.003 A 
ATOM      7  C6  UNL d   1      -0.693   1.227   0.866  0.00  0.00    -0.001 A 
ENDROOT
TORSDOF 0
ENDMDL
