MODEL 1
REMARK minimizedAffinity -2.61806726
REMARK minimizedRMSD -1
REMARK  0 active torsions:
REMARK  status: ('A' for Active; 'I' for Inactive)
ROOT
ATOM      1  C   UNL d   1      -0.333  -2.017  -0.437  0.00  0.00     0.078 C 
ATOM      2  C1  UNL d   1       0.534  -0.795  -0.508  0.00  0.00    -0.077 A 
ATOM      3  C2  UNL d   1       0.214   0.268  -1.361  0.00  0.00    -0.001 A 
ATOM      4  C3  UNL d   1       1.035   1.395  -1.424  0.00  0.00     0.003 A 
ATOM      5  C4  UNL d   1       2.182   1.469  -0.637  0.00  0.00    -0.005 A 
ATOM      6  C5  UNL d   1       2.510   0.416   0.214  0.00  0.00     0.003 A 
ATOM      7  C6  UNL d   1       1.690  -0.712   0.278  0.00  0.00    -0.001 A 
ENDROOT
TORSDOF 0
ENDMDL
