MODEL 1
REMARK minimizedAffinity -0.411326975
REMARK minimizedRMSD -1
REMARK  0 active torsions:
REMARK  status: ('A' for Active; 'I' for Inactive)
ROOT
ATOM      1  C   UNL d   1       1.015  -1.379   0.126  0.00  0.00     0.078 C 
ATOM      2  C1  UNL d   1       0.377  -2.333  -0.839  0.00  0.00    -0.077 A 
ATOM      3  C2  UNL d   1      -0.871  -2.906  -0.568  0.00  0.00    -0.001 A 
ATOM      4  C3  UNL d   1      -1.449  -3.800  -1.471  0.00  0.00     0.003 A 
ATOM      5  C4  UNL d   1      -0.784  -4.130  -2.651  0.00  0.00    -0.005 A 
ATOM      6  C5  UNL d   1       0.459  -3.566  -2.928  0.00  0.00     0.003 A 
ATOM      7  C6  UNL d   1       1.038  -2.672  -2.026  0.00  0.00    -0.001 A 
ENDROOT
TORSDOF 0
ENDMDL
