MODEL 1
REMARK minimizedAffinity -2.56059003
REMARK minimizedRMSD -1
REMARK  0 active torsions:
REMARK  status: ('A' for Active; 'I' for Inactive)
ROOT
ATOM      1  C   UNL d   1       1.323  -0.857   0.023  0.00  0.00     0.078 C 
ATOM      2  C1  UNL d   1       0.475  -1.886  -0.664  0.00  0.00    -0.077 A 
ATOM      3  C2  UNL d   1      -0.692  -2.375  -0.065  0.00  0.00    -0.001 A 
ATOM      4  C3  UNL d   1      -1.466  -3.339  -0.711  0.00  0.00     0.003 A 
ATOM      5  C4  UNL d   1      -1.081  -3.824  -1.960  0.00  0.00    -0.005 A 
ATOM      6  C5  UNL d   1       0.080  -3.345  -2.563  0.00  0.00     0.003 A 
ATOM      7  C6  UNL d   1       0.855  -2.381  -1.918  0.00  0.00    -0.001 A 
ENDROOT
TORSDOF 0
ENDMDL
