MODEL 1
REMARK minimizedAffinity -4.48095322
REMARK minimizedRMSD -1
REMARK  0 active torsions:
REMARK  status: ('A' for Active; 'I' for Inactive)
ROOT
ATOM      1  C   UNL d   1      -3.705  -3.726  -0.590  0.00  0.00     0.078 C 
ATOM      2  C1  UNL d   1      -2.308  -3.361  -0.996  0.00  0.00    -0.077 A 
ATOM      3  C2  UNL d   1      -1.846  -3.611  -2.294  0.00  0.00    -0.001 A 
ATOM      4  C3  UNL d   1      -0.541  -3.276  -2.656  0.00  0.00     0.003 A 
ATOM      5  C4  UNL d   1       0.314  -2.689  -1.725  0.00  0.00    -0.005 A 
ATOM      6  C5  UNL d   1      -0.136  -2.438  -0.430  0.00  0.00     0.003 A 
ATOM      7  C6  UNL d   1      -1.441  -2.773  -0.067  0.00  0.00    -0.001 A 
ENDROOT
TORSDOF 0
ENDMDL
