MODEL 1
REMARK minimizedAffinity -5.07525158
REMARK minimizedRMSD -1
REMARK  0 active torsions:
REMARK  status: ('A' for Active; 'I' for Inactive)
ROOT
ATOM      1  C   UNL d   1      -1.500   0.322   1.110  0.00  0.00     0.078 C 
ATOM      2  C1  UNL d   1      -0.623   1.349   0.459  0.00  0.00    -0.077 A 
ATOM      3  C2  UNL d   1      -0.451   2.616   1.028  0.00  0.00    -0.001 A 
ATOM      4  C3  UNL d   1       0.361   3.566   0.406  0.00  0.00     0.003 A 
ATOM      5  C4  UNL d   1       1.007   3.258  -0.790  0.00  0.00    -0.005 A 
ATOM      6  C5  UNL d   1       0.840   2.000  -1.365  0.00  0.00     0.003 A 
ATOM      7  C6  UNL d   1       0.028   1.050  -0.745  0.00  0.00    -0.001 A 
ENDROOT
TORSDOF 0
ENDMDL
