MODEL 1
REMARK minimizedAffinity -5.43769217
REMARK minimizedRMSD -1
REMARK  0 active torsions:
REMARK  status: ('A' for Active; 'I' for Inactive)
ROOT
ATOM      1  C   UNL d   1      -0.036  -1.647  -0.279  0.00  0.00     0.078 C 
ATOM      2  C1  UNL d   1      -0.109  -0.159  -0.108  0.00  0.00    -0.077 A 
ATOM      3  C2  UNL d   1       0.997   0.654  -0.383  0.00  0.00    -0.001 A 
ATOM      4  C3  UNL d   1       0.918   2.037  -0.211  0.00  0.00     0.003 A 
ATOM      5  C4  UNL d   1      -0.266   2.619   0.239  0.00  0.00    -0.005 A 
ATOM      6  C5  UNL d   1      -1.371   1.818   0.517  0.00  0.00     0.003 A 
ATOM      7  C6  UNL d   1      -1.294   0.435   0.345  0.00  0.00    -0.001 A 
ENDROOT
TORSDOF 0
ENDMDL
