MODEL 1
REMARK minimizedAffinity -0.731625319
REMARK minimizedRMSD -1
REMARK  0 active torsions:
REMARK  status: ('A' for Active; 'I' for Inactive)
ROOT
ATOM      1  C   UNL d   1      -0.484   2.850   0.831  0.00  0.00     0.078 C 
ATOM      2  C1  UNL d   1      -0.222   1.436   0.405  0.00  0.00    -0.077 A 
ATOM      3  C2  UNL d   1      -1.236   0.654  -0.161  0.00  0.00    -0.001 A 
ATOM      4  C3  UNL d   1      -0.980  -0.664  -0.544  0.00  0.00     0.003 A 
ATOM      5  C4  UNL d   1       0.288  -1.211  -0.364  0.00  0.00    -0.005 A 
ATOM      6  C5  UNL d   1       1.303  -0.441   0.200  0.00  0.00     0.003 A 
ATOM      7  C6  UNL d   1       1.050   0.877   0.584  0.00  0.00    -0.001 A 
ENDROOT
TORSDOF 0
ENDMDL
