MODEL 1
REMARK minimizedAffinity -4.6306138
REMARK minimizedRMSD -1
REMARK  0 active torsions:
REMARK  status: ('A' for Active; 'I' for Inactive)
ROOT
ATOM      1  C   UNL d   1       0.021  -1.266   0.058  0.00  0.00     0.078 C 
ATOM      2  C1  UNL d   1      -0.053   0.231   0.034  0.00  0.00    -0.077 A 
ATOM      3  C2  UNL d   1       0.905   0.991  -0.648  0.00  0.00    -0.001 A 
ATOM      4  C3  UNL d   1       0.829   2.384  -0.653  0.00  0.00     0.003 A 
ATOM      5  C4  UNL d   1      -0.204   3.031   0.022  0.00  0.00    -0.005 A 
ATOM      6  C5  UNL d   1      -1.161   2.284   0.706  0.00  0.00     0.003 A 
ATOM      7  C6  UNL d   1      -1.086   0.890   0.713  0.00  0.00    -0.001 A 
ENDROOT
TORSDOF 0
ENDMDL
