MODEL 1
REMARK minimizedAffinity -2.67557049
REMARK minimizedRMSD -1
REMARK  0 active torsions:
REMARK  status: ('A' for Active; 'I' for Inactive)
ROOT
ATOM      1  C   UNL d   1      -0.363  -1.245  -0.044  0.00  0.00     0.078 C 
ATOM      2  C1  UNL d   1      -0.408   0.200   0.355  0.00  0.00    -0.077 A 
ATOM      3  C2  UNL d   1       0.638   1.071   0.027  0.00  0.00    -0.001 A 
ATOM      4  C3  UNL d   1       0.587   2.412   0.413  0.00  0.00     0.003 A 
ATOM      5  C4  UNL d   1      -0.507   2.893   1.130  0.00  0.00    -0.005 A 
ATOM      6  C5  UNL d   1      -1.552   2.033   1.462  0.00  0.00     0.003 A 
ATOM      7  C6  UNL d   1      -1.503   0.692   1.077  0.00  0.00    -0.001 A 
ENDROOT
TORSDOF 0
ENDMDL
