MODEL 1
REMARK minimizedAffinity -1.55719519
REMARK minimizedRMSD -1
REMARK  0 active torsions:
REMARK  status: ('A' for Active; 'I' for Inactive)
ROOT
ATOM      1  C   UNL d   1      -3.547  -3.988  -0.977  0.00  0.00     0.078 C 
ATOM      2  C1  UNL d   1      -2.178  -3.421  -1.208  0.00  0.00    -0.077 A 
ATOM      3  C2  UNL d   1      -1.668  -3.276  -2.504  0.00  0.00    -0.001 A 
ATOM      4  C3  UNL d   1      -0.388  -2.756  -2.704  0.00  0.00     0.003 A 
ATOM      5  C4  UNL d   1       0.393  -2.379  -1.613  0.00  0.00    -0.005 A 
ATOM      6  C5  UNL d   1      -0.106  -2.523  -0.320  0.00  0.00     0.003 A 
ATOM      7  C6  UNL d   1      -1.385  -3.042  -0.118  0.00  0.00    -0.001 A 
ENDROOT
TORSDOF 0
ENDMDL
