MODEL 1
REMARK minimizedAffinity -2.21131635
REMARK minimizedRMSD -1
REMARK  0 active torsions:
REMARK  status: ('A' for Active; 'I' for Inactive)
ROOT
ATOM      1  C   UNL d   1      -2.034   0.224   1.114  0.00  0.00     0.078 C 
ATOM      2  C1  UNL d   1      -1.210  -0.971   0.737  0.00  0.00    -0.077 A 
ATOM      3  C2  UNL d   1       0.136  -0.834   0.376  0.00  0.00    -0.001 A 
ATOM      4  C3  UNL d   1       0.888  -1.954   0.018  0.00  0.00     0.003 A 
ATOM      5  C4  UNL d   1       0.302  -3.218   0.015  0.00  0.00    -0.005 A 
ATOM      6  C5  UNL d   1      -1.037  -3.364   0.370  0.00  0.00     0.003 A 
ATOM      7  C6  UNL d   1      -1.791  -2.245   0.729  0.00  0.00    -0.001 A 
ENDROOT
TORSDOF 0
ENDMDL
