MODEL 1
REMARK minimizedAffinity -3.79884791
REMARK minimizedRMSD -1
REMARK  0 active torsions:
REMARK  status: ('A' for Active; 'I' for Inactive)
ROOT
ATOM      1  C   UNL d   1      -0.001   0.966  -0.397  0.00  0.00     0.078 C 
ATOM      2  C1  UNL d   1      -0.016  -0.492  -0.049  0.00  0.00    -0.077 A 
ATOM      3  C2  UNL d   1      -1.009  -1.026   0.781  0.00  0.00    -0.001 A 
ATOM      4  C3  UNL d   1      -1.004  -2.384   1.105  0.00  0.00     0.003 A 
ATOM      5  C4  UNL d   1      -0.008  -3.219   0.604  0.00  0.00    -0.005 A 
ATOM      6  C5  UNL d   1       0.986  -2.697  -0.222  0.00  0.00     0.003 A 
ATOM      7  C6  UNL d   1       0.983  -1.339  -0.546  0.00  0.00    -0.001 A 
ENDROOT
TORSDOF 0
ENDMDL
