MODEL 1
REMARK minimizedAffinity -4.72457647
REMARK minimizedRMSD -1
REMARK  0 active torsions:
REMARK  status: ('A' for Active; 'I' for Inactive)
ROOT
ATOM      1  C   UNL d   1       0.154   0.959  -0.085  0.00  0.00     0.078 C 
ATOM      2  C1  UNL d   1       0.047  -0.524   0.111  0.00  0.00    -0.077 A 
ATOM      3  C2  UNL d   1       0.597  -1.416  -0.817  0.00  0.00    -0.001 A 
ATOM      4  C3  UNL d   1       0.482  -2.794  -0.626  0.00  0.00     0.003 A 
ATOM      5  C4  UNL d   1      -0.185  -3.292   0.491  0.00  0.00    -0.005 A 
ATOM      6  C5  UNL d   1      -0.738  -2.412   1.419  0.00  0.00     0.003 A 
ATOM      7  C6  UNL d   1      -0.623  -1.034   1.230  0.00  0.00    -0.001 A 
ENDROOT
TORSDOF 0
ENDMDL
