MODEL 1
REMARK minimizedAffinity -5.35206223
REMARK minimizedRMSD -1
REMARK  0 active torsions:
REMARK  status: ('A' for Active; 'I' for Inactive)
ROOT
ATOM      1  C   UNL d   1       0.034   1.487   0.363  0.00  0.00     0.078 C 
ATOM      2  C1  UNL d   1       0.054  -0.006   0.223  0.00  0.00    -0.077 A 
ATOM      3  C2  UNL d   1      -0.417  -0.833   1.250  0.00  0.00    -0.001 A 
ATOM      4  C3  UNL d   1      -0.383  -2.221   1.110  0.00  0.00     0.003 A 
ATOM      5  C4  UNL d   1       0.124  -2.795  -0.054  0.00  0.00    -0.005 A 
ATOM      6  C5  UNL d   1       0.597  -1.980  -1.080  0.00  0.00     0.003 A 
ATOM      7  C6  UNL d   1       0.564  -0.592  -0.943  0.00  0.00    -0.001 A 
ENDROOT
TORSDOF 0
ENDMDL
