MODEL 1
REMARK minimizedAffinity -4.37826443
REMARK minimizedRMSD -1
REMARK  0 active torsions:
REMARK  status: ('A' for Active; 'I' for Inactive)
ROOT
ATOM      1  C   UNL d   1       0.720   1.356   0.300  0.00  0.00     0.078 C 
ATOM      2  C1  UNL d   1       0.246  -0.058   0.454  0.00  0.00    -0.077 A 
ATOM      3  C2  UNL d   1      -0.806  -0.376   1.322  0.00  0.00    -0.001 A 
ATOM      4  C3  UNL d   1      -1.230  -1.698   1.463  0.00  0.00     0.003 A 
ATOM      5  C4  UNL d   1      -0.608  -2.713   0.739  0.00  0.00    -0.005 A 
ATOM      6  C5  UNL d   1       0.441  -2.407  -0.125  0.00  0.00     0.003 A 
ATOM      7  C6  UNL d   1       0.867  -1.086  -0.267  0.00  0.00    -0.001 A 
ENDROOT
TORSDOF 0
ENDMDL
