MODEL 1
REMARK minimizedAffinity -2.39406228
REMARK minimizedRMSD -1
REMARK  0 active torsions:
REMARK  status: ('A' for Active; 'I' for Inactive)
ROOT
ATOM      1  C   UNL d   1      -0.747  -3.109   0.055  0.00  0.00     0.078 C 
ATOM      2  C1  UNL d   1      -0.284  -1.725  -0.291  0.00  0.00    -0.077 A 
ATOM      3  C2  UNL d   1      -0.281  -0.705   0.668  0.00  0.00    -0.001 A 
ATOM      4  C3  UNL d   1       0.144   0.581   0.329  0.00  0.00     0.003 A 
ATOM      5  C4  UNL d   1       0.568   0.858  -0.969  0.00  0.00    -0.005 A 
ATOM      6  C5  UNL d   1       0.566  -0.150  -1.931  0.00  0.00     0.003 A 
ATOM      7  C6  UNL d   1       0.141  -1.436  -1.594  0.00  0.00    -0.001 A 
ENDROOT
TORSDOF 0
ENDMDL
