MODEL 1
REMARK minimizedAffinity -4.04150629
REMARK minimizedRMSD -1
REMARK  0 active torsions:
REMARK  status: ('A' for Active; 'I' for Inactive)
ROOT
ATOM      1  C   UNL d   1      -0.062   0.685   0.780  0.00  0.00     0.078 C 
ATOM      2  C1  UNL d   1       0.014  -0.752   0.357  0.00  0.00    -0.077 A 
ATOM      3  C2  UNL d   1       0.031  -1.783   1.304  0.00  0.00    -0.001 A 
ATOM      4  C3  UNL d   1       0.112  -3.115   0.896  0.00  0.00     0.003 A 
ATOM      5  C4  UNL d   1       0.178  -3.429  -0.460  0.00  0.00    -0.005 A 
ATOM      6  C5  UNL d   1       0.164  -2.409  -1.410  0.00  0.00     0.003 A 
ATOM      7  C6  UNL d   1       0.083  -1.077  -1.004  0.00  0.00    -0.001 A 
ENDROOT
TORSDOF 0
ENDMDL
