MODEL 1
REMARK minimizedAffinity -5.40979958
REMARK minimizedRMSD -1
REMARK  0 active torsions:
REMARK  status: ('A' for Active; 'I' for Inactive)
ROOT
ATOM      1  C   UNL d   1      -0.326   0.653   0.001  0.00  0.00     0.078 C 
ATOM      2  C1  UNL d   1      -0.133  -0.833  -0.049  0.00  0.00    -0.077 A 
ATOM      3  C2  UNL d   1       0.136  -1.485  -1.259  0.00  0.00    -0.001 A 
ATOM      4  C3  UNL d   1       0.304  -2.870  -1.293  0.00  0.00     0.003 A 
ATOM      5  C4  UNL d   1       0.205  -3.615  -0.120  0.00  0.00    -0.005 A 
ATOM      6  C5  UNL d   1      -0.064  -2.976   1.089  0.00  0.00     0.003 A 
ATOM      7  C6  UNL d   1      -0.233  -1.591   1.124  0.00  0.00    -0.001 A 
ENDROOT
TORSDOF 0
ENDMDL
