MODEL 1
REMARK minimizedAffinity -5.63706398
REMARK minimizedRMSD -1
REMARK  0 active torsions:
REMARK  status: ('A' for Active; 'I' for Inactive)
ROOT
ATOM      1  C   UNL d   1       0.033   1.083   0.004  0.00  0.00     0.078 C 
ATOM      2  C1  UNL d   1      -0.156  -0.404  -0.022  0.00  0.00    -0.077 A 
ATOM      3  C2  UNL d   1      -1.024  -1.036   0.877  0.00  0.00    -0.001 A 
ATOM      4  C3  UNL d   1      -1.183  -2.422   0.848  0.00  0.00     0.003 A 
ATOM      5  C4  UNL d   1      -0.476  -3.189  -0.076  0.00  0.00    -0.005 A 
ATOM      6  C5  UNL d   1       0.393  -2.569  -0.972  0.00  0.00     0.003 A 
ATOM      7  C6  UNL d   1       0.553  -1.183  -0.945  0.00  0.00    -0.001 A 
ENDROOT
TORSDOF 0
ENDMDL
