MODEL 1
REMARK minimizedAffinity -5.26668406
REMARK minimizedRMSD -1
REMARK  0 active torsions:
REMARK  status: ('A' for Active; 'I' for Inactive)
ROOT
ATOM      1  C   UNL d   1       0.137   1.481  -0.397  0.00  0.00     0.078 C 
ATOM      2  C1  UNL d   1      -0.000   0.060   0.060  0.00  0.00    -0.077 A 
ATOM      3  C2  UNL d   1       0.979  -0.894  -0.244  0.00  0.00    -0.001 A 
ATOM      4  C3  UNL d   1       0.833  -2.216   0.179  0.00  0.00     0.003 A 
ATOM      5  C4  UNL d   1      -0.291  -2.597   0.908  0.00  0.00    -0.005 A 
ATOM      6  C5  UNL d   1      -1.272  -1.656   1.214  0.00  0.00     0.003 A 
ATOM      7  C6  UNL d   1      -1.128  -0.333   0.792  0.00  0.00    -0.001 A 
ENDROOT
TORSDOF 0
ENDMDL
