MODEL 1
REMARK minimizedAffinity -5.08796263
REMARK minimizedRMSD -1
REMARK  0 active torsions:
REMARK  status: ('A' for Active; 'I' for Inactive)
ROOT
ATOM      1  C   UNL d   1      -0.910   0.379   0.767  0.00  0.00     0.078 C 
ATOM      2  C1  UNL d   1      -0.712  -0.785  -0.158  0.00  0.00    -0.077 A 
ATOM      3  C2  UNL d   1      -1.070  -2.082   0.229  0.00  0.00    -0.001 A 
ATOM      4  C3  UNL d   1      -0.871  -3.158  -0.639  0.00  0.00     0.003 A 
ATOM      5  C4  UNL d   1      -0.313  -2.947  -1.898  0.00  0.00    -0.005 A 
ATOM      6  C5  UNL d   1       0.048  -1.659  -2.291  0.00  0.00     0.003 A 
ATOM      7  C6  UNL d   1      -0.150  -0.583  -1.425  0.00  0.00    -0.001 A 
ENDROOT
TORSDOF 0
ENDMDL
