MODEL 1
REMARK minimizedAffinity -5.20961237
REMARK minimizedRMSD -1
REMARK  0 active torsions:
REMARK  status: ('A' for Active; 'I' for Inactive)
ROOT
ATOM      1  C   UNL d   1       0.289  -3.140   0.370  0.00  0.00     0.078 C 
ATOM      2  C1  UNL d   1       0.057  -1.779  -0.215  0.00  0.00    -0.077 A 
ATOM      3  C2  UNL d   1      -0.329  -0.703   0.594  0.00  0.00    -0.001 A 
ATOM      4  C3  UNL d   1      -0.551   0.556   0.034  0.00  0.00     0.003 A 
ATOM      5  C4  UNL d   1      -0.392   0.751  -1.337  0.00  0.00    -0.005 A 
ATOM      6  C5  UNL d   1      -0.011  -0.315  -2.150  0.00  0.00     0.003 A 
ATOM      7  C6  UNL d   1       0.212  -1.575  -1.592  0.00  0.00    -0.001 A 
ENDROOT
TORSDOF 0
ENDMDL
