MODEL 1
REMARK minimizedAffinity -4.30581236
REMARK minimizedRMSD -1
REMARK  0 active torsions:
REMARK  status: ('A' for Active; 'I' for Inactive)
ROOT
ATOM      1  C   UNL d   1       0.080  -1.875  -2.750  0.00  0.00     0.078 C 
ATOM      2  C1  UNL d   1      -0.305  -1.281  -1.429  0.00  0.00    -0.077 A 
ATOM      3  C2  UNL d   1      -0.852  -2.075  -0.413  0.00  0.00    -0.001 A 
ATOM      4  C3  UNL d   1      -1.216  -1.507   0.809  0.00  0.00     0.003 A 
ATOM      5  C4  UNL d   1      -1.036  -0.142   1.027  0.00  0.00    -0.005 A 
ATOM      6  C5  UNL d   1      -0.494   0.656   0.022  0.00  0.00     0.003 A 
ATOM      7  C6  UNL d   1      -0.131   0.090  -1.201  0.00  0.00    -0.001 A 
ENDROOT
TORSDOF 0
ENDMDL
