MODEL 1
REMARK minimizedAffinity -2.61919332
REMARK minimizedRMSD -1
REMARK  1 active torsions:
REMARK  status: ('A' for Active; 'I' for Inactive)
REMARK    1  A    between atoms: C1_2  and  C2_3 
ROOT
ATOM      1  C2  UNL d   1       2.324   5.573   5.311  0.00  0.00    -0.077 A 
ATOM      2  C3  UNL d   1       3.378   4.958   6.000  0.00  0.00     0.002 A 
ATOM      3  C4  UNL d   1       4.611   4.761   5.375  0.00  0.00     0.002 A 
ATOM      4  C5  UNL d   1       4.802   5.181   4.060  0.00  0.00    -0.004 A 
ATOM      5  C6  UNL d   1       3.759   5.793   3.366  0.00  0.00     0.002 A 
ATOM      6  C7  UNL d   1       2.526   5.989   3.989  0.00  0.00     0.002 A 
ENDROOT
BRANCH   1   7
ATOM      7  C1  UNL d   1       1.009   5.831   6.000  0.00  0.00     0.055 C 
ATOM      8  C   UNL d   1      -0.120   6.000   4.993  0.00  0.00     0.019 C 
ENDBRANCH   1   7
TORSDOF 1
ENDMDL
