MODEL 1
REMARK minimizedAffinity 3.41375732
REMARK minimizedRMSD -1
REMARK  1 active torsions:
REMARK  status: ('A' for Active; 'I' for Inactive)
REMARK    1  A    between atoms: C1_2  and  C2_3 
ROOT
ATOM      1  C2  UNL d   1       2.780  -1.338  -1.098  0.00  0.00    -0.077 A 
ATOM      2  C3  UNL d   1       3.571  -0.924  -2.179  0.00  0.00     0.002 A 
ATOM      3  C4  UNL d   1       4.156   0.344  -2.180  0.00  0.00     0.002 A 
ATOM      4  C5  UNL d   1       3.959   1.205  -1.103  0.00  0.00    -0.004 A 
ATOM      5  C6  UNL d   1       3.172   0.803  -0.025  0.00  0.00     0.002 A 
ATOM      6  C7  UNL d   1       2.586  -0.464  -0.022  0.00  0.00     0.002 A 
ENDROOT
BRANCH   1   7
ATOM      7  C1  UNL d   1       2.189  -2.724  -1.072  0.00  0.00     0.055 C 
ATOM      8  C   UNL d   1       2.569  -3.464   0.202  0.00  0.00     0.019 C 
ENDBRANCH   1   7
TORSDOF 1
ENDMDL
