MODEL 1
REMARK minimizedAffinity 8.5754385
REMARK minimizedRMSD -1
REMARK  1 active torsions:
REMARK  status: ('A' for Active; 'I' for Inactive)
REMARK    1  A    between atoms: C1_2  and  C2_3 
ROOT
ATOM      1  C2  UNL d   1       3.780   2.269   2.136  0.00  0.00    -0.077 A 
ATOM      2  C3  UNL d   1       4.912   2.477   1.336  0.00  0.00     0.002 A 
ATOM      3  C4  UNL d   1       4.972   1.948   0.046  0.00  0.00     0.002 A 
ATOM      4  C5  UNL d   1       3.902   1.211  -0.457  0.00  0.00    -0.004 A 
ATOM      5  C6  UNL d   1       2.772   0.997   0.332  0.00  0.00     0.002 A 
ATOM      6  C7  UNL d   1       2.711   1.524   1.622  0.00  0.00     0.002 A 
ENDROOT
BRANCH   1   7
ATOM      7  C1  UNL d   1       3.693   2.881   3.510  0.00  0.00     0.055 C 
ATOM      8  C   UNL d   1       2.916   1.988   4.466  0.00  0.00     0.019 C 
ENDBRANCH   1   7
TORSDOF 1
ENDMDL
