MODEL 1
REMARK minimizedAffinity -0.6365816
REMARK minimizedRMSD -1
REMARK  1 active torsions:
REMARK  status: ('A' for Active; 'I' for Inactive)
REMARK    1  A    between atoms: C1_2  and  C2_3 
ROOT
ATOM      1  C2  UNL d   1      -3.234   2.353   2.334  0.00  0.00    -0.077 A 
ATOM      2  C3  UNL d   1      -1.916   2.316   1.857  0.00  0.00     0.002 A 
ATOM      3  C4  UNL d   1      -0.862   2.764   2.656  0.00  0.00     0.002 A 
ATOM      4  C5  UNL d   1      -1.115   3.247   3.938  0.00  0.00    -0.004 A 
ATOM      5  C6  UNL d   1      -2.422   3.289   4.421  0.00  0.00     0.002 A 
ATOM      6  C7  UNL d   1      -3.476   2.843   3.624  0.00  0.00     0.002 A 
ENDROOT
BRANCH   1   7
ATOM      7  C1  UNL d   1      -4.366   1.824   1.492  0.00  0.00     0.055 C 
ATOM      8  C   UNL d   1      -3.983   0.522   0.805  0.00  0.00     0.019 C 
ENDBRANCH   1   7
TORSDOF 1
ENDMDL
