MODEL 1
REMARK minimizedAffinity -2.36785483
REMARK minimizedRMSD -1
REMARK  1 active torsions:
REMARK  status: ('A' for Active; 'I' for Inactive)
REMARK    1  A    between atoms: C1_2  and  C2_3 
ROOT
ATOM      1  C2  UNL d   1       0.007   0.125  -0.140  0.00  0.00    -0.077 A 
ATOM      2  C3  UNL d   1       0.316  -0.558   1.044  0.00  0.00     0.002 A 
ATOM      3  C4  UNL d   1       1.408  -1.427   1.093  0.00  0.00     0.002 A 
ATOM      4  C5  UNL d   1       2.201  -1.617  -0.037  0.00  0.00    -0.004 A 
ATOM      5  C6  UNL d   1       1.900  -0.944  -1.220  0.00  0.00     0.002 A 
ATOM      6  C7  UNL d   1       0.808  -0.076  -1.271  0.00  0.00     0.002 A 
ENDROOT
BRANCH   1   7
ATOM      7  C1  UNL d   1      -1.141   1.101  -0.181  0.00  0.00     0.055 C 
ATOM      8  C   UNL d   1      -1.715   1.220  -1.585  0.00  0.00     0.019 C 
ENDBRANCH   1   7
TORSDOF 1
ENDMDL
