MODEL 1
REMARK minimizedAffinity -5.06637859
REMARK minimizedRMSD -1
REMARK  1 active torsions:
REMARK  status: ('A' for Active; 'I' for Inactive)
REMARK    1  A    between atoms: C1_2  and  C2_3 
ROOT
ATOM      1  C2  UNL d   1      -0.280   0.202   0.623  0.00  0.00    -0.077 A 
ATOM      2  C3  UNL d   1      -0.505  -0.498   1.817  0.00  0.00     0.002 A 
ATOM      3  C4  UNL d   1       0.383  -1.493   2.230  0.00  0.00     0.002 A 
ATOM      4  C5  UNL d   1       1.503  -1.794   1.459  0.00  0.00    -0.004 A 
ATOM      5  C6  UNL d   1       1.734  -1.105   0.269  0.00  0.00     0.002 A 
ATOM      6  C7  UNL d   1       0.847  -0.111  -0.147  0.00  0.00     0.002 A 
ENDROOT
BRANCH   1   7
ATOM      7  C1  UNL d   1      -1.210   1.309   0.200  0.00  0.00     0.055 C 
ATOM      8  C   UNL d   1      -1.576   1.192  -1.272  0.00  0.00     0.019 C 
ENDBRANCH   1   7
TORSDOF 1
ENDMDL
