MODEL 1
REMARK minimizedAffinity -1.41577363
REMARK minimizedRMSD -1
REMARK  1 active torsions:
REMARK  status: ('A' for Active; 'I' for Inactive)
REMARK    1  A    between atoms: C1_2  and  C2_3 
ROOT
ATOM      1  C2  UNL d   1      -0.753   1.047  -1.038  0.00  0.00    -0.077 A 
ATOM      2  C3  UNL d   1       0.219   0.499  -1.888  0.00  0.00     0.002 A 
ATOM      3  C4  UNL d   1       1.253  -0.282  -1.367  0.00  0.00     0.002 A 
ATOM      4  C5  UNL d   1       1.323  -0.523   0.003  0.00  0.00    -0.004 A 
ATOM      5  C6  UNL d   1       0.364   0.020   0.857  0.00  0.00     0.002 A 
ATOM      6  C7  UNL d   1      -0.670   0.801   0.338  0.00  0.00     0.002 A 
ENDROOT
BRANCH   1   7
ATOM      7  C1  UNL d   1      -1.897   1.848  -1.603  0.00  0.00     0.055 C 
ATOM      8  C   UNL d   1      -1.437   2.736  -2.751  0.00  0.00     0.019 C 
ENDBRANCH   1   7
TORSDOF 1
ENDMDL
