MODEL 1
REMARK minimizedAffinity -4.71775579
REMARK minimizedRMSD -1
REMARK  1 active torsions:
REMARK  status: ('A' for Active; 'I' for Inactive)
REMARK    1  A    between atoms: C1_2  and  C2_3 
ROOT
ATOM      1  C2  UNL d   1      -0.550   0.684  -1.839  0.00  0.00    -0.077 A 
ATOM      2  C3  UNL d   1      -0.786   1.065  -0.510  0.00  0.00     0.002 A 
ATOM      3  C4  UNL d   1       0.068   0.639   0.509  0.00  0.00     0.002 A 
ATOM      4  C5  UNL d   1       1.165  -0.166   0.210  0.00  0.00    -0.004 A 
ATOM      5  C6  UNL d   1       1.407  -0.552  -1.108  0.00  0.00     0.002 A 
ATOM      6  C7  UNL d   1       0.554  -0.129  -2.128  0.00  0.00     0.002 A 
ENDROOT
BRANCH   1   7
ATOM      7  C1  UNL d   1      -1.442   1.182  -2.946  0.00  0.00     0.055 C 
ATOM      8  C   UNL d   1      -2.894   1.252  -2.498  0.00  0.00     0.019 C 
ENDBRANCH   1   7
TORSDOF 1
ENDMDL
