MODEL 1
REMARK minimizedAffinity -0.335497022
REMARK minimizedRMSD -1
REMARK  1 active torsions:
REMARK  status: ('A' for Active; 'I' for Inactive)
REMARK    1  A    between atoms: C1_2  and  C2_3 
ROOT
ATOM      1  C2  UNL d   1      -0.484   1.128  -0.744  0.00  0.00    -0.077 A 
ATOM      2  C3  UNL d   1      -0.904   0.144   0.162  0.00  0.00     0.002 A 
ATOM      3  C4  UNL d   1       0.018  -0.750   0.711  0.00  0.00     0.002 A 
ATOM      4  C5  UNL d   1       1.364  -0.667   0.363  0.00  0.00    -0.004 A 
ATOM      5  C6  UNL d   1       1.791   0.307  -0.539  0.00  0.00     0.002 A 
ATOM      6  C7  UNL d   1       0.871   1.201  -1.090  0.00  0.00     0.002 A 
ENDROOT
BRANCH   1   7
ATOM      7  C1  UNL d   1      -1.468   2.124  -1.299  0.00  0.00     0.055 C 
ATOM      8  C   UNL d   1      -2.425   1.468  -2.284  0.00  0.00     0.019 C 
ENDBRANCH   1   7
TORSDOF 1
ENDMDL
