MODEL 1
REMARK minimizedAffinity -4.23954058
REMARK minimizedRMSD -1
REMARK  1 active torsions:
REMARK  status: ('A' for Active; 'I' for Inactive)
REMARK    1  A    between atoms: C1_2  and  C2_3 
ROOT
ATOM      1  C2  UNL d   1      -0.194  -0.522   1.440  0.00  0.00    -0.077 A 
ATOM      2  C3  UNL d   1       0.993  -1.236   1.226  0.00  0.00     0.002 A 
ATOM      3  C4  UNL d   1       1.850  -0.885   0.181  0.00  0.00     0.002 A 
ATOM      4  C5  UNL d   1       1.530   0.182  -0.656  0.00  0.00    -0.004 A 
ATOM      5  C6  UNL d   1       0.350   0.897  -0.453  0.00  0.00     0.002 A 
ATOM      6  C7  UNL d   1      -0.508   0.547   0.591  0.00  0.00     0.002 A 
ENDROOT
BRANCH   1   7
ATOM      7  C1  UNL d   1      -1.095  -0.867   2.597  0.00  0.00     0.055 C 
ATOM      8  C   UNL d   1      -0.413  -1.824   3.563  0.00  0.00     0.019 C 
ENDBRANCH   1   7
TORSDOF 1
ENDMDL
