MODEL 1
REMARK minimizedAffinity -4.69507408
REMARK minimizedRMSD -1
REMARK  1 active torsions:
REMARK  status: ('A' for Active; 'I' for Inactive)
REMARK    1  A    between atoms: C1_2  and  C2_3 
ROOT
ATOM      1  C2  UNL d   1      -0.909   0.307  -2.026  0.00  0.00    -0.077 A 
ATOM      2  C3  UNL d   1       0.035  -0.728  -2.091  0.00  0.00     0.002 A 
ATOM      3  C4  UNL d   1       0.967  -0.899  -1.065  0.00  0.00     0.002 A 
ATOM      4  C5  UNL d   1       0.960  -0.044   0.034  0.00  0.00    -0.004 A 
ATOM      5  C6  UNL d   1       0.026   0.989   0.108  0.00  0.00     0.002 A 
ATOM      6  C7  UNL d   1      -0.905   1.163  -0.917  0.00  0.00     0.002 A 
ENDROOT
BRANCH   1   7
ATOM      7  C1  UNL d   1      -1.946   0.463  -3.107  0.00  0.00     0.055 C 
ATOM      8  C   UNL d   1      -2.393   1.911  -3.240  0.00  0.00     0.019 C 
ENDBRANCH   1   7
TORSDOF 1
ENDMDL
