MODEL 1
REMARK minimizedAffinity -3.54533362
REMARK minimizedRMSD -1
REMARK  1 active torsions:
REMARK  status: ('A' for Active; 'I' for Inactive)
REMARK    1  A    between atoms: C1_2  and  C2_3 
ROOT
ATOM      1  C2  UNL d   1       0.934  -0.567   0.252  0.00  0.00    -0.077 A 
ATOM      2  C3  UNL d   1      -0.155   0.038   0.895  0.00  0.00     0.002 A 
ATOM      3  C4  UNL d   1      -1.115   0.733   0.157  0.00  0.00     0.002 A 
ATOM      4  C5  UNL d   1      -0.998   0.826  -1.229  0.00  0.00    -0.004 A 
ATOM      5  C6  UNL d   1       0.083   0.230  -1.878  0.00  0.00     0.002 A 
ATOM      6  C7  UNL d   1       1.044  -0.464  -1.141  0.00  0.00     0.002 A 
ENDROOT
BRANCH   1   7
ATOM      7  C1  UNL d   1       1.944  -1.358   1.041  0.00  0.00     0.055 C 
ATOM      8  C   UNL d   1       1.364  -1.829   2.367  0.00  0.00     0.019 C 
ENDBRANCH   1   7
TORSDOF 1
ENDMDL
