MODEL 1
REMARK minimizedAffinity -3.10584641
REMARK minimizedRMSD -1
REMARK  1 active torsions:
REMARK  status: ('A' for Active; 'I' for Inactive)
REMARK    1  A    between atoms: C1_2  and  C2_3 
ROOT
ATOM      1  C2  UNL d   1      -0.182  -0.003  -0.465  0.00  0.00    -0.077 A 
ATOM      2  C3  UNL d   1       0.189  -0.445   0.813  0.00  0.00     0.002 A 
ATOM      3  C4  UNL d   1       1.383  -1.145   0.999  0.00  0.00     0.002 A 
ATOM      4  C5  UNL d   1       2.216  -1.405  -0.087  0.00  0.00    -0.004 A 
ATOM      5  C6  UNL d   1       1.855  -0.972  -1.362  0.00  0.00     0.002 A 
ATOM      6  C7  UNL d   1       0.661  -0.273  -1.550  0.00  0.00     0.002 A 
ENDROOT
BRANCH   1   7
ATOM      7  C1  UNL d   1      -1.445   0.795  -0.659  0.00  0.00     0.055 C 
ATOM      8  C   UNL d   1      -1.422   1.555  -1.978  0.00  0.00     0.019 C 
ENDBRANCH   1   7
TORSDOF 1
ENDMDL
