MODEL 1
REMARK minimizedAffinity -4.33127022
REMARK minimizedRMSD -1
REMARK  1 active torsions:
REMARK  status: ('A' for Active; 'I' for Inactive)
REMARK    1  A    between atoms: C1_2  and  C2_3 
ROOT
ATOM      1  C2  UNL d   1       0.469  -0.254   0.888  0.00  0.00    -0.077 A 
ATOM      2  C3  UNL d   1      -0.608  -0.345   1.781  0.00  0.00     0.002 A 
ATOM      3  C4  UNL d   1      -0.529  -1.178   2.899  0.00  0.00     0.002 A 
ATOM      4  C5  UNL d   1       0.625  -1.921   3.137  0.00  0.00    -0.004 A 
ATOM      5  C6  UNL d   1       1.700  -1.839   2.254  0.00  0.00     0.002 A 
ATOM      6  C7  UNL d   1       1.623  -1.008   1.135  0.00  0.00     0.002 A 
ENDROOT
BRANCH   1   7
ATOM      7  C1  UNL d   1       0.405   0.680  -0.292  0.00  0.00     0.055 C 
ATOM      8  C   UNL d   1      -0.987   1.273  -0.454  0.00  0.00     0.019 C 
ENDBRANCH   1   7
TORSDOF 1
ENDMDL
