MODEL 1
REMARK minimizedAffinity -1.6540724
REMARK minimizedRMSD -1
REMARK  1 active torsions:
REMARK  status: ('A' for Active; 'I' for Inactive)
REMARK    1  A    between atoms: C1_2  and  C2_3 
ROOT
ATOM      1  C2  UNL d   1      -0.972   0.827  -1.059  0.00  0.00    -0.077 A 
ATOM      2  C3  UNL d   1      -0.254   1.596  -0.133  0.00  0.00     0.002 A 
ATOM      3  C4  UNL d   1       1.037   1.224   0.244  0.00  0.00     0.002 A 
ATOM      4  C5  UNL d   1       1.624   0.085  -0.303  0.00  0.00    -0.004 A 
ATOM      5  C6  UNL d   1       0.917  -0.688  -1.223  0.00  0.00     0.002 A 
ATOM      6  C7  UNL d   1      -0.374  -0.318  -1.601  0.00  0.00     0.002 A 
ENDROOT
BRANCH   1   7
ATOM      7  C1  UNL d   1      -2.347   1.254  -1.504  0.00  0.00     0.055 C 
ATOM      8  C   UNL d   1      -2.303   1.924  -2.870  0.00  0.00     0.019 C 
ENDBRANCH   1   7
TORSDOF 1
ENDMDL
