MODEL 1
REMARK minimizedAffinity 6.69658804
REMARK minimizedRMSD -1
REMARK  1 active torsions:
REMARK  status: ('A' for Active; 'I' for Inactive)
REMARK    1  A    between atoms: C1_2  and  C2_3 
ROOT
ATOM      1  C2  UNL d   1       3.289   5.556   5.117  0.00  0.00    -0.077 A 
ATOM      2  C3  UNL d   1       4.289   5.998   5.994  0.00  0.00     0.002 A 
ATOM      3  C4  UNL d   1       5.634   5.922   5.628  0.00  0.00     0.002 A 
ATOM      4  C5  UNL d   1       5.991   5.408   4.383  0.00  0.00    -0.004 A 
ATOM      5  C6  UNL d   1       5.004   4.964   3.504  0.00  0.00     0.002 A 
ATOM      6  C7  UNL d   1       3.659   5.038   3.869  0.00  0.00     0.002 A 
ENDROOT
BRANCH   1   7
ATOM      7  C1  UNL d   1       1.835   5.683   5.490  0.00  0.00     0.055 C 
ATOM      8  C   UNL d   1       0.975   5.984   4.272  0.00  0.00     0.019 C 
ENDBRANCH   1   7
TORSDOF 1
ENDMDL
