MODEL 1
REMARK minimizedAffinity 3.81818438
REMARK minimizedRMSD -1
REMARK  1 active torsions:
REMARK  status: ('A' for Active; 'I' for Inactive)
REMARK    1  A    between atoms: C1_2  and  C2_3 
ROOT
ATOM      1  C2  UNL d   1      -2.359   2.811  -4.040  0.00  0.00    -0.077 A 
ATOM      2  C3  UNL d   1      -2.347   4.087  -4.619  0.00  0.00     0.002 A 
ATOM      3  C4  UNL d   1      -1.232   4.528  -5.334  0.00  0.00     0.002 A 
ATOM      4  C5  UNL d   1      -0.123   3.698  -5.480  0.00  0.00    -0.004 A 
ATOM      5  C6  UNL d   1      -0.124   2.427  -4.907  0.00  0.00     0.002 A 
ATOM      6  C7  UNL d   1      -1.237   1.985  -4.190  0.00  0.00     0.002 A 
ENDROOT
BRANCH   1   7
ATOM      7  C1  UNL d   1      -3.580   2.315  -3.310  0.00  0.00     0.055 C 
ATOM      8  C   UNL d   1      -3.784   3.063  -2.000  0.00  0.00     0.019 C 
ENDBRANCH   1   7
TORSDOF 1
ENDMDL
