MODEL 1
REMARK minimizedAffinity 0.452086926
REMARK minimizedRMSD -1
REMARK  1 active torsions:
REMARK  status: ('A' for Active; 'I' for Inactive)
REMARK    1  A    between atoms: C1_2  and  C2_3 
ROOT
ATOM      1  C2  UNL d   1      -1.624   2.410  -4.196  0.00  0.00    -0.077 A 
ATOM      2  C3  UNL d   1      -2.114   1.193  -3.700  0.00  0.00     0.002 A 
ATOM      3  C4  UNL d   1      -3.367   1.134  -3.087  0.00  0.00     0.002 A 
ATOM      4  C5  UNL d   1      -4.141   2.286  -2.967  0.00  0.00    -0.004 A 
ATOM      5  C6  UNL d   1      -3.661   3.501  -3.455  0.00  0.00     0.002 A 
ATOM      6  C7  UNL d   1      -2.409   3.563  -4.068  0.00  0.00     0.002 A 
ENDROOT
BRANCH   1   7
ATOM      7  C1  UNL d   1      -0.294   2.466  -4.901  0.00  0.00     0.055 C 
ATOM      8  C   UNL d   1      -0.284   3.541  -5.979  0.00  0.00     0.019 C 
ENDBRANCH   1   7
TORSDOF 1
ENDMDL
