MODEL 1
REMARK minimizedAffinity 5.31715965
REMARK minimizedRMSD -1
REMARK  1 active torsions:
REMARK  status: ('A' for Active; 'I' for Inactive)
REMARK    1  A    between atoms: C1_2  and  C2_3 
ROOT
ATOM      1  C2  UNL d   1       1.177  -2.910   0.557  0.00  0.00    -0.077 A 
ATOM      2  C3  UNL d   1       0.052  -3.732   0.396  0.00  0.00     0.002 A 
ATOM      3  C4  UNL d   1      -1.119  -3.474   1.110  0.00  0.00     0.002 A 
ATOM      4  C5  UNL d   1      -1.179  -2.392   1.986  0.00  0.00    -0.004 A 
ATOM      5  C6  UNL d   1      -0.066  -1.571   2.155  0.00  0.00     0.002 A 
ATOM      6  C7  UNL d   1       1.107  -1.828   1.443  0.00  0.00     0.002 A 
ENDROOT
BRANCH   1   7
ATOM      7  C1  UNL d   1       2.425  -3.158  -0.249  0.00  0.00     0.055 C 
ATOM      8  C   UNL d   1       3.470  -3.908   0.565  0.00  0.00     0.019 C 
ENDBRANCH   1   7
TORSDOF 1
ENDMDL
