MODEL 1
REMARK minimizedAffinity 6.2296114
REMARK minimizedRMSD -1
REMARK  1 active torsions:
REMARK  status: ('A' for Active; 'I' for Inactive)
REMARK    1  A    between atoms: C1_2  and  C2_3 
ROOT
ATOM      1  C2  UNL d   1      -2.229   2.929  -3.041  0.00  0.00    -0.077 A 
ATOM      2  C3  UNL d   1      -3.476   2.323  -3.247  0.00  0.00     0.002 A 
ATOM      3  C4  UNL d   1      -4.345   2.112  -2.175  0.00  0.00     0.002 A 
ATOM      4  C5  UNL d   1      -3.978   2.507  -0.890  0.00  0.00    -0.004 A 
ATOM      5  C6  UNL d   1      -2.739   3.108  -0.674  0.00  0.00     0.002 A 
ATOM      6  C7  UNL d   1      -1.869   3.319  -1.744  0.00  0.00     0.002 A 
ENDROOT
BRANCH   1   7
ATOM      7  C1  UNL d   1      -1.311   3.203  -4.203  0.00  0.00     0.055 C 
ATOM      8  C   UNL d   1      -1.339   4.673  -4.596  0.00  0.00     0.019 C 
ENDBRANCH   1   7
TORSDOF 1
ENDMDL
