MODEL 1
REMARK minimizedAffinity 8.76367188
REMARK minimizedRMSD -1
REMARK  1 active torsions:
REMARK  status: ('A' for Active; 'I' for Inactive)
REMARK    1  A    between atoms: C1_2  and  C2_3 
ROOT
ATOM      1  C2  UNL d   1       3.765  -3.922   2.062  0.00  0.00    -0.077 A 
ATOM      2  C3  UNL d   1       4.149  -3.989   0.715  0.00  0.00     0.002 A 
ATOM      3  C4  UNL d   1       3.375  -3.373  -0.271  0.00  0.00     0.002 A 
ATOM      4  C5  UNL d   1       2.216  -2.683   0.080  0.00  0.00    -0.004 A 
ATOM      5  C6  UNL d   1       1.825  -2.613   1.416  0.00  0.00     0.002 A 
ATOM      6  C7  UNL d   1       2.597  -3.229   2.403  0.00  0.00     0.002 A 
ENDROOT
BRANCH   1   7
ATOM      7  C1  UNL d   1       4.624  -4.543   3.132  0.00  0.00     0.055 C 
ATOM      8  C   UNL d   1       4.794  -3.606   4.319  0.00  0.00     0.019 C 
ENDBRANCH   1   7
TORSDOF 1
ENDMDL
