MODEL 1
REMARK minimizedAffinity 3.9719398
REMARK minimizedRMSD -1
REMARK  1 active torsions:
REMARK  status: ('A' for Active; 'I' for Inactive)
REMARK    1  A    between atoms: C1_2  and  C2_3 
ROOT
ATOM      1  C2  UNL d   1      -1.903   3.372  -4.107  0.00  0.00    -0.077 A 
ATOM      2  C3  UNL d   1      -0.927   2.447  -4.505  0.00  0.00     0.002 A 
ATOM      3  C4  UNL d   1       0.039   2.802  -5.448  0.00  0.00     0.002 A 
ATOM      4  C5  UNL d   1       0.042   4.083  -5.997  0.00  0.00    -0.004 A 
ATOM      5  C6  UNL d   1      -0.925   5.009  -5.608  0.00  0.00     0.002 A 
ATOM      6  C7  UNL d   1      -1.893   4.655  -4.667  0.00  0.00     0.002 A 
ENDROOT
BRANCH   1   7
ATOM      7  C1  UNL d   1      -2.916   3.006  -3.054  0.00  0.00     0.055 C 
ATOM      8  C   UNL d   1      -4.028   2.142  -3.632  0.00  0.00     0.019 C 
ENDBRANCH   1   7
TORSDOF 1
ENDMDL
