MODEL 1
REMARK minimizedAffinity 11.4210215
REMARK minimizedRMSD -1
REMARK  1 active torsions:
REMARK  status: ('A' for Active; 'I' for Inactive)
REMARK    1  A    between atoms: C1_2  and  C2_3 
ROOT
ATOM      1  C2  UNL d   1       3.562  -4.018   0.005  0.00  0.00    -0.077 A 
ATOM      2  C3  UNL d   1       2.593  -3.601  -0.918  0.00  0.00     0.002 A 
ATOM      3  C4  UNL d   1       1.504  -2.834  -0.501  0.00  0.00     0.002 A 
ATOM      4  C5  UNL d   1       1.375  -2.474   0.838  0.00  0.00    -0.004 A 
ATOM      5  C6  UNL d   1       2.332  -2.886   1.765  0.00  0.00     0.002 A 
ATOM      6  C7  UNL d   1       3.421  -3.654   1.351  0.00  0.00     0.002 A 
ENDROOT
BRANCH   1   7
ATOM      7  C1  UNL d   1       4.763  -4.804  -0.451  0.00  0.00     0.055 C 
ATOM      8  C   UNL d   1       6.000  -4.445   0.360  0.00  0.00     0.019 C 
ENDBRANCH   1   7
TORSDOF 1
ENDMDL
