MODEL 1
REMARK minimizedAffinity -3.63830471
REMARK minimizedRMSD -1
REMARK  1 active torsions:
REMARK  status: ('A' for Active; 'I' for Inactive)
REMARK    1  A    between atoms: C1_2  and  C2_3 
ROOT
ATOM      1  C2  UNL d   1       0.775  -1.821   0.729  0.00  0.00    -0.077 A 
ATOM      2  C3  UNL d   1       1.332  -0.583   1.078  0.00  0.00     0.002 A 
ATOM      3  C4  UNL d   1       0.577   0.359   1.780  0.00  0.00     0.002 A 
ATOM      4  C5  UNL d   1      -0.737   0.070   2.143  0.00  0.00    -0.004 A 
ATOM      5  C6  UNL d   1      -1.300  -1.158   1.799  0.00  0.00     0.002 A 
ATOM      6  C7  UNL d   1      -0.547  -2.100   1.096  0.00  0.00     0.002 A 
ENDROOT
BRANCH   1   7
ATOM      7  C1  UNL d   1       1.604  -2.857   0.015  0.00  0.00     0.055 C 
ATOM      8  C   UNL d   1       2.696  -3.411   0.918  0.00  0.00     0.019 C 
ENDBRANCH   1   7
TORSDOF 1
ENDMDL
