MODEL 1
REMARK minimizedAffinity 3.18373108
REMARK minimizedRMSD -1
REMARK  1 active torsions:
REMARK  status: ('A' for Active; 'I' for Inactive)
REMARK    1  A    between atoms: C1_2  and  C2_3 
ROOT
ATOM      1  C2  UNL d   1      -2.015   3.012  -4.037  0.00  0.00    -0.077 A 
ATOM      2  C3  UNL d   1      -2.203   4.168  -4.807  0.00  0.00     0.002 A 
ATOM      3  C4  UNL d   1      -1.244   4.556  -5.745  0.00  0.00     0.002 A 
ATOM      4  C5  UNL d   1      -0.093   3.791  -5.924  0.00  0.00    -0.004 A 
ATOM      5  C6  UNL d   1       0.105   2.641  -5.161  0.00  0.00     0.002 A 
ATOM      6  C7  UNL d   1      -0.852   2.252  -4.222  0.00  0.00     0.002 A 
ENDROOT
BRANCH   1   7
ATOM      7  C1  UNL d   1      -3.071   2.565  -3.060  0.00  0.00     0.055 C 
ATOM      8  C   UNL d   1      -4.200   1.828  -3.765  0.00  0.00     0.019 C 
ENDBRANCH   1   7
TORSDOF 1
ENDMDL
