MODEL 1
REMARK minimizedAffinity -2.3697989
REMARK minimizedRMSD -1
REMARK  0 active torsions:
REMARK  status: ('A' for Active; 'I' for Inactive)
ROOT
ATOM      1  C1  DEN d   1      -1.750  -0.891   1.659  0.00  0.00     0.130 A 
ATOM      2  C2  DEN d   1      -1.353  -2.262   1.970  0.00  0.00    -0.031 A 
ATOM      3  C3  DEN d   1      -0.054  -2.520   1.316  0.00  0.00     0.027 A 
ATOM      4  C4  DEN d   1       1.374  -0.938  -0.136  0.00  0.00     0.027 A 
ATOM      5  C5  DEN d   1       1.444   0.322  -0.689  0.00  0.00    -0.003 A 
ATOM      6  C6  DEN d   1       0.446   1.247  -0.527  0.00  0.00     0.001 A 
ATOM      7  C7  DEN d   1      -0.645   0.941   0.243  0.00  0.00     0.017 A 
ATOM      8  C8  DEN d   1      -0.725  -0.330   0.798  0.00  0.00    -0.094 A 
ATOM      9  C9  DEN d   1       0.299  -1.247   0.632  0.00  0.00    -0.072 A 
ENDROOT
TORSDOF 0
ENDMDL
