MODEL 1
REMARK minimizedAffinity -6.75164175
REMARK minimizedRMSD -1
REMARK  0 active torsions:
REMARK  status: ('A' for Active; 'I' for Inactive)
ROOT
ATOM      1  C1  DEN d   1      -0.275   1.020   0.328  0.00  0.00     0.130 A 
ATOM      2  C2  DEN d   1       0.946   0.397  -0.175  0.00  0.00    -0.031 A 
ATOM      3  C3  DEN d   1       0.866  -1.052   0.101  0.00  0.00     0.027 A 
ATOM      4  C4  DEN d   1      -1.022  -2.383   1.247  0.00  0.00     0.027 A 
ATOM      5  C5  DEN d   1      -2.255  -2.287   1.854  0.00  0.00    -0.003 A 
ATOM      6  C6  DEN d   1      -2.894  -1.088   2.023  0.00  0.00     0.001 A 
ATOM      7  C7  DEN d   1      -2.322   0.060   1.540  0.00  0.00     0.017 A 
ATOM      8  C8  DEN d   1      -1.076  -0.028   0.934  0.00  0.00    -0.094 A 
ATOM      9  C9  DEN d   1      -0.452  -1.252   0.762  0.00  0.00    -0.072 A 
ENDROOT
TORSDOF 0
ENDMDL
