MODEL 1
REMARK minimizedAffinity -3.49011493
REMARK minimizedRMSD -1
REMARK  0 active torsions:
REMARK  status: ('A' for Active; 'I' for Inactive)
ROOT
ATOM      1  C1  DEN d   1      -0.223   1.099   0.161  0.00  0.00     0.130 A 
ATOM      2  C2  DEN d   1       0.931   0.293  -0.228  0.00  0.00    -0.031 A 
ATOM      3  C3  DEN d   1       0.752  -1.061   0.334  0.00  0.00     0.027 A 
ATOM      4  C4  DEN d   1      -1.191  -1.984   1.757  0.00  0.00     0.027 A 
ATOM      5  C5  DEN d   1      -2.393  -1.671   2.354  0.00  0.00    -0.003 A 
ATOM      6  C6  DEN d   1      -2.934  -0.414   2.291  0.00  0.00     0.001 A 
ATOM      7  C7  DEN d   1      -2.295   0.565   1.578  0.00  0.00     0.017 A 
ATOM      8  C8  DEN d   1      -1.079   0.259   0.980  0.00  0.00    -0.094 A 
ATOM      9  C9  DEN d   1      -0.554  -1.020   1.045  0.00  0.00    -0.072 A 
ENDROOT
TORSDOF 0
ENDMDL
