MODEL 1
REMARK minimizedAffinity -6.68230152
REMARK minimizedRMSD -1
REMARK  0 active torsions:
REMARK  status: ('A' for Active; 'I' for Inactive)
ROOT
ATOM      1  C1  DEN d   1       1.088  -1.002   0.377  0.00  0.00     0.130 A 
ATOM      2  C2  DEN d   1       0.897   0.419   0.101  0.00  0.00    -0.031 A 
ATOM      3  C3  DEN d   1      -0.531   0.735   0.303  0.00  0.00     0.027 A 
ATOM      4  C4  DEN d   1      -2.454  -0.829   1.016  0.00  0.00     0.027 A 
ATOM      5  C5  DEN d   1      -2.782  -2.124   1.352  0.00  0.00    -0.003 A 
ATOM      6  C6  DEN d   1      -1.858  -3.134   1.353  0.00  0.00     0.001 A 
ATOM      7  C7  DEN d   1      -0.549  -2.858   1.056  0.00  0.00     0.017 A 
ATOM      8  C8  DEN d   1      -0.212  -1.556   0.709  0.00  0.00    -0.094 A 
ATOM      9  C9  DEN d   1      -1.159  -0.546   0.726  0.00  0.00    -0.072 A 
ENDROOT
TORSDOF 0
ENDMDL
