MODEL 1
REMARK minimizedAffinity -2.77615619
REMARK minimizedRMSD -1
REMARK  0 active torsions:
REMARK  status: ('A' for Active; 'I' for Inactive)
ROOT
ATOM      1  C1  DEN d   1       1.917  -1.237   0.211  0.00  0.00     0.130 A 
ATOM      2  C2  DEN d   1       2.191   0.094  -0.325  0.00  0.00    -0.031 A 
ATOM      3  C3  DEN d   1       0.907   0.814  -0.436  0.00  0.00     0.027 A 
ATOM      4  C4  DEN d   1      -1.466   0.005   0.172  0.00  0.00     0.027 A 
ATOM      5  C5  DEN d   1      -2.201  -1.056   0.653  0.00  0.00    -0.003 A 
ATOM      6  C6  DEN d   1      -1.624  -2.253   0.985  0.00  0.00     0.001 A 
ATOM      7  C7  DEN d   1      -0.266  -2.404   0.884  0.00  0.00     0.017 A 
ATOM      8  C8  DEN d   1       0.481  -1.341   0.393  0.00  0.00    -0.094 A 
ATOM      9  C9  DEN d   1      -0.119  -0.135   0.074  0.00  0.00    -0.072 A 
ENDROOT
TORSDOF 0
ENDMDL
