MODEL 1
REMARK minimizedAffinity 0.504373193
REMARK minimizedRMSD -1
REMARK  0 active torsions:
REMARK  status: ('A' for Active; 'I' for Inactive)
ROOT
ATOM      1  C1  DEN d   1      -2.253  -1.674   0.961  0.00  0.00     0.130 A 
ATOM      2  C2  DEN d   1      -1.758  -3.002   1.315  0.00  0.00    -0.031 A 
ATOM      3  C3  DEN d   1      -0.282  -2.960   1.293  0.00  0.00     0.027 A 
ATOM      4  C4  DEN d   1       1.277  -0.978   0.754  0.00  0.00     0.027 A 
ATOM      5  C5  DEN d   1       1.320   0.348   0.386  0.00  0.00    -0.003 A 
ATOM      6  C6  DEN d   1       0.185   1.079   0.153  0.00  0.00     0.001 A 
ATOM      7  C7  DEN d   1      -1.043   0.499   0.329  0.00  0.00     0.017 A 
ATOM      8  C8  DEN d   1      -1.095  -0.841   0.693  0.00  0.00    -0.094 A 
ATOM      9  C9  DEN d   1       0.064  -1.558   0.936  0.00  0.00    -0.072 A 
ENDROOT
TORSDOF 0
ENDMDL
