MODEL 1
REMARK minimizedAffinity -3.30707121
REMARK minimizedRMSD -1
REMARK  0 active torsions:
REMARK  status: ('A' for Active; 'I' for Inactive)
ROOT
ATOM      1  C1  DEN d   1      -2.227  -1.419   0.436  0.00  0.00     0.130 A 
ATOM      2  C2  DEN d   1      -1.824  -2.505   1.325  0.00  0.00    -0.031 A 
ATOM      3  C3  DEN d   1      -0.427  -2.262   1.739  0.00  0.00     0.027 A 
ATOM      4  C4  DEN d   1       1.140  -0.317   1.098  0.00  0.00     0.027 A 
ATOM      5  C5  DEN d   1       1.248   0.841   0.359  0.00  0.00    -0.003 A 
ATOM      6  C6  DEN d   1       0.226   1.304  -0.426  0.00  0.00     0.001 A 
ATOM      7  C7  DEN d   1      -0.966   0.630  -0.456  0.00  0.00     0.017 A 
ATOM      8  C8  DEN d   1      -1.081  -0.541   0.281  0.00  0.00    -0.094 A 
ATOM      9  C9  DEN d   1      -0.040  -0.987   1.078  0.00  0.00    -0.072 A 
ENDROOT
TORSDOF 0
ENDMDL
