MODEL 1
REMARK minimizedAffinity -2.1897428
REMARK minimizedRMSD -1
REMARK  0 active torsions:
REMARK  status: ('A' for Active; 'I' for Inactive)
ROOT
ATOM      1  C1  DEN d   1      -0.805  -2.596   1.487  0.00  0.00     0.130 A 
ATOM      2  C2  DEN d   1      -2.157  -2.174   1.842  0.00  0.00    -0.031 A 
ATOM      3  C3  DEN d   1      -2.315  -0.763   1.439  0.00  0.00     0.027 A 
ATOM      4  C4  DEN d   1      -0.609   0.801   0.300  0.00  0.00     0.027 A 
ATOM      5  C5  DEN d   1       0.676   0.896  -0.187  0.00  0.00    -0.003 A 
ATOM      6  C6  DEN d   1       1.561  -0.148  -0.121  0.00  0.00     0.001 A 
ATOM      7  C7  DEN d   1       1.158  -1.347   0.405  0.00  0.00     0.017 A 
ATOM      8  C8  DEN d   1      -0.134  -1.448   0.906  0.00  0.00    -0.094 A 
ATOM      9  C9  DEN d   1      -1.017  -0.385   0.818  0.00  0.00    -0.072 A 
ENDROOT
TORSDOF 0
ENDMDL
