MODEL 1
REMARK minimizedAffinity -5.41009521
REMARK minimizedRMSD -1
REMARK  0 active torsions:
REMARK  status: ('A' for Active; 'I' for Inactive)
ROOT
ATOM      1  C1  DEN d   1      -1.887  -1.047   0.887  0.00  0.00     0.130 A 
ATOM      2  C2  DEN d   1      -1.719  -2.467   1.184  0.00  0.00    -0.031 A 
ATOM      3  C3  DEN d   1      -0.302  -2.817   0.958  0.00  0.00     0.027 A 
ATOM      4  C4  DEN d   1       1.639  -1.304   0.187  0.00  0.00     0.027 A 
ATOM      5  C5  DEN d   1       1.982  -0.027  -0.199  0.00  0.00    -0.003 A 
ATOM      6  C6  DEN d   1       1.060   0.983  -0.282  0.00  0.00     0.001 A 
ATOM      7  C7  DEN d   1      -0.242   0.744   0.069  0.00  0.00     0.017 A 
ATOM      8  C8  DEN d   1      -0.597  -0.543   0.452  0.00  0.00    -0.094 A 
ATOM      9  C9  DEN d   1       0.352  -1.547   0.541  0.00  0.00    -0.072 A 
ENDROOT
TORSDOF 0
ENDMDL
