MODEL 1
REMARK minimizedAffinity -2.37112188
REMARK minimizedRMSD -1
REMARK  0 active torsions:
REMARK  status: ('A' for Active; 'I' for Inactive)
ROOT
ATOM      1  C1  DEN d   1      -2.686  -0.121   2.457  0.00  0.00     0.130 A 
ATOM      2  C2  DEN d   1      -2.671   1.202   1.840  0.00  0.00    -0.031 A 
ATOM      3  C3  DEN d   1      -1.521   1.262   0.916  0.00  0.00     0.027 A 
ATOM      4  C4  DEN d   1       0.225  -0.559   0.378  0.00  0.00     0.027 A 
ATOM      5  C5  DEN d   1       0.631  -1.844   0.664  0.00  0.00    -0.003 A 
ATOM      6  C6  DEN d   1      -0.014  -2.626   1.584  0.00  0.00     0.001 A 
ATOM      7  C7  DEN d   1      -1.129  -2.147   2.220  0.00  0.00     0.017 A 
ATOM      8  C8  DEN d   1      -1.540  -0.849   1.943  0.00  0.00    -0.094 A 
ATOM      9  C9  DEN d   1      -0.881  -0.079   1.000  0.00  0.00    -0.072 A 
ENDROOT
TORSDOF 0
ENDMDL
