MODEL 1
REMARK minimizedAffinity -1.77847469
REMARK minimizedRMSD -1
REMARK  0 active torsions:
REMARK  status: ('A' for Active; 'I' for Inactive)
ROOT
ATOM      1  C1  DEN d   1      -1.053   1.349  -0.204  0.00  0.00     0.130 A 
ATOM      2  C2  DEN d   1       0.230   1.989  -0.481  0.00  0.00    -0.031 A 
ATOM      3  C3  DEN d   1       1.293   0.983  -0.285  0.00  0.00     0.027 A 
ATOM      4  C4  DEN d   1       1.078  -1.491   0.411  0.00  0.00     0.027 A 
ATOM      5  C5  DEN d   1       0.193  -2.484   0.766  0.00  0.00    -0.003 A 
ATOM      6  C6  DEN d   1      -1.156  -2.262   0.855  0.00  0.00     0.001 A 
ATOM      7  C7  DEN d   1      -1.663  -1.029   0.541  0.00  0.00     0.017 A 
ATOM      8  C8  DEN d   1      -0.776  -0.020   0.190  0.00  0.00    -0.094 A 
ATOM      9  C9  DEN d   1       0.583  -0.268   0.094  0.00  0.00    -0.072 A 
ENDROOT
TORSDOF 0
ENDMDL
