MODEL 1
REMARK minimizedAffinity -6.18739033
REMARK minimizedRMSD -1
REMARK  0 active torsions:
REMARK  status: ('A' for Active; 'I' for Inactive)
ROOT
ATOM      1  C1  DEN d   1      -0.531   0.658   0.085  0.00  0.00     0.130 A 
ATOM      2  C2  DEN d   1       0.662  -0.090  -0.303  0.00  0.00    -0.031 A 
ATOM      3  C3  DEN d   1       0.515  -1.474   0.190  0.00  0.00     0.027 A 
ATOM      4  C4  DEN d   1      -1.437  -2.528   1.507  0.00  0.00     0.027 A 
ATOM      5  C5  DEN d   1      -2.666  -2.284   2.079  0.00  0.00    -0.003 A 
ATOM      6  C6  DEN d   1      -3.249  -1.045   2.056  0.00  0.00     0.001 A 
ATOM      7  C7  DEN d   1      -2.624  -0.012   1.410  0.00  0.00     0.017 A 
ATOM      8  C8  DEN d   1      -1.381  -0.248   0.837  0.00  0.00    -0.094 A 
ATOM      9  C9  DEN d   1      -0.813  -1.511   0.860  0.00  0.00    -0.072 A 
ENDROOT
TORSDOF 0
ENDMDL
