MODEL 1
REMARK minimizedAffinity -2.56251597
REMARK minimizedRMSD -1
REMARK  0 active torsions:
REMARK  status: ('A' for Active; 'I' for Inactive)
ROOT
ATOM      1  C1  DEN d   1      -0.985   0.045   0.188  0.00  0.00     0.130 A 
ATOM      2  C2  DEN d   1       0.044  -0.900   0.613  0.00  0.00    -0.031 A 
ATOM      3  C3  DEN d   1       1.322  -0.490  -0.003  0.00  0.00     0.027 A 
ATOM      4  C4  DEN d   1       1.805   1.507  -1.562  0.00  0.00     0.027 A 
ATOM      5  C5  DEN d   1       1.245   2.584  -2.214  0.00  0.00    -0.003 A 
ATOM      6  C6  DEN d   1      -0.093   2.867  -2.139  0.00  0.00     0.001 A 
ATOM      7  C7  DEN d   1      -0.909   2.090  -1.359  0.00  0.00     0.017 A 
ATOM      8  C8  DEN d   1      -0.352   0.999  -0.704  0.00  0.00    -0.094 A 
ATOM      9  C9  DEN d   1       1.005   0.736  -0.783  0.00  0.00    -0.072 A 
ENDROOT
TORSDOF 0
ENDMDL
