MODEL 1
REMARK minimizedAffinity -6.77541351
REMARK minimizedRMSD -1
REMARK  0 active torsions:
REMARK  status: ('A' for Active; 'I' for Inactive)
ROOT
ATOM      1  C1  DEN d   1       1.582  -0.440   0.419  0.00  0.00     0.130 A 
ATOM      2  C2  DEN d   1       1.264   0.936   0.048  0.00  0.00    -0.031 A 
ATOM      3  C3  DEN d   1      -0.204   1.051  -0.064  0.00  0.00     0.027 A 
ATOM      4  C4  DEN d   1      -2.006  -0.757   0.305  0.00  0.00     0.027 A 
ATOM      5  C5  DEN d   1      -2.220  -2.080   0.622  0.00  0.00    -0.003 A 
ATOM      6  C6  DEN d   1      -1.189  -2.950   0.858  0.00  0.00     0.001 A 
ATOM      7  C7  DEN d   1       0.103  -2.497   0.825  0.00  0.00     0.017 A 
ATOM      8  C8  DEN d   1       0.327  -1.165   0.500  0.00  0.00    -0.094 A 
ATOM      9  C9  DEN d   1      -0.729  -0.298   0.276  0.00  0.00    -0.072 A 
ENDROOT
TORSDOF 0
ENDMDL
