MODEL 1
REMARK minimizedAffinity -3.74141097
REMARK minimizedRMSD -1
REMARK  0 active torsions:
REMARK  status: ('A' for Active; 'I' for Inactive)
ROOT
ATOM      1  C1  DEN d   1      -2.271  -1.217   0.981  0.00  0.00     0.130 A 
ATOM      2  C2  DEN d   1      -1.923  -2.589   1.340  0.00  0.00    -0.031 A 
ATOM      3  C3  DEN d   1      -0.480  -2.775   1.091  0.00  0.00     0.027 A 
ATOM      4  C4  DEN d   1       1.243  -1.078   0.192  0.00  0.00     0.027 A 
ATOM      5  C5  DEN d   1       1.417   0.210  -0.264  0.00  0.00    -0.003 A 
ATOM      6  C6  DEN d   1       0.377   1.094  -0.369  0.00  0.00     0.001 A 
ATOM      7  C7  DEN d   1      -0.878   0.717   0.030  0.00  0.00     0.017 A 
ATOM      8  C8  DEN d   1      -1.063  -0.583   0.485  0.00  0.00    -0.094 A 
ATOM      9  C9  DEN d   1       0.004  -1.458   0.595  0.00  0.00    -0.072 A 
ENDROOT
TORSDOF 0
ENDMDL
