MODEL 1
REMARK minimizedAffinity -5.45587921
REMARK minimizedRMSD -1
REMARK  0 active torsions:
REMARK  status: ('A' for Active; 'I' for Inactive)
ROOT
ATOM      1  C1  DEN d   1      -0.753   0.961  -0.318  0.00  0.00     0.130 A 
ATOM      2  C2  DEN d   1       0.703   1.052  -0.365  0.00  0.00    -0.031 A 
ATOM      3  C3  DEN d   1       1.256  -0.246   0.073  0.00  0.00     0.027 A 
ATOM      4  C4  DEN d   1       0.003  -2.376   0.811  0.00  0.00     0.027 A 
ATOM      5  C5  DEN d   1      -1.239  -2.930   1.026  0.00  0.00    -0.003 A 
ATOM      6  C6  DEN d   1      -2.397  -2.221   0.842  0.00  0.00     0.001 A 
ATOM      7  C7  DEN d   1      -2.337  -0.930   0.388  0.00  0.00     0.017 A 
ATOM      8  C8  DEN d   1      -1.087  -0.362   0.176  0.00  0.00    -0.094 A 
ATOM      9  C9  DEN d   1       0.071  -1.100   0.355  0.00  0.00    -0.072 A 
ENDROOT
TORSDOF 0
ENDMDL
