MODEL 1
REMARK minimizedAffinity -4.56375074
REMARK minimizedRMSD -1
REMARK  0 active torsions:
REMARK  status: ('A' for Active; 'I' for Inactive)
ROOT
ATOM      1  C   UNL d   1      -2.124   2.717   1.207  0.00  0.00     0.020 A 
ATOM      2  C1  UNL d   1      -1.165   3.192   0.313  0.00  0.00     0.020 A 
ATOM      3  C2  UNL d   1      -0.269   2.305  -0.286  0.00  0.00     0.034 A 
ATOM      4  C3  UNL d   1      -0.330   0.937   0.007  0.00  0.00     0.017 A 
ATOM      5  C4  UNL d   1      -1.293   0.461   0.904  0.00  0.00     0.017 A 
ATOM      6  C5  UNL d   1      -2.188   1.354   1.501  0.00  0.00     0.034 A 
ATOM      7 Cl   UNL d   1      -1.430  -1.212   1.315  0.00  0.00    -0.070 Cl
ATOM      8 Cl1  UNL d   1       0.809  -0.103  -0.771  0.00  0.00    -0.070 Cl
ENDROOT
TORSDOF 0
ENDMDL
