MODEL 1
REMARK minimizedAffinity -2.94376779
REMARK minimizedRMSD -1
REMARK  0 active torsions:
REMARK  status: ('A' for Active; 'I' for Inactive)
ROOT
ATOM      1  C   UNL d   1      -1.930   1.760   1.472  0.00  0.00     0.020 A 
ATOM      2  C1  UNL d   1      -0.962   2.180   0.560  0.00  0.00     0.020 A 
ATOM      3  C2  UNL d   1      -0.243   1.237  -0.177  0.00  0.00     0.034 A 
ATOM      4  C3  UNL d   1      -0.490  -0.130  -0.004  0.00  0.00     0.017 A 
ATOM      5  C4  UNL d   1      -1.462  -0.550   0.911  0.00  0.00     0.017 A 
ATOM      6  C5  UNL d   1      -2.179   0.399   1.647  0.00  0.00     0.034 A 
ATOM      7 Cl   UNL d   1      -1.823  -2.218   1.180  0.00  0.00    -0.070 Cl
ATOM      8 Cl1  UNL d   1       0.437  -1.240  -0.949  0.00  0.00    -0.070 Cl
ENDROOT
TORSDOF 0
ENDMDL
