MODEL 1
REMARK minimizedAffinity -4.25660372
REMARK minimizedRMSD -1
REMARK  0 active torsions:
REMARK  status: ('A' for Active; 'I' for Inactive)
ROOT
ATOM      1  C   UNL d   1      -0.734   2.828   0.322  0.00  0.00     0.020 A 
ATOM      2  C1  UNL d   1      -1.181   2.631   1.628  0.00  0.00     0.020 A 
ATOM      3  C2  UNL d   1      -1.181   1.348   2.179  0.00  0.00     0.034 A 
ATOM      4  C3  UNL d   1      -0.734   0.257   1.425  0.00  0.00     0.017 A 
ATOM      5  C4  UNL d   1      -0.286   0.456   0.114  0.00  0.00     0.017 A 
ATOM      6  C5  UNL d   1      -0.287   1.743  -0.433  0.00  0.00     0.034 A 
ATOM      7 Cl   UNL d   1       0.281  -0.840  -0.879  0.00  0.00    -0.070 Cl
ATOM      8 Cl1  UNL d   1      -0.762  -1.301   2.170  0.00  0.00    -0.070 Cl
ENDROOT
TORSDOF 0
ENDMDL
