MODEL 1
REMARK minimizedAffinity -1.46787643
REMARK minimizedRMSD -1
REMARK  0 active torsions:
REMARK  status: ('A' for Active; 'I' for Inactive)
ROOT
ATOM      1  C   UNL d   1      -0.081   0.297   0.753  0.00  0.00     0.020 A 
ATOM      2  C1  UNL d   1      -1.396  -0.099   0.517  0.00  0.00     0.020 A 
ATOM      3  C2  UNL d   1      -1.663  -1.138  -0.377  0.00  0.00     0.034 A 
ATOM      4  C3  UNL d   1      -0.612  -1.785  -1.038  0.00  0.00     0.017 A 
ATOM      5  C4  UNL d   1       0.708  -1.386  -0.801  0.00  0.00     0.017 A 
ATOM      6  C5  UNL d   1       0.969  -0.345   0.095  0.00  0.00     0.034 A 
ATOM      7 Cl   UNL d   1       2.057  -2.136  -1.579  0.00  0.00    -0.070 Cl
ATOM      8 Cl1  UNL d   1      -1.015  -3.062  -2.130  0.00  0.00    -0.070 Cl
ENDROOT
TORSDOF 0
ENDMDL
