MODEL 1
REMARK minimizedAffinity -1.16948473
REMARK minimizedRMSD -1
REMARK  0 active torsions:
REMARK  status: ('A' for Active; 'I' for Inactive)
ROOT
ATOM      1  C   UNL d   1       0.370   1.562  -1.353  0.00  0.00     0.020 A 
ATOM      2  C1  UNL d   1       1.083   0.369  -1.241  0.00  0.00     0.020 A 
ATOM      3  C2  UNL d   1       0.953  -0.417  -0.095  0.00  0.00     0.034 A 
ATOM      4  C3  UNL d   1       0.107  -0.013   0.944  0.00  0.00     0.017 A 
ATOM      5  C4  UNL d   1      -0.608   1.185   0.831  0.00  0.00     0.017 A 
ATOM      6  C5  UNL d   1      -0.474   1.969  -0.319  0.00  0.00     0.034 A 
ATOM      7 Cl   UNL d   1      -1.671   1.750   2.072  0.00  0.00    -0.070 Cl
ATOM      8 Cl1  UNL d   1      -0.006  -1.035   2.333  0.00  0.00    -0.070 Cl
ENDROOT
TORSDOF 0
ENDMDL
