MODEL 1
REMARK minimizedAffinity -4.34175825
REMARK minimizedRMSD -1
REMARK  0 active torsions:
REMARK  status: ('A' for Active; 'I' for Inactive)
ROOT
ATOM      1  C   UNL d   1      -1.961   2.259   1.274  0.00  0.00     0.020 A 
ATOM      2  C1  UNL d   1      -0.997   2.560   0.313  0.00  0.00     0.020 A 
ATOM      3  C2  UNL d   1      -0.360   1.530  -0.383  0.00  0.00     0.034 A 
ATOM      4  C3  UNL d   1      -0.687   0.195  -0.119  0.00  0.00     0.017 A 
ATOM      5  C4  UNL d   1      -1.655  -0.106   0.846  0.00  0.00     0.017 A 
ATOM      6  C5  UNL d   1      -2.289   0.929   1.540  0.00  0.00     0.034 A 
ATOM      7 Cl   UNL d   1      -2.111  -1.729   1.226  0.00  0.00    -0.070 Cl
ATOM      8 Cl1  UNL d   1       0.140  -1.027  -1.018  0.00  0.00    -0.070 Cl
ENDROOT
TORSDOF 0
ENDMDL
