MODEL 1
REMARK minimizedAffinity -2.88516283
REMARK minimizedRMSD -1
REMARK  0 active torsions:
REMARK  status: ('A' for Active; 'I' for Inactive)
ROOT
ATOM      1  C   UNL d   1      -1.332   1.066   1.989  0.00  0.00     0.020 A 
ATOM      2  C1  UNL d   1      -1.313  -0.325   2.084  0.00  0.00     0.020 A 
ATOM      3  C2  UNL d   1      -0.700  -1.085   1.086  0.00  0.00     0.034 A 
ATOM      4  C3  UNL d   1      -0.103  -0.454  -0.012  0.00  0.00     0.017 A 
ATOM      5  C4  UNL d   1      -0.121   0.942  -0.106  0.00  0.00     0.017 A 
ATOM      6  C5  UNL d   1      -0.737   1.698   0.897  0.00  0.00     0.034 A 
ATOM      7 Cl   UNL d   1       0.595   1.792  -1.430  0.00  0.00    -0.070 Cl
ATOM      8 Cl1  UNL d   1       0.638  -1.456  -1.209  0.00  0.00    -0.070 Cl
ENDROOT
TORSDOF 0
ENDMDL
