MODEL 1
REMARK minimizedAffinity -4.1534729
REMARK minimizedRMSD -1
REMARK  0 active torsions:
REMARK  status: ('A' for Active; 'I' for Inactive)
ROOT
ATOM      1  C   UNL d   1       0.040  -1.011   0.857  0.00  0.00     0.020 A 
ATOM      2  C1  UNL d   1       0.729  -0.725  -0.321  0.00  0.00     0.020 A 
ATOM      3  C2  UNL d   1       0.467   0.459  -1.013  0.00  0.00     0.034 A 
ATOM      4  C3  UNL d   1      -0.487   1.362  -0.527  0.00  0.00     0.017 A 
ATOM      5  C4  UNL d   1      -1.177   1.074   0.656  0.00  0.00     0.017 A 
ATOM      6  C5  UNL d   1      -0.910  -0.113   1.344  0.00  0.00     0.034 A 
ATOM      7 Cl   UNL d   1      -2.367   2.139   1.317  0.00  0.00    -0.070 Cl
ATOM      8 Cl1  UNL d   1      -0.760   2.807  -1.434  0.00  0.00    -0.070 Cl
ENDROOT
TORSDOF 0
ENDMDL
