MODEL 1
REMARK minimizedAffinity -1.12788689
REMARK minimizedRMSD -1
REMARK  0 active torsions:
REMARK  status: ('A' for Active; 'I' for Inactive)
ROOT
ATOM      1  C   UNL d   1      -0.568  -0.128  -0.331  0.00  0.00     0.020 A 
ATOM      2  C1  UNL d   1       0.192  -0.571   0.751  0.00  0.00     0.020 A 
ATOM      3  C2  UNL d   1       1.005  -1.699   0.619  0.00  0.00     0.034 A 
ATOM      4  C3  UNL d   1       1.059  -2.388  -0.598  0.00  0.00     0.017 A 
ATOM      5  C4  UNL d   1       0.296  -1.943  -1.683  0.00  0.00     0.017 A 
ATOM      6  C5  UNL d   1      -0.516  -0.813  -1.545  0.00  0.00     0.034 A 
ATOM      7 Cl   UNL d   1       0.312  -2.741  -3.216  0.00  0.00    -0.070 Cl
ATOM      8 Cl1  UNL d   1       2.086  -3.775  -0.690  0.00  0.00    -0.070 Cl
ENDROOT
TORSDOF 0
ENDMDL
