MODEL 1
REMARK minimizedAffinity -1.40418291
REMARK minimizedRMSD -1
REMARK  0 active torsions:
REMARK  status: ('A' for Active; 'I' for Inactive)
ROOT
ATOM      1  C   UNL d   1       1.030  -1.201  -0.522  0.00  0.00     0.020 A 
ATOM      2  C1  UNL d   1       0.393  -1.576   0.660  0.00  0.00     0.020 A 
ATOM      3  C2  UNL d   1      -0.269  -0.617   1.430  0.00  0.00     0.034 A 
ATOM      4  C3  UNL d   1      -0.295   0.720   1.019  0.00  0.00     0.017 A 
ATOM      5  C4  UNL d   1       0.345   1.095  -0.167  0.00  0.00     0.017 A 
ATOM      6  C5  UNL d   1       1.006   0.131  -0.935  0.00  0.00     0.034 A 
ATOM      7 Cl   UNL d   1       0.356   2.726  -0.739  0.00  0.00    -0.070 Cl
ATOM      8 Cl1  UNL d   1      -1.133   1.852   2.020  0.00  0.00    -0.070 Cl
ENDROOT
TORSDOF 0
ENDMDL
