MODEL 1
REMARK minimizedAffinity -4.19360447
REMARK minimizedRMSD -1
REMARK  0 active torsions:
REMARK  status: ('A' for Active; 'I' for Inactive)
ROOT
ATOM      1  C   UNL d   1       1.164  -0.707  -0.134  0.00  0.00     0.020 A 
ATOM      2  C1  UNL d   1       0.374  -0.886   1.000  0.00  0.00     0.020 A 
ATOM      3  C2  UNL d   1      -0.648   0.021   1.290  0.00  0.00     0.034 A 
ATOM      4  C3  UNL d   1      -0.881   1.112   0.444  0.00  0.00     0.017 A 
ATOM      5  C4  UNL d   1      -0.086   1.291  -0.694  0.00  0.00     0.017 A 
ATOM      6  C5  UNL d   1       0.935   0.380  -0.979  0.00  0.00     0.034 A 
ATOM      7 Cl   UNL d   1      -0.314   2.613  -1.784  0.00  0.00    -0.070 Cl
ATOM      8 Cl1  UNL d   1      -2.161   2.195   0.864  0.00  0.00    -0.070 Cl
ENDROOT
TORSDOF 0
ENDMDL
