MODEL 1
REMARK minimizedAffinity -4.89226198
REMARK minimizedRMSD -1
REMARK  0 active torsions:
REMARK  status: ('A' for Active; 'I' for Inactive)
ROOT
ATOM      1  C   UNL d   1      -1.629   0.458   2.047  0.00  0.00     0.020 A 
ATOM      2  C1  UNL d   1      -1.784   1.755   1.557  0.00  0.00     0.020 A 
ATOM      3  C2  UNL d   1      -0.903   2.245   0.590  0.00  0.00     0.034 A 
ATOM      4  C3  UNL d   1       0.136   1.439   0.111  0.00  0.00     0.017 A 
ATOM      5  C4  UNL d   1       0.290   0.138   0.604  0.00  0.00     0.017 A 
ATOM      6  C5  UNL d   1      -0.595  -0.348   1.571  0.00  0.00     0.034 A 
ATOM      7 Cl   UNL d   1       1.547  -0.916   0.061  0.00  0.00    -0.070 Cl
ATOM      8 Cl1  UNL d   1       1.187   2.110  -1.085  0.00  0.00    -0.070 Cl
ENDROOT
TORSDOF 0
ENDMDL
