MODEL 1
REMARK minimizedAffinity -1.08537889
REMARK minimizedRMSD -1
REMARK  0 active torsions:
REMARK  status: ('A' for Active; 'I' for Inactive)
ROOT
ATOM      1  C   UNL d   1       0.008  -1.569   0.941  0.00  0.00     0.020 A 
ATOM      2  C1  UNL d   1       0.689  -1.306  -0.247  0.00  0.00     0.020 A 
ATOM      3  C2  UNL d   1       0.785   0.004  -0.721  0.00  0.00     0.034 A 
ATOM      4  C3  UNL d   1       0.199   1.056  -0.008  0.00  0.00     0.017 A 
ATOM      5  C4  UNL d   1      -0.485   0.791   1.185  0.00  0.00     0.017 A 
ATOM      6  C5  UNL d   1      -0.578  -0.522   1.655  0.00  0.00     0.034 A 
ATOM      7 Cl   UNL d   1      -1.233   2.037   2.120  0.00  0.00    -0.070 Cl
ATOM      8 Cl1  UNL d   1       0.357   2.651  -0.653  0.00  0.00    -0.070 Cl
ENDROOT
TORSDOF 0
ENDMDL
