MODEL 1
REMARK minimizedAffinity -5.21717453
REMARK minimizedRMSD -1
REMARK  0 active torsions:
REMARK  status: ('A' for Active; 'I' for Inactive)
ROOT
ATOM      1  C   UNL d   1      -0.785   2.914  -0.190  0.00  0.00     0.020 A 
ATOM      2  C1  UNL d   1      -1.359   2.786   1.074  0.00  0.00     0.020 A 
ATOM      3  C2  UNL d   1      -1.311   1.560   1.741  0.00  0.00     0.034 A 
ATOM      4  C3  UNL d   1      -0.689   0.458   1.144  0.00  0.00     0.017 A 
ATOM      5  C4  UNL d   1      -0.114   0.587  -0.125  0.00  0.00     0.017 A 
ATOM      6  C5  UNL d   1      -0.164   1.817  -0.788  0.00  0.00     0.034 A 
ATOM      7 Cl   UNL d   1       0.671  -0.728  -0.925  0.00  0.00    -0.070 Cl
ATOM      8 Cl1  UNL d   1      -0.667  -1.028   2.027  0.00  0.00    -0.070 Cl
ENDROOT
TORSDOF 0
ENDMDL
