MODEL 1
REMARK minimizedAffinity -3.55172443
REMARK minimizedRMSD -1
REMARK  0 active torsions:
REMARK  status: ('A' for Active; 'I' for Inactive)
ROOT
ATOM      1  C   UNL d   1      -1.174   1.815   1.911  0.00  0.00     0.020 A 
ATOM      2  C1  UNL d   1      -1.049   3.091   1.362  0.00  0.00     0.020 A 
ATOM      3  C2  UNL d   1      -0.277   3.284   0.215  0.00  0.00     0.034 A 
ATOM      4  C3  UNL d   1       0.372   2.200  -0.388  0.00  0.00     0.017 A 
ATOM      5  C4  UNL d   1       0.245   0.920   0.164  0.00  0.00     0.017 A 
ATOM      6  C5  UNL d   1      -0.529   0.732   1.313  0.00  0.00     0.034 A 
ATOM      7 Cl   UNL d   1       1.016  -0.466  -0.524  0.00  0.00    -0.070 Cl
ATOM      8 Cl1  UNL d   1       1.309   2.512  -1.806  0.00  0.00    -0.070 Cl
ENDROOT
TORSDOF 0
ENDMDL
