MODEL 1
REMARK minimizedAffinity -3.83376074
REMARK minimizedRMSD -1
REMARK  0 active torsions:
REMARK  status: ('A' for Active; 'I' for Inactive)
ROOT
ATOM      1  C   UNL d   1      -1.329  -0.490   0.687  0.00  0.00     0.020 A 
ATOM      2  C1  UNL d   1      -0.074  -0.087   1.139  0.00  0.00     0.020 A 
ATOM      3  C2  UNL d   1       1.077  -0.490   0.458  0.00  0.00     0.034 A 
ATOM      4  C3  UNL d   1       0.974  -1.299  -0.680  0.00  0.00     0.017 A 
ATOM      5  C4  UNL d   1      -0.287  -1.704  -1.133  0.00  0.00     0.017 A 
ATOM      6  C5  UNL d   1      -1.435  -1.297  -0.447  0.00  0.00     0.034 A 
ATOM      7 Cl   UNL d   1      -0.494  -2.702  -2.529  0.00  0.00    -0.070 Cl
ATOM      8 Cl1  UNL d   1       2.438  -1.760  -1.473  0.00  0.00    -0.070 Cl
ENDROOT
TORSDOF 0
ENDMDL
