MODEL 1
REMARK minimizedAffinity -2.33345914
REMARK minimizedRMSD -1
REMARK  0 active torsions:
REMARK  status: ('A' for Active; 'I' for Inactive)
ROOT
ATOM      1  C   UNL d   1      -1.502   1.475   1.830  0.00  0.00     0.020 A 
ATOM      2  C1  UNL d   1      -1.503   0.118   2.148  0.00  0.00     0.020 A 
ATOM      3  C2  UNL d   1      -0.805  -0.788   1.347  0.00  0.00     0.034 A 
ATOM      4  C3  UNL d   1      -0.103  -0.337   0.222  0.00  0.00     0.017 A 
ATOM      5  C4  UNL d   1      -0.103   1.025  -0.096  0.00  0.00     0.017 A 
ATOM      6  C5  UNL d   1      -0.803   1.928   0.710  0.00  0.00     0.034 A 
ATOM      7 Cl   UNL d   1       0.740   1.656  -1.467  0.00  0.00    -0.070 Cl
ATOM      8 Cl1  UNL d   1       0.738  -1.513  -0.724  0.00  0.00    -0.070 Cl
ENDROOT
TORSDOF 0
ENDMDL
