MODEL 1
REMARK minimizedAffinity 0.86143899
REMARK minimizedRMSD -1
REMARK  0 active torsions:
REMARK  status: ('A' for Active; 'I' for Inactive)
ROOT
ATOM      1  C   UNL d   1       0.976   4.517   5.969  0.00  0.00     0.023 A 
ATOM      2  C1  UNL d   1       1.842   5.610   5.939  0.00  0.00     0.003 A 
ATOM      3  C2  UNL d   1       3.224   5.409   5.938  0.00  0.00     0.048 A 
ATOM      4  C3  UNL d   1       3.733   4.111   5.968  0.00  0.00     0.023 A 
ATOM      5  C4  UNL d   1       2.871   3.014   5.997  0.00  0.00     0.048 A 
ATOM      6  C5  UNL d   1       1.490   3.220   5.998  0.00  0.00     0.003 A 
ATOM      7  I   UNL d   1       5.789   3.808   5.967  0.00  0.00    -0.146 I 
ENDROOT
TORSDOF 0
ENDMDL
