MODEL 1
REMARK minimizedAffinity 2.4691143
REMARK minimizedRMSD -1
REMARK  0 active torsions:
REMARK  status: ('A' for Active; 'I' for Inactive)
ROOT
ATOM      1  C   UNL d   1       4.773   1.498   5.642  0.00  0.00     0.023 A 
ATOM      2  C1  UNL d   1       5.174   2.826   5.490  0.00  0.00     0.003 A 
ATOM      3  C2  UNL d   1       4.237   3.856   5.591  0.00  0.00     0.048 A 
ATOM      4  C3  UNL d   1       2.900   3.552   5.846  0.00  0.00     0.023 A 
ATOM      5  C4  UNL d   1       2.494   2.225   6.000  0.00  0.00     0.048 A 
ATOM      6  C5  UNL d   1       3.434   1.198   5.897  0.00  0.00     0.003 A 
ATOM      7  I   UNL d   1       1.503   5.083   5.997  0.00  0.00    -0.146 I 
ENDROOT
TORSDOF 0
ENDMDL
