MODEL 1
REMARK minimizedAffinity -0.216918677
REMARK minimizedRMSD -1
REMARK  0 active torsions:
REMARK  status: ('A' for Active; 'I' for Inactive)
ROOT
ATOM      1  C   UNL d   1       3.805   0.441  -0.367  0.00  0.00     0.023 A 
ATOM      2  C1  UNL d   1       3.748   1.434   0.610  0.00  0.00     0.003 A 
ATOM      3  C2  UNL d   1       4.377   2.662   0.397  0.00  0.00     0.048 A 
ATOM      4  C3  UNL d   1       5.062   2.890  -0.797  0.00  0.00     0.023 A 
ATOM      5  C4  UNL d   1       5.121   1.899  -1.778  0.00  0.00     0.048 A 
ATOM      6  C5  UNL d   1       4.491   0.673  -1.560  0.00  0.00     0.003 A 
ATOM      7  I   UNL d   1       6.000   4.717  -1.117  0.00  0.00    -0.146 I 
ENDROOT
TORSDOF 0
ENDMDL
