MODEL 1
REMARK minimizedAffinity 6.5056963
REMARK minimizedRMSD -1
REMARK  0 active torsions:
REMARK  status: ('A' for Active; 'I' for Inactive)
ROOT
ATOM      1  C   UNL d   1       4.179   0.535   0.007  0.00  0.00     0.023 A 
ATOM      2  C1  UNL d   1       5.487   0.828   0.394  0.00  0.00     0.003 A 
ATOM      3  C2  UNL d   1       6.000   2.114   0.207  0.00  0.00     0.048 A 
ATOM      4  C3  UNL d   1       5.199   3.101  -0.365  0.00  0.00     0.023 A 
ATOM      5  C4  UNL d   1       3.889   2.812  -0.752  0.00  0.00     0.048 A 
ATOM      6  C5  UNL d   1       3.381   1.526  -0.565  0.00  0.00     0.003 A 
ATOM      7  I   UNL d   1       5.959   5.015  -0.644  0.00  0.00    -0.146 I 
ENDROOT
TORSDOF 0
ENDMDL
