MODEL 1
REMARK minimizedAffinity 9.88936901
REMARK minimizedRMSD -1
REMARK  0 active torsions:
REMARK  status: ('A' for Active; 'I' for Inactive)
ROOT
ATOM      1  C   UNL d   1       5.625   2.631   0.896  0.00  0.00     0.023 A 
ATOM      2  C1  UNL d   1       6.000   1.366   0.444  0.00  0.00     0.003 A 
ATOM      3  C2  UNL d   1       5.038   0.491  -0.064  0.00  0.00     0.048 A 
ATOM      4  C3  UNL d   1       3.702   0.888  -0.119  0.00  0.00     0.023 A 
ATOM      5  C4  UNL d   1       3.322   2.154   0.331  0.00  0.00     0.048 A 
ATOM      6  C5  UNL d   1       4.288   3.025   0.840  0.00  0.00     0.003 A 
ATOM      7  I   UNL d   1       2.268  -0.412  -0.875  0.00  0.00    -0.146 I 
ENDROOT
TORSDOF 0
ENDMDL
