MODEL 1
REMARK minimizedAffinity 4.37825012
REMARK minimizedRMSD -1
REMARK  0 active torsions:
REMARK  status: ('A' for Active; 'I' for Inactive)
ROOT
ATOM      1  C   UNL d   1       3.246  -2.174  -2.181  0.00  0.00     0.023 A 
ATOM      2  C1  UNL d   1       3.048  -1.973  -0.815  0.00  0.00     0.003 A 
ATOM      3  C2  UNL d   1       3.437  -0.772  -0.220  0.00  0.00     0.048 A 
ATOM      4  C3  UNL d   1       4.024   0.226  -0.998  0.00  0.00     0.023 A 
ATOM      5  C4  UNL d   1       4.224   0.030  -2.365  0.00  0.00     0.048 A 
ATOM      6  C5  UNL d   1       3.834  -1.173  -2.956  0.00  0.00     0.003 A 
ATOM      7  I   UNL d   1       4.605   2.016  -0.115  0.00  0.00    -0.146 I 
ENDROOT
TORSDOF 0
ENDMDL
