MODEL 1
REMARK minimizedAffinity 9.31524372
REMARK minimizedRMSD -1
REMARK  0 active torsions:
REMARK  status: ('A' for Active; 'I' for Inactive)
ROOT
ATOM      1  C2' OXE d   1      -0.499   2.403  -3.782  0.00  0.00     0.078 C 
ATOM      2  C1' OXE d   1      -3.224   3.057  -3.942  0.00  0.00     0.078 C 
ATOM      3  C1  OXE d   1      -2.818   1.964  -2.986  0.00  0.00    -0.078 A 
ATOM      4  C2  OXE d   1      -1.489   1.618  -2.949  0.00  0.00    -0.078 A 
ATOM      5  C3  OXE d   1      -1.052   0.653  -2.045  0.00  0.00     0.003 A 
ATOM      6  C4  OXE d   1      -1.976  -0.075  -1.285  0.00  0.00    -0.002 A 
ATOM      7  C5  OXE d   1      -3.339   0.234  -1.337  0.00  0.00    -0.002 A 
ATOM      8  C6  OXE d   1      -3.771   1.277  -2.150  0.00  0.00     0.003 A 
ENDROOT
TORSDOF 0
ENDMDL
