MODEL 1
REMARK minimizedAffinity 6.57183409
REMARK minimizedRMSD -1
REMARK  0 active torsions:
REMARK  status: ('A' for Active; 'I' for Inactive)
ROOT
ATOM      1  C2' OXE d   1       5.621  -5.099   0.026  0.00  0.00     0.078 C 
ATOM      2  C1' OXE d   1       6.000  -2.429   0.808  0.00  0.00     0.078 C 
ATOM      3  C1  OXE d   1       4.583  -2.932   0.686  0.00  0.00    -0.078 A 
ATOM      4  C2  OXE d   1       4.406  -4.226   0.257  0.00  0.00    -0.078 A 
ATOM      5  C3  OXE d   1       3.122  -4.757   0.180  0.00  0.00     0.003 A 
ATOM      6  C4  OXE d   1       2.003  -3.940   0.386  0.00  0.00    -0.002 A 
ATOM      7  C5  OXE d   1       2.161  -2.608   0.785  0.00  0.00    -0.002 A 
ATOM      8  C6  OXE d   1       3.441  -2.102   0.980  0.00  0.00     0.003 A 
ENDROOT
TORSDOF 0
ENDMDL
