MODEL 1
REMARK minimizedAffinity 8.14096451
REMARK minimizedRMSD -1
REMARK  0 active torsions:
REMARK  status: ('A' for Active; 'I' for Inactive)
ROOT
ATOM      1  C2' OXE d   1       0.966  -0.130   3.770  0.00  0.00     0.078 C 
ATOM      2  C1' OXE d   1      -1.291  -1.532   2.864  0.00  0.00     0.078 C 
ATOM      3  C1  OXE d   1       0.019  -1.775   2.157  0.00  0.00    -0.078 A 
ATOM      4  C2  OXE d   1       1.108  -1.050   2.577  0.00  0.00    -0.078 A 
ATOM      5  C3  OXE d   1       2.353  -1.276   1.995  0.00  0.00     0.003 A 
ATOM      6  C4  OXE d   1       2.473  -2.121   0.885  0.00  0.00    -0.002 A 
ATOM      7  C5  OXE d   1       1.368  -2.839   0.416  0.00  0.00    -0.002 A 
ATOM      8  C6  OXE d   1       0.146  -2.710   1.066  0.00  0.00     0.003 A 
ENDROOT
TORSDOF 0
ENDMDL
