MODEL 1
REMARK minimizedAffinity 14.6557217
REMARK minimizedRMSD -1
REMARK  0 active torsions:
REMARK  status: ('A' for Active; 'I' for Inactive)
ROOT
ATOM      1  C2' OXE d   1       3.448  -1.485   0.748  0.00  0.00     0.078 C 
ATOM      2  C1' OXE d   1       1.934  -3.624  -0.258  0.00  0.00     0.078 C 
ATOM      3  C1  OXE d   1       1.234  -2.620   0.624  0.00  0.00    -0.078 A 
ATOM      4  C2  OXE d   1       1.993  -1.603   1.149  0.00  0.00    -0.078 A 
ATOM      5  C3  OXE d   1       1.386  -0.619   1.924  0.00  0.00     0.003 A 
ATOM      6  C4  OXE d   1       0.043  -0.741   2.299  0.00  0.00    -0.002 A 
ATOM      7  C5  OXE d   1      -0.739  -1.791   1.808  0.00  0.00    -0.002 A 
ATOM      8  C6  OXE d   1      -0.171  -2.714   0.937  0.00  0.00     0.003 A 
ENDROOT
TORSDOF 0
ENDMDL
