MODEL 1
REMARK minimizedAffinity 4.76992369
REMARK minimizedRMSD -1
REMARK  0 active torsions:
REMARK  status: ('A' for Active; 'I' for Inactive)
ROOT
ATOM      1  C2' OXE d   1       0.753  -5.187   0.549  0.00  0.00     0.078 C 
ATOM      2  C1' OXE d   1      -0.615  -3.271   2.078  0.00  0.00     0.078 C 
ATOM      3  C1  OXE d   1       0.527  -2.797   1.214  0.00  0.00    -0.078 A 
ATOM      4  C2  OXE d   1       1.221  -3.748   0.505  0.00  0.00    -0.078 A 
ATOM      5  C3  OXE d   1       2.248  -3.358  -0.349  0.00  0.00     0.003 A 
ATOM      6  C4  OXE d   1       2.681  -2.027  -0.376  0.00  0.00    -0.002 A 
ATOM      7  C5  OXE d   1       2.014  -1.048   0.369  0.00  0.00    -0.002 A 
ATOM      8  C6  OXE d   1       0.910  -1.409   1.134  0.00  0.00     0.003 A 
ENDROOT
TORSDOF 0
ENDMDL
