MODEL 1
REMARK minimizedAffinity 15.047368
REMARK minimizedRMSD -1
REMARK  0 active torsions:
REMARK  status: ('A' for Active; 'I' for Inactive)
ROOT
ATOM      1  C2' OXE d   1      -5.511  -1.827  -2.446  0.00  0.00     0.078 C 
ATOM      2  C1' OXE d   1      -5.930  -2.883  -5.013  0.00  0.00     0.078 C 
ATOM      3  C1  OXE d   1      -5.872  -1.382  -4.870  0.00  0.00    -0.078 A 
ATOM      4  C2  OXE d   1      -5.713  -0.874  -3.604  0.00  0.00    -0.078 A 
ATOM      5  C3  OXE d   1      -5.599   0.502  -3.423  0.00  0.00     0.003 A 
ATOM      6  C4  OXE d   1      -5.797   1.377  -4.497  0.00  0.00    -0.002 A 
ATOM      7  C5  OXE d   1      -6.000   0.881  -5.789  0.00  0.00    -0.002 A 
ATOM      8  C6  OXE d   1      -5.997  -0.494  -5.999  0.00  0.00     0.003 A 
ENDROOT
TORSDOF 0
ENDMDL
