MODEL 1
REMARK minimizedAffinity 9.16927242
REMARK minimizedRMSD -1
REMARK  0 active torsions:
REMARK  status: ('A' for Active; 'I' for Inactive)
ROOT
ATOM      1  C2' OXE d   1      -1.025   2.641  -3.061  0.00  0.00     0.078 C 
ATOM      2  C1' OXE d   1      -0.696   1.531  -5.618  0.00  0.00     0.078 C 
ATOM      3  C1  OXE d   1      -2.101   1.820  -5.152  0.00  0.00    -0.078 A 
ATOM      4  C2  OXE d   1      -2.256   2.320  -3.881  0.00  0.00    -0.078 A 
ATOM      5  C3  OXE d   1      -3.526   2.655  -3.423  0.00  0.00     0.003 A 
ATOM      6  C4  OXE d   1      -4.660   2.346  -4.184  0.00  0.00    -0.002 A 
ATOM      7  C5  OXE d   1      -4.527   1.800  -5.465  0.00  0.00    -0.002 A 
ATOM      8  C6  OXE d   1      -3.255   1.571  -5.980  0.00  0.00     0.003 A 
ENDROOT
TORSDOF 0
ENDMDL
