MODEL 1
REMARK minimizedAffinity -0.537335694
REMARK minimizedRMSD -1
REMARK  1 active torsions:
REMARK  status: ('A' for Active; 'I' for Inactive)
REMARK    1  A    between atoms: C1_2  and  C2_3 
ROOT
ATOM      1  C2  UNL d   1       2.052   0.911  -2.852  0.00  0.00    -0.073 A 
ATOM      2  C3  UNL d   1       3.379   1.252  -3.136  0.00  0.00    -0.002 A 
ATOM      3  C4  UNL d   1       3.704   1.876  -4.342  0.00  0.00     0.004 A 
ATOM      4  C5  UNL d   1       2.706   2.171  -5.271  0.00  0.00    -0.004 A 
ATOM      5  C6  UNL d   1       1.372   1.849  -5.000  0.00  0.00    -0.075 A 
ATOM      6  C7  UNL d   1       0.287   2.157  -5.989  0.00  0.00     0.076 C 
ATOM      7  C8  UNL d   1       1.055   1.220  -3.788  0.00  0.00     0.001 A 
ENDROOT
BRANCH   1   8
ATOM      8  C1  UNL d   1       1.696   0.244  -1.549  0.00  0.00     0.053 C 
ATOM      9  C   UNL d   1       2.182  -1.196  -1.494  0.00  0.00     0.018 C 
ENDBRANCH   1   8
TORSDOF 1
ENDMDL
