MODEL 1
REMARK minimizedAffinity 4.02630234
REMARK minimizedRMSD -1
REMARK  1 active torsions:
REMARK  status: ('A' for Active; 'I' for Inactive)
REMARK    1  A    between atoms: C1_2  and  C2_3 
ROOT
ATOM      1  C2  UNL d   1       5.276   5.015   3.478  0.00  0.00    -0.073 A 
ATOM      2  C3  UNL d   1       4.012   5.615   3.492  0.00  0.00    -0.002 A 
ATOM      3  C4  UNL d   1       3.397   5.994   2.298  0.00  0.00     0.004 A 
ATOM      4  C5  UNL d   1       4.037   5.771   1.078  0.00  0.00    -0.004 A 
ATOM      5  C6  UNL d   1       5.295   5.162   1.042  0.00  0.00    -0.075 A 
ATOM      6  C7  UNL d   1       5.997   4.917  -0.261  0.00  0.00     0.076 C 
ATOM      7  C8  UNL d   1       5.907   4.787   2.246  0.00  0.00     0.001 A 
ENDROOT
BRANCH   1   8
ATOM      8  C1  UNL d   1       5.940   4.598   4.765  0.00  0.00     0.053 C 
ATOM      9  C   UNL d   1       5.409   5.376   5.958  0.00  0.00     0.018 C 
ENDBRANCH   1   8
TORSDOF 1
ENDMDL
