MODEL 1
REMARK minimizedAffinity 9.12234688
REMARK minimizedRMSD -1
REMARK  1 active torsions:
REMARK  status: ('A' for Active; 'I' for Inactive)
REMARK    1  A    between atoms: C1_2  and  C2_3 
ROOT
ATOM      1  C2  UNL d   1       1.644   1.124  -2.933  0.00  0.00    -0.073 A 
ATOM      2  C3  UNL d   1       2.815   1.010  -2.174  0.00  0.00    -0.002 A 
ATOM      3  C4  UNL d   1       4.020   1.524  -2.655  0.00  0.00     0.004 A 
ATOM      4  C5  UNL d   1       4.066   2.163  -3.894  0.00  0.00    -0.004 A 
ATOM      5  C6  UNL d   1       2.904   2.298  -4.661  0.00  0.00    -0.075 A 
ATOM      6  C7  UNL d   1       2.937   2.981  -5.997  0.00  0.00     0.076 C 
ATOM      7  C8  UNL d   1       1.699   1.777  -4.173  0.00  0.00     0.001 A 
ENDROOT
BRANCH   1   8
ATOM      8  C1  UNL d   1       0.339   0.577  -2.415  0.00  0.00     0.053 C 
ATOM      9  C   UNL d   1       0.462  -0.877  -1.985  0.00  0.00     0.018 C 
ENDBRANCH   1   8
TORSDOF 1
ENDMDL
