MODEL 1
REMARK minimizedAffinity -0.0388773717
REMARK minimizedRMSD -1
REMARK  1 active torsions:
REMARK  status: ('A' for Active; 'I' for Inactive)
REMARK    1  A    between atoms: C1_2  and  C2_3 
ROOT
ATOM      1  C2  UNL d   1       2.168   1.696  -3.803  0.00  0.00    -0.073 A 
ATOM      2  C3  UNL d   1       3.326   1.511  -3.039  0.00  0.00    -0.002 A 
ATOM      3  C4  UNL d   1       3.278   0.775  -1.855  0.00  0.00     0.004 A 
ATOM      4  C5  UNL d   1       2.077   0.210  -1.427  0.00  0.00    -0.004 A 
ATOM      5  C6  UNL d   1       0.912   0.373  -2.183  0.00  0.00    -0.075 A 
ATOM      6  C7  UNL d   1      -0.389  -0.226  -1.735  0.00  0.00     0.076 C 
ATOM      7  C8  UNL d   1       0.967   1.116  -3.370  0.00  0.00     0.001 A 
ENDROOT
BRANCH   1   8
ATOM      8  C1  UNL d   1       2.215   2.485  -5.086  0.00  0.00     0.053 C 
ATOM      9  C   UNL d   1       3.338   2.021  -6.000  0.00  0.00     0.018 C 
ENDBRANCH   1   8
TORSDOF 1
ENDMDL
