MODEL 1
REMARK minimizedAffinity 1.29275346
REMARK minimizedRMSD -1
REMARK  1 active torsions:
REMARK  status: ('A' for Active; 'I' for Inactive)
REMARK    1  A    between atoms: C1_2  and  C2_3 
ROOT
ATOM      1  C2  UNL d   1       2.499   1.907  -3.967  0.00  0.00    -0.073 A 
ATOM      2  C3  UNL d   1       3.385   1.316  -3.059  0.00  0.00    -0.002 A 
ATOM      3  C4  UNL d   1       2.906   0.718  -1.893  0.00  0.00     0.004 A 
ATOM      4  C5  UNL d   1       1.537   0.697  -1.627  0.00  0.00    -0.004 A 
ATOM      5  C6  UNL d   1       0.634   1.272  -2.527  0.00  0.00    -0.075 A 
ATOM      6  C7  UNL d   1      -0.841   1.260  -2.254  0.00  0.00     0.076 C 
ATOM      7  C8  UNL d   1       1.124   1.873  -3.694  0.00  0.00     0.001 A 
ENDROOT
BRANCH   1   8
ATOM      8  C1  UNL d   1       3.012   2.549  -5.230  0.00  0.00     0.053 C 
ATOM      9  C   UNL d   1       4.258   1.855  -5.756  0.00  0.00     0.018 C 
ENDBRANCH   1   8
TORSDOF 1
ENDMDL
