MODEL 1
REMARK minimizedAffinity 8.69156456
REMARK minimizedRMSD -1
REMARK  1 active torsions:
REMARK  status: ('A' for Active; 'I' for Inactive)
REMARK    1  A    between atoms: C1_2  and  C2_3 
ROOT
ATOM      1  C2  UNL d   1       3.222   5.816   0.570  0.00  0.00    -0.073 A 
ATOM      2  C3  UNL d   1       4.194   5.999  -0.420  0.00  0.00    -0.002 A 
ATOM      3  C4  UNL d   1       5.549   5.987  -0.088  0.00  0.00     0.004 A 
ATOM      4  C5  UNL d   1       5.946   5.785   1.234  0.00  0.00    -0.004 A 
ATOM      5  C6  UNL d   1       4.990   5.589   2.235  0.00  0.00    -0.075 A 
ATOM      6  C7  UNL d   1       5.401   5.373   3.662  0.00  0.00     0.076 C 
ATOM      7  C8  UNL d   1       3.631   5.605   1.894  0.00  0.00     0.001 A 
ENDROOT
BRANCH   1   8
ATOM      8  C1  UNL d   1       1.757   5.822   0.215  0.00  0.00     0.053 C 
ATOM      9  C   UNL d   1       1.450   4.895  -0.951  0.00  0.00     0.018 C 
ENDBRANCH   1   8
TORSDOF 1
ENDMDL
