MODEL 1
REMARK minimizedAffinity 4.70750189
REMARK minimizedRMSD -1
REMARK  1 active torsions:
REMARK  status: ('A' for Active; 'I' for Inactive)
REMARK    1  A    between atoms: C1_2  and  C2_3 
ROOT
ATOM      1  C2  UNL d   1       5.251   5.244   3.262  0.00  0.00    -0.073 A 
ATOM      2  C3  UNL d   1       5.982   5.997   2.337  0.00  0.00    -0.002 A 
ATOM      3  C4  UNL d   1       5.987   5.643   0.987  0.00  0.00     0.004 A 
ATOM      4  C5  UNL d   1       5.258   4.538   0.548  0.00  0.00    -0.004 A 
ATOM      5  C6  UNL d   1       4.512   3.779   1.456  0.00  0.00    -0.075 A 
ATOM      6  C7  UNL d   1       3.724   2.586   1.000  0.00  0.00     0.076 C 
ATOM      7  C8  UNL d   1       4.514   4.140   2.810  0.00  0.00     0.001 A 
ENDROOT
BRANCH   1   8
ATOM      8  C1  UNL d   1       5.236   5.626   4.720  0.00  0.00     0.053 C 
ATOM      9  C   UNL d   1       5.744   4.502   5.609  0.00  0.00     0.018 C 
ENDBRANCH   1   8
TORSDOF 1
ENDMDL
