MODEL 1
REMARK minimizedAffinity -1.99686623
REMARK minimizedRMSD -1
REMARK  1 active torsions:
REMARK  status: ('A' for Active; 'I' for Inactive)
REMARK    1  A    between atoms: C1_2  and  C2_3 
ROOT
ATOM      1  C2  UNL d   1       1.440   1.539  -3.847  0.00  0.00    -0.073 A 
ATOM      2  C3  UNL d   1       1.325   1.770  -5.222  0.00  0.00    -0.002 A 
ATOM      3  C4  UNL d   1       2.465   1.986  -5.998  0.00  0.00     0.004 A 
ATOM      4  C5  UNL d   1       3.729   1.965  -5.410  0.00  0.00    -0.004 A 
ATOM      5  C6  UNL d   1       3.865   1.724  -4.039  0.00  0.00    -0.075 A 
ATOM      6  C7  UNL d   1       5.218   1.701  -3.390  0.00  0.00     0.076 C 
ATOM      7  C8  UNL d   1       2.715   1.511  -3.266  0.00  0.00     0.001 A 
ENDROOT
BRANCH   1   8
ATOM      8  C1  UNL d   1       0.212   1.300  -3.006  0.00  0.00     0.053 C 
ATOM      9  C   UNL d   1       0.274  -0.031  -2.273  0.00  0.00     0.018 C 
ENDBRANCH   1   8
TORSDOF 1
ENDMDL
