MODEL 1
REMARK minimizedAffinity -3.78442621
REMARK minimizedRMSD -1
REMARK  1 active torsions:
REMARK  status: ('A' for Active; 'I' for Inactive)
REMARK    1  A    between atoms: C1_2  and  C2_3 
ROOT
ATOM      1  C2  UNL d   1       1.004   1.801  -2.700  0.00  0.00    -0.073 A 
ATOM      2  C3  UNL d   1       2.392   1.684  -2.566  0.00  0.00    -0.002 A 
ATOM      3  C4  UNL d   1       2.950   0.552  -1.971  0.00  0.00     0.004 A 
ATOM      4  C5  UNL d   1       2.128  -0.477  -1.511  0.00  0.00    -0.004 A 
ATOM      5  C6  UNL d   1       0.739  -0.384  -1.647  0.00  0.00    -0.075 A 
ATOM      6  C7  UNL d   1      -0.160  -1.481  -1.156  0.00  0.00     0.076 C 
ATOM      7  C8  UNL d   1       0.186   0.757  -2.243  0.00  0.00     0.001 A 
ENDROOT
BRANCH   1   8
ATOM      8  C1  UNL d   1       0.397   3.019  -3.348  0.00  0.00     0.053 C 
ATOM      9  C   UNL d   1      -0.633   3.687  -2.452  0.00  0.00     0.018 C 
ENDBRANCH   1   8
TORSDOF 1
ENDMDL
