MODEL 1
REMARK minimizedAffinity -0.669231057
REMARK minimizedRMSD -1
REMARK  1 active torsions:
REMARK  status: ('A' for Active; 'I' for Inactive)
REMARK    1  A    between atoms: C1_2  and  C2_3 
ROOT
ATOM      1  C2  UNL d   1       1.095   1.932  -2.972  0.00  0.00    -0.073 A 
ATOM      2  C3  UNL d   1       2.230   2.373  -3.662  0.00  0.00    -0.002 A 
ATOM      3  C4  UNL d   1       3.409   1.627  -3.629  0.00  0.00     0.004 A 
ATOM      4  C5  UNL d   1       3.464   0.432  -2.913  0.00  0.00    -0.004 A 
ATOM      5  C6  UNL d   1       2.337  -0.032  -2.227  0.00  0.00    -0.075 A 
ATOM      6  C7  UNL d   1       2.380  -1.315  -1.450  0.00  0.00     0.076 C 
ATOM      7  C8  UNL d   1       1.157   0.724  -2.262  0.00  0.00     0.001 A 
ENDROOT
BRANCH   1   8
ATOM      8  C1  UNL d   1      -0.182   2.730  -3.010  0.00  0.00     0.053 C 
ATOM      9  C   UNL d   1      -0.012   4.108  -2.390  0.00  0.00     0.018 C 
ENDBRANCH   1   8
TORSDOF 1
ENDMDL
