MODEL 1
REMARK minimizedAffinity -4.57963085
REMARK minimizedRMSD -1
REMARK  1 active torsions:
REMARK  status: ('A' for Active; 'I' for Inactive)
REMARK    1  A    between atoms: C1_2  and  C2_3 
ROOT
ATOM      1  C2  UNL d   1       1.911   0.934  -2.478  0.00  0.00    -0.073 A 
ATOM      2  C3  UNL d   1       2.797   1.997  -2.267  0.00  0.00    -0.002 A 
ATOM      3  C4  UNL d   1       2.955   2.985  -3.239  0.00  0.00     0.004 A 
ATOM      4  C5  UNL d   1       2.226   2.926  -4.427  0.00  0.00    -0.004 A 
ATOM      5  C6  UNL d   1       1.327   1.878  -4.650  0.00  0.00    -0.075 A 
ATOM      6  C7  UNL d   1       0.537   1.798  -5.924  0.00  0.00     0.076 C 
ATOM      7  C8  UNL d   1       1.175   0.888  -3.671  0.00  0.00     0.001 A 
ENDROOT
BRANCH   1   8
ATOM      8  C1  UNL d   1       1.731  -0.132  -1.428  0.00  0.00     0.053 C 
ATOM      9  C   UNL d   1       1.437  -1.492  -2.041  0.00  0.00     0.018 C 
ENDBRANCH   1   8
TORSDOF 1
ENDMDL
