MODEL 1
REMARK minimizedAffinity 5.07190228
REMARK minimizedRMSD -1
REMARK  1 active torsions:
REMARK  status: ('A' for Active; 'I' for Inactive)
REMARK    1  A    between atoms: C1_2  and  C2_3 
ROOT
ATOM      1  C2  UNL d   1       2.430   1.861  -3.800  0.00  0.00    -0.073 A 
ATOM      2  C3  UNL d   1       3.465   1.624  -2.889  0.00  0.00    -0.002 A 
ATOM      3  C4  UNL d   1       3.215   0.931  -1.703  0.00  0.00     0.004 A 
ATOM      4  C5  UNL d   1       1.932   0.463  -1.420  0.00  0.00    -0.004 A 
ATOM      5  C6  UNL d   1       0.887   0.680  -2.324  0.00  0.00    -0.075 A 
ATOM      6  C7  UNL d   1      -0.499   0.185  -2.034  0.00  0.00     0.076 C 
ATOM      7  C8  UNL d   1       1.145   1.379  -3.511  0.00  0.00     0.001 A 
ENDROOT
BRANCH   1   8
ATOM      8  C1  UNL d   1       2.696   2.603  -5.085  0.00  0.00     0.053 C 
ATOM      9  C   UNL d   1       4.042   2.234  -5.688  0.00  0.00     0.018 C 
ENDBRANCH   1   8
TORSDOF 1
ENDMDL
