MODEL 1
REMARK minimizedAffinity 8.51045513
REMARK minimizedRMSD -1
REMARK  1 active torsions:
REMARK  status: ('A' for Active; 'I' for Inactive)
REMARK    1  A    between atoms: C1_2  and  C2_3 
ROOT
ATOM      1  C2  UNL d   1      -1.818   3.306   4.345  0.00  0.00    -0.073 A 
ATOM      2  C3  UNL d   1      -1.145   3.878   5.431  0.00  0.00    -0.002 A 
ATOM      3  C4  UNL d   1      -1.579   5.089   5.970  0.00  0.00     0.004 A 
ATOM      4  C5  UNL d   1      -2.693   5.737   5.435  0.00  0.00    -0.004 A 
ATOM      5  C6  UNL d   1      -3.385   5.176   4.358  0.00  0.00    -0.075 A 
ATOM      6  C7  UNL d   1      -4.583   5.861   3.769  0.00  0.00     0.076 C 
ATOM      7  C8  UNL d   1      -2.941   3.960   3.820  0.00  0.00     0.001 A 
ENDROOT
BRANCH   1   8
ATOM      8  C1  UNL d   1      -1.357   1.994   3.764  0.00  0.00     0.053 C 
ATOM      9  C   UNL d   1      -2.481   1.261   3.049  0.00  0.00     0.018 C 
ENDBRANCH   1   8
TORSDOF 1
ENDMDL
