MODEL 1
REMARK minimizedAffinity 3.46084976
REMARK minimizedRMSD -1
REMARK  1 active torsions:
REMARK  status: ('A' for Active; 'I' for Inactive)
REMARK    1  A    between atoms: C1_2  and  C2_3 
ROOT
ATOM      1  C2  UNL d   1       2.261   1.029  -2.725  0.00  0.00    -0.073 A 
ATOM      2  C3  UNL d   1       0.990   0.519  -3.016  0.00  0.00    -0.002 A 
ATOM      3  C4  UNL d   1       0.409   0.746  -4.264  0.00  0.00     0.004 A 
ATOM      4  C5  UNL d   1       1.093   1.478  -5.235  0.00  0.00    -0.004 A 
ATOM      5  C6  UNL d   1       2.368   1.985  -4.967  0.00  0.00    -0.075 A 
ATOM      6  C7  UNL d   1       3.117   2.776  -5.999  0.00  0.00     0.076 C 
ATOM      7  C8  UNL d   1       2.945   1.755  -3.710  0.00  0.00     0.001 A 
ENDROOT
BRANCH   1   8
ATOM      8  C1  UNL d   1       2.896   0.781  -1.381  0.00  0.00     0.053 C 
ATOM      9  C   UNL d   1       3.921  -0.341  -1.433  0.00  0.00     0.018 C 
ENDBRANCH   1   8
TORSDOF 1
ENDMDL
