MODEL 1
REMARK minimizedAffinity -3.86968446
REMARK minimizedRMSD -1
REMARK  1 active torsions:
REMARK  status: ('A' for Active; 'I' for Inactive)
REMARK    1  A    between atoms: C1_2  and  C2_3 
ROOT
ATOM      1  C2  UNL d   1       0.718   0.026  -2.224  0.00  0.00    -0.077 A 
ATOM      2  C3  UNL d   1       0.394  -1.287  -2.595  0.00  0.00     0.002 A 
ATOM      3  C4  UNL d   1       1.174  -1.969  -3.531  0.00  0.00     0.002 A 
ATOM      4  C5  UNL d   1       2.284  -1.349  -4.100  0.00  0.00    -0.004 A 
ATOM      5  C6  UNL d   1       2.614  -0.043  -3.739  0.00  0.00     0.002 A 
ATOM      6  C7  UNL d   1       1.835   0.641  -2.805  0.00  0.00     0.002 A 
ENDROOT
BRANCH   1   7
ATOM      7  C1  UNL d   1      -0.093   0.746  -1.179  0.00  0.00     0.055 C 
ATOM      8  C   UNL d   1       0.310   0.319   0.225  0.00  0.00     0.019 C 
ENDBRANCH   1   7
TORSDOF 1
ENDMDL
