MODEL 1
REMARK minimizedAffinity -3.26734662
REMARK minimizedRMSD -1
REMARK  1 active torsions:
REMARK  status: ('A' for Active; 'I' for Inactive)
REMARK    1  A    between atoms: C1_2  and  C2_3 
ROOT
ATOM      1  C2  UNL d   1       0.815  -0.344  -2.768  0.00  0.00    -0.077 A 
ATOM      2  C3  UNL d   1       1.292  -0.826  -1.541  0.00  0.00     0.002 A 
ATOM      3  C4  UNL d   1       0.900  -0.221  -0.345  0.00  0.00     0.002 A 
ATOM      4  C5  UNL d   1       0.027   0.864  -0.364  0.00  0.00    -0.004 A 
ATOM      5  C6  UNL d   1      -0.452   1.352  -1.580  0.00  0.00     0.002 A 
ATOM      6  C7  UNL d   1      -0.060   0.750  -2.776  0.00  0.00     0.002 A 
ENDROOT
BRANCH   1   7
ATOM      7  C1  UNL d   1       1.197  -1.025  -4.056  0.00  0.00     0.055 C 
ATOM      8  C   UNL d   1       2.076  -2.241  -3.800  0.00  0.00     0.019 C 
ENDBRANCH   1   7
TORSDOF 1
ENDMDL
