MODEL 1
REMARK minimizedAffinity -4.74864244
REMARK minimizedRMSD -1
REMARK  1 active torsions:
REMARK  status: ('A' for Active; 'I' for Inactive)
REMARK    1  A    between atoms: C1_2  and  C2_3 
ROOT
ATOM      1  C2  UNL d   1      -0.427  -0.249   1.311  0.00  0.00    -0.077 A 
ATOM      2  C3  UNL d   1       0.789   0.269   0.844  0.00  0.00     0.002 A 
ATOM      3  C4  UNL d   1       0.943   0.605  -0.502  0.00  0.00     0.002 A 
ATOM      4  C5  UNL d   1      -0.116   0.431  -1.391  0.00  0.00    -0.004 A 
ATOM      5  C6  UNL d   1      -1.329  -0.084  -0.936  0.00  0.00     0.002 A 
ATOM      6  C7  UNL d   1      -1.484  -0.422   0.409  0.00  0.00     0.002 A 
ENDROOT
BRANCH   1   7
ATOM      7  C1  UNL d   1      -0.612  -0.566   2.772  0.00  0.00     0.055 C 
ATOM      8  C   UNL d   1      -2.077  -0.485   3.176  0.00  0.00     0.019 C 
ENDBRANCH   1   7
TORSDOF 1
ENDMDL
