MODEL 1
REMARK minimizedAffinity -4.30297995
REMARK minimizedRMSD -1
REMARK  1 active torsions:
REMARK  status: ('A' for Active; 'I' for Inactive)
REMARK    1  A    between atoms: C1_2  and  C2_3 
ROOT
ATOM      1  C2  UNL d   1      -0.236   0.435  -0.393  0.00  0.00    -0.077 A 
ATOM      2  C3  UNL d   1      -1.380   0.135   0.360  0.00  0.00     0.002 A 
ATOM      3  C4  UNL d   1      -1.287  -0.054   1.740  0.00  0.00     0.002 A 
ATOM      4  C5  UNL d   1      -0.055   0.060   2.379  0.00  0.00    -0.004 A 
ATOM      5  C6  UNL d   1       1.089   0.356   1.639  0.00  0.00     0.002 A 
ATOM      6  C7  UNL d   1       0.999   0.543   0.259  0.00  0.00     0.002 A 
ENDROOT
BRANCH   1   7
ATOM      7  C1  UNL d   1      -0.342   0.687  -1.875  0.00  0.00     0.055 C 
ATOM      8  C   UNL d   1       0.755  -0.039  -2.640  0.00  0.00     0.019 C 
ENDBRANCH   1   7
TORSDOF 1
ENDMDL
