MODEL 1
REMARK minimizedAffinity -3.40240812
REMARK minimizedRMSD -1
REMARK  1 active torsions:
REMARK  status: ('A' for Active; 'I' for Inactive)
REMARK    1  A    between atoms: C1_2  and  C2_3 
ROOT
ATOM      1  C2  UNL d   1       0.105   0.160  -0.413  0.00  0.00    -0.077 A 
ATOM      2  C3  UNL d   1       0.991   0.566   0.595  0.00  0.00     0.002 A 
ATOM      3  C4  UNL d   1       0.646   0.417   1.940  0.00  0.00     0.002 A 
ATOM      4  C5  UNL d   1      -0.582  -0.139   2.289  0.00  0.00    -0.004 A 
ATOM      5  C6  UNL d   1      -1.471  -0.544   1.293  0.00  0.00     0.002 A 
ATOM      6  C7  UNL d   1      -1.129  -0.395  -0.051  0.00  0.00     0.002 A 
ENDROOT
BRANCH   1   7
ATOM      7  C1  UNL d   1       0.496   0.274  -1.863  0.00  0.00     0.055 C 
ATOM      8  C   UNL d   1       0.380  -1.066  -2.574  0.00  0.00     0.019 C 
ENDBRANCH   1   7
TORSDOF 1
ENDMDL
