MODEL 1
REMARK minimizedAffinity -5.10773849
REMARK minimizedRMSD -1
REMARK  1 active torsions:
REMARK  status: ('A' for Active; 'I' for Inactive)
REMARK    1  A    between atoms: C1_2  and  C2_3 
ROOT
ATOM      1  C2  UNL d   1       0.003   0.510  -0.305  0.00  0.00    -0.077 A 
ATOM      2  C3  UNL d   1       0.695   0.451   0.912  0.00  0.00     0.002 A 
ATOM      3  C4  UNL d   1      -0.003   0.390   2.120  0.00  0.00     0.002 A 
ATOM      4  C5  UNL d   1      -1.396   0.383   2.121  0.00  0.00    -0.004 A 
ATOM      5  C6  UNL d   1      -2.094   0.443   0.915  0.00  0.00     0.002 A 
ATOM      6  C7  UNL d   1      -1.398   0.506  -0.292  0.00  0.00     0.002 A 
ENDROOT
BRANCH   1   7
ATOM      7  C1  UNL d   1       0.754   0.527  -1.611  0.00  0.00     0.055 C 
ATOM      8  C   UNL d   1       0.346  -0.639  -2.499  0.00  0.00     0.019 C 
ENDBRANCH   1   7
TORSDOF 1
ENDMDL
