MODEL 1
REMARK minimizedAffinity -3.85779762
REMARK minimizedRMSD -1
REMARK  1 active torsions:
REMARK  status: ('A' for Active; 'I' for Inactive)
REMARK    1  A    between atoms: C1_2  and  C2_3 
ROOT
ATOM      1  C2  UNL d   1       1.026   0.032  -1.233  0.00  0.00    -0.077 A 
ATOM      2  C3  UNL d   1       1.575  -1.066  -1.910  0.00  0.00     0.002 A 
ATOM      3  C4  UNL d   1       1.155  -1.379  -3.204  0.00  0.00     0.002 A 
ATOM      4  C5  UNL d   1       0.188  -0.598  -3.833  0.00  0.00    -0.004 A 
ATOM      5  C6  UNL d   1      -0.366   0.495  -3.167  0.00  0.00     0.002 A 
ATOM      6  C7  UNL d   1       0.052   0.809  -1.873  0.00  0.00     0.002 A 
ENDROOT
BRANCH   1   7
ATOM      7  C1  UNL d   1       1.513   0.401   0.144  0.00  0.00     0.055 C 
ATOM      8  C   UNL d   1       0.407   0.258   1.180  0.00  0.00     0.019 C 
ENDBRANCH   1   7
TORSDOF 1
ENDMDL
