MODEL 1
REMARK minimizedAffinity -5.22384691
REMARK minimizedRMSD -1
REMARK  1 active torsions:
REMARK  status: ('A' for Active; 'I' for Inactive)
REMARK    1  A    between atoms: C1_2  and  C2_3 
ROOT
ATOM      1  C2  UNL d   1      -0.074  -0.009   0.193  0.00  0.00    -0.077 A 
ATOM      2  C3  UNL d   1       1.059   0.258   0.973  0.00  0.00     0.002 A 
ATOM      3  C4  UNL d   1       1.072  -0.061   2.333  0.00  0.00     0.002 A 
ATOM      4  C5  UNL d   1      -0.044  -0.650   2.922  0.00  0.00    -0.004 A 
ATOM      5  C6  UNL d   1      -1.177  -0.918   2.155  0.00  0.00     0.002 A 
ATOM      6  C7  UNL d   1      -1.192  -0.599   0.797  0.00  0.00     0.002 A 
ENDROOT
BRANCH   1   7
ATOM      7  C1  UNL d   1      -0.072   0.288  -1.284  0.00  0.00     0.055 C 
ATOM      8  C   UNL d   1       0.842  -0.666  -2.039  0.00  0.00     0.019 C 
ENDBRANCH   1   7
TORSDOF 1
ENDMDL
