MODEL 1
REMARK minimizedAffinity -3.15757775
REMARK minimizedRMSD -1
REMARK  1 active torsions:
REMARK  status: ('A' for Active; 'I' for Inactive)
REMARK    1  A    between atoms: C1_2  and  C2_3 
ROOT
ATOM      1  C2  UNL d   1       0.244   0.286  -0.813  0.00  0.00    -0.077 A 
ATOM      2  C3  UNL d   1       1.019   0.111   0.342  0.00  0.00     0.002 A 
ATOM      3  C4  UNL d   1       0.407  -0.106   1.578  0.00  0.00     0.002 A 
ATOM      4  C5  UNL d   1      -0.983  -0.154   1.670  0.00  0.00    -0.004 A 
ATOM      5  C6  UNL d   1      -1.763   0.022   0.527  0.00  0.00     0.002 A 
ATOM      6  C7  UNL d   1      -1.152   0.240  -0.709  0.00  0.00     0.002 A 
ENDROOT
BRANCH   1   7
ATOM      7  C1  UNL d   1       0.904   0.471  -2.154  0.00  0.00     0.055 C 
ATOM      8  C   UNL d   1       0.739  -0.764  -3.027  0.00  0.00     0.019 C 
ENDBRANCH   1   7
TORSDOF 1
ENDMDL
