MODEL 1
REMARK minimizedAffinity -5.33873892
REMARK minimizedRMSD -1
REMARK  1 active torsions:
REMARK  status: ('A' for Active; 'I' for Inactive)
REMARK    1  A    between atoms: C1_2  and  C2_3 
ROOT
ATOM      1  C2  UNL d   1      -1.173   0.320  -0.156  0.00  0.00    -0.077 A 
ATOM      2  C3  UNL d   1      -2.530   0.431   0.179  0.00  0.00     0.002 A 
ATOM      3  C4  UNL d   1      -2.990  -0.012   1.420  0.00  0.00     0.002 A 
ATOM      4  C5  UNL d   1      -2.100  -0.565   2.338  0.00  0.00    -0.004 A 
ATOM      5  C6  UNL d   1      -0.749  -0.682   2.014  0.00  0.00     0.002 A 
ATOM      6  C7  UNL d   1      -0.287  -0.241   0.773  0.00  0.00     0.002 A 
ENDROOT
BRANCH   1   7
ATOM      7  C1  UNL d   1      -0.667   0.842  -1.475  0.00  0.00     0.055 C 
ATOM      8  C   UNL d   1       0.287  -0.145  -2.132  0.00  0.00     0.019 C 
ENDBRANCH   1   7
TORSDOF 1
ENDMDL
