MODEL 1
REMARK minimizedAffinity -5.69844818
REMARK minimizedRMSD -1
REMARK  1 active torsions:
REMARK  status: ('A' for Active; 'I' for Inactive)
REMARK    1  A    between atoms: C1_2  and  C2_3 
ROOT
ATOM      1  C2  UNL d   1      -1.047  -0.078   0.584  0.00  0.00    -0.077 A 
ATOM      2  C3  UNL d   1      -2.382   0.188   0.918  0.00  0.00     0.002 A 
ATOM      3  C4  UNL d   1      -2.802   0.135   2.248  0.00  0.00     0.002 A 
ATOM      4  C5  UNL d   1      -1.893  -0.180   3.256  0.00  0.00    -0.004 A 
ATOM      5  C6  UNL d   1      -0.563  -0.448   2.934  0.00  0.00     0.002 A 
ATOM      6  C7  UNL d   1      -0.141  -0.397   1.605  0.00  0.00     0.002 A 
ENDROOT
BRANCH   1   7
ATOM      7  C1  UNL d   1      -0.581   0.027  -0.844  0.00  0.00     0.055 C 
ATOM      8  C   UNL d   1       0.894   0.394  -0.920  0.00  0.00     0.019 C 
ENDBRANCH   1   7
TORSDOF 1
ENDMDL
