MODEL 1
REMARK minimizedAffinity -4.13251734
REMARK minimizedRMSD -1
REMARK  1 active torsions:
REMARK  status: ('A' for Active; 'I' for Inactive)
REMARK    1  A    between atoms: C1_2  and  C2_3 
ROOT
ATOM      1  C2  UNL d   1      -0.051  -0.076   1.394  0.00  0.00    -0.077 A 
ATOM      2  C3  UNL d   1      -1.224  -0.267   0.650  0.00  0.00     0.002 A 
ATOM      3  C4  UNL d   1      -2.454  -0.402   1.295  0.00  0.00     0.002 A 
ATOM      4  C5  UNL d   1      -2.525  -0.344   2.685  0.00  0.00    -0.004 A 
ATOM      5  C6  UNL d   1      -1.363  -0.157   3.434  0.00  0.00     0.002 A 
ATOM      6  C7  UNL d   1      -0.132  -0.022   2.791  0.00  0.00     0.002 A 
ENDROOT
BRANCH   1   7
ATOM      7  C1  UNL d   1       1.271   0.120   0.698  0.00  0.00     0.055 C 
ATOM      8  C   UNL d   1       1.080   0.660  -0.711  0.00  0.00     0.019 C 
ENDBRANCH   1   7
TORSDOF 1
ENDMDL
