MODEL 1
REMARK minimizedAffinity -4.93366671
REMARK minimizedRMSD -1
REMARK  1 active torsions:
REMARK  status: ('A' for Active; 'I' for Inactive)
REMARK    1  A    between atoms: C1_2  and  C2_3 
ROOT
ATOM      1  C2  UNL d   1      -0.307  -0.080   0.998  0.00  0.00    -0.077 A 
ATOM      2  C3  UNL d   1      -1.611   0.181   0.555  0.00  0.00     0.002 A 
ATOM      3  C4  UNL d   1      -2.661   0.281   1.469  0.00  0.00     0.002 A 
ATOM      4  C5  UNL d   1      -2.417   0.127   2.832  0.00  0.00    -0.004 A 
ATOM      5  C6  UNL d   1      -1.124  -0.134   3.283  0.00  0.00     0.002 A 
ATOM      6  C7  UNL d   1      -0.073  -0.236   2.370  0.00  0.00     0.002 A 
ENDROOT
BRANCH   1   7
ATOM      7  C1  UNL d   1       0.835  -0.139   0.018  0.00  0.00     0.055 C 
ATOM      8  C   UNL d   1       0.333  -0.141  -1.418  0.00  0.00     0.019 C 
ENDBRANCH   1   7
TORSDOF 1
ENDMDL
