MODEL 1
REMARK minimizedAffinity -4.29993057
REMARK minimizedRMSD -1
REMARK  3 active torsions:
REMARK  status: ('A' for Active; 'I' for Inactive)
REMARK    1  A    between atoms: C3'_2  and  C2'_3 
REMARK    2  A    between atoms: C2'_3  and  C1'_4 
REMARK    3  A    between atoms: C1'_4  and  C1_5 
ROOT
ATOM      1  C1  N4B d   1      -0.137  -0.141  -0.500  0.00  0.00    -0.075 A 
ATOM      2  C2  N4B d   1       0.423  -1.383  -0.126  0.00  0.00     0.002 A 
ATOM      3  C3  N4B d   1       1.586  -1.816  -0.715  0.00  0.00     0.002 A 
ATOM      4  C4  N4B d   1       2.194  -1.037  -1.688  0.00  0.00    -0.004 A 
ATOM      5  C5  N4B d   1       1.660   0.172  -2.025  0.00  0.00     0.002 A 
ATOM      6  C6  N4B d   1       0.494   0.622  -1.439  0.00  0.00     0.002 A 
ENDROOT
BRANCH   1   7
ATOM      7  C1' N4B d   1      -1.452   0.335   0.053  0.00  0.00     0.057 C 
BRANCH   7   8
ATOM      8  C2' N4B d   1      -1.257   0.775   1.501  0.00  0.00     0.009 C 
BRANCH   8   9
ATOM      9  C3' N4B d   1      -2.487   0.501   2.349  0.00  0.00     0.004 C 
ATOM     10  C4' N4B d   1      -2.553   1.366   3.572  0.00  0.00     0.003 C 
ENDBRANCH   8   9
ENDBRANCH   7   8
ENDBRANCH   1   7
TORSDOF 3
ENDMDL
