MODEL 1
REMARK minimizedAffinity -2.9131155
REMARK minimizedRMSD -1
REMARK  3 active torsions:
REMARK  status: ('A' for Active; 'I' for Inactive)
REMARK    1  A    between atoms: C3'_2  and  C2'_3 
REMARK    2  A    between atoms: C2'_3  and  C1'_4 
REMARK    3  A    between atoms: C1'_4  and  C1_5 
ROOT
ATOM      1  C1  N4B d   1      -1.445   0.658   1.187  0.00  0.00    -0.075 A 
ATOM      2  C2  N4B d   1      -0.969   1.885   1.699  0.00  0.00     0.002 A 
ATOM      3  C3  N4B d   1      -1.369   2.311   2.942  0.00  0.00     0.002 A 
ATOM      4  C4  N4B d   1      -2.254   1.540   3.680  0.00  0.00    -0.004 A 
ATOM      5  C5  N4B d   1      -2.688   0.343   3.189  0.00  0.00     0.002 A 
ATOM      6  C6  N4B d   1      -2.292  -0.099   1.943  0.00  0.00     0.002 A 
ENDROOT
BRANCH   1   7
ATOM      7  C1' N4B d   1      -1.105   0.191  -0.202  0.00  0.00     0.057 C 
BRANCH   7   8
ATOM      8  C2' N4B d   1      -0.399  -1.159  -0.118  0.00  0.00     0.009 C 
BRANCH   8   9
ATOM      9  C3' N4B d   1       1.113  -1.011  -0.123  0.00  0.00     0.004 C 
ATOM     10  C4' N4B d   1       1.731  -1.400  -1.432  0.00  0.00     0.003 C 
ENDBRANCH   8   9
ENDBRANCH   7   8
ENDBRANCH   1   7
TORSDOF 3
ENDMDL
