MODEL 1
REMARK minimizedAffinity -5.2181778
REMARK minimizedRMSD -1
REMARK  3 active torsions:
REMARK  status: ('A' for Active; 'I' for Inactive)
REMARK    1  A    between atoms: C3'_2  and  C2'_3 
REMARK    2  A    between atoms: C2'_3  and  C1'_4 
REMARK    3  A    between atoms: C1'_4  and  C1_5 
ROOT
ATOM      1  C1  N4B d   1      -0.887   0.171   0.055  0.00  0.00    -0.075 A 
ATOM      2  C2  N4B d   1      -1.014  -1.235   0.098  0.00  0.00     0.002 A 
ATOM      3  C3  N4B d   1       0.086  -2.031  -0.107  0.00  0.00     0.002 A 
ATOM      4  C4  N4B d   1       1.315  -1.446  -0.375  0.00  0.00    -0.004 A 
ATOM      5  C5  N4B d   1       1.434  -0.087  -0.390  0.00  0.00     0.002 A 
ATOM      6  C6  N4B d   1       0.338   0.725  -0.181  0.00  0.00     0.002 A 
ENDROOT
BRANCH   1   7
ATOM      7  C1' N4B d   1      -2.078   1.080   0.188  0.00  0.00     0.057 C 
BRANCH   7   8
ATOM      8  C2' N4B d   1      -2.800   0.772   1.496  0.00  0.00     0.009 C 
BRANCH   8   9
ATOM      9  C3' N4B d   1      -2.272   1.610   2.648  0.00  0.00     0.004 C 
ATOM     10  C4' N4B d   1      -2.542   0.993   3.987  0.00  0.00     0.003 C 
ENDBRANCH   8   9
ENDBRANCH   7   8
ENDBRANCH   1   7
TORSDOF 3
ENDMDL
