MODEL 1
REMARK minimizedAffinity -5.71401358
REMARK minimizedRMSD -1
REMARK  3 active torsions:
REMARK  status: ('A' for Active; 'I' for Inactive)
REMARK    1  A    between atoms: C3'_2  and  C2'_3 
REMARK    2  A    between atoms: C2'_3  and  C1'_4 
REMARK    3  A    between atoms: C1'_4  and  C1_5 
ROOT
ATOM      1  C1  N4B d   1      -0.197   0.173  -0.088  0.00  0.00    -0.075 A 
ATOM      2  C2  N4B d   1       1.080   0.626  -0.487  0.00  0.00     0.002 A 
ATOM      3  C3  N4B d   1       2.029  -0.275  -0.902  0.00  0.00     0.002 A 
ATOM      4  C4  N4B d   1       1.733  -1.630  -0.909  0.00  0.00    -0.004 A 
ATOM      5  C5  N4B d   1       0.489  -2.057  -0.546  0.00  0.00     0.002 A 
ATOM      6  C6  N4B d   1      -0.477  -1.162  -0.130  0.00  0.00     0.002 A 
ENDROOT
BRANCH   1   7
ATOM      7  C1' N4B d   1      -1.239   1.112   0.455  0.00  0.00     0.057 C 
BRANCH   7   8
ATOM      8  C2' N4B d   1      -1.836   0.517   1.726  0.00  0.00     0.009 C 
BRANCH   8   9
ATOM      9  C3' N4B d   1      -1.819   1.506   2.879  0.00  0.00     0.004 C 
ATOM     10  C4' N4B d   1      -2.020   0.848   4.212  0.00  0.00     0.003 C 
ENDBRANCH   8   9
ENDBRANCH   7   8
ENDBRANCH   1   7
TORSDOF 3
ENDMDL
