MODEL 1
REMARK minimizedAffinity -4.67792416
REMARK minimizedRMSD -1
REMARK  3 active torsions:
REMARK  status: ('A' for Active; 'I' for Inactive)
REMARK    1  A    between atoms: C3'_2  and  C2'_3 
REMARK    2  A    between atoms: C2'_3  and  C1'_4 
REMARK    3  A    between atoms: C1'_4  and  C1_5 
ROOT
ATOM      1  C1  N4B d   1       1.174  -0.104  -0.819  0.00  0.00    -0.075 A 
ATOM      2  C2  N4B d   1       2.319  -0.833  -1.209  0.00  0.00     0.002 A 
ATOM      3  C3  N4B d   1       3.216  -0.282  -2.092  0.00  0.00     0.002 A 
ATOM      4  C4  N4B d   1       2.979   0.982  -2.611  0.00  0.00    -0.004 A 
ATOM      5  C5  N4B d   1       1.884   1.689  -2.210  0.00  0.00     0.002 A 
ATOM      6  C6  N4B d   1       0.977   1.151  -1.320  0.00  0.00     0.002 A 
ENDROOT
BRANCH   1   7
ATOM      7  C1' N4B d   1       0.122  -0.697   0.078  0.00  0.00     0.057 C 
BRANCH   7   8
ATOM      8  C2' N4B d   1      -0.928   0.365   0.389  0.00  0.00     0.009 C 
BRANCH   8   9
ATOM      9  C3' N4B d   1      -1.959  -0.131   1.387  0.00  0.00     0.004 C 
ATOM     10  C4' N4B d   1      -1.814   0.505   2.738  0.00  0.00     0.003 C 
ENDBRANCH   8   9
ENDBRANCH   7   8
ENDBRANCH   1   7
TORSDOF 3
ENDMDL
