MODEL 1
REMARK minimizedAffinity -4.0520134
REMARK minimizedRMSD -1
REMARK  3 active torsions:
REMARK  status: ('A' for Active; 'I' for Inactive)
REMARK    1  A    between atoms: C3'_2  and  C2'_3 
REMARK    2  A    between atoms: C2'_3  and  C1'_4 
REMARK    3  A    between atoms: C1'_4  and  C1_5 
ROOT
ATOM      1  C1  N4B d   1      -0.488  -0.195  -0.378  0.00  0.00    -0.075 A 
ATOM      2  C2  N4B d   1      -0.240  -1.577  -0.224  0.00  0.00     0.002 A 
ATOM      3  C3  N4B d   1       0.860  -2.147  -0.817  0.00  0.00     0.002 A 
ATOM      4  C4  N4B d   1       1.712  -1.362  -1.579  0.00  0.00    -0.004 A 
ATOM      5  C5  N4B d   1       1.480  -0.023  -1.701  0.00  0.00     0.002 A 
ATOM      6  C6  N4B d   1       0.380   0.564  -1.108  0.00  0.00     0.002 A 
ENDROOT
BRANCH   1   7
ATOM      7  C1' N4B d   1      -1.724   0.457   0.180  0.00  0.00     0.057 C 
BRANCH   7   8
ATOM      8  C2' N4B d   1      -1.934  -0.014   1.616  0.00  0.00     0.009 C 
BRANCH   8   9
ATOM      9  C3' N4B d   1      -1.496   1.032   2.626  0.00  0.00     0.004 C 
ATOM     10  C4' N4B d   1      -1.736   0.606   4.044  0.00  0.00     0.003 C 
ENDBRANCH   8   9
ENDBRANCH   7   8
ENDBRANCH   1   7
TORSDOF 3
ENDMDL
