MODEL 1
REMARK minimizedAffinity -6.12455368
REMARK minimizedRMSD -1
REMARK  3 active torsions:
REMARK  status: ('A' for Active; 'I' for Inactive)
REMARK    1  A    between atoms: C3'_2  and  C2'_3 
REMARK    2  A    between atoms: C2'_3  and  C1'_4 
REMARK    3  A    between atoms: C1'_4  and  C1_5 
ROOT
ATOM      1  C1  N4B d   1      -0.139   0.180  -0.154  0.00  0.00    -0.075 A 
ATOM      2  C2  N4B d   1       0.937   0.813  -0.815  0.00  0.00     0.002 A 
ATOM      3  C3  N4B d   1       2.036   0.082  -1.193  0.00  0.00     0.002 A 
ATOM      4  C4  N4B d   1       2.090  -1.273  -0.905  0.00  0.00    -0.004 A 
ATOM      5  C5  N4B d   1       1.036  -1.882  -0.290  0.00  0.00     0.002 A 
ATOM      6  C6  N4B d   1      -0.077  -1.161   0.093  0.00  0.00     0.002 A 
ENDROOT
BRANCH   1   7
ATOM      7  C1' N4B d   1      -1.324   0.954   0.355  0.00  0.00     0.057 C 
BRANCH   7   8
ATOM      8  C2' N4B d   1      -1.959   0.192   1.515  0.00  0.00     0.009 C 
BRANCH   8   9
ATOM      9  C3' N4B d   1      -2.227   1.093   2.708  0.00  0.00     0.004 C 
ATOM     10  C4' N4B d   1      -2.299   0.338   4.002  0.00  0.00     0.003 C 
ENDBRANCH   8   9
ENDBRANCH   7   8
ENDBRANCH   1   7
TORSDOF 3
ENDMDL
