MODEL 1
REMARK minimizedAffinity -4.69564867
REMARK minimizedRMSD -1
REMARK  3 active torsions:
REMARK  status: ('A' for Active; 'I' for Inactive)
REMARK    1  A    between atoms: C3'_2  and  C2'_3 
REMARK    2  A    between atoms: C2'_3  and  C1'_4 
REMARK    3  A    between atoms: C1'_4  and  C1_5 
ROOT
ATOM      1  C1  N4B d   1       0.622   0.966  -0.792  0.00  0.00    -0.075 A 
ATOM      2  C2  N4B d   1      -0.491   1.746  -1.173  0.00  0.00     0.002 A 
ATOM      3  C3  N4B d   1      -1.757   1.362  -0.805  0.00  0.00     0.002 A 
ATOM      4  C4  N4B d   1      -1.935   0.197  -0.074  0.00  0.00    -0.004 A 
ATOM      5  C5  N4B d   1      -0.853  -0.537   0.312  0.00  0.00     0.002 A 
ATOM      6  C6  N4B d   1       0.426  -0.161  -0.048  0.00  0.00     0.002 A 
ENDROOT
BRANCH   1   7
ATOM      7  C1' N4B d   1       2.018   1.299  -1.244  0.00  0.00     0.057 C 
BRANCH   7   8
ATOM      8  C2' N4B d   1       2.953   0.156  -0.864  0.00  0.00     0.009 C 
BRANCH   8   9
ATOM      9  C3' N4B d   1       3.410  -0.633  -2.080  0.00  0.00     0.004 C 
ATOM     10  C4' N4B d   1       2.301  -1.423  -2.710  0.00  0.00     0.003 C 
ENDBRANCH   8   9
ENDBRANCH   7   8
ENDBRANCH   1   7
TORSDOF 3
ENDMDL
