MODEL 1
REMARK minimizedAffinity -2.86796093
REMARK minimizedRMSD -1
REMARK  3 active torsions:
REMARK  status: ('A' for Active; 'I' for Inactive)
REMARK    1  A    between atoms: C3'_2  and  C2'_3 
REMARK    2  A    between atoms: C2'_3  and  C1'_4 
REMARK    3  A    between atoms: C1'_4  and  C1_5 
ROOT
ATOM      1  C1  N4B d   1      -1.494   0.619   1.620  0.00  0.00    -0.075 A 
ATOM      2  C2  N4B d   1      -2.587   0.023   2.286  0.00  0.00     0.002 A 
ATOM      3  C3  N4B d   1      -2.961   0.471   3.529  0.00  0.00     0.002 A 
ATOM      4  C4  N4B d   1      -2.249   1.497   4.132  0.00  0.00    -0.004 A 
ATOM      5  C5  N4B d   1      -1.210   2.085   3.471  0.00  0.00     0.002 A 
ATOM      6  C6  N4B d   1      -0.826   1.648   2.219  0.00  0.00     0.002 A 
ENDROOT
BRANCH   1   7
ATOM      7  C1' N4B d   1      -0.994   0.107   0.297  0.00  0.00     0.057 C 
BRANCH   7   8
ATOM      8  C2' N4B d   1      -1.064   1.230  -0.734  0.00  0.00     0.009 C 
BRANCH   8   9
ATOM      9  C3' N4B d   1       0.307   1.582  -1.283  0.00  0.00     0.004 C 
ATOM     10  C4' N4B d   1       1.384   0.662  -0.792  0.00  0.00     0.003 C 
ENDBRANCH   8   9
ENDBRANCH   7   8
ENDBRANCH   1   7
TORSDOF 3
ENDMDL
