MODEL 1
REMARK minimizedAffinity -5.42353487
REMARK minimizedRMSD -1
REMARK  3 active torsions:
REMARK  status: ('A' for Active; 'I' for Inactive)
REMARK    1  A    between atoms: C3'_2  and  C2'_3 
REMARK    2  A    between atoms: C2'_3  and  C1'_4 
REMARK    3  A    between atoms: C1'_4  and  C1_5 
ROOT
ATOM      1  C1  N4B d   1      -0.351  -0.010   0.085  0.00  0.00    -0.075 A 
ATOM      2  C2  N4B d   1       0.814   0.694  -0.291  0.00  0.00     0.002 A 
ATOM      3  C3  N4B d   1       1.870   0.021  -0.857  0.00  0.00     0.002 A 
ATOM      4  C4  N4B d   1       1.791  -1.352  -1.037  0.00  0.00    -0.004 A 
ATOM      5  C5  N4B d   1       0.652  -2.020  -0.694  0.00  0.00     0.002 A 
ATOM      6  C6  N4B d   1      -0.418  -1.356  -0.128  0.00  0.00     0.002 A 
ENDROOT
BRANCH   1   7
ATOM      7  C1' N4B d   1      -1.497   0.669   0.786  0.00  0.00     0.057 C 
BRANCH   7   8
ATOM      8  C2' N4B d   1      -1.796  -0.070   2.087  0.00  0.00     0.009 C 
BRANCH   8   9
ATOM      9  C3' N4B d   1      -2.486   0.825   3.102  0.00  0.00     0.004 C 
ATOM     10  C4' N4B d   1      -1.685   2.047   3.439  0.00  0.00     0.003 C 
ENDBRANCH   8   9
ENDBRANCH   7   8
ENDBRANCH   1   7
TORSDOF 3
ENDMDL
