MODEL 1
REMARK minimizedAffinity 16.6079521
REMARK minimizedRMSD -1
REMARK  3 active torsions:
REMARK  status: ('A' for Active; 'I' for Inactive)
REMARK    1  A    between atoms: C3'_2  and  C2'_3 
REMARK    2  A    between atoms: C2'_3  and  C1'_4 
REMARK    3  A    between atoms: C1'_4  and  C1_5 
ROOT
ATOM      1  C1  N4B d   1       2.200  -2.295  -0.965  0.00  0.00    -0.075 A 
ATOM      2  C2  N4B d   1       3.068  -3.004  -1.824  0.00  0.00     0.002 A 
ATOM      3  C3  N4B d   1       3.256  -2.576  -3.116  0.00  0.00     0.002 A 
ATOM      4  C4  N4B d   1       2.575  -1.458  -3.574  0.00  0.00    -0.004 A 
ATOM      5  C5  N4B d   1       1.758  -0.764  -2.730  0.00  0.00     0.002 A 
ATOM      6  C6  N4B d   1       1.563  -1.180  -1.429  0.00  0.00     0.002 A 
ENDROOT
BRANCH   1   7
ATOM      7  C1' N4B d   1       1.897  -2.773   0.428  0.00  0.00     0.057 C 
BRANCH   7   8
ATOM      8  C2' N4B d   1       2.597  -1.864   1.434  0.00  0.00     0.009 C 
BRANCH   8   9
ATOM      9  C3' N4B d   1       1.960  -1.942   2.811  0.00  0.00     0.004 C 
ATOM     10  C4' N4B d   1       0.505  -1.579   2.799  0.00  0.00     0.003 C 
ENDBRANCH   8   9
ENDBRANCH   7   8
ENDBRANCH   1   7
TORSDOF 3
ENDMDL
