MODEL 1
REMARK minimizedAffinity 14.362566
REMARK minimizedRMSD -1
REMARK  3 active torsions:
REMARK  status: ('A' for Active; 'I' for Inactive)
REMARK    1  A    between atoms: C3'_2  and  C2'_3 
REMARK    2  A    between atoms: C2'_3  and  C1'_4 
REMARK    3  A    between atoms: C1'_4  and  C1_5 
ROOT
ATOM      1  C1  N4B d   1      -3.965  -1.427  -1.535  0.00  0.00    -0.075 A 
ATOM      2  C2  N4B d   1      -4.746  -0.527  -0.778  0.00  0.00     0.002 A 
ATOM      3  C3  N4B d   1      -4.462   0.817  -0.802  0.00  0.00     0.002 A 
ATOM      4  C4  N4B d   1      -3.395   1.279  -1.558  0.00  0.00    -0.004 A 
ATOM      5  C5  N4B d   1      -2.661   0.405  -2.307  0.00  0.00     0.002 A 
ATOM      6  C6  N4B d   1      -2.938  -0.947  -2.295  0.00  0.00     0.002 A 
ENDROOT
BRANCH   1   7
ATOM      7  C1' N4B d   1      -4.184  -2.914  -1.473  0.00  0.00     0.057 C 
BRANCH   7   8
ATOM      8  C2' N4B d   1      -2.887  -3.627  -1.845  0.00  0.00     0.009 C 
BRANCH   8   9
ATOM      9  C3' N4B d   1      -2.989  -5.130  -1.652  0.00  0.00     0.004 C 
ATOM     10  C4' N4B d   1      -1.736  -5.730  -1.088  0.00  0.00     0.003 C 
ENDBRANCH   8   9
ENDBRANCH   7   8
ENDBRANCH   1   7
TORSDOF 3
ENDMDL
