MODEL 1
REMARK minimizedAffinity 6.22022152
REMARK minimizedRMSD -1
REMARK  3 active torsions:
REMARK  status: ('A' for Active; 'I' for Inactive)
REMARK    1  A    between atoms: C3'_2  and  C2'_3 
REMARK    2  A    between atoms: C2'_3  and  C1'_4 
REMARK    3  A    between atoms: C1'_4  and  C1_5 
ROOT
ATOM      1  C1  N4B d   1       2.841   0.285  -0.528  0.00  0.00    -0.075 A 
ATOM      2  C2  N4B d   1       3.366  -0.181   0.697  0.00  0.00     0.002 A 
ATOM      3  C3  N4B d   1       3.071  -1.449   1.133  0.00  0.00     0.002 A 
ATOM      4  C4  N4B d   1       2.242  -2.260   0.373  0.00  0.00    -0.004 A 
ATOM      5  C5  N4B d   1       1.760  -1.812  -0.822  0.00  0.00     0.002 A 
ATOM      6  C6  N4B d   1       2.051  -0.541  -1.274  0.00  0.00     0.002 A 
ENDROOT
BRANCH   1   7
ATOM      7  C1' N4B d   1       3.066   1.694  -1.005  0.00  0.00     0.057 C 
BRANCH   7   8
ATOM      8  C2' N4B d   1       4.564   1.937  -1.159  0.00  0.00     0.009 C 
BRANCH   8   9
ATOM      9  C3' N4B d   1       5.182   2.500   0.109  0.00  0.00     0.004 C 
ATOM     10  C4' N4B d   1       5.999   3.733  -0.140  0.00  0.00     0.003 C 
ENDBRANCH   8   9
ENDBRANCH   7   8
ENDBRANCH   1   7
TORSDOF 3
ENDMDL
