MODEL 1
REMARK minimizedAffinity 1.17784548
REMARK minimizedRMSD -1
REMARK  3 active torsions:
REMARK  status: ('A' for Active; 'I' for Inactive)
REMARK    1  A    between atoms: C3'_2  and  C2'_3 
REMARK    2  A    between atoms: C2'_3  and  C1'_4 
REMARK    3  A    between atoms: C1'_4  and  C1_5 
ROOT
ATOM      1  C1  N4B d   1      -5.095   3.742   2.930  0.00  0.00    -0.075 A 
ATOM      2  C2  N4B d   1      -5.651   4.858   2.266  0.00  0.00     0.002 A 
ATOM      3  C3  N4B d   1      -5.999   5.979   2.979  0.00  0.00     0.002 A 
ATOM      4  C4  N4B d   1      -5.819   6.000   4.354  0.00  0.00    -0.004 A 
ATOM      5  C5  N4B d   1      -5.258   4.928   4.985  0.00  0.00     0.002 A 
ATOM      6  C6  N4B d   1      -4.900   3.796   4.280  0.00  0.00     0.002 A 
ENDROOT
BRANCH   1   7
ATOM      7  C1' N4B d   1      -4.779   2.463   2.205  0.00  0.00     0.057 C 
BRANCH   7   8
ATOM      8  C2' N4B d   1      -4.685   2.745   0.708  0.00  0.00     0.009 C 
BRANCH   8   9
ATOM      9  C3' N4B d   1      -4.177   1.542  -0.066  0.00  0.00     0.004 C 
ATOM     10  C4' N4B d   1      -5.284   0.726  -0.664  0.00  0.00     0.003 C 
ENDBRANCH   8   9
ENDBRANCH   7   8
ENDBRANCH   1   7
TORSDOF 3
ENDMDL
