MODEL 1
REMARK minimizedAffinity 4.03967953
REMARK minimizedRMSD -1
REMARK  0 active torsions:
REMARK  status: ('A' for Active; 'I' for Inactive)
ROOT
ATOM      1  C   UNL d   1       0.985   4.247  -5.082  0.00  0.00     0.023 A 
ATOM      2  C1  UNL d   1       2.112   3.521  -4.697  0.00  0.00     0.003 A 
ATOM      3  C2  UNL d   1       3.389   4.021  -4.958  0.00  0.00     0.048 A 
ATOM      4  C3  UNL d   1       3.533   5.248  -5.603  0.00  0.00     0.023 A 
ATOM      5  C4  UNL d   1       2.408   5.979  -5.990  0.00  0.00     0.048 A 
ATOM      6  C5  UNL d   1       1.133   5.475  -5.728  0.00  0.00     0.003 A 
ATOM      7  I   UNL d   1       5.433   5.995  -5.993  0.00  0.00    -0.146 I 
ENDROOT
TORSDOF 0
ENDMDL
