MODEL 1
REMARK minimizedAffinity 6.99105215
REMARK minimizedRMSD -1
REMARK  0 active torsions:
REMARK  status: ('A' for Active; 'I' for Inactive)
ROOT
ATOM      1  C   UNL d   1       1.246  -1.084   1.284  0.00  0.00     0.023 A 
ATOM      2  C1  UNL d   1       2.513  -1.579   1.594  0.00  0.00     0.003 A 
ATOM      3  C2  UNL d   1       2.838  -2.904   1.294  0.00  0.00     0.048 A 
ATOM      4  C3  UNL d   1       1.893  -3.727   0.684  0.00  0.00     0.023 A 
ATOM      5  C4  UNL d   1       0.624  -3.235   0.371  0.00  0.00     0.048 A 
ATOM      6  C5  UNL d   1       0.303  -1.910   0.674  0.00  0.00     0.003 A 
ATOM      7  I   UNL d   1       2.375  -5.698   0.236  0.00  0.00    -0.146 I 
ENDROOT
TORSDOF 0
ENDMDL
