MODEL 1
REMARK minimizedAffinity 6.07548666
REMARK minimizedRMSD -1
REMARK  0 active torsions:
REMARK  status: ('A' for Active; 'I' for Inactive)
ROOT
ATOM      1  C   UNL d   1       2.795  -2.353   0.873  0.00  0.00     0.023 A 
ATOM      2  C1  UNL d   1       4.173  -2.195   1.019  0.00  0.00     0.003 A 
ATOM      3  C2  UNL d   1       5.036  -3.240   0.685  0.00  0.00     0.048 A 
ATOM      4  C3  UNL d   1       4.515  -4.441   0.204  0.00  0.00     0.023 A 
ATOM      5  C4  UNL d   1       3.137  -4.603   0.055  0.00  0.00     0.048 A 
ATOM      6  C5  UNL d   1       2.277  -3.556   0.391  0.00  0.00     0.003 A 
ATOM      7  I   UNL d   1       5.798  -5.998  -0.294  0.00  0.00    -0.146 I 
ENDROOT
TORSDOF 0
ENDMDL
