MODEL 1
REMARK minimizedAffinity 4.91595125
REMARK minimizedRMSD -1
REMARK  0 active torsions:
REMARK  status: ('A' for Active; 'I' for Inactive)
ROOT
ATOM      1  C   UNL d   1       1.971  -1.114   0.322  0.00  0.00     0.023 A 
ATOM      2  C1  UNL d   1       2.353  -2.021  -0.668  0.00  0.00     0.003 A 
ATOM      3  C2  UNL d   1       2.064  -3.379  -0.521  0.00  0.00     0.048 A 
ATOM      4  C3  UNL d   1       1.392  -3.824   0.618  0.00  0.00     0.023 A 
ATOM      5  C4  UNL d   1       1.008  -2.920   1.610  0.00  0.00     0.048 A 
ATOM      6  C5  UNL d   1       1.300  -1.563   1.459  0.00  0.00     0.003 A 
ATOM      7  I   UNL d   1       0.961  -5.845   0.839  0.00  0.00    -0.146 I 
ENDROOT
TORSDOF 0
ENDMDL
