MODEL 1
REMARK minimizedAffinity 9.60121441
REMARK minimizedRMSD -1
REMARK  0 active torsions:
REMARK  status: ('A' for Active; 'I' for Inactive)
ROOT
ATOM      1  C   UNL d   1      -1.513   1.874  -4.214  0.00  0.00     0.023 A 
ATOM      2  C1  UNL d   1      -2.161   1.493  -5.389  0.00  0.00     0.003 A 
ATOM      3  C2  UNL d   1      -3.449   1.961  -5.661  0.00  0.00     0.048 A 
ATOM      4  C3  UNL d   1      -4.082   2.810  -4.754  0.00  0.00     0.023 A 
ATOM      5  C4  UNL d   1      -3.437   3.194  -3.577  0.00  0.00     0.048 A 
ATOM      6  C5  UNL d   1      -2.150   2.723  -3.309  0.00  0.00     0.003 A 
ATOM      7  I   UNL d   1      -5.998   3.508  -5.157  0.00  0.00    -0.146 I 
ENDROOT
TORSDOF 0
ENDMDL
