MODEL 1
REMARK minimizedAffinity 9.36827374
REMARK minimizedRMSD -1
REMARK  0 active torsions:
REMARK  status: ('A' for Active; 'I' for Inactive)
ROOT
ATOM      1  C   UNL d   1       1.126  -1.897   0.778  0.00  0.00     0.023 A 
ATOM      2  C1  UNL d   1       0.358  -2.989   0.374  0.00  0.00     0.003 A 
ATOM      3  C2  UNL d   1       0.982  -4.168  -0.041  0.00  0.00     0.048 A 
ATOM      4  C3  UNL d   1       2.374  -4.247  -0.049  0.00  0.00     0.023 A 
ATOM      5  C4  UNL d   1       3.147  -3.157   0.356  0.00  0.00     0.048 A 
ATOM      6  C5  UNL d   1       2.518  -1.980   0.769  0.00  0.00     0.003 A 
ATOM      7  I   UNL d   1       3.306  -6.000  -0.666  0.00  0.00    -0.146 I 
ENDROOT
TORSDOF 0
ENDMDL
