MODEL 1
REMARK minimizedAffinity -2.30475116
REMARK minimizedRMSD -1
REMARK  0 active torsions:
REMARK  status: ('A' for Active; 'I' for Inactive)
ROOT
ATOM      1  C   UNL d   1       3.739  -5.988   3.997  0.00  0.00     0.172 C 
ATOM      2  N   UNL d   1       4.510  -4.974   4.678  0.00  0.00    -0.070 N 
ATOM      3  C1  UNL d   1       5.513  -5.206   5.581  0.00  0.00    -0.004 A 
ATOM      4  C2  UNL d   1       5.994  -3.985   6.000  0.00  0.00    -0.047 A 
ATOM      5  C3  UNL d   1       5.255  -2.984   5.326  0.00  0.00    -0.047 A 
ATOM      6  C4  UNL d   1       4.342  -3.624   4.514  0.00  0.00    -0.004 A 
ENDROOT
TORSDOF 0
ENDMDL
