MODEL 1
REMARK minimizedAffinity 3.88997626
REMARK minimizedRMSD -1
REMARK  0 active torsions:
REMARK  status: ('A' for Active; 'I' for Inactive)
ROOT
ATOM      1  C   UNL d   1      -2.694   4.636   3.789  0.00  0.00     0.172 C 
ATOM      2  N   UNL d   1      -2.645   3.430   2.996  0.00  0.00    -0.070 N 
ATOM      3  C1  UNL d   1      -3.269   3.241   1.792  0.00  0.00    -0.004 A 
ATOM      4  C2  UNL d   1      -2.978   1.965   1.362  0.00  0.00    -0.047 A 
ATOM      5  C3  UNL d   1      -2.151   1.366   2.342  0.00  0.00    -0.047 A 
ATOM      6  C4  UNL d   1      -1.961   2.295   3.343  0.00  0.00    -0.004 A 
ENDROOT
TORSDOF 0
ENDMDL
