MODEL 1
REMARK minimizedAffinity 2.97816753
REMARK minimizedRMSD -1
REMARK  0 active torsions:
REMARK  status: ('A' for Active; 'I' for Inactive)
ROOT
ATOM      1  C   UNL d   1      -4.972   5.930   3.762  0.00  0.00     0.172 C 
ATOM      2  N   UNL d   1      -3.766   5.529   4.448  0.00  0.00    -0.070 N 
ATOM      3  C1  UNL d   1      -2.846   4.628   3.984  0.00  0.00    -0.004 A 
ATOM      4  C2  UNL d   1      -1.846   4.522   4.927  0.00  0.00    -0.047 A 
ATOM      5  C3  UNL d   1      -2.178   5.389   5.995  0.00  0.00    -0.047 A 
ATOM      6  C4  UNL d   1      -3.371   6.000   5.673  0.00  0.00    -0.004 A 
ENDROOT
TORSDOF 0
ENDMDL
