MODEL 1
REMARK minimizedAffinity 4.18575668
REMARK minimizedRMSD -1
REMARK  0 active torsions:
REMARK  status: ('A' for Active; 'I' for Inactive)
ROOT
ATOM      1  C   UNL d   1      -5.237   3.355   2.045  0.00  0.00     0.172 C 
ATOM      2  N   UNL d   1      -4.250   2.495   2.654  0.00  0.00    -0.070 N 
ATOM      3  C1  UNL d   1      -3.094   2.910   3.260  0.00  0.00    -0.004 A 
ATOM      4  C2  UNL d   1      -2.430   1.790   3.713  0.00  0.00    -0.047 A 
ATOM      5  C3  UNL d   1      -3.213   0.664   3.365  0.00  0.00    -0.047 A 
ATOM      6  C4  UNL d   1      -4.334   1.129   2.711  0.00  0.00    -0.004 A 
ENDROOT
TORSDOF 0
ENDMDL
