MODEL 1
REMARK minimizedAffinity 8.16097927
REMARK minimizedRMSD -1
REMARK  0 active torsions:
REMARK  status: ('A' for Active; 'I' for Inactive)
ROOT
ATOM      1  C   UNL d   1      -4.653   5.990   3.470  0.00  0.00     0.172 C 
ATOM      2  N   UNL d   1      -3.446   5.985   4.263  0.00  0.00    -0.070 N 
ATOM      3  C1  UNL d   1      -3.390   5.969   5.631  0.00  0.00    -0.004 A 
ATOM      4  C2  UNL d   1      -2.061   5.969   5.999  0.00  0.00    -0.047 A 
ATOM      5  C3  UNL d   1      -1.293   5.986   4.811  0.00  0.00    -0.047 A 
ATOM      6  C4  UNL d   1      -2.175   5.996   3.751  0.00  0.00    -0.004 A 
ENDROOT
TORSDOF 0
ENDMDL
