MODEL 1
REMARK minimizedAffinity 3.32505488
REMARK minimizedRMSD -1
REMARK  0 active torsions:
REMARK  status: ('A' for Active; 'I' for Inactive)
ROOT
ATOM      1  C   UNL d   1       5.251   4.660   4.948  0.00  0.00     0.172 C 
ATOM      2  N   UNL d   1       5.426   4.884   3.532  0.00  0.00    -0.070 N 
ATOM      3  C1  UNL d   1       5.051   4.023   2.535  0.00  0.00    -0.004 A 
ATOM      4  C2  UNL d   1       5.389   4.600   1.330  0.00  0.00    -0.047 A 
ATOM      5  C3  UNL d   1       5.990   5.850   1.613  0.00  0.00    -0.047 A 
ATOM      6  C4  UNL d   1       6.000   6.000   2.983  0.00  0.00    -0.004 A 
ENDROOT
TORSDOF 0
ENDMDL
