MODEL 1
REMARK minimizedAffinity -1.0873009
REMARK minimizedRMSD -1
REMARK  0 active torsions:
REMARK  status: ('A' for Active; 'I' for Inactive)
ROOT
ATOM      1  C   UNL d   1      -2.231   3.615   3.535  0.00  0.00     0.172 C 
ATOM      2  N   UNL d   1      -2.920   4.581   4.358  0.00  0.00    -0.070 N 
ATOM      3  C1  UNL d   1      -2.445   5.123   5.522  0.00  0.00    -0.004 A 
ATOM      4  C2  UNL d   1      -3.395   5.998   6.000  0.00  0.00    -0.047 A 
ATOM      5  C3  UNL d   1      -4.481   5.982   5.092  0.00  0.00    -0.047 A 
ATOM      6  C4  UNL d   1      -4.160   5.096   4.085  0.00  0.00    -0.004 A 
ENDROOT
TORSDOF 0
ENDMDL
