MODEL 1
REMARK minimizedAffinity 1.88136864
REMARK minimizedRMSD -1
REMARK  0 active torsions:
REMARK  status: ('A' for Active; 'I' for Inactive)
ROOT
ATOM      1  C   UNL d   1       5.818   5.999   5.218  0.00  0.00     0.172 C 
ATOM      2  N   UNL d   1       5.260   5.561   3.961  0.00  0.00    -0.070 N 
ATOM      3  C1  UNL d   1       5.828   4.651   3.109  0.00  0.00    -0.004 A 
ATOM      4  C2  UNL d   1       4.988   4.506   2.026  0.00  0.00    -0.047 A 
ATOM      5  C3  UNL d   1       3.878   5.358   2.233  0.00  0.00    -0.047 A 
ATOM      6  C4  UNL d   1       4.072   6.000   3.438  0.00  0.00    -0.004 A 
ENDROOT
TORSDOF 0
ENDMDL
