MODEL 1
REMARK minimizedAffinity 6.47542524
REMARK minimizedRMSD -1
REMARK  0 active torsions:
REMARK  status: ('A' for Active; 'I' for Inactive)
ROOT
ATOM      1  C   UNL d   1       0.513  -0.382  -2.376  0.00  0.00     0.172 C 
ATOM      2  N   UNL d   1      -0.722  -0.038  -1.712  0.00  0.00    -0.070 N 
ATOM      3  C1  UNL d   1      -1.407  -0.838  -0.836  0.00  0.00    -0.004 A 
ATOM      4  C2  UNL d   1      -2.528  -0.151  -0.425  0.00  0.00    -0.047 A 
ATOM      5  C3  UNL d   1      -2.518   1.106  -1.077  0.00  0.00    -0.047 A 
ATOM      6  C4  UNL d   1      -1.389   1.149  -1.867  0.00  0.00    -0.004 A 
ENDROOT
TORSDOF 0
ENDMDL
