MODEL 1
REMARK minimizedAffinity 7.64450073
REMARK minimizedRMSD -1
REMARK  0 active torsions:
REMARK  status: ('A' for Active; 'I' for Inactive)
ROOT
ATOM      1  C   UNL d   1      -3.588  -0.345   5.982  0.00  0.00     0.172 C 
ATOM      2  N   UNL d   1      -3.124   0.042   4.670  0.00  0.00    -0.070 N 
ATOM      3  C1  UNL d   1      -2.883  -0.809   3.625  0.00  0.00    -0.004 A 
ATOM      4  C2  UNL d   1      -2.456  -0.053   2.555  0.00  0.00    -0.047 A 
ATOM      5  C3  UNL d   1      -2.438   1.299   2.972  0.00  0.00    -0.047 A 
ATOM      6  C4  UNL d   1      -2.856   1.329   4.285  0.00  0.00    -0.004 A 
ENDROOT
TORSDOF 0
ENDMDL
