MODEL 1
REMARK minimizedAffinity 4.40225983
REMARK minimizedRMSD -1
REMARK  0 active torsions:
REMARK  status: ('A' for Active; 'I' for Inactive)
ROOT
ATOM      1  C   UNL d   1       4.501   4.125   1.040  0.00  0.00     0.172 C 
ATOM      2  N   UNL d   1       4.863   4.733   2.299  0.00  0.00    -0.070 N 
ATOM      3  C1  UNL d   1       4.132   5.679   2.968  0.00  0.00    -0.004 A 
ATOM      4  C2  UNL d   1       4.813   6.000   4.122  0.00  0.00    -0.047 A 
ATOM      5  C3  UNL d   1       5.995   5.221   4.147  0.00  0.00    -0.047 A 
ATOM      6  C4  UNL d   1       6.000   4.446   3.007  0.00  0.00    -0.004 A 
ENDROOT
TORSDOF 0
ENDMDL
