MODEL 1
REMARK minimizedAffinity 5.8477335
REMARK minimizedRMSD -1
REMARK  0 active torsions:
REMARK  status: ('A' for Active; 'I' for Inactive)
ROOT
ATOM      1  C   UNL d   1      -4.716   5.617   3.752  0.00  0.00     0.172 C 
ATOM      2  N   UNL d   1      -3.481   5.380   4.461  0.00  0.00    -0.070 N 
ATOM      3  C1  UNL d   1      -3.093   6.000   5.618  0.00  0.00    -0.004 A 
ATOM      4  C2  UNL d   1      -1.858   5.499   5.972  0.00  0.00    -0.047 A 
ATOM      5  C3  UNL d   1      -1.492   4.546   4.992  0.00  0.00    -0.047 A 
ATOM      6  C4  UNL d   1      -2.514   4.492   4.069  0.00  0.00    -0.004 A 
ENDROOT
TORSDOF 0
ENDMDL
