MODEL 1
REMARK minimizedAffinity 5.12829733
REMARK minimizedRMSD -1
REMARK  0 active torsions:
REMARK  status: ('A' for Active; 'I' for Inactive)
ROOT
ATOM      1  C   UNL d   1      -5.240   0.274   2.213  0.00  0.00     0.172 C 
ATOM      2  N   UNL d   1      -3.799   0.314   2.298  0.00  0.00    -0.070 N 
ATOM      3  C1  UNL d   1      -2.944  -0.642   1.818  0.00  0.00    -0.004 A 
ATOM      4  C2  UNL d   1      -1.657  -0.235   2.095  0.00  0.00    -0.047 A 
ATOM      5  C3  UNL d   1      -1.741   1.008   2.766  0.00  0.00    -0.047 A 
ATOM      6  C4  UNL d   1      -3.079   1.324   2.879  0.00  0.00    -0.004 A 
ENDROOT
TORSDOF 0
ENDMDL
