MODEL 1
REMARK minimizedAffinity 4.81424236
REMARK minimizedRMSD -1
REMARK  0 active torsions:
REMARK  status: ('A' for Active; 'I' for Inactive)
ROOT
ATOM      1  C   UNL d   1       4.036   5.773   1.375  0.00  0.00     0.172 C 
ATOM      2  N   UNL d   1       4.560   5.863   2.717  0.00  0.00    -0.070 N 
ATOM      3  C1  UNL d   1       3.813   5.909   3.864  0.00  0.00    -0.004 A 
ATOM      4  C2  UNL d   1       4.683   5.992   4.931  0.00  0.00    -0.047 A 
ATOM      5  C3  UNL d   1       5.997   5.997   4.406  0.00  0.00    -0.047 A 
ATOM      6  C4  UNL d   1       5.892   5.917   3.034  0.00  0.00    -0.004 A 
ENDROOT
TORSDOF 0
ENDMDL
