MODEL 1
REMARK minimizedAffinity -0.358028471
REMARK minimizedRMSD -1
REMARK  0 active torsions:
REMARK  status: ('A' for Active; 'I' for Inactive)
ROOT
ATOM      1  C   UNL d   1      -2.708   1.028   3.364  0.00  0.00     0.172 C 
ATOM      2  N   UNL d   1      -4.003   0.459   3.655  0.00  0.00    -0.070 N 
ATOM      3  C1  UNL d   1      -4.546   0.307   4.903  0.00  0.00    -0.004 A 
ATOM      4  C2  UNL d   1      -5.788  -0.271   4.754  0.00  0.00    -0.047 A 
ATOM      5  C3  UNL d   1      -5.998  -0.474   3.370  0.00  0.00    -0.047 A 
ATOM      6  C4  UNL d   1      -4.877  -0.013   2.712  0.00  0.00    -0.004 A 
ENDROOT
TORSDOF 0
ENDMDL
