MODEL 1
REMARK minimizedAffinity 3.24258399
REMARK minimizedRMSD -1
REMARK  0 active torsions:
REMARK  status: ('A' for Active; 'I' for Inactive)
ROOT
ATOM      1  C   UNL d   1       2.868   5.959  -4.116  0.00  0.00     0.172 C 
ATOM      2  N   UNL d   1       1.922   5.972  -3.025  0.00  0.00    -0.070 N 
ATOM      3  C1  UNL d   1       2.240   5.969  -1.693  0.00  0.00    -0.004 A 
ATOM      4  C2  UNL d   1       1.062   5.986  -0.978  0.00  0.00    -0.047 A 
ATOM      5  C3  UNL d   1      -0.000   5.999  -1.912  0.00  0.00    -0.047 A 
ATOM      6  C4  UNL d   1       0.560   5.990  -3.172  0.00  0.00    -0.004 A 
ENDROOT
TORSDOF 0
ENDMDL
