MODEL 1
REMARK minimizedAffinity -0.951938927
REMARK minimizedRMSD -1
REMARK  0 active torsions:
REMARK  status: ('A' for Active; 'I' for Inactive)
ROOT
ATOM      1  C   UNL d   1      -3.132  -1.074  -0.038  0.00  0.00     0.172 C 
ATOM      2  N   UNL d   1      -2.381  -0.249   0.879  0.00  0.00    -0.070 N 
ATOM      3  C1  UNL d   1      -2.732   0.031   2.173  0.00  0.00    -0.004 A 
ATOM      4  C2  UNL d   1      -1.758   0.847   2.707  0.00  0.00    -0.047 A 
ATOM      5  C3  UNL d   1      -0.789   1.066   1.700  0.00  0.00    -0.047 A 
ATOM      6  C4  UNL d   1      -1.199   0.376   0.579  0.00  0.00    -0.004 A 
ENDROOT
TORSDOF 0
ENDMDL
