MODEL 1
REMARK minimizedAffinity 2.65343857
REMARK minimizedRMSD -1
REMARK  0 active torsions:
REMARK  status: ('A' for Active; 'I' for Inactive)
ROOT
ATOM      1  C   UNL d   1      -5.915  -0.734   4.953  0.00  0.00     0.172 C 
ATOM      2  N   UNL d   1      -4.694  -0.271   4.337  0.00  0.00    -0.070 N 
ATOM      3  C1  UNL d   1      -3.513  -0.031   4.988  0.00  0.00    -0.004 A 
ATOM      4  C2  UNL d   1      -2.595   0.395   4.053  0.00  0.00    -0.047 A 
ATOM      5  C3  UNL d   1      -3.246   0.413   2.797  0.00  0.00    -0.047 A 
ATOM      6  C4  UNL d   1      -4.545  -0.004   3.002  0.00  0.00    -0.004 A 
ENDROOT
TORSDOF 0
ENDMDL
