MODEL 1
REMARK minimizedAffinity -4.91329288
REMARK minimizedRMSD -1
REMARK  0 active torsions:
REMARK  status: ('A' for Active; 'I' for Inactive)
ROOT
ATOM      1  C   UNL d   1       2.210  -0.824  -2.241  0.00  0.00     0.023 A 
ATOM      2  C1  UNL d   1       1.734   0.476  -2.068  0.00  0.00     0.003 A 
ATOM      3  C2  UNL d   1       0.729   0.734  -1.134  0.00  0.00     0.048 A 
ATOM      4  C3  UNL d   1       0.204  -0.312  -0.376  0.00  0.00     0.023 A 
ATOM      5  C4  UNL d   1       0.677  -1.614  -0.546  0.00  0.00     0.048 A 
ATOM      6  C5  UNL d   1       1.682  -1.868  -1.482  0.00  0.00     0.003 A 
ATOM      7  I   UNL d   1      -1.292   0.069   1.015  0.00  0.00    -0.146 I 
ENDROOT
TORSDOF 0
ENDMDL
