MODEL 1
REMARK minimizedAffinity -1.5314585
REMARK minimizedRMSD -1
REMARK  0 active torsions:
REMARK  status: ('A' for Active; 'I' for Inactive)
ROOT
ATOM      1  C   UNL d   1       2.080   0.021  -1.250  0.00  0.00     0.023 A 
ATOM      2  C1  UNL d   1       1.475  -1.172  -0.851  0.00  0.00     0.003 A 
ATOM      3  C2  UNL d   1       0.250  -1.144  -0.180  0.00  0.00     0.048 A 
ATOM      4  C3  UNL d   1      -0.364   0.078   0.088  0.00  0.00     0.023 A 
ATOM      5  C4  UNL d   1       0.237   1.274  -0.310  0.00  0.00     0.048 A 
ATOM      6  C5  UNL d   1       1.462   1.242  -0.980  0.00  0.00     0.003 A 
ATOM      7  I   UNL d   1      -2.186   0.121   1.086  0.00  0.00    -0.146 I 
ENDROOT
TORSDOF 0
ENDMDL
