MODEL 1
REMARK minimizedAffinity 0.43210727
REMARK minimizedRMSD -1
REMARK  0 active torsions:
REMARK  status: ('A' for Active; 'I' for Inactive)
ROOT
ATOM      1  C   UNL d   1       1.318  -0.232  -0.446  0.00  0.00     0.023 A 
ATOM      2  C1  UNL d   1       0.588  -1.230   0.201  0.00  0.00     0.003 A 
ATOM      3  C2  UNL d   1      -0.609  -0.913   0.847  0.00  0.00     0.048 A 
ATOM      4  C3  UNL d   1      -1.071   0.402   0.841  0.00  0.00     0.023 A 
ATOM      5  C4  UNL d   1      -0.344   1.404   0.195  0.00  0.00     0.048 A 
ATOM      6  C5  UNL d   1       0.852   1.083  -0.449  0.00  0.00     0.003 A 
ATOM      7  I   UNL d   1      -2.852   0.876   1.802  0.00  0.00    -0.146 I 
ENDROOT
TORSDOF 0
ENDMDL
