MODEL 1
REMARK minimizedAffinity -2.97333717
REMARK minimizedRMSD -1
REMARK  0 active torsions:
REMARK  status: ('A' for Active; 'I' for Inactive)
ROOT
ATOM      1  C   UNL d   1       1.421   1.252  -1.558  0.00  0.00     0.023 A 
ATOM      2  C1  UNL d   1       1.690   0.404  -0.484  0.00  0.00     0.003 A 
ATOM      3  C2  UNL d   1       0.684   0.099   0.436  0.00  0.00     0.048 A 
ATOM      4  C3  UNL d   1      -0.588   0.646   0.274  0.00  0.00     0.023 A 
ATOM      5  C4  UNL d   1      -0.862   1.494  -0.800  0.00  0.00     0.048 A 
ATOM      6  C5  UNL d   1       0.147   1.796  -1.716  0.00  0.00     0.003 A 
ATOM      7  I   UNL d   1      -2.087   0.194   1.642  0.00  0.00    -0.146 I 
ENDROOT
TORSDOF 0
ENDMDL
