MODEL 1
REMARK minimizedAffinity -0.49043411
REMARK minimizedRMSD -1
REMARK  0 active torsions:
REMARK  status: ('A' for Active; 'I' for Inactive)
ROOT
ATOM      1  C   UNL d   1       0.278  -1.630  -0.983  0.00  0.00     0.023 A 
ATOM      2  C1  UNL d   1      -0.390  -0.532  -1.525  0.00  0.00     0.003 A 
ATOM      3  C2  UNL d   1      -1.194   0.269  -0.712  0.00  0.00     0.048 A 
ATOM      4  C3  UNL d   1      -1.326  -0.033   0.642  0.00  0.00     0.023 A 
ATOM      5  C4  UNL d   1      -0.660  -1.131   1.190  0.00  0.00     0.048 A 
ATOM      6  C5  UNL d   1       0.143  -1.929   0.373  0.00  0.00     0.003 A 
ATOM      7  I   UNL d   1      -2.523   1.158   1.855  0.00  0.00    -0.146 I 
ENDROOT
TORSDOF 0
ENDMDL
