MODEL 1
REMARK minimizedAffinity -2.32597208
REMARK minimizedRMSD -1
REMARK  0 active torsions:
REMARK  status: ('A' for Active; 'I' for Inactive)
ROOT
ATOM      1  C   UNL d   1      -4.155   5.976  -5.996  0.00  0.00     0.023 A 
ATOM      2  C1  UNL d   1      -3.246   4.918  -5.994  0.00  0.00     0.003 A 
ATOM      3  C2  UNL d   1      -3.707   3.599  -5.995  0.00  0.00     0.048 A 
ATOM      4  C3  UNL d   1      -5.078   3.347  -5.998  0.00  0.00     0.023 A 
ATOM      5  C4  UNL d   1      -5.991   4.402  -6.000  0.00  0.00     0.048 A 
ATOM      6  C5  UNL d   1      -5.526   5.718  -5.998  0.00  0.00     0.003 A 
ATOM      7  I   UNL d   1      -5.766   1.386  -5.999  0.00  0.00    -0.146 I 
ENDROOT
TORSDOF 0
ENDMDL
