MODEL 1
REMARK minimizedAffinity -3.76240182
REMARK minimizedRMSD -1
REMARK  0 active torsions:
REMARK  status: ('A' for Active; 'I' for Inactive)
ROOT
ATOM      1  C   UNL d   1       1.831  -3.109  -0.881  0.00  0.00     0.023 A 
ATOM      2  C1  UNL d   1       0.969  -2.557   0.066  0.00  0.00     0.003 A 
ATOM      3  C2  UNL d   1       0.714  -1.184   0.064  0.00  0.00     0.048 A 
ATOM      4  C3  UNL d   1       1.323  -0.369  -0.889  0.00  0.00     0.023 A 
ATOM      5  C4  UNL d   1       2.186  -0.917  -1.840  0.00  0.00     0.048 A 
ATOM      6  C5  UNL d   1       2.439  -2.290  -1.833  0.00  0.00     0.003 A 
ATOM      7  I   UNL d   1       0.945   1.675  -0.894  0.00  0.00    -0.146 I 
ENDROOT
TORSDOF 0
ENDMDL
