MODEL 1
REMARK minimizedAffinity -0.583397746
REMARK minimizedRMSD -1
REMARK  0 active torsions:
REMARK  status: ('A' for Active; 'I' for Inactive)
ROOT
ATOM      1  C   UNL d   1       2.760  -0.954  -2.059  0.00  0.00     0.023 A 
ATOM      2  C1  UNL d   1       2.019  -1.983  -1.478  0.00  0.00     0.003 A 
ATOM      3  C2  UNL d   1       0.931  -1.683  -0.657  0.00  0.00     0.048 A 
ATOM      4  C3  UNL d   1       0.588  -0.352  -0.421  0.00  0.00     0.023 A 
ATOM      5  C4  UNL d   1       1.327   0.681  -1.001  0.00  0.00     0.048 A 
ATOM      6  C5  UNL d   1       2.415   0.376  -1.821  0.00  0.00     0.003 A 
ATOM      7  I   UNL d   1      -1.031   0.097   0.801  0.00  0.00    -0.146 I 
ENDROOT
TORSDOF 0
ENDMDL
