MODEL 1
REMARK minimizedAffinity -0.411798328
REMARK minimizedRMSD -1
REMARK  0 active torsions:
REMARK  status: ('A' for Active; 'I' for Inactive)
ROOT
ATOM      1  C   UNL d   1      -2.703   0.569   1.990  0.00  0.00     0.023 A 
ATOM      2  C1  UNL d   1      -1.516  -0.050   2.384  0.00  0.00     0.003 A 
ATOM      3  C2  UNL d   1      -0.522  -0.321   1.442  0.00  0.00     0.048 A 
ATOM      4  C3  UNL d   1      -0.721   0.030   0.107  0.00  0.00     0.023 A 
ATOM      5  C4  UNL d   1      -1.906   0.651  -0.292  0.00  0.00     0.048 A 
ATOM      6  C5  UNL d   1      -2.897   0.919   0.654  0.00  0.00     0.003 A 
ATOM      7  I   UNL d   1       0.757  -0.372  -1.298  0.00  0.00    -0.146 I 
ENDROOT
TORSDOF 0
ENDMDL
