MODEL 1
REMARK minimizedAffinity 0.0320470892
REMARK minimizedRMSD -1
REMARK  0 active torsions:
REMARK  status: ('A' for Active; 'I' for Inactive)
ROOT
ATOM      1  C   UNL d   1      -2.208   0.273   0.741  0.00  0.00     0.023 A 
ATOM      2  C1  UNL d   1      -1.045  -0.366   1.170  0.00  0.00     0.003 A 
ATOM      3  C2  UNL d   1       0.158  -0.160   0.490  0.00  0.00     0.048 A 
ATOM      4  C3  UNL d   1       0.190   0.687  -0.617  0.00  0.00     0.023 A 
ATOM      5  C4  UNL d   1      -0.972   1.329  -1.050  0.00  0.00     0.048 A 
ATOM      6  C5  UNL d   1      -2.172   1.119  -0.368  0.00  0.00     0.003 A 
ATOM      7  I   UNL d   1       1.978   0.996  -1.630  0.00  0.00    -0.146 I 
ENDROOT
TORSDOF 0
ENDMDL
