MODEL 1
REMARK minimizedAffinity -4.14669132
REMARK minimizedRMSD -1
REMARK  0 active torsions:
REMARK  status: ('A' for Active; 'I' for Inactive)
ROOT
ATOM      1  C   UNL d   1       2.008   0.338  -2.244  0.00  0.00     0.023 A 
ATOM      2  C1  UNL d   1       1.190  -0.789  -2.160  0.00  0.00     0.003 A 
ATOM      3  C2  UNL d   1       0.266  -0.906  -1.119  0.00  0.00     0.048 A 
ATOM      4  C3  UNL d   1       0.164   0.108  -0.167  0.00  0.00     0.023 A 
ATOM      5  C4  UNL d   1       0.980   1.238  -0.248  0.00  0.00     0.048 A 
ATOM      6  C5  UNL d   1       1.903   1.350  -1.290  0.00  0.00     0.003 A 
ATOM      7  I   UNL d   1      -1.210  -0.065   1.382  0.00  0.00    -0.146 I 
ENDROOT
TORSDOF 0
ENDMDL
