MODEL 1
REMARK minimizedAffinity 1.3470335
REMARK minimizedRMSD -1
REMARK  0 active torsions:
REMARK  status: ('A' for Active; 'I' for Inactive)
ROOT
ATOM      1  C4' PXY d   1      -2.244   0.686   2.902  0.00  0.00     0.077 C 
ATOM      2  C1' PXY d   1       3.087  -1.473   2.332  0.00  0.00     0.077 C 
ATOM      3  C1  PXY d   1       1.685  -0.916   2.473  0.00  0.00    -0.082 A 
ATOM      4  C2  PXY d   1       1.515   0.341   2.851  0.00  0.00     0.003 A 
ATOM      5  C3  PXY d   1       0.253   0.851   3.014  0.00  0.00     0.003 A 
ATOM      6  C4  PXY d   1      -0.846   0.084   2.737  0.00  0.00    -0.082 A 
ATOM      7  C5  PXY d   1      -0.681  -1.196   2.341  0.00  0.00     0.003 A 
ATOM      8  C6  PXY d   1       0.607  -1.708   2.221  0.00  0.00     0.003 A 
ENDROOT
TORSDOF 0
ENDMDL
