MODEL 1
REMARK minimizedAffinity 1.97944474
REMARK minimizedRMSD -1
REMARK  0 active torsions:
REMARK  status: ('A' for Active; 'I' for Inactive)
ROOT
ATOM      1  C4' PXY d   1      -2.120   0.381   3.663  0.00  0.00     0.077 C 
ATOM      2  C1' PXY d   1       2.561  -2.076   1.327  0.00  0.00     0.077 C 
ATOM      3  C1  PXY d   1       1.326  -1.435   1.929  0.00  0.00    -0.082 A 
ATOM      4  C2  PXY d   1       1.461  -0.455   2.808  0.00  0.00     0.003 A 
ATOM      5  C3  PXY d   1       0.355   0.114   3.386  0.00  0.00     0.003 A 
ATOM      6  C4  PXY d   1      -0.902  -0.288   3.022  0.00  0.00    -0.082 A 
ATOM      7  C5  PXY d   1      -1.047  -1.281   2.119  0.00  0.00     0.003 A 
ATOM      8  C6  PXY d   1       0.088  -1.873   1.574  0.00  0.00     0.003 A 
ENDROOT
TORSDOF 0
ENDMDL
