MODEL 1
REMARK minimizedAffinity 2.36419749
REMARK minimizedRMSD -1
REMARK  0 active torsions:
REMARK  status: ('A' for Active; 'I' for Inactive)
ROOT
ATOM      1  C4' PXY d   1       2.840  -2.153   0.980  0.00  0.00     0.077 C 
ATOM      2  C1' PXY d   1      -1.938   0.162   3.266  0.00  0.00     0.077 C 
ATOM      3  C1  PXY d   1      -0.678  -0.435   2.671  0.00  0.00    -0.082 A 
ATOM      4  C2  PXY d   1      -0.767  -1.252   1.634  0.00  0.00     0.003 A 
ATOM      5  C3  PXY d   1       0.359  -1.826   1.104  0.00  0.00     0.003 A 
ATOM      6  C4  PXY d   1       1.595  -1.519   1.607  0.00  0.00    -0.082 A 
ATOM      7  C5  PXY d   1       1.696  -0.679   2.658  0.00  0.00     0.003 A 
ATOM      8  C6  PXY d   1       0.537  -0.139   3.208  0.00  0.00     0.003 A 
ENDROOT
TORSDOF 0
ENDMDL
