MODEL 1
REMARK minimizedAffinity 8.27974129
REMARK minimizedRMSD -1
REMARK  0 active torsions:
REMARK  status: ('A' for Active; 'I' for Inactive)
ROOT
ATOM      1  C4' PXY d   1      -1.386  -1.359   1.106  0.00  0.00     0.077 C 
ATOM      2  C1' PXY d   1       4.217  -1.819  -0.243  0.00  0.00     0.077 C 
ATOM      3  C1  PXY d   1       2.749  -1.705   0.121  0.00  0.00    -0.082 A 
ATOM      4  C2  PXY d   1       1.856  -1.475  -0.827  0.00  0.00     0.003 A 
ATOM      5  C3  PXY d   1       0.529  -1.338  -0.510  0.00  0.00     0.003 A 
ATOM      6  C4  PXY d   1       0.105  -1.490   0.783  0.00  0.00    -0.082 A 
ATOM      7  C5  PXY d   1       1.010  -1.736   1.754  0.00  0.00     0.003 A 
ATOM      8  C6  PXY d   1       2.357  -1.831   1.418  0.00  0.00     0.003 A 
ENDROOT
TORSDOF 0
ENDMDL
