MODEL 1
REMARK minimizedAffinity 1.14132178
REMARK minimizedRMSD -1
REMARK  0 active torsions:
REMARK  status: ('A' for Active; 'I' for Inactive)
ROOT
ATOM      1  C4' PXY d   1       1.411  -0.788  -1.969  0.00  0.00     0.077 C 
ATOM      2  C1' PXY d   1      -1.126  -1.030   3.219  0.00  0.00     0.077 C 
ATOM      3  C1  PXY d   1      -0.449  -0.962   1.864  0.00  0.00    -0.082 A 
ATOM      4  C2  PXY d   1      -1.183  -0.812   0.774  0.00  0.00     0.003 A 
ATOM      5  C3  PXY d   1      -0.590  -0.781  -0.463  0.00  0.00     0.003 A 
ATOM      6  C4  PXY d   1       0.772  -0.851  -0.579  0.00  0.00    -0.082 A 
ATOM      7  C5  PXY d   1       1.528  -0.994   0.529  0.00  0.00     0.003 A 
ATOM      8  C6  PXY d   1       0.904  -1.065   1.771  0.00  0.00     0.003 A 
ENDROOT
TORSDOF 0
ENDMDL
