MODEL 1
REMARK minimizedAffinity 9.71093464
REMARK minimizedRMSD -1
REMARK  0 active torsions:
REMARK  status: ('A' for Active; 'I' for Inactive)
ROOT
ATOM      1  C4' PXY d   1      -2.686   0.485   3.186  0.00  0.00     0.077 C 
ATOM      2  C1' PXY d   1       1.867  -2.755   1.706  0.00  0.00     0.077 C 
ATOM      3  C1  PXY d   1       0.668  -1.905   2.082  0.00  0.00    -0.082 A 
ATOM      4  C2  PXY d   1       0.722  -1.139   3.159  0.00  0.00     0.003 A 
ATOM      5  C3  PXY d   1      -0.364  -0.388   3.531  0.00  0.00     0.003 A 
ATOM      6  C4  PXY d   1      -1.497  -0.382   2.763  0.00  0.00    -0.082 A 
ATOM      7  C5  PXY d   1      -1.556  -1.153   1.657  0.00  0.00     0.003 A 
ATOM      8  C6  PXY d   1      -0.458  -1.939   1.319  0.00  0.00     0.003 A 
ENDROOT
TORSDOF 0
ENDMDL
