MODEL 1
REMARK minimizedAffinity 7.06878948
REMARK minimizedRMSD -1
REMARK  0 active torsions:
REMARK  status: ('A' for Active; 'I' for Inactive)
ROOT
ATOM      1  C4' PXY d   1       3.398  -3.524   1.179  0.00  0.00     0.077 C 
ATOM      2  C1' PXY d   1       1.883   1.273  -1.669  0.00  0.00     0.077 C 
ATOM      3  C1  PXY d   1       2.286   0.010  -0.933  0.00  0.00    -0.082 A 
ATOM      4  C2  PXY d   1       1.639  -0.340   0.168  0.00  0.00     0.003 A 
ATOM      5  C3  PXY d   1       2.011  -1.462   0.863  0.00  0.00     0.003 A 
ATOM      6  C4  PXY d   1       3.020  -2.262   0.399  0.00  0.00    -0.082 A 
ATOM      7  C5  PXY d   1       3.677  -1.918  -0.729  0.00  0.00     0.003 A 
ATOM      8  C6  PXY d   1       3.312  -0.753  -1.398  0.00  0.00     0.003 A 
ENDROOT
TORSDOF 0
ENDMDL
