MODEL 1
REMARK minimizedAffinity 0.354902089
REMARK minimizedRMSD -1
REMARK  0 active torsions:
REMARK  status: ('A' for Active; 'I' for Inactive)
ROOT
ATOM      1  C4' PXY d   1       2.215  -1.497   1.216  0.00  0.00     0.077 C 
ATOM      2  C1' PXY d   1       2.631   1.960  -3.399  0.00  0.00     0.077 C 
ATOM      3  C1  PXY d   1       2.517   1.044  -2.196  0.00  0.00    -0.082 A 
ATOM      4  C2  PXY d   1       2.403   1.565  -0.985  0.00  0.00     0.003 A 
ATOM      5  C3  PXY d   1       2.331   0.751   0.116  0.00  0.00     0.003 A 
ATOM      6  C4  PXY d   1       2.323  -0.610  -0.028  0.00  0.00    -0.082 A 
ATOM      7  C5  PXY d   1       2.429  -1.150  -1.261  0.00  0.00     0.003 A 
ATOM      8  C6  PXY d   1       2.542  -0.307  -2.362  0.00  0.00     0.003 A 
ENDROOT
TORSDOF 0
ENDMDL
