MODEL 1
REMARK minimizedAffinity 9.36808777
REMARK minimizedRMSD -1
REMARK  1 active torsions:
REMARK  status: ('A' for Active; 'I' for Inactive)
REMARK    1  A    between atoms: C1_2  and  C2_3 
ROOT
ATOM      1  C2  UNL d   1       4.138  -1.846   1.859  0.00  0.00    -0.081 A 
ATOM      2  C3  UNL d   1       3.124  -2.453   2.609  0.00  0.00     0.006 A 
ATOM      3  C4  UNL d   1       1.792  -2.066   2.444  0.00  0.00     0.002 A 
ATOM      4  C5  UNL d   1       1.451  -1.072   1.521  0.00  0.00    -0.080 A 
ATOM      5  C6  UNL d   1       0.021  -0.669   1.312  0.00  0.00     0.076 C 
ATOM      6  C7  UNL d   1       2.466  -0.453   0.783  0.00  0.00     0.002 A 
ATOM      7  C8  UNL d   1       3.798  -0.839   0.949  0.00  0.00     0.006 A 
ENDROOT
BRANCH   1   8
ATOM      8  C1  UNL d   1       5.568  -2.305   1.988  0.00  0.00     0.054 C 
ATOM      9  C   UNL d   1       6.000  -2.366   3.446  0.00  0.00     0.018 C 
ENDBRANCH   1   8
TORSDOF 1
ENDMDL
