MODEL 1
REMARK minimizedAffinity 17.7858143
REMARK minimizedRMSD -1
REMARK  1 active torsions:
REMARK  status: ('A' for Active; 'I' for Inactive)
REMARK    1  A    between atoms: C1_2  and  C2_3 
ROOT
ATOM      1  C2  UNL d   1       1.312   0.136   1.905  0.00  0.00    -0.081 A 
ATOM      2  C3  UNL d   1       2.151  -0.367   0.904  0.00  0.00     0.006 A 
ATOM      3  C4  UNL d   1       2.559  -1.702   0.926  0.00  0.00     0.002 A 
ATOM      4  C5  UNL d   1       2.129  -2.559   1.945  0.00  0.00    -0.080 A 
ATOM      5  C6  UNL d   1       2.536  -4.003   1.964  0.00  0.00     0.076 C 
ATOM      6  C7  UNL d   1       1.305  -2.052   2.956  0.00  0.00     0.002 A 
ATOM      7  C8  UNL d   1       0.897  -0.717   2.934  0.00  0.00     0.006 A 
ENDROOT
BRANCH   1   8
ATOM      8  C1  UNL d   1       0.818   1.559   1.848  0.00  0.00     0.054 C 
ATOM      9  C   UNL d   1       1.725   2.492   2.637  0.00  0.00     0.018 C 
ENDBRANCH   1   8
TORSDOF 1
ENDMDL
