MODEL 1
REMARK minimizedAffinity 10.5632448
REMARK minimizedRMSD -1
REMARK  1 active torsions:
REMARK  status: ('A' for Active; 'I' for Inactive)
REMARK    1  A    between atoms: C1_2  and  C2_3 
ROOT
ATOM      1  C2  UNL d   1       1.302  -1.315   4.153  0.00  0.00    -0.081 A 
ATOM      2  C3  UNL d   1       1.723  -2.395   3.367  0.00  0.00     0.006 A 
ATOM      3  C4  UNL d   1       1.962  -2.226   2.001  0.00  0.00     0.002 A 
ATOM      4  C5  UNL d   1       1.791  -0.975   1.400  0.00  0.00    -0.080 A 
ATOM      5  C6  UNL d   1       2.073  -0.773  -0.059  0.00  0.00     0.076 C 
ATOM      6  C7  UNL d   1       1.354   0.100   2.181  0.00  0.00     0.002 A 
ATOM      7  C8  UNL d   1       1.114  -0.068   3.547  0.00  0.00     0.006 A 
ENDROOT
BRANCH   1   8
ATOM      8  C1  UNL d   1       1.107  -1.479   5.639  0.00  0.00     0.054 C 
ATOM      9  C   UNL d   1       0.777  -2.920   5.998  0.00  0.00     0.018 C 
ENDBRANCH   1   8
TORSDOF 1
ENDMDL
