MODEL 1
REMARK minimizedAffinity 14.7169056
REMARK minimizedRMSD -1
REMARK  1 active torsions:
REMARK  status: ('A' for Active; 'I' for Inactive)
REMARK    1  A    between atoms: C1_2  and  C2_3 
ROOT
ATOM      1  C2  UNL d   1      -3.739   3.026  -0.559  0.00  0.00    -0.081 A 
ATOM      2  C3  UNL d   1      -3.154   3.003   0.713  0.00  0.00     0.006 A 
ATOM      3  C4  UNL d   1      -3.879   3.419   1.833  0.00  0.00     0.002 A 
ATOM      4  C5  UNL d   1      -5.201   3.857   1.701  0.00  0.00    -0.080 A 
ATOM      5  C6  UNL d   1      -5.999   4.277   2.899  0.00  0.00     0.076 C 
ATOM      6  C7  UNL d   1      -5.779   3.897   0.428  0.00  0.00     0.002 A 
ATOM      7  C8  UNL d   1      -5.055   3.482  -0.692  0.00  0.00     0.006 A 
ENDROOT
BRANCH   1   8
ATOM      8  C1  UNL d   1      -2.983   2.518  -1.759  0.00  0.00     0.054 C 
ATOM      9  C   UNL d   1      -3.456   1.129  -2.164  0.00  0.00     0.018 C 
ENDBRANCH   1   8
TORSDOF 1
ENDMDL
