MODEL 1
REMARK minimizedAffinity 15.6690083
REMARK minimizedRMSD -1
REMARK  1 active torsions:
REMARK  status: ('A' for Active; 'I' for Inactive)
REMARK    1  A    between atoms: C1_2  and  C2_3 
ROOT
ATOM      1  C2  UNL d   1      -5.178   3.088  -0.752  0.00  0.00    -0.081 A 
ATOM      2  C3  UNL d   1      -3.781   3.174  -0.789  0.00  0.00     0.006 A 
ATOM      3  C4  UNL d   1      -3.031   2.222  -1.484  0.00  0.00     0.002 A 
ATOM      4  C5  UNL d   1      -3.665   1.174  -2.159  0.00  0.00    -0.080 A 
ATOM      5  C6  UNL d   1      -2.873   0.163  -2.934  0.00  0.00     0.076 C 
ATOM      6  C7  UNL d   1      -5.059   1.078  -2.108  0.00  0.00     0.002 A 
ATOM      7  C8  UNL d   1      -5.810   2.028  -1.413  0.00  0.00     0.006 A 
ENDROOT
BRANCH   1   8
ATOM      8  C1  UNL d   1      -5.994   4.148  -0.058  0.00  0.00     0.054 C 
ATOM      9  C   UNL d   1      -5.997   5.449  -0.848  0.00  0.00     0.018 C 
ENDBRANCH   1   8
TORSDOF 1
ENDMDL
