MODEL 1
REMARK minimizedAffinity 12.2609262
REMARK minimizedRMSD -1
REMARK  1 active torsions:
REMARK  status: ('A' for Active; 'I' for Inactive)
REMARK    1  A    between atoms: C1_2  and  C2_3 
ROOT
ATOM      1  C2  UNL d   1      -3.464   2.974  -0.852  0.00  0.00    -0.081 A 
ATOM      2  C3  UNL d   1      -3.093   2.595   0.444  0.00  0.00     0.006 A 
ATOM      3  C4  UNL d   1      -3.904   2.915   1.535  0.00  0.00     0.002 A 
ATOM      4  C5  UNL d   1      -5.102   3.613   1.349  0.00  0.00    -0.080 A 
ATOM      5  C6  UNL d   1      -5.996   3.937   2.508  0.00  0.00     0.076 C 
ATOM      6  C7  UNL d   1      -5.464   4.008   0.056  0.00  0.00     0.002 A 
ATOM      7  C8  UNL d   1      -4.653   3.688  -1.035  0.00  0.00     0.006 A 
ENDROOT
BRANCH   1   8
ATOM      8  C1  UNL d   1      -2.624   2.574  -2.038  0.00  0.00     0.054 C 
ATOM      9  C   UNL d   1      -2.957   1.163  -2.501  0.00  0.00     0.018 C 
ENDBRANCH   1   8
TORSDOF 1
ENDMDL
