MODEL 1
REMARK minimizedAffinity 7.32908344
REMARK minimizedRMSD -1
REMARK  1 active torsions:
REMARK  status: ('A' for Active; 'I' for Inactive)
REMARK    1  A    between atoms: C1_2  and  C2_3 
ROOT
ATOM      1  C2  UNL d   1       0.812  -2.335   3.511  0.00  0.00    -0.081 A 
ATOM      2  C3  UNL d   1       1.645  -3.009   2.609  0.00  0.00     0.006 A 
ATOM      3  C4  UNL d   1       2.347  -2.302   1.630  0.00  0.00     0.002 A 
ATOM      4  C5  UNL d   1       2.234  -0.910   1.541  0.00  0.00    -0.080 A 
ATOM      5  C6  UNL d   1       3.006  -0.136   0.514  0.00  0.00     0.076 C 
ATOM      6  C7  UNL d   1       1.388  -0.239   2.431  0.00  0.00     0.002 A 
ATOM      7  C8  UNL d   1       0.685  -0.945   3.410  0.00  0.00     0.006 A 
ENDROOT
BRANCH   1   8
ATOM      8  C1  UNL d   1       0.104  -3.087   4.609  0.00  0.00     0.054 C 
ATOM      9  C   UNL d   1       1.038  -4.074   5.295  0.00  0.00     0.018 C 
ENDBRANCH   1   8
TORSDOF 1
ENDMDL
