MODEL 1
REMARK minimizedAffinity 4.2346859
REMARK minimizedRMSD -1
REMARK  1 active torsions:
REMARK  status: ('A' for Active; 'I' for Inactive)
REMARK    1  A    between atoms: C1_2  and  C2_3 
ROOT
ATOM      1  C2  UNL d   1       2.814  -0.346   1.586  0.00  0.00    -0.081 A 
ATOM      2  C3  UNL d   1       2.898  -1.727   1.797  0.00  0.00     0.006 A 
ATOM      3  C4  UNL d   1       2.169  -2.333   2.823  0.00  0.00     0.002 A 
ATOM      4  C5  UNL d   1       1.338  -1.569   3.649  0.00  0.00    -0.080 A 
ATOM      5  C6  UNL d   1       0.526  -2.211   4.735  0.00  0.00     0.076 C 
ATOM      6  C7  UNL d   1       1.267  -0.186   3.450  0.00  0.00     0.002 A 
ATOM      7  C8  UNL d   1       1.996   0.420   2.424  0.00  0.00     0.006 A 
ENDROOT
BRANCH   1   8
ATOM      8  C1  UNL d   1       3.549   0.301   0.440  0.00  0.00     0.054 C 
ATOM      9  C   UNL d   1       2.941   1.650   0.083  0.00  0.00     0.018 C 
ENDBRANCH   1   8
TORSDOF 1
ENDMDL
