MODEL 1
REMARK minimizedAffinity -4.95587444
REMARK minimizedRMSD -1
REMARK  0 active torsions:
REMARK  status: ('A' for Active; 'I' for Inactive)
ROOT
ATOM      1  C   UNL d   1       0.569  -1.116  -2.589  0.00  0.00     0.077 C 
ATOM      2  C1  UNL d   1       0.758  -0.718  -1.155  0.00  0.00    -0.074 A 
ATOM      3  C2  UNL d   1       1.652  -1.406  -0.330  0.00  0.00    -0.005 A 
ATOM      4  C3  UNL d   1       1.824  -1.018   0.999  0.00  0.00     0.006 A 
ATOM      5  C4  UNL d   1       1.105   0.060   1.515  0.00  0.00    -0.005 A 
ATOM      6  C5  UNL d   1       0.206   0.761   0.704  0.00  0.00    -0.074 A 
ATOM      7  C6  UNL d   1      -0.567   1.929   1.240  0.00  0.00     0.077 C 
ATOM      8  C7  UNL d   1       0.044   0.370  -0.632  0.00  0.00    -0.001 A 
ENDROOT
TORSDOF 0
ENDMDL
