MODEL 1
REMARK minimizedAffinity -4.02864599
REMARK minimizedRMSD -1
REMARK  0 active torsions:
REMARK  status: ('A' for Active; 'I' for Inactive)
ROOT
ATOM      1  C   UNL d   1      -0.698   1.850   1.976  0.00  0.00     0.077 C 
ATOM      2  C1  UNL d   1      -0.567   0.870   0.848  0.00  0.00    -0.074 A 
ATOM      3  C2  UNL d   1      -1.492  -0.167   0.687  0.00  0.00    -0.005 A 
ATOM      4  C3  UNL d   1      -1.363  -1.066  -0.372  0.00  0.00     0.006 A 
ATOM      5  C4  UNL d   1      -0.311  -0.937  -1.279  0.00  0.00    -0.005 A 
ATOM      6  C5  UNL d   1       0.623   0.094  -1.134  0.00  0.00    -0.074 A 
ATOM      7  C6  UNL d   1       1.754   0.253  -2.106  0.00  0.00     0.077 C 
ATOM      8  C7  UNL d   1       0.483   0.997  -0.072  0.00  0.00    -0.001 A 
ENDROOT
TORSDOF 0
ENDMDL
