MODEL 1
REMARK minimizedAffinity -2.86031318
REMARK minimizedRMSD -1
REMARK  0 active torsions:
REMARK  status: ('A' for Active; 'I' for Inactive)
ROOT
ATOM      1  C   UNL d   1       2.354  -1.052  -0.520  0.00  0.00     0.077 C 
ATOM      2  C1  UNL d   1       1.057  -0.365  -0.209  0.00  0.00    -0.074 A 
ATOM      3  C2  UNL d   1       0.004  -0.365  -1.130  0.00  0.00    -0.005 A 
ATOM      4  C3  UNL d   1      -1.199   0.270  -0.823  0.00  0.00     0.006 A 
ATOM      5  C4  UNL d   1      -1.361   0.911   0.406  0.00  0.00    -0.005 A 
ATOM      6  C5  UNL d   1      -0.320   0.921   1.340  0.00  0.00    -0.074 A 
ATOM      7  C6  UNL d   1      -0.481   1.597   2.669  0.00  0.00     0.077 C 
ATOM      8  C7  UNL d   1       0.884   0.275   1.026  0.00  0.00    -0.001 A 
ENDROOT
TORSDOF 0
ENDMDL
