MODEL 1
REMARK minimizedAffinity -4.56389427
REMARK minimizedRMSD -1
REMARK  0 active torsions:
REMARK  status: ('A' for Active; 'I' for Inactive)
ROOT
ATOM      1  C   UNL d   1      -0.059   1.628   2.878  0.00  0.00     0.077 C 
ATOM      2  C1  UNL d   1      -0.376   0.988   1.559  0.00  0.00    -0.074 A 
ATOM      3  C2  UNL d   1      -1.688   0.948   1.077  0.00  0.00    -0.005 A 
ATOM      4  C3  UNL d   1      -1.966   0.357  -0.156  0.00  0.00     0.006 A 
ATOM      5  C4  UNL d   1      -0.937  -0.198  -0.917  0.00  0.00    -0.005 A 
ATOM      6  C5  UNL d   1       0.381  -0.167  -0.452  0.00  0.00    -0.074 A 
ATOM      7  C6  UNL d   1       1.500  -0.750  -1.262  0.00  0.00     0.077 C 
ATOM      8  C7  UNL d   1       0.653   0.435   0.785  0.00  0.00    -0.001 A 
ENDROOT
TORSDOF 0
ENDMDL
