MODEL 1
REMARK minimizedAffinity -1.65913832
REMARK minimizedRMSD -1
REMARK  0 active torsions:
REMARK  status: ('A' for Active; 'I' for Inactive)
ROOT
ATOM      1  C   UNL d   1       0.404   0.573  -0.643  0.00  0.00     0.077 C 
ATOM      2  C1  UNL d   1       0.810   0.803  -2.069  0.00  0.00    -0.074 A 
ATOM      3  C2  UNL d   1       2.036   1.399  -2.379  0.00  0.00    -0.005 A 
ATOM      4  C3  UNL d   1       2.404   1.598  -3.710  0.00  0.00     0.006 A 
ATOM      5  C4  UNL d   1       1.552   1.202  -4.742  0.00  0.00    -0.005 A 
ATOM      6  C5  UNL d   1       0.322   0.603  -4.450  0.00  0.00    -0.074 A 
ATOM      7  C6  UNL d   1      -0.602   0.163  -5.547  0.00  0.00     0.077 C 
ATOM      8  C7  UNL d   1      -0.038   0.401  -3.110  0.00  0.00    -0.001 A 
ENDROOT
TORSDOF 0
ENDMDL
