MODEL 1
REMARK minimizedAffinity 0.447475463
REMARK minimizedRMSD -1
REMARK  0 active torsions:
REMARK  status: ('A' for Active; 'I' for Inactive)
ROOT
ATOM      1  C   UNL d   1       0.706   1.974   2.607  0.00  0.00     0.077 C 
ATOM      2  C1  UNL d   1       0.901   0.950   1.528  0.00  0.00    -0.074 A 
ATOM      3  C2  UNL d   1       2.083   0.207   1.447  0.00  0.00    -0.005 A 
ATOM      4  C3  UNL d   1       2.245  -0.748   0.444  0.00  0.00     0.006 A 
ATOM      5  C4  UNL d   1       1.230  -0.969  -0.487  0.00  0.00    -0.005 A 
ATOM      6  C5  UNL d   1       0.041  -0.236  -0.422  0.00  0.00    -0.074 A 
ATOM      7  C6  UNL d   1      -1.064  -0.468  -1.409  0.00  0.00     0.077 C 
ATOM      8  C7  UNL d   1      -0.118   0.717   0.593  0.00  0.00    -0.001 A 
ENDROOT
TORSDOF 0
ENDMDL
