MODEL 1
REMARK minimizedAffinity -5.34032822
REMARK minimizedRMSD -1
REMARK  0 active torsions:
REMARK  status: ('A' for Active; 'I' for Inactive)
ROOT
ATOM      1  C   UNL d   1       2.248  -0.545   2.125  0.00  0.00     0.077 C 
ATOM      2  C1  UNL d   1       0.850  -0.009   2.034  0.00  0.00    -0.074 A 
ATOM      3  C2  UNL d   1       0.261   0.650   3.117  0.00  0.00    -0.005 A 
ATOM      4  C3  UNL d   1      -1.037   1.152   3.014  0.00  0.00     0.006 A 
ATOM      5  C4  UNL d   1      -1.756   1.000   1.828  0.00  0.00    -0.005 A 
ATOM      6  C5  UNL d   1      -1.183   0.345   0.734  0.00  0.00    -0.074 A 
ATOM      7  C6  UNL d   1      -1.939   0.182  -0.551  0.00  0.00     0.077 C 
ATOM      8  C7  UNL d   1       0.124  -0.150   0.843  0.00  0.00    -0.001 A 
ENDROOT
TORSDOF 0
ENDMDL
