MODEL 1
REMARK minimizedAffinity -4.36956692
REMARK minimizedRMSD -1
REMARK  0 active torsions:
REMARK  status: ('A' for Active; 'I' for Inactive)
ROOT
ATOM      1  C   UNL d   1      -0.720   1.651   2.524  0.00  0.00     0.077 C 
ATOM      2  C1  UNL d   1       0.116   0.793   1.622  0.00  0.00    -0.074 A 
ATOM      3  C2  UNL d   1       1.363   0.316   2.036  0.00  0.00    -0.005 A 
ATOM      4  C3  UNL d   1       2.125  -0.489   1.190  0.00  0.00     0.006 A 
ATOM      5  C4  UNL d   1       1.648  -0.825  -0.078  0.00  0.00    -0.005 A 
ATOM      6  C5  UNL d   1       0.403  -0.358  -0.510  0.00  0.00    -0.074 A 
ATOM      7  C6  UNL d   1      -0.129  -0.717  -1.865  0.00  0.00     0.077 C 
ATOM      8  C7  UNL d   1      -0.360   0.445   0.350  0.00  0.00    -0.001 A 
ENDROOT
TORSDOF 0
ENDMDL
