MODEL 1
REMARK minimizedAffinity -3.61087298
REMARK minimizedRMSD -1
REMARK  0 active torsions:
REMARK  status: ('A' for Active; 'I' for Inactive)
ROOT
ATOM      1  C   UNL d   1      -0.810   1.596   2.952  0.00  0.00     0.077 C 
ATOM      2  C1  UNL d   1      -0.947   0.837   1.665  0.00  0.00    -0.074 A 
ATOM      3  C2  UNL d   1      -2.207   0.543   1.134  0.00  0.00    -0.005 A 
ATOM      4  C3  UNL d   1      -2.318  -0.155  -0.068  0.00  0.00     0.006 A 
ATOM      5  C4  UNL d   1      -1.173  -0.566  -0.750  0.00  0.00    -0.005 A 
ATOM      6  C5  UNL d   1       0.096  -0.281  -0.235  0.00  0.00    -0.074 A 
ATOM      7  C6  UNL d   1       1.337  -0.707  -0.961  0.00  0.00     0.077 C 
ATOM      8  C7  UNL d   1       0.199   0.427   0.970  0.00  0.00    -0.001 A 
ENDROOT
TORSDOF 0
ENDMDL
