MODEL 1
REMARK minimizedAffinity -4.30854416
REMARK minimizedRMSD -1
REMARK  0 active torsions:
REMARK  status: ('A' for Active; 'I' for Inactive)
ROOT
ATOM      1  C   UNL d   1      -1.800   0.991   1.884  0.00  0.00     0.077 C 
ATOM      2  C1  UNL d   1      -0.657   0.422   1.097  0.00  0.00    -0.074 A 
ATOM      3  C2  UNL d   1       0.583   0.186   1.699  0.00  0.00    -0.005 A 
ATOM      4  C3  UNL d   1       1.634  -0.352   0.957  0.00  0.00     0.006 A 
ATOM      5  C4  UNL d   1       1.456  -0.660  -0.393  0.00  0.00    -0.005 A 
ATOM      6  C5  UNL d   1       0.223  -0.432  -1.011  0.00  0.00    -0.074 A 
ATOM      7  C6  UNL d   1       0.012  -0.766  -2.458  0.00  0.00     0.077 C 
ATOM      8  C7  UNL d   1      -0.831   0.103  -0.257  0.00  0.00    -0.001 A 
ENDROOT
TORSDOF 0
ENDMDL
