MODEL 1
REMARK minimizedAffinity -3.80407333
REMARK minimizedRMSD -1
REMARK  0 active torsions:
REMARK  status: ('A' for Active; 'I' for Inactive)
ROOT
ATOM      1  C   UNL d   1      -0.749   1.886   2.701  0.00  0.00     0.077 C 
ATOM      2  C1  UNL d   1      -0.267   0.918   1.662  0.00  0.00    -0.074 A 
ATOM      3  C2  UNL d   1      -1.078   0.563   0.579  0.00  0.00    -0.005 A 
ATOM      4  C3  UNL d   1      -0.613  -0.332  -0.385  0.00  0.00     0.006 A 
ATOM      5  C4  UNL d   1       0.665  -0.879  -0.276  0.00  0.00    -0.005 A 
ATOM      6  C5  UNL d   1       1.491  -0.535   0.799  0.00  0.00    -0.074 A 
ATOM      7  C6  UNL d   1       2.872  -1.107   0.925  0.00  0.00     0.077 C 
ATOM      8  C7  UNL d   1       1.019   0.370   1.760  0.00  0.00    -0.001 A 
ENDROOT
TORSDOF 0
ENDMDL
