MODEL 1
REMARK minimizedAffinity -4.73729467
REMARK minimizedRMSD -1
REMARK  0 active torsions:
REMARK  status: ('A' for Active; 'I' for Inactive)
ROOT
ATOM      1  C   UNL d   1      -2.602  -0.705   3.405  0.00  0.00     0.077 C 
ATOM      2  C1  UNL d   1      -1.495   0.065   2.748  0.00  0.00    -0.074 A 
ATOM      3  C2  UNL d   1      -0.875   1.134   3.404  0.00  0.00    -0.005 A 
ATOM      4  C3  UNL d   1       0.159   1.835   2.784  0.00  0.00     0.006 A 
ATOM      5  C4  UNL d   1       0.584   1.475   1.505  0.00  0.00    -0.005 A 
ATOM      6  C5  UNL d   1      -0.024   0.409   0.834  0.00  0.00    -0.074 A 
ATOM      7  C6  UNL d   1       0.427   0.003  -0.538  0.00  0.00     0.077 C 
ATOM      8  C7  UNL d   1      -1.058  -0.295   1.466  0.00  0.00    -0.001 A 
ENDROOT
TORSDOF 0
ENDMDL
