MODEL 1
REMARK minimizedAffinity -5.18193674
REMARK minimizedRMSD -1
REMARK  0 active torsions:
REMARK  status: ('A' for Active; 'I' for Inactive)
ROOT
ATOM      1  C   UNL d   1      -3.338  -1.259  -0.819  0.00  0.00     0.077 C 
ATOM      2  C1  UNL d   1      -2.030  -0.913  -0.171  0.00  0.00    -0.074 A 
ATOM      3  C2  UNL d   1      -0.821  -1.380  -0.698  0.00  0.00    -0.005 A 
ATOM      4  C3  UNL d   1       0.388  -1.043  -0.091  0.00  0.00     0.006 A 
ATOM      5  C4  UNL d   1       0.401  -0.236   1.048  0.00  0.00    -0.005 A 
ATOM      6  C5  UNL d   1      -0.797   0.241   1.588  0.00  0.00    -0.074 A 
ATOM      7  C6  UNL d   1      -0.800   1.118   2.806  0.00  0.00     0.077 C 
ATOM      8  C7  UNL d   1      -2.008  -0.097   0.968  0.00  0.00    -0.001 A 
ENDROOT
TORSDOF 0
ENDMDL
