MODEL 1
REMARK minimizedAffinity 21.6142063
REMARK minimizedRMSD -1
REMARK  1 active torsions:
REMARK  status: ('A' for Active; 'I' for Inactive)
REMARK    1  A    between atoms: C1_2  and  C2_3 
ROOT
ATOM      1  C2  UNL d   1      -0.659   2.166   3.671  0.00  0.00    -0.073 A 
ATOM      2  C3  UNL d   1      -0.650   2.215   5.070  0.00  0.00    -0.002 A 
ATOM      3  C4  UNL d   1       0.553   2.121   5.771  0.00  0.00     0.004 A 
ATOM      4  C5  UNL d   1       1.758   1.983   5.082  0.00  0.00    -0.004 A 
ATOM      5  C6  UNL d   1       1.771   1.943   3.684  0.00  0.00    -0.075 A 
ATOM      6  C7  UNL d   1       3.058   1.792   2.929  0.00  0.00     0.076 C 
ATOM      7  C8  UNL d   1       0.559   2.035   2.987  0.00  0.00     0.001 A 
ENDROOT
BRANCH   1   8
ATOM      8  C1  UNL d   1      -1.954   2.274   2.909  0.00  0.00     0.053 C 
ATOM      9  C   UNL d   1      -3.112   1.633   3.659  0.00  0.00     0.018 C 
ENDBRANCH   1   8
TORSDOF 1
ENDMDL
