MODEL 1
REMARK minimizedAffinity 12.427681
REMARK minimizedRMSD -1
REMARK  1 active torsions:
REMARK  status: ('A' for Active; 'I' for Inactive)
REMARK    1  A    between atoms: C1_2  and  C2_3 
ROOT
ATOM      1  C2  UNL d   1       1.089  -2.940  -1.918  0.00  0.00    -0.073 A 
ATOM      2  C3  UNL d   1       1.658  -3.916  -2.744  0.00  0.00    -0.002 A 
ATOM      3  C4  UNL d   1       0.843  -4.784  -3.472  0.00  0.00     0.004 A 
ATOM      4  C5  UNL d   1      -0.545  -4.681  -3.388  0.00  0.00    -0.004 A 
ATOM      5  C6  UNL d   1      -1.132  -3.704  -2.578  0.00  0.00    -0.075 A 
ATOM      6  C7  UNL d   1      -2.624  -3.580  -2.475  0.00  0.00     0.076 C 
ATOM      7  C8  UNL d   1      -0.307  -2.837  -1.847  0.00  0.00     0.001 A 
ENDROOT
BRANCH   1   8
ATOM      8  C1  UNL d   1       1.965  -1.996  -1.134  0.00  0.00     0.053 C 
ATOM      9  C   UNL d   1       1.698  -0.542  -1.491  0.00  0.00     0.018 C 
ENDBRANCH   1   8
TORSDOF 1
ENDMDL
