MODEL 1
REMARK minimizedAffinity 12.291934
REMARK minimizedRMSD -1
REMARK  1 active torsions:
REMARK  status: ('A' for Active; 'I' for Inactive)
REMARK    1  A    between atoms: C1_2  and  C2_3 
ROOT
ATOM      1  C2  UNL d   1       4.674  -2.331  -5.885  0.00  0.00    -0.073 A 
ATOM      2  C3  UNL d   1       4.623  -0.935  -5.972  0.00  0.00    -0.002 A 
ATOM      3  C4  UNL d   1       3.393  -0.275  -5.990  0.00  0.00     0.004 A 
ATOM      4  C5  UNL d   1       2.205  -1.002  -5.914  0.00  0.00    -0.004 A 
ATOM      5  C6  UNL d   1       2.236  -2.396  -5.815  0.00  0.00    -0.075 A 
ATOM      6  C7  UNL d   1       0.967  -3.193  -5.734  0.00  0.00     0.076 C 
ATOM      7  C8  UNL d   1       3.474  -3.052  -5.800  0.00  0.00     0.001 A 
ENDROOT
BRANCH   1   8
ATOM      8  C1  UNL d   1       5.999  -3.048  -5.858  0.00  0.00     0.053 C 
ATOM      9  C   UNL d   1       5.834  -4.555  -5.971  0.00  0.00     0.018 C 
ENDBRANCH   1   8
TORSDOF 1
ENDMDL
