MODEL 1
REMARK minimizedAffinity 12.8938122
REMARK minimizedRMSD -1
REMARK  1 active torsions:
REMARK  status: ('A' for Active; 'I' for Inactive)
REMARK    1  A    between atoms: C1_2  and  C2_3 
ROOT
ATOM      1  C2  UNL d   1       2.038   1.040  -0.049  0.00  0.00    -0.073 A 
ATOM      2  C3  UNL d   1       1.913   1.584  -1.332  0.00  0.00    -0.002 A 
ATOM      3  C4  UNL d   1       1.811   0.747  -2.445  0.00  0.00     0.004 A 
ATOM      4  C5  UNL d   1       1.825  -0.638  -2.285  0.00  0.00    -0.004 A 
ATOM      5  C6  UNL d   1       1.937  -1.200  -1.009  0.00  0.00    -0.075 A 
ATOM      6  C7  UNL d   1       1.956  -2.689  -0.821  0.00  0.00     0.076 C 
ATOM      7  C8  UNL d   1       2.042  -0.354   0.103  0.00  0.00     0.001 A 
ENDROOT
BRANCH   1   8
ATOM      8  C1  UNL d   1       2.142   1.939   1.156  0.00  0.00     0.053 C 
ATOM      9  C   UNL d   1       0.978   1.744   2.115  0.00  0.00     0.018 C 
ENDBRANCH   1   8
TORSDOF 1
ENDMDL
