MODEL 1
REMARK minimizedAffinity 10.9995308
REMARK minimizedRMSD -1
REMARK  1 active torsions:
REMARK  status: ('A' for Active; 'I' for Inactive)
REMARK    1  A    between atoms: C1_2  and  C2_3 
ROOT
ATOM      1  C2  UNL d   1      -1.503   2.225  -4.926  0.00  0.00    -0.073 A 
ATOM      2  C3  UNL d   1      -2.528   1.990  -4.003  0.00  0.00    -0.002 A 
ATOM      3  C4  UNL d   1      -2.374   1.024  -3.009  0.00  0.00     0.004 A 
ATOM      4  C5  UNL d   1      -1.192   0.289  -2.922  0.00  0.00    -0.004 A 
ATOM      5  C6  UNL d   1      -0.151   0.517  -3.827  0.00  0.00    -0.075 A 
ATOM      6  C7  UNL d   1       1.126  -0.267  -3.749  0.00  0.00     0.076 C 
ATOM      7  C8  UNL d   1      -0.315   1.487  -4.825  0.00  0.00     0.001 A 
ENDROOT
BRANCH   1   8
ATOM      8  C1  UNL d   1      -1.662   3.272  -5.998  0.00  0.00     0.053 C 
ATOM      9  C   UNL d   1      -3.056   3.880  -5.998  0.00  0.00     0.018 C 
ENDBRANCH   1   8
TORSDOF 1
ENDMDL
