MODEL 1
REMARK minimizedAffinity 5.30712461
REMARK minimizedRMSD -1
REMARK  1 active torsions:
REMARK  status: ('A' for Active; 'I' for Inactive)
REMARK    1  A    between atoms: C1_2  and  C2_3 
ROOT
ATOM      1  C2  UNL d   1      -2.886  -5.056  -4.898  0.00  0.00    -0.073 A 
ATOM      2  C3  UNL d   1      -3.619  -4.024  -4.302  0.00  0.00    -0.002 A 
ATOM      3  C4  UNL d   1      -3.003  -3.150  -3.405  0.00  0.00     0.004 A 
ATOM      4  C5  UNL d   1      -1.650  -3.294  -3.100  0.00  0.00    -0.004 A 
ATOM      5  C6  UNL d   1      -0.898  -4.312  -3.695  0.00  0.00    -0.075 A 
ATOM      6  C7  UNL d   1       0.559  -4.482  -3.377  0.00  0.00     0.076 C 
ATOM      7  C8  UNL d   1      -1.523  -5.187  -4.593  0.00  0.00     0.001 A 
ENDROOT
BRANCH   1   8
ATOM      8  C1  UNL d   1      -3.544  -5.998  -5.872  0.00  0.00     0.053 C 
ATOM      9  C   UNL d   1      -5.036  -5.735  -6.000  0.00  0.00     0.018 C 
ENDBRANCH   1   8
TORSDOF 1
ENDMDL
