MODEL 1
REMARK minimizedAffinity 13.9791269
REMARK minimizedRMSD -1
REMARK  1 active torsions:
REMARK  status: ('A' for Active; 'I' for Inactive)
REMARK    1  A    between atoms: C1_2  and  C2_3 
ROOT
ATOM      1  C2  UNL d   1       3.385   1.398  -1.205  0.00  0.00    -0.073 A 
ATOM      2  C3  UNL d   1       4.644   1.132  -0.654  0.00  0.00    -0.002 A 
ATOM      3  C4  UNL d   1       4.925  -0.123  -0.111  0.00  0.00     0.004 A 
ATOM      4  C5  UNL d   1       3.955  -1.125  -0.120  0.00  0.00    -0.004 A 
ATOM      5  C6  UNL d   1       2.695  -0.882  -0.677  0.00  0.00    -0.075 A 
ATOM      6  C7  UNL d   1       1.640  -1.949  -0.693  0.00  0.00     0.076 C 
ATOM      7  C8  UNL d   1       2.419   0.381  -1.218  0.00  0.00     0.001 A 
ENDROOT
BRANCH   1   8
ATOM      8  C1  UNL d   1       3.079   2.749  -1.798  0.00  0.00     0.053 C 
ATOM      9  C   UNL d   1       2.435   3.683  -0.785  0.00  0.00     0.018 C 
ENDBRANCH   1   8
TORSDOF 1
ENDMDL
