MODEL 1
REMARK minimizedAffinity -0.963800371
REMARK minimizedRMSD -1
REMARK  1 active torsions:
REMARK  status: ('A' for Active; 'I' for Inactive)
REMARK    1  A    between atoms: C1_2  and  C2_3 
ROOT
ATOM      1  C2  UNL d   1      -2.612  -3.695  -5.333  0.00  0.00    -0.073 A 
ATOM      2  C3  UNL d   1      -2.610  -4.992  -5.861  0.00  0.00    -0.002 A 
ATOM      3  C4  UNL d   1      -1.863  -6.000  -5.250  0.00  0.00     0.004 A 
ATOM      4  C5  UNL d   1      -1.117  -5.725  -4.104  0.00  0.00    -0.004 A 
ATOM      5  C6  UNL d   1      -1.116  -4.439  -3.555  0.00  0.00    -0.075 A 
ATOM      6  C7  UNL d   1      -0.317  -4.127  -2.323  0.00  0.00     0.076 C 
ATOM      7  C8  UNL d   1      -1.866  -3.431  -4.175  0.00  0.00     0.001 A 
ENDROOT
BRANCH   1   8
ATOM      8  C1  UNL d   1      -3.422  -2.605  -5.985  0.00  0.00     0.053 C 
ATOM      9  C   UNL d   1      -4.873  -2.625  -5.532  0.00  0.00     0.018 C 
ENDBRANCH   1   8
TORSDOF 1
ENDMDL
