MODEL 1
REMARK minimizedAffinity 6.90379524
REMARK minimizedRMSD -1
REMARK  1 active torsions:
REMARK  status: ('A' for Active; 'I' for Inactive)
REMARK    1  A    between atoms: C1_2  and  C2_3 
ROOT
ATOM      1  C2  UNL d   1      -1.481  -4.922  -3.769  0.00  0.00    -0.073 A 
ATOM      2  C3  UNL d   1      -1.552  -5.985  -4.675  0.00  0.00    -0.002 A 
ATOM      3  C4  UNL d   1      -2.397  -5.912  -5.783  0.00  0.00     0.004 A 
ATOM      4  C5  UNL d   1      -3.174  -4.773  -5.999  0.00  0.00    -0.004 A 
ATOM      5  C6  UNL d   1      -3.108  -3.695  -5.111  0.00  0.00    -0.075 A 
ATOM      6  C7  UNL d   1      -3.938  -2.465  -5.328  0.00  0.00     0.076 C 
ATOM      7  C8  UNL d   1      -2.258  -3.778  -3.999  0.00  0.00     0.001 A 
ENDROOT
BRANCH   1   8
ATOM      8  C1  UNL d   1      -0.564  -4.994  -2.574  0.00  0.00     0.053 C 
ATOM      9  C   UNL d   1       0.426  -3.840  -2.545  0.00  0.00     0.018 C 
ENDBRANCH   1   8
TORSDOF 1
ENDMDL
