MODEL 1
REMARK minimizedAffinity 3.07618213
REMARK minimizedRMSD -1
REMARK  1 active torsions:
REMARK  status: ('A' for Active; 'I' for Inactive)
REMARK    1  A    between atoms: C1_2  and  C2_3 
ROOT
ATOM      1  C2  UNL d   1      -3.495  -3.579  -5.470  0.00  0.00    -0.073 A 
ATOM      2  C3  UNL d   1      -3.936  -4.798  -6.000  0.00  0.00    -0.002 A 
ATOM      3  C4  UNL d   1      -3.379  -6.000  -5.560  0.00  0.00     0.004 A 
ATOM      4  C5  UNL d   1      -2.383  -5.997  -4.584  0.00  0.00    -0.004 A 
ATOM      5  C6  UNL d   1      -1.938  -4.790  -4.034  0.00  0.00    -0.075 A 
ATOM      6  C7  UNL d   1      -0.866  -4.770  -2.985  0.00  0.00     0.076 C 
ATOM      7  C8  UNL d   1      -2.500  -3.587  -4.483  0.00  0.00     0.001 A 
ENDROOT
BRANCH   1   8
ATOM      8  C1  UNL d   1      -4.097  -2.279  -5.937  0.00  0.00     0.053 C 
ATOM      9  C   UNL d   1      -5.615  -2.342  -5.994  0.00  0.00     0.018 C 
ENDBRANCH   1   8
TORSDOF 1
ENDMDL
