MODEL 1
REMARK minimizedAffinity 9.17201233
REMARK minimizedRMSD -1
REMARK  1 active torsions:
REMARK  status: ('A' for Active; 'I' for Inactive)
REMARK    1  A    between atoms: C1_2  and  C2_3 
ROOT
ATOM      1  C2  UNL d   1      -1.856  -5.017  -4.176  0.00  0.00    -0.073 A 
ATOM      2  C3  UNL d   1      -2.238  -5.999  -5.098  0.00  0.00    -0.002 A 
ATOM      3  C4  UNL d   1      -3.275  -5.753  -6.000  0.00  0.00     0.004 A 
ATOM      4  C5  UNL d   1      -3.933  -4.524  -5.995  0.00  0.00    -0.004 A 
ATOM      5  C6  UNL d   1      -3.558  -3.526  -5.090  0.00  0.00    -0.075 A 
ATOM      6  C7  UNL d   1      -4.258  -2.199  -5.070  0.00  0.00     0.076 C 
ATOM      7  C8  UNL d   1      -2.518  -3.781  -4.185  0.00  0.00     0.001 A 
ENDROOT
BRANCH   1   8
ATOM      8  C1  UNL d   1      -0.734  -5.275  -3.205  0.00  0.00     0.053 C 
ATOM      9  C   UNL d   1       0.400  -4.275  -3.364  0.00  0.00     0.018 C 
ENDBRANCH   1   8
TORSDOF 1
ENDMDL
