MODEL 1
REMARK minimizedAffinity 2.64513206
REMARK minimizedRMSD -1
REMARK  0 active torsions:
REMARK  status: ('A' for Active; 'I' for Inactive)
ROOT
ATOM      1  O1  BZF d   1      -2.133   0.536   2.246  0.00  0.00    -0.204 OA
ATOM      2  C2  BZF d   1      -1.174   1.142   3.034  0.00  0.00     0.174 A 
ATOM      3  C3  BZF d   1       0.024   1.144   2.413  0.00  0.00    -0.012 A 
ATOM      4  C3A BZF d   1      -0.222   0.582   1.120  0.00  0.00    -0.107 A 
ATOM      5  C4  BZF d   1       0.573   0.335   0.038  0.00  0.00     0.055 A 
ATOM      6  C5  BZF d   1       0.040  -0.291  -1.044  0.00  0.00    -0.016 A 
ATOM      7  C6  BZF d   1      -1.281  -0.687  -1.076  0.00  0.00     0.022 A 
ATOM      8  C7  BZF d   1      -2.110  -0.459  -0.028  0.00  0.00     0.029 A 
ATOM      9  C7A BZF d   1      -1.582   0.203   1.054  0.00  0.00     0.058 A 
ENDROOT
TORSDOF 0
ENDMDL
