MODEL 1
REMARK minimizedAffinity -3.63173318
REMARK minimizedRMSD -1
REMARK  0 active torsions:
REMARK  status: ('A' for Active; 'I' for Inactive)
ROOT
ATOM      1  O1  BZF d   1       0.805  -0.155  -0.166  0.00  0.00    -0.204 OA
ATOM      2  C2  BZF d   1      -0.262  -0.095  -1.042  0.00  0.00     0.174 A 
ATOM      3  C3  BZF d   1      -1.411   0.152  -0.380  0.00  0.00    -0.012 A 
ATOM      4  C3A BZF d   1      -1.025   0.345   0.984  0.00  0.00    -0.107 A 
ATOM      5  C4  BZF d   1      -1.719   0.638   2.123  0.00  0.00     0.055 A 
ATOM      6  C5  BZF d   1      -1.054   0.686   3.308  0.00  0.00    -0.016 A 
ATOM      7  C6  BZF d   1       0.302   0.442   3.390  0.00  0.00     0.022 A 
ATOM      8  C7  BZF d   1       1.033   0.152   2.286  0.00  0.00     0.029 A 
ATOM      9  C7A BZF d   1       0.370   0.135   1.083  0.00  0.00     0.058 A 
ENDROOT
TORSDOF 0
ENDMDL
