MODEL 1
REMARK minimizedAffinity -5.3413229
REMARK minimizedRMSD -1
REMARK  0 active torsions:
REMARK  status: ('A' for Active; 'I' for Inactive)
ROOT
ATOM      1  O1  BZF d   1       1.835  -0.313   1.986  0.00  0.00    -0.204 OA
ATOM      2  C2  BZF d   1       1.661   0.105   3.291  0.00  0.00     0.174 A 
ATOM      3  C3  BZF d   1       0.454   0.683   3.452  0.00  0.00    -0.012 A 
ATOM      4  C3A BZF d   1      -0.204   0.539   2.189  0.00  0.00    -0.107 A 
ATOM      5  C4  BZF d   1      -1.437   0.900   1.727  0.00  0.00     0.055 A 
ATOM      6  C5  BZF d   1      -1.742   0.680   0.421  0.00  0.00    -0.016 A 
ATOM      7  C6  BZF d   1      -0.838   0.108  -0.450  0.00  0.00     0.022 A 
ATOM      8  C7  BZF d   1       0.396  -0.270  -0.036  0.00  0.00     0.029 A 
ATOM      9  C7A BZF d   1       0.695  -0.080   1.291  0.00  0.00     0.058 A 
ENDROOT
TORSDOF 0
ENDMDL
