MODEL 1
REMARK minimizedAffinity -4.31795168
REMARK minimizedRMSD -1
REMARK  0 active torsions:
REMARK  status: ('A' for Active; 'I' for Inactive)
ROOT
ATOM      1  O1  BZF d   1       0.591  -0.640  -0.249  0.00  0.00    -0.204 OA
ATOM      2  C2  BZF d   1      -0.579  -0.463  -0.962  0.00  0.00     0.174 A 
ATOM      3  C3  BZF d   1      -1.535   0.085  -0.185  0.00  0.00    -0.012 A 
ATOM      4  C3A BZF d   1      -0.897   0.347   1.068  0.00  0.00    -0.107 A 
ATOM      5  C4  BZF d   1      -1.323   0.901   2.242  0.00  0.00     0.055 A 
ATOM      6  C5  BZF d   1      -0.471   0.945   3.299  0.00  0.00    -0.016 A 
ATOM      7  C6  BZF d   1       0.811   0.441   3.220  0.00  0.00     0.022 A 
ATOM      8  C7  BZF d   1       1.280  -0.113   2.076  0.00  0.00     0.029 A 
ATOM      9  C7A BZF d   1       0.433  -0.129   0.996  0.00  0.00     0.058 A 
ENDROOT
TORSDOF 0
ENDMDL
