MODEL 1
REMARK minimizedAffinity -3.90259862
REMARK minimizedRMSD -1
REMARK  0 active torsions:
REMARK  status: ('A' for Active; 'I' for Inactive)
ROOT
ATOM      1  O1  BZF d   1      -1.642   1.137   2.139  0.00  0.00    -0.204 OA
ATOM      2  C2  BZF d   1      -0.631   1.889   2.704  0.00  0.00     0.174 A 
ATOM      3  C3  BZF d   1       0.529   1.708   2.039  0.00  0.00    -0.012 A 
ATOM      4  C3A BZF d   1       0.202   0.857   0.937  0.00  0.00    -0.107 A 
ATOM      5  C4  BZF d   1       0.929   0.333  -0.093  0.00  0.00     0.055 A 
ATOM      6  C5  BZF d   1       0.326  -0.521  -0.960  0.00  0.00    -0.016 A 
ATOM      7  C6  BZF d   1      -1.000  -0.877  -0.825  0.00  0.00     0.022 A 
ATOM      8  C7  BZF d   1      -1.764  -0.379   0.178  0.00  0.00     0.029 A 
ATOM      9  C7A BZF d   1      -1.166   0.510   1.037  0.00  0.00     0.058 A 
ENDROOT
TORSDOF 0
ENDMDL
