MODEL 1
REMARK minimizedAffinity 1.12205553
REMARK minimizedRMSD -1
REMARK  0 active torsions:
REMARK  status: ('A' for Active; 'I' for Inactive)
ROOT
ATOM      1  O1  BZF d   1       0.321   0.139   2.769  0.00  0.00    -0.204 OA
ATOM      2  C2  BZF d   1      -0.870   0.533   3.346  0.00  0.00     0.174 A 
ATOM      3  C3  BZF d   1      -1.858   0.569   2.428  0.00  0.00    -0.012 A 
ATOM      4  C3A BZF d   1      -1.266   0.083   1.219  0.00  0.00    -0.107 A 
ATOM      5  C4  BZF d   1      -1.746  -0.130  -0.041  0.00  0.00     0.055 A 
ATOM      6  C5  BZF d   1      -0.890  -0.542  -1.013  0.00  0.00    -0.016 A 
ATOM      7  C6  BZF d   1       0.451  -0.745  -0.761  0.00  0.00     0.022 A 
ATOM      8  C7  BZF d   1       0.973  -0.552   0.475  0.00  0.00     0.029 A 
ATOM      9  C7A BZF d   1       0.104  -0.167   1.467  0.00  0.00     0.058 A 
ENDROOT
TORSDOF 0
ENDMDL
