MODEL 1
REMARK minimizedAffinity -6.49713039
REMARK minimizedRMSD -1
REMARK  0 active torsions:
REMARK  status: ('A' for Active; 'I' for Inactive)
ROOT
ATOM      1  O1  BZF d   1       1.402  -0.859   0.238  0.00  0.00    -0.204 OA
ATOM      2  C2  BZF d   1       0.599  -0.576  -0.850  0.00  0.00     0.174 A 
ATOM      3  C3  BZF d   1      -0.482   0.137  -0.474  0.00  0.00    -0.012 A 
ATOM      4  C3A BZF d   1      -0.298   0.390   0.923  0.00  0.00    -0.107 A 
ATOM      5  C4  BZF d   1      -1.029   1.065   1.859  0.00  0.00     0.055 A 
ATOM      6  C5  BZF d   1      -0.610   1.063   3.151  0.00  0.00    -0.016 A 
ATOM      7  C6  BZF d   1       0.531   0.394   3.543  0.00  0.00     0.022 A 
ATOM      8  C7  BZF d   1       1.291  -0.285   2.650  0.00  0.00     0.029 A 
ATOM      9  C7A BZF d   1       0.888  -0.257   1.337  0.00  0.00     0.058 A 
ENDROOT
TORSDOF 0
ENDMDL
