MODEL 1
REMARK minimizedAffinity -6.13899994
REMARK minimizedRMSD -1
REMARK  0 active torsions:
REMARK  status: ('A' for Active; 'I' for Inactive)
ROOT
ATOM      1  O1  BZF d   1       1.559  -0.573   1.658  0.00  0.00    -0.204 OA
ATOM      2  C2  BZF d   1       1.587  -0.047   2.935  0.00  0.00     0.174 A 
ATOM      3  C3  BZF d   1       0.436   0.601   3.211  0.00  0.00    -0.012 A 
ATOM      4  C3A BZF d   1      -0.397   0.392   2.067  0.00  0.00    -0.107 A 
ATOM      5  C4  BZF d   1      -1.668   0.775   1.749  0.00  0.00     0.055 A 
ATOM      6  C5  BZF d   1      -2.162   0.469   0.520  0.00  0.00    -0.016 A 
ATOM      7  C6  BZF d   1      -1.412  -0.213  -0.415  0.00  0.00     0.022 A 
ATOM      8  C7  BZF d   1      -0.148  -0.618  -0.143  0.00  0.00     0.029 A 
ATOM      9  C7A BZF d   1       0.343  -0.340   1.109  0.00  0.00     0.058 A 
ENDROOT
TORSDOF 0
ENDMDL
