MODEL 1
REMARK minimizedAffinity -6.00640774
REMARK minimizedRMSD -1
REMARK  0 active torsions:
REMARK  status: ('A' for Active; 'I' for Inactive)
ROOT
ATOM      1  O1  BZF d   1       1.360  -0.741   0.378  0.00  0.00    -0.204 OA
ATOM      2  C2  BZF d   1       0.300  -0.648  -0.504  0.00  0.00     0.174 A 
ATOM      3  C3  BZF d   1      -0.760  -0.054   0.083  0.00  0.00    -0.012 A 
ATOM      4  C3A BZF d   1      -0.304   0.326   1.385  0.00  0.00    -0.107 A 
ATOM      5  C4  BZF d   1      -0.895   0.970   2.435  0.00  0.00     0.055 A 
ATOM      6  C5  BZF d   1      -0.199   1.120   3.593  0.00  0.00    -0.016 A 
ATOM      7  C6  BZF d   1       1.085   0.636   3.737  0.00  0.00     0.022 A 
ATOM      8  C7  BZF d   1       1.714  -0.004   2.721  0.00  0.00     0.029 A 
ATOM      9  C7A BZF d   1       1.025  -0.129   1.539  0.00  0.00     0.058 A 
ENDROOT
TORSDOF 0
ENDMDL
