MODEL 1
REMARK minimizedAffinity -5.19706059
REMARK minimizedRMSD -1
REMARK  0 active torsions:
REMARK  status: ('A' for Active; 'I' for Inactive)
ROOT
ATOM      1  O1  BZF d   1       0.607  -0.421   0.138  0.00  0.00    -0.204 OA
ATOM      2  C2  BZF d   1      -0.457  -0.269  -0.730  0.00  0.00     0.174 A 
ATOM      3  C3  BZF d   1      -1.526   0.248  -0.091  0.00  0.00    -0.012 A 
ATOM      4  C3A BZF d   1      -1.075   0.517   1.240  0.00  0.00    -0.107 A 
ATOM      5  C4  BZF d   1      -1.674   1.051   2.345  0.00  0.00     0.055 A 
ATOM      6  C5  BZF d   1      -0.978   1.109   3.511  0.00  0.00    -0.016 A 
ATOM      7  C6  BZF d   1       0.315   0.639   3.608  0.00  0.00     0.022 A 
ATOM      8  C7  BZF d   1       0.954   0.106   2.538  0.00  0.00     0.029 A 
ATOM      9  C7A BZF d   1       0.264   0.076   1.351  0.00  0.00     0.058 A 
ENDROOT
TORSDOF 0
ENDMDL
