MODEL 1
REMARK minimizedAffinity -6.0625391
REMARK minimizedRMSD -1
REMARK  0 active torsions:
REMARK  status: ('A' for Active; 'I' for Inactive)
ROOT
ATOM      1  O1  BZF d   1      -1.325  -0.966  -0.209  0.00  0.00    -0.204 OA
ATOM      2  C2  BZF d   1      -0.184  -1.207  -0.950  0.00  0.00     0.174 A 
ATOM      3  C3  BZF d   1       0.847  -0.466  -0.495  0.00  0.00    -0.012 A 
ATOM      4  C3A BZF d   1       0.342   0.216   0.656  0.00  0.00    -0.107 A 
ATOM      5  C4  BZF d   1       0.895   1.088   1.550  0.00  0.00     0.055 A 
ATOM      6  C5  BZF d   1       0.111   1.628   2.518  0.00  0.00    -0.016 A 
ATOM      7  C6  BZF d   1      -1.231   1.324   2.620  0.00  0.00     0.022 A 
ATOM      8  C7  BZF d   1      -1.824   0.460   1.760  0.00  0.00     0.029 A 
ATOM      9  C7A BZF d   1      -1.026  -0.113   0.800  0.00  0.00     0.058 A 
ENDROOT
TORSDOF 0
ENDMDL
