MODEL 1
REMARK minimizedAffinity 0.221805766
REMARK minimizedRMSD -1
REMARK  0 active torsions:
REMARK  status: ('A' for Active; 'I' for Inactive)
ROOT
ATOM      1  O1  BZF d   1       2.703  -2.074  -1.170  0.00  0.00    -0.204 OA
ATOM      2  C2  BZF d   1       3.580  -1.250  -1.850  0.00  0.00     0.174 A 
ATOM      3  C3  BZF d   1       3.357   0.044  -1.543  0.00  0.00    -0.012 A 
ATOM      4  C3A BZF d   1       2.334   0.022  -0.542  0.00  0.00    -0.107 A 
ATOM      5  C4  BZF d   1       1.697   0.997   0.170  0.00  0.00     0.055 A 
ATOM      6  C5  BZF d   1       0.694   0.648   1.017  0.00  0.00    -0.016 A 
ATOM      7  C6  BZF d   1       0.299  -0.665   1.172  0.00  0.00     0.022 A 
ATOM      8  C7  BZF d   1       0.905  -1.668   0.491  0.00  0.00     0.029 A 
ATOM      9  C7A BZF d   1       1.941  -1.321  -0.341  0.00  0.00     0.058 A 
ENDROOT
TORSDOF 0
ENDMDL
