MODEL 1
REMARK minimizedAffinity -1.60011065
REMARK minimizedRMSD -1
REMARK  0 active torsions:
REMARK  status: ('A' for Active; 'I' for Inactive)
ROOT
ATOM      1  O1  BZF d   1      -2.771   4.127  -5.624  0.00  0.00    -0.204 OA
ATOM      2  C2  BZF d   1      -1.604   3.876  -4.929  0.00  0.00     0.174 A 
ATOM      3  C3  BZF d   1      -1.874   3.366  -3.710  0.00  0.00    -0.012 A 
ATOM      4  C3A BZF d   1      -3.296   3.207  -3.675  0.00  0.00    -0.107 A 
ATOM      5  C4  BZF d   1      -4.164   2.730  -2.735  0.00  0.00     0.055 A 
ATOM      6  C5  BZF d   1      -5.499   2.779  -2.985  0.00  0.00    -0.016 A 
ATOM      7  C6  BZF d   1      -6.000   3.302  -4.159  0.00  0.00     0.022 A 
ATOM      8  C7  BZF d   1      -5.177   3.782  -5.123  0.00  0.00     0.029 A 
ATOM      9  C7A BZF d   1      -3.826   3.704  -4.888  0.00  0.00     0.058 A 
ENDROOT
TORSDOF 0
ENDMDL
