MODEL 1
REMARK minimizedAffinity 4.32846928
REMARK minimizedRMSD -1
REMARK  0 active torsions:
REMARK  status: ('A' for Active; 'I' for Inactive)
ROOT
ATOM      1  O1  BZF d   1       0.808  -2.124   1.178  0.00  0.00    -0.204 OA
ATOM      2  C2  BZF d   1       0.079  -1.234   1.944  0.00  0.00     0.174 A 
ATOM      3  C3  BZF d   1       0.460   0.035   1.694  0.00  0.00    -0.012 A 
ATOM      4  C3A BZF d   1       1.427  -0.062   0.644  0.00  0.00    -0.107 A 
ATOM      5  C4  BZF d   1       2.158   0.862  -0.047  0.00  0.00     0.055 A 
ATOM      6  C5  BZF d   1       3.068   0.434  -0.961  0.00  0.00    -0.016 A 
ATOM      7  C6  BZF d   1       3.277  -0.907  -1.205  0.00  0.00     0.022 A 
ATOM      8  C7  BZF d   1       2.572  -1.860  -0.548  0.00  0.00     0.029 A 
ATOM      9  C7A BZF d   1       1.628  -1.431   0.352  0.00  0.00     0.058 A 
ENDROOT
TORSDOF 0
ENDMDL
