MODEL 1
REMARK minimizedAffinity 7.44749451
REMARK minimizedRMSD -1
REMARK  0 active torsions:
REMARK  status: ('A' for Active; 'I' for Inactive)
ROOT
ATOM      1  O1  BZF d   1       0.593  -2.086   0.908  0.00  0.00    -0.204 OA
ATOM      2  C2  BZF d   1       1.598  -1.151   1.065  0.00  0.00     0.174 A 
ATOM      3  C3  BZF d   1       1.145  -0.069   1.729  0.00  0.00    -0.012 A 
ATOM      4  C3A BZF d   1      -0.205  -0.383   2.084  0.00  0.00    -0.107 A 
ATOM      5  C4  BZF d   1      -1.177   0.289   2.769  0.00  0.00     0.055 A 
ATOM      6  C5  BZF d   1      -2.412  -0.267   2.880  0.00  0.00    -0.016 A 
ATOM      7  C6  BZF d   1      -2.711  -1.489   2.315  0.00  0.00     0.022 A 
ATOM      8  C7  BZF d   1      -1.779  -2.196   1.630  0.00  0.00     0.029 A 
ATOM      9  C7A BZF d   1      -0.520  -1.652   1.545  0.00  0.00     0.058 A 
ENDROOT
TORSDOF 0
ENDMDL
