MODEL 1
REMARK minimizedAffinity 2.98037672
REMARK minimizedRMSD -1
REMARK  0 active torsions:
REMARK  status: ('A' for Active; 'I' for Inactive)
ROOT
ATOM      1  O1  BZF d   1       3.074   1.525  -0.928  0.00  0.00    -0.204 OA
ATOM      2  C2  BZF d   1       3.689   0.910  -2.002  0.00  0.00     0.174 A 
ATOM      3  C3  BZF d   1       3.527  -0.428  -1.944  0.00  0.00    -0.012 A 
ATOM      4  C3A BZF d   1       2.685  -0.656  -0.810  0.00  0.00    -0.107 A 
ATOM      5  C4  BZF d   1       2.156  -1.781  -0.244  0.00  0.00     0.055 A 
ATOM      6  C5  BZF d   1       1.435  -1.668   0.902  0.00  0.00    -0.016 A 
ATOM      7  C6  BZF d   1       1.227  -0.448   1.511  0.00  0.00     0.022 A 
ATOM      8  C7  BZF d   1       1.727   0.696   0.985  0.00  0.00     0.029 A 
ATOM      9  C7A BZF d   1       2.429   0.589  -0.191  0.00  0.00     0.058 A 
ENDROOT
TORSDOF 0
ENDMDL
