MODEL 1
REMARK minimizedAffinity 4.76891375
REMARK minimizedRMSD -1
REMARK  0 active torsions:
REMARK  status: ('A' for Active; 'I' for Inactive)
ROOT
ATOM      1  O1  BZF d   1       2.781   1.265  -1.750  0.00  0.00    -0.204 OA
ATOM      2  C2  BZF d   1       3.711   0.434  -2.343  0.00  0.00     0.174 A 
ATOM      3  C3  BZF d   1       3.756  -0.759  -1.716  0.00  0.00    -0.012 A 
ATOM      4  C3A BZF d   1       2.728  -0.700  -0.722  0.00  0.00    -0.107 A 
ATOM      5  C4  BZF d   1       2.273  -1.587   0.211  0.00  0.00     0.055 A 
ATOM      6  C5  BZF d   1       1.304  -1.194   1.079  0.00  0.00    -0.016 A 
ATOM      7  C6  BZF d   1       0.773   0.079   1.046  0.00  0.00     0.022 A 
ATOM      8  C7  BZF d   1       1.189   0.992   0.135  0.00  0.00     0.029 A 
ATOM      9  C7A BZF d   1       2.145   0.587  -0.765  0.00  0.00     0.058 A 
ENDROOT
TORSDOF 0
ENDMDL
