MODEL 1
REMARK minimizedAffinity 6.15035343
REMARK minimizedRMSD -1
REMARK  0 active torsions:
REMARK  status: ('A' for Active; 'I' for Inactive)
ROOT
ATOM      1  O1  BZF d   1       1.576  -2.232   0.038  0.00  0.00    -0.204 OA
ATOM      2  C2  BZF d   1       0.435  -1.953   0.764  0.00  0.00     0.174 A 
ATOM      3  C3  BZF d   1       0.303  -0.625   0.957  0.00  0.00    -0.012 A 
ATOM      4  C3A BZF d   1       1.384  -0.030   0.232  0.00  0.00    -0.107 A 
ATOM      5  C4  BZF d   1       1.780   1.261   0.028  0.00  0.00     0.055 A 
ATOM      6  C5  BZF d   1       2.921   1.499  -0.669  0.00  0.00    -0.016 A 
ATOM      7  C6  BZF d   1       3.693   0.472  -1.171  0.00  0.00     0.022 A 
ATOM      8  C7  BZF d   1       3.338  -0.825  -0.999  0.00  0.00     0.029 A 
ATOM      9  C7A BZF d   1       2.167  -1.068  -0.323  0.00  0.00     0.058 A 
ENDROOT
TORSDOF 0
ENDMDL
