MODEL 1
REMARK minimizedAffinity 2.90493298
REMARK minimizedRMSD -1
REMARK  0 active torsions:
REMARK  status: ('A' for Active; 'I' for Inactive)
ROOT
ATOM      1  O1  BZF d   1      -0.436   0.155   2.154  0.00  0.00    -0.204 OA
ATOM      2  C2  BZF d   1      -1.116  -1.044   2.249  0.00  0.00     0.174 A 
ATOM      3  C3  BZF d   1      -0.610  -1.949   1.386  0.00  0.00    -0.012 A 
ATOM      4  C3A BZF d   1       0.510  -1.302   0.776  0.00  0.00    -0.107 A 
ATOM      5  C4  BZF d   1       1.428  -1.695  -0.157  0.00  0.00     0.055 A 
ATOM      6  C5  BZF d   1       2.352  -0.799  -0.592  0.00  0.00    -0.016 A 
ATOM      7  C6  BZF d   1       2.384   0.497  -0.122  0.00  0.00     0.022 A 
ATOM      8  C7  BZF d   1       1.498   0.932   0.807  0.00  0.00     0.029 A 
ATOM      9  C7A BZF d   1       0.584   0.019   1.273  0.00  0.00     0.058 A 
ENDROOT
TORSDOF 0
ENDMDL
