MODEL 1
REMARK minimizedAffinity 3.35103846
REMARK minimizedRMSD -1
REMARK  0 active torsions:
REMARK  status: ('A' for Active; 'I' for Inactive)
ROOT
ATOM      1  O1  BZF d   1       0.301   0.442   2.588  0.00  0.00    -0.204 OA
ATOM      2  C2  BZF d   1      -0.272  -0.783   2.872  0.00  0.00     0.174 A 
ATOM      3  C3  BZF d   1      -0.053  -1.658   1.869  0.00  0.00    -0.012 A 
ATOM      4  C3A BZF d   1       0.784  -0.962   0.939  0.00  0.00    -0.107 A 
ATOM      5  C4  BZF d   1       1.354  -1.309  -0.252  0.00  0.00     0.055 A 
ATOM      6  C5  BZF d   1       2.055  -0.374  -0.946  0.00  0.00    -0.016 A 
ATOM      7  C6  BZF d   1       2.201   0.917  -0.481  0.00  0.00     0.022 A 
ATOM      8  C7  BZF d   1       1.658   1.306   0.698  0.00  0.00     0.029 A 
ATOM      9  C7A BZF d   1       0.977   0.355   1.417  0.00  0.00     0.058 A 
ENDROOT
TORSDOF 0
ENDMDL
