MODEL 1
REMARK minimizedAffinity 4.9136467
REMARK minimizedRMSD -1
REMARK  0 active torsions:
REMARK  status: ('A' for Active; 'I' for Inactive)
ROOT
ATOM      1  O1  BZF d   1       2.067   0.360  -0.273  0.00  0.00    -0.204 OA
ATOM      2  C2  BZF d   1       2.245  -0.661  -1.187  0.00  0.00     0.174 A 
ATOM      3  C3  BZF d   1       1.541  -1.753  -0.827  0.00  0.00    -0.012 A 
ATOM      4  C3A BZF d   1       0.809  -1.362   0.339  0.00  0.00    -0.107 A 
ATOM      5  C4  BZF d   1      -0.081  -2.008   1.149  0.00  0.00     0.055 A 
ATOM      6  C5  BZF d   1      -0.558  -1.367   2.248  0.00  0.00    -0.016 A 
ATOM      7  C6  BZF d   1      -0.164  -0.085   2.569  0.00  0.00     0.022 A 
ATOM      8  C7  BZF d   1       0.712   0.598   1.793  0.00  0.00     0.029 A 
ATOM      9  C7A BZF d   1       1.171  -0.035   0.664  0.00  0.00     0.058 A 
ENDROOT
TORSDOF 0
ENDMDL
