MODEL 1
REMARK minimizedAffinity 8.22601318
REMARK minimizedRMSD -1
REMARK  0 active torsions:
REMARK  status: ('A' for Active; 'I' for Inactive)
ROOT
ATOM      1  O1  BZF d   1      -1.864   4.673  -3.125  0.00  0.00    -0.204 OA
ATOM      2  C2  BZF d   1      -0.644   5.285  -2.914  0.00  0.00     0.174 A 
ATOM      3  C3  BZF d   1       0.367   4.411  -3.090  0.00  0.00    -0.012 A 
ATOM      4  C3A BZF d   1      -0.256   3.197  -3.523  0.00  0.00    -0.107 A 
ATOM      5  C4  BZF d   1       0.225   1.968  -3.873  0.00  0.00     0.055 A 
ATOM      6  C5  BZF d   1      -0.654   0.977  -4.176  0.00  0.00    -0.016 A 
ATOM      7  C6  BZF d   1      -2.018   1.178  -4.135  0.00  0.00     0.022 A 
ATOM      8  C7  BZF d   1      -2.542   2.382  -3.799  0.00  0.00     0.029 A 
ATOM      9  C7A BZF d   1      -1.656   3.395  -3.523  0.00  0.00     0.058 A 
ENDROOT
TORSDOF 0
ENDMDL
