MODEL 1
REMARK minimizedAffinity 1.29729021
REMARK minimizedRMSD -1
REMARK  0 active torsions:
REMARK  status: ('A' for Active; 'I' for Inactive)
ROOT
ATOM      1  O1  BZF d   1       3.152  -0.415  -1.498  0.00  0.00    -0.204 OA
ATOM      2  C2  BZF d   1       3.191  -1.759  -1.814  0.00  0.00     0.174 A 
ATOM      3  C3  BZF d   1       2.283  -2.447  -1.092  0.00  0.00    -0.012 A 
ATOM      4  C3A BZF d   1       1.573  -1.459  -0.339  0.00  0.00    -0.107 A 
ATOM      5  C4  BZF d   1       0.541  -1.520   0.552  0.00  0.00     0.055 A 
ATOM      6  C5  BZF d   1       0.129  -0.379   1.164  0.00  0.00    -0.016 A 
ATOM      7  C6  BZF d   1       0.729   0.838   0.914  0.00  0.00     0.022 A 
ATOM      8  C7  BZF d   1       1.754   0.949   0.034  0.00  0.00     0.029 A 
ATOM      9  C7A BZF d   1       2.151  -0.197  -0.611  0.00  0.00     0.058 A 
ENDROOT
TORSDOF 0
ENDMDL
