MODEL 1
REMARK minimizedAffinity -3.22791457
REMARK minimizedRMSD -1
REMARK  0 active torsions:
REMARK  status: ('A' for Active; 'I' for Inactive)
ROOT
ATOM      1  O1  BZF d   1      -0.227   0.023   1.827  0.00  0.00    -0.204 OA
ATOM      2  C2  BZF d   1      -0.759  -1.243   1.982  0.00  0.00     0.174 A 
ATOM      3  C3  BZF d   1      -0.253  -2.090   1.063  0.00  0.00    -0.012 A 
ATOM      4  C3A BZF d   1       0.720  -1.327   0.343  0.00  0.00    -0.107 A 
ATOM      5  C4  BZF d   1       1.570  -1.620  -0.685  0.00  0.00     0.055 A 
ATOM      6  C5  BZF d   1       2.340  -0.630  -1.208  0.00  0.00    -0.016 A 
ATOM      7  C6  BZF d   1       2.282   0.663  -0.732  0.00  0.00     0.022 A 
ATOM      8  C7  BZF d   1       1.457   1.001   0.289  0.00  0.00     0.029 A 
ATOM      9  C7A BZF d   1       0.702  -0.004   0.842  0.00  0.00     0.058 A 
ENDROOT
TORSDOF 0
ENDMDL
