MODEL 1
REMARK minimizedAffinity -1.84718049
REMARK minimizedRMSD -1
REMARK  0 active torsions:
REMARK  status: ('A' for Active; 'I' for Inactive)
ROOT
ATOM      1  O1  BZF d   1       0.205  -2.443   1.602  0.00  0.00    -0.204 OA
ATOM      2  C2  BZF d   1      -0.523  -1.688   2.501  0.00  0.00     0.174 A 
ATOM      3  C3  BZF d   1      -0.343  -0.371   2.275  0.00  0.00    -0.012 A 
ATOM      4  C3A BZF d   1       0.481  -0.298   1.108  0.00  0.00    -0.107 A 
ATOM      5  C4  BZF d   1       0.990   0.740   0.382  0.00  0.00     0.055 A 
ATOM      6  C5  BZF d   1       1.818   0.473  -0.662  0.00  0.00    -0.016 A 
ATOM      7  C6  BZF d   1       2.161  -0.819  -1.004  0.00  0.00     0.022 A 
ATOM      8  C7  BZF d   1       1.677  -1.882  -0.317  0.00  0.00     0.029 A 
ATOM      9  C7A BZF d   1       0.814  -1.616   0.718  0.00  0.00     0.058 A 
ENDROOT
TORSDOF 0
ENDMDL
