MODEL 1
REMARK minimizedAffinity 6.12666416
REMARK minimizedRMSD -1
REMARK  0 active torsions:
REMARK  status: ('A' for Active; 'I' for Inactive)
ROOT
ATOM      1  O1  BZF d   1       2.548  -1.901  -0.836  0.00  0.00    -0.204 OA
ATOM      2  C2  BZF d   1       1.386  -2.605  -0.584  0.00  0.00     0.174 A 
ATOM      3  C3  BZF d   1       0.609  -1.945   0.299  0.00  0.00    -0.012 A 
ATOM      4  C3A BZF d   1       1.287  -0.710   0.548  0.00  0.00    -0.107 A 
ATOM      5  C4  BZF d   1       1.005   0.376   1.325  0.00  0.00     0.055 A 
ATOM      6  C5  BZF d   1       1.911   1.386   1.404  0.00  0.00    -0.016 A 
ATOM      7  C6  BZF d   1       3.110   1.340   0.723  0.00  0.00     0.022 A 
ATOM      8  C7  BZF d   1       3.432   0.286  -0.065  0.00  0.00     0.029 A 
ATOM      9  C7A BZF d   1       2.504  -0.721  -0.172  0.00  0.00     0.058 A 
ENDROOT
TORSDOF 0
ENDMDL
