MODEL 1
REMARK minimizedAffinity -0.615519166
REMARK minimizedRMSD -1
REMARK  0 active torsions:
REMARK  status: ('A' for Active; 'I' for Inactive)
ROOT
ATOM      1  O1  BZF d   1       1.706  -2.091   0.267  0.00  0.00    -0.204 OA
ATOM      2  C2  BZF d   1       0.824  -1.438   1.105  0.00  0.00     0.174 A 
ATOM      3  C3  BZF d   1       0.899  -0.103   0.932  0.00  0.00    -0.012 A 
ATOM      4  C3A BZF d   1       1.823   0.086  -0.143  0.00  0.00    -0.107 A 
ATOM      5  C4  BZF d   1       2.301   1.191  -0.787  0.00  0.00     0.055 A 
ATOM      6  C5  BZF d   1       3.251   1.037  -1.747  0.00  0.00    -0.016 A 
ATOM      7  C6  BZF d   1       3.748  -0.205  -2.084  0.00  0.00     0.022 A 
ATOM      8  C7  BZF d   1       3.301  -1.331  -1.477  0.00  0.00     0.029 A 
ATOM      9  C7A BZF d   1       2.318  -1.181  -0.529  0.00  0.00     0.058 A 
ENDROOT
TORSDOF 0
ENDMDL
