MODEL 1
REMARK minimizedAffinity 2.85829067
REMARK minimizedRMSD -1
REMARK  0 active torsions:
REMARK  status: ('A' for Active; 'I' for Inactive)
ROOT
ATOM      1  O1  BZF d   1       2.148  -2.689  -1.152  0.00  0.00    -0.204 OA
ATOM      2  C2  BZF d   1       3.233  -2.273  -1.898  0.00  0.00     0.174 A 
ATOM      3  C3  BZF d   1       3.414  -0.942  -1.778  0.00  0.00    -0.012 A 
ATOM      4  C3A BZF d   1       2.433  -0.513  -0.828  0.00  0.00    -0.107 A 
ATOM      5  C4  BZF d   1       2.123   0.699  -0.282  0.00  0.00     0.055 A 
ATOM      6  C5  BZF d   1       1.061   0.791   0.561  0.00  0.00    -0.016 A 
ATOM      7  C6  BZF d   1       0.286  -0.306   0.875  0.00  0.00     0.022 A 
ATOM      8  C7  BZF d   1       0.558  -1.531   0.362  0.00  0.00     0.029 A 
ATOM      9  C7A BZF d   1       1.651  -1.633  -0.465  0.00  0.00     0.058 A 
ENDROOT
TORSDOF 0
ENDMDL
