MODEL 1
REMARK minimizedAffinity 4.040833
REMARK minimizedRMSD -1
REMARK  0 active torsions:
REMARK  status: ('A' for Active; 'I' for Inactive)
ROOT
ATOM      1  O1  BZF d   1       1.116   1.916  -5.936  0.00  0.00    -0.204 OA
ATOM      2  C2  BZF d   1       1.971   2.979  -5.716  0.00  0.00     0.174 A 
ATOM      3  C3  BZF d   1       1.431   3.855  -4.844  0.00  0.00    -0.012 A 
ATOM      4  C3A BZF d   1       0.198   3.260  -4.427  0.00  0.00    -0.107 A 
ATOM      5  C4  BZF d   1      -0.782   3.642  -3.557  0.00  0.00     0.055 A 
ATOM      6  C5  BZF d   1      -1.892   2.868  -3.432  0.00  0.00    -0.016 A 
ATOM      7  C6  BZF d   1      -2.057   1.710  -4.163  0.00  0.00     0.022 A 
ATOM      8  C7  BZF d   1      -1.109   1.287  -5.034  0.00  0.00     0.029 A 
ATOM      9  C7A BZF d   1       0.028   2.050  -5.139  0.00  0.00     0.058 A 
ENDROOT
TORSDOF 0
ENDMDL
