MODEL 1
REMARK minimizedAffinity -3.7754066
REMARK minimizedRMSD -1
REMARK  0 active torsions:
REMARK  status: ('A' for Active; 'I' for Inactive)
ROOT
ATOM      1  C1  DEN d   1      -0.848  -1.311   1.260  0.00  0.00     0.130 A 
ATOM      2  C2  DEN d   1      -1.830  -0.717   0.357  0.00  0.00    -0.031 A 
ATOM      3  C3  DEN d   1      -1.098  -0.034  -0.728  0.00  0.00     0.027 A 
ATOM      4  C4  DEN d   1       1.447   0.156  -1.100  0.00  0.00     0.027 A 
ATOM      5  C5  DEN d   1       2.684  -0.176  -0.592  0.00  0.00    -0.003 A 
ATOM      6  C6  DEN d   1       2.829  -0.875   0.577  0.00  0.00     0.001 A 
ATOM      7  C7  DEN d   1       1.718  -1.304   1.254  0.00  0.00     0.017 A 
ATOM      8  C8  DEN d   1       0.468  -0.966   0.752  0.00  0.00    -0.094 A 
ATOM      9  C9  DEN d   1       0.342  -0.270  -0.438  0.00  0.00    -0.072 A 
ENDROOT
TORSDOF 0
ENDMDL
