MODEL 1
REMARK minimizedAffinity -5.87574625
REMARK minimizedRMSD -1
REMARK  0 active torsions:
REMARK  status: ('A' for Active; 'I' for Inactive)
ROOT
ATOM      1  C1  DEN d   1       0.596   0.447  -0.972  0.00  0.00     0.130 A 
ATOM      2  C2  DEN d   1      -0.813   0.192  -0.685  0.00  0.00    -0.031 A 
ATOM      3  C3  DEN d   1      -0.885  -0.739   0.459  0.00  0.00     0.027 A 
ATOM      4  C4  DEN d   1       1.039  -1.800   1.811  0.00  0.00     0.027 A 
ATOM      5  C5  DEN d   1       2.407  -1.892   1.933  0.00  0.00    -0.003 A 
ATOM      6  C6  DEN d   1       3.262  -1.243   1.082  0.00  0.00     0.001 A 
ATOM      7  C7  DEN d   1       2.755  -0.436   0.097  0.00  0.00     0.017 A 
ATOM      8  C8  DEN d   1       1.376  -0.345  -0.037  0.00  0.00    -0.094 A 
ATOM      9  C9  DEN d   1       0.529  -0.999   0.841  0.00  0.00    -0.072 A 
ENDROOT
TORSDOF 0
ENDMDL
