MODEL 1
REMARK minimizedAffinity -4.09111691
REMARK minimizedRMSD -1
REMARK  0 active torsions:
REMARK  status: ('A' for Active; 'I' for Inactive)
ROOT
ATOM      1  C1  DEN d   1      -0.710  -0.689   0.779  0.00  0.00     0.130 A 
ATOM      2  C2  DEN d   1      -1.361  -0.213  -0.439  0.00  0.00    -0.031 A 
ATOM      3  C3  DEN d   1      -0.377   0.583  -1.200  0.00  0.00     0.027 A 
ATOM      4  C4  DEN d   1       2.078   1.117  -0.617  0.00  0.00     0.027 A 
ATOM      5  C5  DEN d   1       3.073   0.941   0.319  0.00  0.00    -0.003 A 
ATOM      6  C6  DEN d   1       2.869   0.244   1.480  0.00  0.00     0.001 A 
ATOM      7  C7  DEN d   1       1.653  -0.342   1.715  0.00  0.00     0.017 A 
ATOM      8  C8  DEN d   1       0.642  -0.163   0.779  0.00  0.00    -0.094 A 
ATOM      9  C9  DEN d   1       0.873   0.535  -0.394  0.00  0.00    -0.072 A 
ENDROOT
TORSDOF 0
ENDMDL
