MODEL 1
REMARK minimizedAffinity -2.66748476
REMARK minimizedRMSD -1
REMARK  0 active torsions:
REMARK  status: ('A' for Active; 'I' for Inactive)
ROOT
ATOM      1  C1  DEN d   1       1.067   1.135  -1.319  0.00  0.00     0.130 A 
ATOM      2  C2  DEN d   1       1.682   1.242   0.002  0.00  0.00    -0.031 A 
ATOM      3  C3  DEN d   1       0.748   0.661   0.988  0.00  0.00     0.027 A 
ATOM      4  C4  DEN d   1      -1.574  -0.391   0.599  0.00  0.00     0.027 A 
ATOM      5  C5  DEN d   1      -2.524  -0.696  -0.351  0.00  0.00    -0.003 A 
ATOM      6  C6  DEN d   1      -2.359  -0.384  -1.675  0.00  0.00     0.001 A 
ATOM      7  C7  DEN d   1      -1.198   0.212  -2.092  0.00  0.00     0.017 A 
ATOM      8  C8  DEN d   1      -0.239   0.529  -1.138  0.00  0.00    -0.094 A 
ATOM      9  C9  DEN d   1      -0.420   0.195   0.193  0.00  0.00    -0.072 A 
ENDROOT
TORSDOF 0
ENDMDL
