MODEL 1
REMARK minimizedAffinity -4.98544312
REMARK minimizedRMSD -1
REMARK  0 active torsions:
REMARK  status: ('A' for Active; 'I' for Inactive)
ROOT
ATOM      1  C1  DEN d   1       0.016   1.658   0.723  0.00  0.00     0.130 A 
ATOM      2  C2  DEN d   1      -1.168   0.918   0.294  0.00  0.00    -0.031 A 
ATOM      3  C3  DEN d   1      -0.808  -0.513   0.219  0.00  0.00     0.027 A 
ATOM      4  C4  DEN d   1       1.452  -1.647   0.727  0.00  0.00     0.027 A 
ATOM      5  C5  DEN d   1       2.755  -1.428   1.114  0.00  0.00    -0.003 A 
ATOM      6  C6  DEN d   1       3.243  -0.173   1.363  0.00  0.00     0.001 A 
ATOM      7  C7  DEN d   1       2.408   0.910   1.271  0.00  0.00     0.017 A 
ATOM      8  C8  DEN d   1       1.094   0.698   0.874  0.00  0.00    -0.094 A 
ATOM      9  C9  DEN d   1       0.617  -0.580   0.639  0.00  0.00    -0.072 A 
ENDROOT
TORSDOF 0
ENDMDL
