MODEL 1
REMARK minimizedAffinity -2.99427557
REMARK minimizedRMSD -1
REMARK  0 active torsions:
REMARK  status: ('A' for Active; 'I' for Inactive)
ROOT
ATOM      1  C1  DEN d   1      -1.318  -0.695   0.255  0.00  0.00     0.130 A 
ATOM      2  C2  DEN d   1      -1.980  -0.013  -0.853  0.00  0.00    -0.031 A 
ATOM      3  C3  DEN d   1      -1.020   0.944  -1.440  0.00  0.00     0.027 A 
ATOM      4  C4  DEN d   1       1.417   1.428  -0.747  0.00  0.00     0.027 A 
ATOM      5  C5  DEN d   1       2.415   1.106   0.146  0.00  0.00    -0.003 A 
ATOM      6  C6  DEN d   1       2.230   0.193   1.150  0.00  0.00     0.001 A 
ATOM      7  C7  DEN d   1       1.032  -0.463   1.259  0.00  0.00     0.017 A 
ATOM      8  C8  DEN d   1       0.018  -0.138   0.367  0.00  0.00    -0.094 A 
ATOM      9  C9  DEN d   1       0.229   0.779  -0.649  0.00  0.00    -0.072 A 
ENDROOT
TORSDOF 0
ENDMDL
