MODEL 1
REMARK minimizedAffinity 0.100104228
REMARK minimizedRMSD -1
REMARK  0 active torsions:
REMARK  status: ('A' for Active; 'I' for Inactive)
ROOT
ATOM      1  C1  DEN d   1       1.256  -0.621   1.670  0.00  0.00     0.130 A 
ATOM      2  C2  DEN d   1       2.589  -0.024   1.679  0.00  0.00    -0.031 A 
ATOM      3  C3  DEN d   1       2.591   1.100   0.721  0.00  0.00     0.027 A 
ATOM      4  C4  DEN d   1       0.670   1.971  -0.764  0.00  0.00     0.027 A 
ATOM      5  C5  DEN d   1      -0.644   1.779  -1.126  0.00  0.00    -0.003 A 
ATOM      6  C6  DEN d   1      -1.402   0.760  -0.611  0.00  0.00     0.001 A 
ATOM      7  C7  DEN d   1      -0.863  -0.078   0.330  0.00  0.00     0.017 A 
ATOM      8  C8  DEN d   1       0.464   0.106   0.694  0.00  0.00    -0.094 A 
ATOM      9  C9  DEN d   1       1.210   1.149   0.171  0.00  0.00    -0.072 A 
ENDROOT
TORSDOF 0
ENDMDL
