MODEL 1
REMARK minimizedAffinity -5.43147707
REMARK minimizedRMSD -1
REMARK  0 active torsions:
REMARK  status: ('A' for Active; 'I' for Inactive)
ROOT
ATOM      1  C   UNL d   1      -1.419   3.395  -1.070  0.00  0.00     0.078 C 
ATOM      2  C1  UNL d   1      -0.882   2.321  -0.171  0.00  0.00    -0.077 A 
ATOM      3  C2  UNL d   1      -0.401   1.115  -0.696  0.00  0.00    -0.001 A 
ATOM      4  C3  UNL d   1       0.086   0.120   0.153  0.00  0.00     0.003 A 
ATOM      5  C4  UNL d   1       0.096   0.321   1.532  0.00  0.00    -0.005 A 
ATOM      6  C5  UNL d   1      -0.383   1.516   2.064  0.00  0.00     0.003 A 
ATOM      7  C6  UNL d   1      -0.870   2.512   1.216  0.00  0.00    -0.001 A 
ENDROOT
TORSDOF 0
ENDMDL
