MODEL 1
REMARK minimizedAffinity -5.23598671
REMARK minimizedRMSD -1
REMARK  0 active torsions:
REMARK  status: ('A' for Active; 'I' for Inactive)
ROOT
ATOM      1  C   UNL d   1       0.277  -0.644  -0.905  0.00  0.00     0.078 C 
ATOM      2  C1  UNL d   1      -0.105   0.630  -0.212  0.00  0.00    -0.077 A 
ATOM      3  C2  UNL d   1      -0.270   0.673   1.178  0.00  0.00    -0.001 A 
ATOM      4  C3  UNL d   1      -0.635   1.863   1.809  0.00  0.00     0.003 A 
ATOM      5  C4  UNL d   1      -0.839   3.019   1.058  0.00  0.00    -0.005 A 
ATOM      6  C5  UNL d   1      -0.678   2.986  -0.326  0.00  0.00     0.003 A 
ATOM      7  C6  UNL d   1      -0.314   1.796  -0.958  0.00  0.00    -0.001 A 
ENDROOT
TORSDOF 0
ENDMDL
