MODEL 1
REMARK minimizedAffinity -4.58435488
REMARK minimizedRMSD -1
REMARK  0 active torsions:
REMARK  status: ('A' for Active; 'I' for Inactive)
ROOT
ATOM      1  C   UNL d   1       0.071  -0.120   1.667  0.00  0.00     0.078 C 
ATOM      2  C1  UNL d   1      -0.304   1.119   0.910  0.00  0.00    -0.077 A 
ATOM      3  C2  UNL d   1      -0.487   2.340   1.570  0.00  0.00    -0.001 A 
ATOM      4  C3  UNL d   1      -0.847   3.483   0.854  0.00  0.00     0.003 A 
ATOM      5  C4  UNL d   1      -1.027   3.416  -0.526  0.00  0.00    -0.005 A 
ATOM      6  C5  UNL d   1      -0.849   2.205  -1.191  0.00  0.00     0.003 A 
ATOM      7  C6  UNL d   1      -0.490   1.061  -0.477  0.00  0.00    -0.001 A 
ENDROOT
TORSDOF 0
ENDMDL
