MODEL 1
REMARK minimizedAffinity -4.57749033
REMARK minimizedRMSD -1
REMARK  0 active torsions:
REMARK  status: ('A' for Active; 'I' for Inactive)
ROOT
ATOM      1  C   UNL d   1       0.497  -0.596  -0.566  0.00  0.00     0.078 C 
ATOM      2  C1  UNL d   1       0.009   0.664   0.083  0.00  0.00    -0.077 A 
ATOM      3  C2  UNL d   1      -0.091   1.857  -0.643  0.00  0.00    -0.001 A 
ATOM      4  C3  UNL d   1      -0.538   3.026  -0.024  0.00  0.00     0.003 A 
ATOM      5  C4  UNL d   1      -0.887   3.013   1.325  0.00  0.00    -0.005 A 
ATOM      6  C5  UNL d   1      -0.789   1.831   2.057  0.00  0.00     0.003 A 
ATOM      7  C6  UNL d   1      -0.342   0.662   1.439  0.00  0.00    -0.001 A 
ENDROOT
TORSDOF 0
ENDMDL
