MODEL 1
REMARK minimizedAffinity -5.1963439
REMARK minimizedRMSD -1
REMARK  0 active torsions:
REMARK  status: ('A' for Active; 'I' for Inactive)
ROOT
ATOM      1  C   UNL d   1       0.008  -0.547  -0.025  0.00  0.00     0.078 C 
ATOM      2  C1  UNL d   1      -0.470   0.859   0.182  0.00  0.00    -0.077 A 
ATOM      3  C2  UNL d   1      -0.346   1.820  -0.829  0.00  0.00    -0.001 A 
ATOM      4  C3  UNL d   1      -0.787   3.128  -0.619  0.00  0.00     0.003 A 
ATOM      5  C4  UNL d   1      -1.354   3.487   0.602  0.00  0.00    -0.005 A 
ATOM      6  C5  UNL d   1      -1.480   2.539   1.615  0.00  0.00     0.003 A 
ATOM      7  C6  UNL d   1      -1.040   1.231   1.407  0.00  0.00    -0.001 A 
ENDROOT
TORSDOF 0
ENDMDL
