MODEL 1
REMARK minimizedAffinity -5.73879623
REMARK minimizedRMSD -1
REMARK  2 active torsions:
REMARK  status: ('A' for Active; 'I' for Inactive)
REMARK    1  A    between atoms: C2'_3  and  C1'_4 
REMARK    2  A    between atoms: C1'_4  and  C1_5 
ROOT
ATOM      1  C1  I4B d   1      -0.200   0.659   0.021  0.00  0.00    -0.075 A 
ATOM      2  C2  I4B d   1      -1.387   0.038   0.318  0.00  0.00     0.003 A 
ATOM      3  C3  I4B d   1      -2.002   0.241   1.578  0.00  0.00     0.002 A 
ATOM      4  C4  I4B d   1      -1.374   1.027   2.522  0.00  0.00    -0.004 A 
ATOM      5  C5  I4B d   1      -0.182   1.675   2.210  0.00  0.00     0.002 A 
ATOM      6  C6  I4B d   1       0.403   1.500   0.947  0.00  0.00     0.003 A 
ENDROOT
BRANCH   1   7
ATOM      7  C1' I4B d   1       0.438   0.397  -1.307  0.00  0.00     0.060 C 
BRANCH   7   8
ATOM      8  C2' I4B d   1       0.531  -1.104  -1.491  0.00  0.00    -0.013 C 
ATOM      9  C4' I4B d   1       0.789  -1.462  -2.931  0.00  0.00     0.013 C 
ATOM     10  C3' I4B d   1       1.627  -1.612  -0.602  0.00  0.00     0.013 C 
ENDBRANCH   7   8
ENDBRANCH   1   7
TORSDOF 2
ENDMDL
