MODEL 1
REMARK minimizedAffinity -5.5193224
REMARK minimizedRMSD -1
REMARK  2 active torsions:
REMARK  status: ('A' for Active; 'I' for Inactive)
REMARK    1  A    between atoms: C2'_3  and  C1'_4 
REMARK    2  A    between atoms: C1'_4  and  C1_5 
ROOT
ATOM      1  C1  I4B d   1       0.310   0.089   0.158  0.00  0.00    -0.075 A 
ATOM      2  C2  I4B d   1      -1.044   0.257   0.004  0.00  0.00     0.003 A 
ATOM      3  C3  I4B d   1      -1.794   0.944   0.989  0.00  0.00     0.002 A 
ATOM      4  C4  I4B d   1      -1.163   1.398   2.129  0.00  0.00    -0.004 A 
ATOM      5  C5  I4B d   1       0.213   1.246   2.274  0.00  0.00     0.002 A 
ATOM      6  C6  I4B d   1       0.957   0.598   1.277  0.00  0.00     0.003 A 
ENDROOT
BRANCH   1   7
ATOM      7  C1' I4B d   1       1.066  -0.670  -0.886  0.00  0.00     0.060 C 
BRANCH   7   8
ATOM      8  C2' I4B d   1       0.839   0.016  -2.218  0.00  0.00    -0.013 C 
ATOM      9  C4' I4B d   1       2.066   0.770  -2.658  0.00  0.00     0.013 C 
ATOM     10  C3' I4B d   1       0.459  -1.033  -3.220  0.00  0.00     0.013 C 
ENDBRANCH   7   8
ENDBRANCH   1   7
TORSDOF 2
ENDMDL
