MODEL 1
REMARK minimizedAffinity -4.43889713
REMARK minimizedRMSD -1
REMARK  2 active torsions:
REMARK  status: ('A' for Active; 'I' for Inactive)
REMARK    1  A    between atoms: C2'_3  and  C1'_4 
REMARK    2  A    between atoms: C1'_4  and  C1_5 
ROOT
ATOM      1  C1  I4B d   1       0.470  -0.200  -0.315  0.00  0.00    -0.075 A 
ATOM      2  C2  I4B d   1       1.499  -0.138   0.592  0.00  0.00     0.003 A 
ATOM      3  C3  I4B d   1       1.295   0.455   1.861  0.00  0.00     0.002 A 
ATOM      4  C4  I4B d   1       0.070   1.016   2.160  0.00  0.00    -0.004 A 
ATOM      5  C5  I4B d   1      -0.978   0.932   1.248  0.00  0.00     0.002 A 
ATOM      6  C6  I4B d   1      -0.781   0.309   0.007  0.00  0.00     0.003 A 
ENDROOT
BRANCH   1   7
ATOM      7  C1' I4B d   1       0.729  -0.804  -1.659  0.00  0.00     0.060 C 
BRANCH   7   8
ATOM      8  C2' I4B d   1       0.698   0.309  -2.686  0.00  0.00    -0.013 C 
ATOM      9  C4' I4B d   1       1.952   1.142  -2.626  0.00  0.00     0.013 C 
ATOM     10  C3' I4B d   1       0.525  -0.313  -4.039  0.00  0.00     0.013 C 
ENDBRANCH   7   8
ENDBRANCH   1   7
TORSDOF 2
ENDMDL
