MODEL 1
REMARK minimizedAffinity -4.21076107
REMARK minimizedRMSD -1
REMARK  2 active torsions:
REMARK  status: ('A' for Active; 'I' for Inactive)
REMARK    1  A    between atoms: C2'_3  and  C1'_4 
REMARK    2  A    between atoms: C1'_4  and  C1_5 
ROOT
ATOM      1  C1  I4B d   1       0.065  -0.387  -0.547  0.00  0.00    -0.075 A 
ATOM      2  C2  I4B d   1       0.622   0.129   0.597  0.00  0.00     0.003 A 
ATOM      3  C3  I4B d   1      -0.206   0.658   1.617  0.00  0.00     0.002 A 
ATOM      4  C4  I4B d   1      -1.573   0.698   1.430  0.00  0.00    -0.004 A 
ATOM      5  C5  I4B d   1      -2.137   0.155   0.280  0.00  0.00     0.002 A 
ATOM      6  C6  I4B d   1      -1.314  -0.403  -0.710  0.00  0.00     0.003 A 
ENDROOT
BRANCH   1   7
ATOM      7  C1' I4B d   1       0.970  -0.908  -1.617  0.00  0.00     0.060 C 
BRANCH   7   8
ATOM      8  C2' I4B d   1       0.717  -0.103  -2.876  0.00  0.00    -0.013 C 
ATOM      9  C4' I4B d   1       1.966   0.604  -3.332  0.00  0.00     0.013 C 
ATOM     10  C3' I4B d   1       0.209  -1.040  -3.930  0.00  0.00     0.013 C 
ENDBRANCH   7   8
ENDBRANCH   1   7
TORSDOF 2
ENDMDL
