MODEL 1
REMARK minimizedAffinity -4.68469477
REMARK minimizedRMSD -1
REMARK  2 active torsions:
REMARK  status: ('A' for Active; 'I' for Inactive)
REMARK    1  A    between atoms: C2'_3  and  C1'_4 
REMARK    2  A    between atoms: C1'_4  and  C1_5 
ROOT
ATOM      1  C1  I4B d   1       0.169   0.131  -0.161  0.00  0.00    -0.075 A 
ATOM      2  C2  I4B d   1      -1.194  -0.022  -0.107  0.00  0.00     0.003 A 
ATOM      3  C3  I4B d   1      -1.921   0.452   1.012  0.00  0.00     0.002 A 
ATOM      4  C4  I4B d   1      -1.243   1.024   2.070  0.00  0.00    -0.004 A 
ATOM      5  C5  I4B d   1       0.136   1.199   2.003  0.00  0.00     0.002 A 
ATOM      6  C6  I4B d   1       0.845   0.761   0.875  0.00  0.00     0.003 A 
ENDROOT
BRANCH   1   7
ATOM      7  C1' I4B d   1       0.908  -0.412  -1.343  0.00  0.00     0.060 C 
BRANCH   7   8
ATOM      8  C2' I4B d   1       1.347   0.760  -2.197  0.00  0.00    -0.013 C 
ATOM      9  C4' I4B d   1       2.835   0.743  -2.424  0.00  0.00     0.013 C 
ATOM     10  C3' I4B d   1       0.600   0.691  -3.496  0.00  0.00     0.013 C 
ENDBRANCH   7   8
ENDBRANCH   1   7
TORSDOF 2
ENDMDL
