MODEL 1
REMARK minimizedAffinity -6.56589222
REMARK minimizedRMSD -1
REMARK  2 active torsions:
REMARK  status: ('A' for Active; 'I' for Inactive)
REMARK    1  A    between atoms: C2'_3  and  C1'_4 
REMARK    2  A    between atoms: C1'_4  and  C1_5 
ROOT
ATOM      1  C1  I4B d   1      -0.136   0.685   0.999  0.00  0.00    -0.075 A 
ATOM      2  C2  I4B d   1      -0.889   1.487   1.820  0.00  0.00     0.003 A 
ATOM      3  C3  I4B d   1      -0.486   1.716   3.158  0.00  0.00     0.002 A 
ATOM      4  C4  I4B d   1       0.641   1.086   3.645  0.00  0.00    -0.004 A 
ATOM      5  C5  I4B d   1       1.416   0.292   2.805  0.00  0.00     0.002 A 
ATOM      6  C6  I4B d   1       1.032   0.100   1.470  0.00  0.00     0.003 A 
ENDROOT
BRANCH   1   7
ATOM      7  C1' I4B d   1      -0.608   0.439  -0.399  0.00  0.00     0.060 C 
BRANCH   7   8
ATOM      8  C2' I4B d   1      -1.215  -0.948  -0.449  0.00  0.00    -0.013 C 
ATOM      9  C4' I4B d   1      -2.683  -0.889  -0.782  0.00  0.00     0.013 C 
ATOM     10  C3' I4B d   1      -0.460  -1.747  -1.469  0.00  0.00     0.013 C 
ENDBRANCH   7   8
ENDBRANCH   1   7
TORSDOF 2
ENDMDL
