MODEL 1
REMARK minimizedAffinity 6.58364344
REMARK minimizedRMSD -1
REMARK  2 active torsions:
REMARK  status: ('A' for Active; 'I' for Inactive)
REMARK    1  A    between atoms: C2'_3  and  C1'_4 
REMARK    2  A    between atoms: C1'_4  and  C1_5 
ROOT
ATOM      1  C1  I4B d   1       0.348   2.890   1.915  0.00  0.00    -0.075 A 
ATOM      2  C2  I4B d   1      -0.685   2.469   2.716  0.00  0.00     0.003 A 
ATOM      3  C3  I4B d   1      -0.545   1.302   3.506  0.00  0.00     0.002 A 
ATOM      4  C4  I4B d   1       0.618   0.564   3.427  0.00  0.00    -0.004 A 
ATOM      5  C5  I4B d   1       1.673   1.004   2.632  0.00  0.00     0.002 A 
ATOM      6  C6  I4B d   1       1.542   2.181   1.881  0.00  0.00     0.003 A 
ENDROOT
BRANCH   1   7
ATOM      7  C1' I4B d   1       0.154   4.108   1.069  0.00  0.00     0.060 C 
BRANCH   7   8
ATOM      8  C2' I4B d   1       0.713   3.814  -0.308  0.00  0.00    -0.013 C 
ATOM      9  C4' I4B d   1      -0.358   3.297  -1.232  0.00  0.00     0.013 C 
ATOM     10  C3' I4B d   1       1.323   5.076  -0.840  0.00  0.00     0.013 C 
ENDBRANCH   7   8
ENDBRANCH   1   7
TORSDOF 2
ENDMDL
