MODEL 1
REMARK minimizedAffinity 10.2457886
REMARK minimizedRMSD -1
REMARK  2 active torsions:
REMARK  status: ('A' for Active; 'I' for Inactive)
REMARK    1  A    between atoms: C2'_3  and  C1'_4 
REMARK    2  A    between atoms: C1'_4  and  C1_5 
ROOT
ATOM      1  C1  I4B d   1       0.372   1.434  -0.644  0.00  0.00    -0.075 A 
ATOM      2  C2  I4B d   1      -0.435   1.283   0.456  0.00  0.00     0.003 A 
ATOM      3  C3  I4B d   1      -0.907   2.421   1.155  0.00  0.00     0.002 A 
ATOM      4  C4  I4B d   1      -0.509   3.679   0.752  0.00  0.00    -0.004 A 
ATOM      5  C5  I4B d   1       0.291   3.831  -0.377  0.00  0.00     0.002 A 
ATOM      6  C6  I4B d   1       0.724   2.702  -1.087  0.00  0.00     0.003 A 
ENDROOT
BRANCH   1   7
ATOM      7  C1' I4B d   1       0.879   0.210  -1.339  0.00  0.00     0.060 C 
BRANCH   7   8
ATOM      8  C2' I4B d   1       0.969  -0.904  -0.316  0.00  0.00    -0.013 C 
ATOM      9  C4' I4B d   1       0.224  -2.129  -0.777  0.00  0.00     0.013 C 
ATOM     10  C3' I4B d   1       2.420  -1.206  -0.088  0.00  0.00     0.013 C 
ENDBRANCH   7   8
ENDBRANCH   1   7
TORSDOF 2
ENDMDL
