MODEL 1
REMARK minimizedAffinity 6.48290873
REMARK minimizedRMSD -1
REMARK  2 active torsions:
REMARK  status: ('A' for Active; 'I' for Inactive)
REMARK    1  A    between atoms: C2'_3  and  C1'_4 
REMARK    2  A    between atoms: C1'_4  and  C1_5 
ROOT
ATOM      1  C1  I4B d   1      -0.221   0.952  -0.983  0.00  0.00    -0.075 A 
ATOM      2  C2  I4B d   1       1.021   0.661  -1.488  0.00  0.00     0.003 A 
ATOM      3  C3  I4B d   1       1.345  -0.665  -1.867  0.00  0.00     0.002 A 
ATOM      4  C4  I4B d   1       0.420  -1.671  -1.677  0.00  0.00    -0.004 A 
ATOM      5  C5  I4B d   1      -0.848  -1.370  -1.186  0.00  0.00     0.002 A 
ATOM      6  C6  I4B d   1      -1.175  -0.049  -0.849  0.00  0.00     0.003 A 
ENDROOT
BRANCH   1   7
ATOM      7  C1' I4B d   1      -0.518   2.356  -0.563  0.00  0.00     0.060 C 
BRANCH   7   8
ATOM      8  C2' I4B d   1       0.709   2.903   0.137  0.00  0.00    -0.013 C 
ATOM      9  C4' I4B d   1       1.131   4.223  -0.453  0.00  0.00     0.013 C 
ATOM     10  C3' I4B d   1       0.387   3.041   1.596  0.00  0.00     0.013 C 
ENDBRANCH   7   8
ENDBRANCH   1   7
TORSDOF 2
ENDMDL
