MODEL 1
REMARK minimizedAffinity 11.2418203
REMARK minimizedRMSD -1
REMARK  2 active torsions:
REMARK  status: ('A' for Active; 'I' for Inactive)
REMARK    1  A    between atoms: C2'_3  and  C1'_4 
REMARK    2  A    between atoms: C1'_4  and  C1_5 
ROOT
ATOM      1  C1  I4B d   1      -0.656   0.706  -0.885  0.00  0.00    -0.075 A 
ATOM      2  C2  I4B d   1      -1.791  -0.009  -0.594  0.00  0.00     0.003 A 
ATOM      3  C3  I4B d   1      -1.771  -1.425  -0.629  0.00  0.00     0.002 A 
ATOM      4  C4  I4B d   1      -0.616  -2.079  -1.006  0.00  0.00    -0.004 A 
ATOM      5  C5  I4B d   1       0.541  -1.353  -1.277  0.00  0.00     0.002 A 
ATOM      6  C6  I4B d   1       0.524   0.047  -1.205  0.00  0.00     0.003 A 
ENDROOT
BRANCH   1   7
ATOM      7  C1' I4B d   1      -0.722   2.200  -0.871  0.00  0.00     0.060 C 
BRANCH   7   8
ATOM      8  C2' I4B d   1       0.277   2.702   0.152  0.00  0.00    -0.013 C 
ATOM      9  C4' I4B d   1       0.605   4.154  -0.073  0.00  0.00     0.013 C 
ATOM     10  C3' I4B d   1      -0.307   2.483   1.516  0.00  0.00     0.013 C 
ENDBRANCH   7   8
ENDBRANCH   1   7
TORSDOF 2
ENDMDL
