MODEL 1
REMARK minimizedAffinity 6.28485918
REMARK minimizedRMSD -1
REMARK  2 active torsions:
REMARK  status: ('A' for Active; 'I' for Inactive)
REMARK    1  A    between atoms: C2'_3  and  C1'_4 
REMARK    2  A    between atoms: C1'_4  and  C1_5 
ROOT
ATOM      1  C1  I4B d   1      -1.741   4.044  -1.510  0.00  0.00    -0.075 A 
ATOM      2  C2  I4B d   1      -0.866   5.082  -1.706  0.00  0.00     0.003 A 
ATOM      3  C3  I4B d   1       0.464   4.994  -1.229  0.00  0.00     0.002 A 
ATOM      4  C4  I4B d   1       0.859   3.877  -0.521  0.00  0.00    -0.004 A 
ATOM      5  C5  I4B d   1      -0.023   2.815  -0.342  0.00  0.00     0.002 A 
ATOM      6  C6  I4B d   1      -1.328   2.893  -0.850  0.00  0.00     0.003 A 
ENDROOT
BRANCH   1   7
ATOM      7  C1' I4B d   1      -3.148   4.185  -1.998  0.00  0.00     0.060 C 
BRANCH   7   8
ATOM      8  C2' I4B d   1      -3.611   2.827  -2.487  0.00  0.00    -0.013 C 
ATOM      9  C4' I4B d   1      -4.877   2.400  -1.793  0.00  0.00     0.013 C 
ATOM     10  C3' I4B d   1      -3.808   2.912  -3.971  0.00  0.00     0.013 C 
ENDBRANCH   7   8
ENDBRANCH   1   7
TORSDOF 2
ENDMDL
