MODEL 1
REMARK minimizedAffinity -4.16785622
REMARK minimizedRMSD -1
REMARK  0 active torsions:
REMARK  status: ('A' for Active; 'I' for Inactive)
ROOT
ATOM      1  C1  DEN d   1       1.547   0.435  -0.665  0.00  0.00     0.130 A 
ATOM      2  C2  DEN d   1       1.535  -0.967  -1.072  0.00  0.00    -0.031 A 
ATOM      3  C3  DEN d   1       0.348  -1.607  -0.472  0.00  0.00     0.027 A 
ATOM      4  C4  DEN d   1      -1.468  -0.567   1.037  0.00  0.00     0.027 A 
ATOM      5  C5  DEN d   1      -1.879   0.588   1.665  0.00  0.00    -0.003 A 
ATOM      6  C6  DEN d   1      -1.165   1.754   1.589  0.00  0.00     0.001 A 
ATOM      7  C7  DEN d   1      -0.025   1.804   0.832  0.00  0.00     0.017 A 
ATOM      8  C8  DEN d   1       0.400   0.642   0.201  0.00  0.00    -0.094 A 
ATOM      9  C9  DEN d   1      -0.342  -0.524   0.280  0.00  0.00    -0.072 A 
ENDROOT
TORSDOF 0
ENDMDL
