MODEL 1
REMARK minimizedAffinity -0.504571855
REMARK minimizedRMSD -1
REMARK  0 active torsions:
REMARK  status: ('A' for Active; 'I' for Inactive)
ROOT
ATOM      1  C1  DEN d   1       0.769   0.127  -0.855  0.00  0.00     0.130 A 
ATOM      2  C2  DEN d   1       1.322  -1.218  -0.724  0.00  0.00    -0.031 A 
ATOM      3  C3  DEN d   1       0.877  -1.770   0.572  0.00  0.00     0.027 A 
ATOM      4  C4  DEN d   1      -0.610  -0.679   2.375  0.00  0.00     0.027 A 
ATOM      5  C5  DEN d   1      -1.309   0.458   2.717  0.00  0.00    -0.003 A 
ATOM      6  C6  DEN d   1      -1.336   1.567   1.915  0.00  0.00     0.001 A 
ATOM      7  C7  DEN d   1      -0.688   1.548   0.708  0.00  0.00     0.017 A 
ATOM      8  C8  DEN d   1       0.025   0.408   0.359  0.00  0.00    -0.094 A 
ATOM      9  C9  DEN d   1       0.030  -0.708   1.179  0.00  0.00    -0.072 A 
ENDROOT
TORSDOF 0
ENDMDL
