MODEL 1
REMARK minimizedAffinity -0.157001391
REMARK minimizedRMSD -1
REMARK  0 active torsions:
REMARK  status: ('A' for Active; 'I' for Inactive)
ROOT
ATOM      1  C1  DEN d   1      -0.733   2.400   0.708  0.00  0.00     0.130 A 
ATOM      2  C2  DEN d   1      -1.240   2.319   2.075  0.00  0.00    -0.031 A 
ATOM      3  C3  DEN d   1      -0.955   0.964   2.588  0.00  0.00     0.027 A 
ATOM      4  C4  DEN d   1       0.221  -1.004   1.406  0.00  0.00     0.027 A 
ATOM      5  C5  DEN d   1       0.816  -1.416   0.234  0.00  0.00    -0.003 A 
ATOM      6  C6  DEN d   1       0.906  -0.603  -0.864  0.00  0.00     0.001 A 
ATOM      7  C7  DEN d   1       0.432   0.680  -0.799  0.00  0.00     0.017 A 
ATOM      8  C8  DEN d   1      -0.176   1.101   0.377  0.00  0.00    -0.094 A 
ATOM      9  C9  DEN d   1      -0.246   0.268   1.480  0.00  0.00    -0.072 A 
ENDROOT
TORSDOF 0
ENDMDL
