MODEL 1
REMARK minimizedAffinity -4.08147621
REMARK minimizedRMSD -1
REMARK  0 active torsions:
REMARK  status: ('A' for Active; 'I' for Inactive)
ROOT
ATOM      1  C1  DEN d   1      -0.722  -0.404  -0.144  0.00  0.00     0.130 A 
ATOM      2  C2  DEN d   1       0.075  -0.159   1.055  0.00  0.00    -0.031 A 
ATOM      3  C3  DEN d   1       1.282  -1.007   0.982  0.00  0.00     0.027 A 
ATOM      4  C4  DEN d   1       1.994  -2.662  -0.863  0.00  0.00     0.027 A 
ATOM      5  C5  DEN d   1       1.635  -3.218  -2.071  0.00  0.00    -0.003 A 
ATOM      6  C6  DEN d   1       0.460  -2.903  -2.700  0.00  0.00     0.001 A 
ATOM      7  C7  DEN d   1      -0.379  -1.973  -2.145  0.00  0.00     0.017 A 
ATOM      8  C8  DEN d   1      -0.028  -1.414  -0.923  0.00  0.00    -0.094 A 
ATOM      9  C9  DEN d   1       1.170  -1.736  -0.310  0.00  0.00    -0.072 A 
ENDROOT
TORSDOF 0
ENDMDL
