MODEL 1
REMARK minimizedAffinity -0.250617862
REMARK minimizedRMSD -1
REMARK  0 active torsions:
REMARK  status: ('A' for Active; 'I' for Inactive)
ROOT
ATOM      1  C1  DEN d   1      -0.716  -3.548  -1.119  0.00  0.00     0.130 A 
ATOM      2  C2  DEN d   1       0.117  -3.747  -2.301  0.00  0.00    -0.031 A 
ATOM      3  C3  DEN d   1       0.902  -2.515  -2.518  0.00  0.00     0.027 A 
ATOM      4  C4  DEN d   1       0.911  -0.333  -1.144  0.00  0.00     0.027 A 
ATOM      5  C5  DEN d   1       0.361   0.312  -0.058  0.00  0.00    -0.003 A 
ATOM      6  C6  DEN d   1      -0.604  -0.266   0.723  0.00  0.00     0.001 A 
ATOM      7  C7  DEN d   1      -1.015  -1.546   0.457  0.00  0.00     0.017 A 
ATOM      8  C8  DEN d   1      -0.471  -2.200  -0.640  0.00  0.00    -0.094 A 
ATOM      9  C9  DEN d   1       0.512  -1.602  -1.410  0.00  0.00    -0.072 A 
ENDROOT
TORSDOF 0
ENDMDL
