MODEL 1
REMARK minimizedAffinity -2.29556727
REMARK minimizedRMSD -1
REMARK  0 active torsions:
REMARK  status: ('A' for Active; 'I' for Inactive)
ROOT
ATOM      1  C1  DEN d   1       1.151  -0.212  -1.116  0.00  0.00     0.130 A 
ATOM      2  C2  DEN d   1       0.790  -1.590  -1.438  0.00  0.00    -0.031 A 
ATOM      3  C3  DEN d   1      -0.431  -1.931  -0.681  0.00  0.00     0.027 A 
ATOM      4  C4  DEN d   1      -1.794  -0.465   0.946  0.00  0.00     0.027 A 
ATOM      5  C5  DEN d   1      -1.871   0.772   1.546  0.00  0.00    -0.003 A 
ATOM      6  C6  DEN d   1      -0.935   1.749   1.328  0.00  0.00     0.001 A 
ATOM      7  C7  DEN d   1       0.094   1.520   0.455  0.00  0.00     0.017 A 
ATOM      8  C8  DEN d   1       0.183   0.272  -0.148  0.00  0.00    -0.094 A 
ATOM      9  C9  DEN d   1      -0.779  -0.698   0.075  0.00  0.00    -0.072 A 
ENDROOT
TORSDOF 0
ENDMDL
