MODEL 1
REMARK minimizedAffinity -4.17127848
REMARK minimizedRMSD -1
REMARK  0 active torsions:
REMARK  status: ('A' for Active; 'I' for Inactive)
ROOT
ATOM      1  C1  DEN d   1      -0.912  -0.501   1.705  0.00  0.00     0.130 A 
ATOM      2  C2  DEN d   1      -1.533   0.729   2.188  0.00  0.00    -0.031 A 
ATOM      3  C3  DEN d   1      -0.969   1.858   1.421  0.00  0.00     0.027 A 
ATOM      4  C4  DEN d   1       0.792   1.820  -0.463  0.00  0.00     0.027 A 
ATOM      5  C5  DEN d   1       1.619   1.011  -1.211  0.00  0.00    -0.003 A 
ATOM      6  C6  DEN d   1       1.684  -0.344  -1.018  0.00  0.00     0.001 A 
ATOM      7  C7  DEN d   1       0.875  -0.936  -0.084  0.00  0.00     0.017 A 
ATOM      8  C8  DEN d   1       0.045  -0.126   0.679  0.00  0.00    -0.094 A 
ATOM      9  C9  DEN d   1      -0.016   1.240   0.460  0.00  0.00    -0.072 A 
ENDROOT
TORSDOF 0
ENDMDL
