MODEL 1
REMARK minimizedAffinity -3.16935349
REMARK minimizedRMSD -1
REMARK  0 active torsions:
REMARK  status: ('A' for Active; 'I' for Inactive)
ROOT
ATOM      1  C1  DEN d   1       0.811  -1.768  -2.297  0.00  0.00     0.130 A 
ATOM      2  C2  DEN d   1       0.013  -2.925  -2.694  0.00  0.00    -0.031 A 
ATOM      3  C3  DEN d   1      -1.143  -3.019  -1.780  0.00  0.00     0.027 A 
ATOM      4  C4  DEN d   1      -1.773  -1.491   0.200  0.00  0.00     0.027 A 
ATOM      5  C5  DEN d   1      -1.395  -0.386   0.930  0.00  0.00    -0.003 A 
ATOM      6  C6  DEN d   1      -0.246   0.310   0.660  0.00  0.00     0.001 A 
ATOM      7  C7  DEN d   1       0.542  -0.066  -0.396  0.00  0.00     0.017 A 
ATOM      8  C8  DEN d   1       0.171  -1.183  -1.133  0.00  0.00    -0.094 A 
ATOM      9  C9  DEN d   1      -1.001  -1.865  -0.851  0.00  0.00    -0.072 A 
ENDROOT
TORSDOF 0
ENDMDL
