MODEL 1
REMARK minimizedAffinity 1.91440535
REMARK minimizedRMSD -1
REMARK  0 active torsions:
REMARK  status: ('A' for Active; 'I' for Inactive)
ROOT
ATOM      1  C1  DEN d   1       0.339  -0.730  -2.530  0.00  0.00     0.130 A 
ATOM      2  C2  DEN d   1       0.903   0.001  -1.398  0.00  0.00    -0.031 A 
ATOM      3  C3  DEN d   1       1.480  -0.983  -0.460  0.00  0.00     0.027 A 
ATOM      4  C4  DEN d   1       1.559  -3.553  -0.651  0.00  0.00     0.027 A 
ATOM      5  C5  DEN d   1       1.201  -4.633  -1.428  0.00  0.00    -0.003 A 
ATOM      6  C6  DEN d   1       0.505  -4.491  -2.600  0.00  0.00     0.001 A 
ATOM      7  C7  DEN d   1       0.186  -3.237  -3.052  0.00  0.00     0.017 A 
ATOM      8  C8  DEN d   1       0.538  -2.145  -2.270  0.00  0.00    -0.094 A 
ATOM      9  C9  DEN d   1       1.252  -2.308  -1.095  0.00  0.00    -0.072 A 
ENDROOT
TORSDOF 0
ENDMDL
