MODEL 1
REMARK minimizedAffinity -2.83390737
REMARK minimizedRMSD -1
REMARK  0 active torsions:
REMARK  status: ('A' for Active; 'I' for Inactive)
ROOT
ATOM      1  C1  DEN d   1       0.999   0.155  -1.445  0.00  0.00     0.130 A 
ATOM      2  C2  DEN d   1       0.925  -1.291  -1.641  0.00  0.00    -0.031 A 
ATOM      3  C3  DEN d   1       0.058  -1.850  -0.584  0.00  0.00     0.027 A 
ATOM      4  C4  DEN d   1      -1.173  -0.625   1.323  0.00  0.00     0.027 A 
ATOM      5  C5  DEN d   1      -1.403   0.602   1.904  0.00  0.00    -0.003 A 
ATOM      6  C6  DEN d   1      -0.827   1.752   1.434  0.00  0.00     0.001 A 
ATOM      7  C7  DEN d   1      -0.026   1.705   0.323  0.00  0.00     0.017 A 
ATOM      8  C8  DEN d   1       0.217   0.471  -0.264  0.00  0.00    -0.094 A 
ATOM      9  C9  DEN d   1      -0.386  -0.679   0.219  0.00  0.00    -0.072 A 
ENDROOT
TORSDOF 0
ENDMDL
