MODEL 1
REMARK minimizedAffinity -4.73568964
REMARK minimizedRMSD -1
REMARK  0 active torsions:
REMARK  status: ('A' for Active; 'I' for Inactive)
ROOT
ATOM      1  C1  DEN d   1      -0.526  -2.461  -0.949  0.00  0.00     0.130 A 
ATOM      2  C2  DEN d   1       0.820  -2.309  -1.494  0.00  0.00    -0.031 A 
ATOM      3  C3  DEN d   1       1.429  -1.112  -0.879  0.00  0.00     0.027 A 
ATOM      4  C4  DEN d   1       0.426   0.508   0.858  0.00  0.00     0.027 A 
ATOM      5  C5  DEN d   1      -0.691   0.795   1.611  0.00  0.00    -0.003 A 
ATOM      6  C6  DEN d   1      -1.834   0.043   1.540  0.00  0.00     0.001 A 
ATOM      7  C7  DEN d   1      -1.870  -1.061   0.729  0.00  0.00     0.017 A 
ATOM      8  C8  DEN d   1      -0.750  -1.352  -0.039  0.00  0.00    -0.094 A 
ATOM      9  C9  DEN d   1       0.400  -0.587   0.057  0.00  0.00    -0.072 A 
ENDROOT
TORSDOF 0
ENDMDL
