MODEL 1
REMARK minimizedAffinity -3.61025882
REMARK minimizedRMSD -1
REMARK  0 active torsions:
REMARK  status: ('A' for Active; 'I' for Inactive)
ROOT
ATOM      1  C1  DEN d   1      -0.983  -0.166  -0.864  0.00  0.00     0.130 A 
ATOM      2  C2  DEN d   1       0.100   0.453  -0.104  0.00  0.00    -0.031 A 
ATOM      3  C3  DEN d   1       1.277  -0.434  -0.182  0.00  0.00     0.027 A 
ATOM      4  C4  DEN d   1       1.531  -2.692  -1.404  0.00  0.00     0.027 A 
ATOM      5  C5  DEN d   1       0.881  -3.629  -2.175  0.00  0.00    -0.003 A 
ATOM      6  C6  DEN d   1      -0.435  -3.496  -2.533  0.00  0.00     0.001 A 
ATOM      7  C7  DEN d   1      -1.131  -2.378  -2.156  0.00  0.00     0.017 A 
ATOM      8  C8  DEN d   1      -0.484  -1.432  -1.371  0.00  0.00    -0.094 A 
ATOM      9  C9  DEN d   1       0.849  -1.579  -1.031  0.00  0.00    -0.072 A 
ENDROOT
TORSDOF 0
ENDMDL
