MODEL 1
REMARK minimizedAffinity -3.61615133
REMARK minimizedRMSD -1
REMARK  0 active torsions:
REMARK  status: ('A' for Active; 'I' for Inactive)
ROOT
ATOM      1  C1  DEN d   1      -0.535  -2.395  -1.505  0.00  0.00     0.130 A 
ATOM      2  C2  DEN d   1       0.783  -2.580  -2.107  0.00  0.00    -0.031 A 
ATOM      3  C3  DEN d   1       1.762  -1.822  -1.304  0.00  0.00     0.027 A 
ATOM      4  C4  DEN d   1       1.370  -0.390   0.805  0.00  0.00     0.027 A 
ATOM      5  C5  DEN d   1       0.418   0.076   1.684  0.00  0.00    -0.003 A 
ATOM      6  C6  DEN d   1      -0.912  -0.218   1.544  0.00  0.00     0.001 A 
ATOM      7  C7  DEN d   1      -1.322  -1.039   0.526  0.00  0.00     0.017 A 
ATOM      8  C8  DEN d   1      -0.368  -1.506  -0.369  0.00  0.00    -0.094 A 
ATOM      9  C9  DEN d   1       0.973  -1.207  -0.203  0.00  0.00    -0.072 A 
ENDROOT
TORSDOF 0
ENDMDL
