MODEL 1
REMARK minimizedAffinity -4.92357302
REMARK minimizedRMSD -1
REMARK  0 active torsions:
REMARK  status: ('A' for Active; 'I' for Inactive)
ROOT
ATOM      1  C1  DEN d   1      -0.419   2.420   0.298  0.00  0.00     0.130 A 
ATOM      2  C2  DEN d   1      -1.146   2.621   1.548  0.00  0.00    -0.031 A 
ATOM      3  C3  DEN d   1      -1.319   1.304   2.194  0.00  0.00     0.027 A 
ATOM      4  C4  DEN d   1      -0.529  -1.014   1.386  0.00  0.00     0.027 A 
ATOM      5  C5  DEN d   1       0.120  -1.690   0.376  0.00  0.00    -0.003 A 
ATOM      6  C6  DEN d   1       0.601  -1.053  -0.738  0.00  0.00     0.001 A 
ATOM      7  C7  DEN d   1       0.480   0.307  -0.847  0.00  0.00     0.017 A 
ATOM      8  C8  DEN d   1      -0.180   0.994   0.164  0.00  0.00    -0.094 A 
ATOM      9  C9  DEN d   1      -0.648   0.334   1.287  0.00  0.00    -0.072 A 
ENDROOT
TORSDOF 0
ENDMDL
