MODEL 1
REMARK minimizedAffinity -4.19962025
REMARK minimizedRMSD -1
REMARK  0 active torsions:
REMARK  status: ('A' for Active; 'I' for Inactive)
ROOT
ATOM      1  C1  DEN d   1       1.376  -3.327  -1.884  0.00  0.00     0.130 A 
ATOM      2  C2  DEN d   1       0.427  -3.430  -2.989  0.00  0.00    -0.031 A 
ATOM      3  C3  DEN d   1      -0.571  -2.352  -2.835  0.00  0.00     0.027 A 
ATOM      4  C4  DEN d   1      -0.735  -0.540  -1.007  0.00  0.00     0.027 A 
ATOM      5  C5  DEN d   1      -0.161  -0.056   0.148  0.00  0.00    -0.003 A 
ATOM      6  C6  DEN d   1       0.935  -0.644   0.721  0.00  0.00     0.001 A 
ATOM      7  C7  DEN d   1       1.521  -1.724   0.115  0.00  0.00     0.017 A 
ATOM      8  C8  DEN d   1       0.944  -2.222  -1.046  0.00  0.00    -0.094 A 
ATOM      9  C9  DEN d   1      -0.157  -1.606  -1.616  0.00  0.00    -0.072 A 
ENDROOT
TORSDOF 0
ENDMDL
