MODEL 1
REMARK minimizedAffinity -2.81017876
REMARK minimizedRMSD -1
REMARK  0 active torsions:
REMARK  status: ('A' for Active; 'I' for Inactive)
ROOT
ATOM      1  C1  DEN d   1      -0.363  -0.077   1.754  0.00  0.00     0.130 A 
ATOM      2  C2  DEN d   1      -0.979   1.108   2.344  0.00  0.00    -0.031 A 
ATOM      3  C3  DEN d   1      -0.731   2.249   1.441  0.00  0.00     0.027 A 
ATOM      4  C4  DEN d   1       0.539   2.296  -0.803  0.00  0.00     0.027 A 
ATOM      5  C5  DEN d   1       1.248   1.537  -1.708  0.00  0.00    -0.003 A 
ATOM      6  C6  DEN d   1       1.498   0.206  -1.507  0.00  0.00     0.001 A 
ATOM      7  C7  DEN d   1       0.995  -0.419  -0.396  0.00  0.00     0.017 A 
ATOM      8  C8  DEN d   1       0.285   0.341   0.524  0.00  0.00    -0.094 A 
ATOM      9  C9  DEN d   1       0.033   1.683   0.297  0.00  0.00    -0.072 A 
ENDROOT
TORSDOF 0
ENDMDL
