MODEL 1
REMARK minimizedAffinity 17.66366
REMARK minimizedRMSD -1
REMARK  0 active torsions:
REMARK  status: ('A' for Active; 'I' for Inactive)
ROOT
ATOM      1  C   UNL d   1      -0.939   2.846  -3.893  0.00  0.00     0.124 A 
ATOM      2  C1  UNL d   1      -2.285   2.603  -3.659  0.00  0.00     0.062 A 
ATOM      3  C2  UNL d   1      -3.040   3.501  -2.911  0.00  0.00     0.162 A 
ATOM      4  C3  UNL d   1      -2.449   4.653  -2.390  0.00  0.00    -0.034 A 
ATOM      5  C4  UNL d   1      -1.094   4.890  -2.628  0.00  0.00     0.162 A 
ATOM      6  C5  UNL d   1      -0.345   3.989  -3.377  0.00  0.00     0.062 A 
ATOM      7  F   UNL d   1       0.956   4.226  -3.602  0.00  0.00    -0.097 F 
ATOM      8  F1  UNL d   1      -0.495   5.988  -2.143  0.00  0.00    -0.096 F 
ATOM      9  I   UNL d   1      -3.574   5.999  -1.270  0.00  0.00    -0.060 I 
ATOM     10  F2  UNL d   1      -4.339   3.241  -2.701  0.00  0.00    -0.096 F 
ATOM     11  F3  UNL d   1      -2.862   1.498  -4.156  0.00  0.00    -0.097 F 
ATOM     12  F4  UNL d   1      -0.216   1.979  -4.613  0.00  0.00    -0.092 F 
ENDROOT
TORSDOF 0
ENDMDL
