MODEL 1
REMARK minimizedAffinity 16.4054241
REMARK minimizedRMSD -1
REMARK  0 active torsions:
REMARK  status: ('A' for Active; 'I' for Inactive)
ROOT
ATOM      1  C   UNL d   1       3.569  -2.043  -1.691  0.00  0.00     0.124 A 
ATOM      2  C1  UNL d   1       2.937  -1.384  -0.645  0.00  0.00     0.062 A 
ATOM      3  C2  UNL d   1       3.116  -0.014  -0.471  0.00  0.00     0.162 A 
ATOM      4  C3  UNL d   1       3.931   0.706  -1.345  0.00  0.00    -0.034 A 
ATOM      5  C4  UNL d   1       4.564   0.035  -2.394  0.00  0.00     0.162 A 
ATOM      6  C5  UNL d   1       4.381  -1.333  -2.564  0.00  0.00     0.062 A 
ATOM      7  F   UNL d   1       4.992  -1.968  -3.574  0.00  0.00    -0.097 F 
ATOM      8  F1  UNL d   1       5.353   0.697  -3.252  0.00  0.00    -0.096 F 
ATOM      9  I   UNL d   1       4.202   2.753  -1.088  0.00  0.00    -0.060 I 
ATOM     10  F2  UNL d   1       2.494   0.597   0.548  0.00  0.00    -0.096 F 
ATOM     11  F3  UNL d   1       2.152  -2.067   0.200  0.00  0.00    -0.097 F 
ATOM     12  F4  UNL d   1       3.395  -3.360  -1.856  0.00  0.00    -0.092 F 
ENDROOT
TORSDOF 0
ENDMDL
