MODEL 1
REMARK minimizedAffinity 21.1792679
REMARK minimizedRMSD -1
REMARK  0 active torsions:
REMARK  status: ('A' for Active; 'I' for Inactive)
ROOT
ATOM      1  C   UNL d   1      -1.923  -1.156   1.919  0.00  0.00     0.124 A 
ATOM      2  C1  UNL d   1      -1.597   0.177   2.128  0.00  0.00     0.062 A 
ATOM      3  C2  UNL d   1      -2.576   1.161   2.029  0.00  0.00     0.162 A 
ATOM      4  C3  UNL d   1      -3.892   0.816   1.720  0.00  0.00    -0.034 A 
ATOM      5  C4  UNL d   1      -4.212  -0.527   1.511  0.00  0.00     0.162 A 
ATOM      6  C5  UNL d   1      -3.230  -1.507   1.611  0.00  0.00     0.062 A 
ATOM      7  F   UNL d   1      -3.547  -2.794   1.409  0.00  0.00    -0.097 F 
ATOM      8  F1  UNL d   1      -5.467  -0.894   1.213  0.00  0.00    -0.096 F 
ATOM      9  I   UNL d   1      -5.360   2.284   1.571  0.00  0.00    -0.060 I 
ATOM     10  F2  UNL d   1      -2.233   2.441   2.235  0.00  0.00    -0.096 F 
ATOM     11  F3  UNL d   1      -0.335   0.519   2.424  0.00  0.00    -0.097 F 
ATOM     12  F4  UNL d   1      -0.978  -2.100   2.014  0.00  0.00    -0.092 F 
ENDROOT
TORSDOF 0
ENDMDL
