MODEL 1
REMARK minimizedAffinity 18.5258255
REMARK minimizedRMSD -1
REMARK  0 active torsions:
REMARK  status: ('A' for Active; 'I' for Inactive)
ROOT
ATOM      1  C   UNL d   1      -1.915   2.808  -3.549  0.00  0.00     0.124 A 
ATOM      2  C1  UNL d   1      -1.323   3.976  -3.089  0.00  0.00     0.062 A 
ATOM      3  C2  UNL d   1      -0.029   4.305  -3.479  0.00  0.00     0.162 A 
ATOM      4  C3  UNL d   1       0.684   3.466  -4.335  0.00  0.00    -0.034 A 
ATOM      5  C4  UNL d   1       0.082   2.292  -4.794  0.00  0.00     0.162 A 
ATOM      6  C5  UNL d   1      -1.213   1.968  -4.401  0.00  0.00     0.062 A 
ATOM      7  F   UNL d   1      -1.783   0.839  -4.847  0.00  0.00    -0.097 F 
ATOM      8  F1  UNL d   1       0.738   1.463  -5.618  0.00  0.00    -0.096 F 
ATOM      9  I   UNL d   1       2.620   3.955  -4.921  0.00  0.00    -0.060 I 
ATOM     10  F2  UNL d   1       0.519   5.440  -3.018  0.00  0.00    -0.096 F 
ATOM     11  F3  UNL d   1      -2.000   4.789  -2.265  0.00  0.00    -0.097 F 
ATOM     12  F4  UNL d   1      -3.161   2.493  -3.172  0.00  0.00    -0.092 F 
ENDROOT
TORSDOF 0
ENDMDL
