MODEL 1
REMARK minimizedAffinity 3.80727482
REMARK minimizedRMSD -1
REMARK  0 active torsions:
REMARK  status: ('A' for Active; 'I' for Inactive)
ROOT
ATOM      1  C   UNL d   1      -2.951   4.136   1.121  0.00  0.00     0.124 A 
ATOM      2  C1  UNL d   1      -3.110   3.273   0.046  0.00  0.00     0.062 A 
ATOM      3  C2  UNL d   1      -2.226   3.324  -1.028  0.00  0.00     0.162 A 
ATOM      4  C3  UNL d   1      -1.175   4.240  -1.032  0.00  0.00    -0.034 A 
ATOM      5  C4  UNL d   1      -1.022   5.106   0.053  0.00  0.00     0.162 A 
ATOM      6  C5  UNL d   1      -1.908   5.051   1.124  0.00  0.00     0.062 A 
ATOM      7  F   UNL d   1      -1.754   5.886   2.162  0.00  0.00    -0.097 F 
ATOM      8  F1  UNL d   1      -0.022   5.999   0.081  0.00  0.00    -0.096 F 
ATOM      9  I   UNL d   1       0.149   4.319  -2.636  0.00  0.00    -0.060 I 
ATOM     10  F2  UNL d   1      -2.403   2.478  -2.054  0.00  0.00    -0.096 F 
ATOM     11  F3  UNL d   1      -4.118   2.389   0.040  0.00  0.00    -0.097 F 
ATOM     12  F4  UNL d   1      -3.804   4.086   2.153  0.00  0.00    -0.092 F 
ENDROOT
TORSDOF 0
ENDMDL
