MODEL 1
REMARK minimizedAffinity 17.239315
REMARK minimizedRMSD -1
REMARK  0 active torsions:
REMARK  status: ('A' for Active; 'I' for Inactive)
ROOT
ATOM      1  C   UNL d   1      -0.839   3.145  -3.722  0.00  0.00     0.124 A 
ATOM      2  C1  UNL d   1      -2.130   3.016  -3.229  0.00  0.00     0.062 A 
ATOM      3  C2  UNL d   1      -2.566   3.830  -2.188  0.00  0.00     0.162 A 
ATOM      4  C3  UNL d   1      -1.710   4.781  -1.632  0.00  0.00    -0.034 A 
ATOM      5  C4  UNL d   1      -0.412   4.904  -2.132  0.00  0.00     0.162 A 
ATOM      6  C5  UNL d   1       0.019   4.088  -3.174  0.00  0.00     0.062 A 
ATOM      7  F   UNL d   1       1.266   4.214  -3.649  0.00  0.00    -0.097 F 
ATOM      8  F1  UNL d   1       0.437   5.808  -1.621  0.00  0.00    -0.096 F 
ATOM      9  I   UNL d   1      -2.358   6.000  -0.074  0.00  0.00    -0.060 I 
ATOM     10  F2  UNL d   1      -3.819   3.684  -1.731  0.00  0.00    -0.096 F 
ATOM     11  F3  UNL d   1      -2.960   2.105  -3.757  0.00  0.00    -0.097 F 
ATOM     12  F4  UNL d   1      -0.422   2.360  -4.724  0.00  0.00    -0.092 F 
ENDROOT
TORSDOF 0
ENDMDL
