MODEL 1
REMARK minimizedAffinity 20.8079987
REMARK minimizedRMSD -1
REMARK  0 active torsions:
REMARK  status: ('A' for Active; 'I' for Inactive)
ROOT
ATOM      1  C   UNL d   1      -2.451   0.287   1.836  0.00  0.00     0.124 A 
ATOM      2  C1  UNL d   1      -3.761  -0.077   1.555  0.00  0.00     0.062 A 
ATOM      3  C2  UNL d   1      -4.076  -1.406   1.288  0.00  0.00     0.162 A 
ATOM      4  C3  UNL d   1      -3.079  -2.382   1.301  0.00  0.00    -0.034 A 
ATOM      5  C4  UNL d   1      -1.764  -2.008   1.584  0.00  0.00     0.162 A 
ATOM      6  C5  UNL d   1      -1.454  -0.678   1.850  0.00  0.00     0.062 A 
ATOM      7  F   UNL d   1      -0.189  -0.328   2.120  0.00  0.00    -0.097 F 
ATOM      8  F1  UNL d   1      -0.781  -2.920   1.605  0.00  0.00    -0.096 F 
ATOM      9  I   UNL d   1      -3.545  -4.371   0.903  0.00  0.00    -0.060 I 
ATOM     10  F2  UNL d   1      -5.350  -1.730   1.020  0.00  0.00    -0.096 F 
ATOM     11  F3  UNL d   1      -4.726   0.854   1.540  0.00  0.00    -0.097 F 
ATOM     12  F4  UNL d   1      -2.151   1.567   2.091  0.00  0.00    -0.092 F 
ENDROOT
TORSDOF 0
ENDMDL
