MODEL 1
REMARK minimizedAffinity 20.6457138
REMARK minimizedRMSD -1
REMARK  0 active torsions:
REMARK  status: ('A' for Active; 'I' for Inactive)
ROOT
ATOM      1  C   UNL d   1      -2.214   4.496   0.977  0.00  0.00     0.124 A 
ATOM      2  C1  UNL d   1      -2.927   3.834  -0.012  0.00  0.00     0.062 A 
ATOM      3  C2  UNL d   1      -2.508   3.898  -1.338  0.00  0.00     0.162 A 
ATOM      4  C3  UNL d   1      -1.370   4.626  -1.683  0.00  0.00    -0.034 A 
ATOM      5  C4  UNL d   1      -0.658   5.290  -0.682  0.00  0.00     0.162 A 
ATOM      6  C5  UNL d   1      -1.081   5.224   0.642  0.00  0.00     0.062 A 
ATOM      7  F   UNL d   1      -0.391   5.865   1.596  0.00  0.00    -0.097 F 
ATOM      8  F1  UNL d   1       0.441   6.000  -0.978  0.00  0.00    -0.096 F 
ATOM      9  I   UNL d   1      -0.741   4.724  -3.664  0.00  0.00    -0.060 I 
ATOM     10  F2  UNL d   1      -3.216   3.248  -2.274  0.00  0.00    -0.096 F 
ATOM     11  F3  UNL d   1      -4.022   3.131   0.309  0.00  0.00    -0.097 F 
ATOM     12  F4  UNL d   1      -2.619   4.434   2.252  0.00  0.00    -0.092 F 
ENDROOT
TORSDOF 0
ENDMDL
