MODEL 1
REMARK minimizedAffinity 18.1974506
REMARK minimizedRMSD -1
REMARK  0 active torsions:
REMARK  status: ('A' for Active; 'I' for Inactive)
ROOT
ATOM      1  C   UNL d   1       3.259  -0.668  -1.441  0.00  0.00     0.124 A 
ATOM      2  C1  UNL d   1       2.892  -1.750  -0.653  0.00  0.00     0.062 A 
ATOM      3  C2  UNL d   1       2.432  -1.548   0.645  0.00  0.00     0.162 A 
ATOM      4  C3  UNL d   1       2.334  -0.256   1.163  0.00  0.00    -0.034 A 
ATOM      5  C4  UNL d   1       2.706   0.827   0.365  0.00  0.00     0.162 A 
ATOM      6  C5  UNL d   1       3.165   0.619  -0.931  0.00  0.00     0.062 A 
ATOM      7  F   UNL d   1       3.519   1.666  -1.691  0.00  0.00    -0.097 F 
ATOM      8  F1  UNL d   1       2.624   2.082   0.832  0.00  0.00    -0.096 F 
ATOM      9  I   UNL d   1       1.647   0.051   3.103  0.00  0.00    -0.060 I 
ATOM     10  F2  UNL d   1       2.085  -2.612   1.383  0.00  0.00    -0.096 F 
ATOM     11  F3  UNL d   1       2.983  -2.995  -1.143  0.00  0.00    -0.097 F 
ATOM     12  F4  UNL d   1       3.702  -0.866  -2.689  0.00  0.00    -0.092 F 
ENDROOT
TORSDOF 0
ENDMDL
