MODEL 1
REMARK minimizedAffinity 22.9002361
REMARK minimizedRMSD -1
REMARK  0 active torsions:
REMARK  status: ('A' for Active; 'I' for Inactive)
ROOT
ATOM      1  C   UNL d   1      -1.378   2.419  -3.209  0.00  0.00     0.124 A 
ATOM      2  C1  UNL d   1      -0.722   1.589  -4.107  0.00  0.00     0.062 A 
ATOM      3  C2  UNL d   1       0.504   1.969  -4.645  0.00  0.00     0.162 A 
ATOM      4  C3  UNL d   1       1.083   3.186  -4.286  0.00  0.00    -0.034 A 
ATOM      5  C4  UNL d   1       0.417   4.016  -3.383  0.00  0.00     0.162 A 
ATOM      6  C5  UNL d   1      -0.808   3.632  -2.847  0.00  0.00     0.062 A 
ATOM      7  F   UNL d   1      -1.440   4.435  -1.980  0.00  0.00    -0.097 F 
ATOM      8  F1  UNL d   1       0.945   5.193  -3.016  0.00  0.00    -0.096 F 
ATOM      9  I   UNL d   1       2.915   3.759  -5.089  0.00  0.00    -0.060 I 
ATOM     10  F2  UNL d   1       1.115   1.147  -5.511  0.00  0.00    -0.096 F 
ATOM     11  F3  UNL d   1      -1.271   0.417  -4.458  0.00  0.00    -0.097 F 
ATOM     12  F4  UNL d   1      -2.558   2.051  -2.693  0.00  0.00    -0.092 F 
ENDROOT
TORSDOF 0
ENDMDL
