MODEL 1
REMARK minimizedAffinity 15.0916204
REMARK minimizedRMSD -1
REMARK  0 active torsions:
REMARK  status: ('A' for Active; 'I' for Inactive)
ROOT
ATOM      1  C   UNL d   1       3.865  -1.095  -1.156  0.00  0.00     0.124 A 
ATOM      2  C1  UNL d   1       4.823  -0.724  -2.090  0.00  0.00     0.062 A 
ATOM      3  C2  UNL d   1       4.842  -1.320  -3.347  0.00  0.00     0.162 A 
ATOM      4  C3  UNL d   1       3.901  -2.295  -3.678  0.00  0.00    -0.034 A 
ATOM      5  C4  UNL d   1       2.942  -2.664  -2.733  0.00  0.00     0.162 A 
ATOM      6  C5  UNL d   1       2.926  -2.064  -1.478  0.00  0.00     0.062 A 
ATOM      7  F   UNL d   1       2.001  -2.425  -0.577  0.00  0.00    -0.097 F 
ATOM      8  F1  UNL d   1       2.022  -3.597  -3.019  0.00  0.00    -0.096 F 
ATOM      9  I   UNL d   1       3.927  -3.189  -5.557  0.00  0.00    -0.060 I 
ATOM     10  F2  UNL d   1       5.779  -0.942  -4.230  0.00  0.00    -0.096 F 
ATOM     11  F3  UNL d   1       5.732   0.212  -1.780  0.00  0.00    -0.097 F 
ATOM     12  F4  UNL d   1       3.849  -0.520   0.054  0.00  0.00    -0.092 F 
ENDROOT
TORSDOF 0
ENDMDL
