MODEL 1
REMARK minimizedAffinity 22.1664543
REMARK minimizedRMSD -1
REMARK  0 active torsions:
REMARK  status: ('A' for Active; 'I' for Inactive)
ROOT
ATOM      1  C   UNL d   1      -1.325   2.572  -2.955  0.00  0.00     0.124 A 
ATOM      2  C1  UNL d   1      -0.817   3.858  -2.834  0.00  0.00     0.062 A 
ATOM      3  C2  UNL d   1       0.398   4.189  -3.426  0.00  0.00     0.162 A 
ATOM      4  C3  UNL d   1       1.114   3.232  -4.146  0.00  0.00    -0.034 A 
ATOM      5  C4  UNL d   1       0.597   1.941  -4.262  0.00  0.00     0.162 A 
ATOM      6  C5  UNL d   1      -0.619   1.615  -3.668  0.00  0.00     0.062 A 
ATOM      7  F   UNL d   1      -1.108   0.372  -3.786  0.00  0.00    -0.097 F 
ATOM      8  F1  UNL d   1       1.258   0.996  -4.947  0.00  0.00    -0.096 F 
ATOM      9  I   UNL d   1       2.931   3.722  -5.034  0.00  0.00    -0.060 I 
ATOM     10  F2  UNL d   1       0.865   5.439  -3.294  0.00  0.00    -0.096 F 
ATOM     11  F3  UNL d   1      -1.498   4.785  -2.144  0.00  0.00    -0.097 F 
ATOM     12  F4  UNL d   1      -2.495   2.257  -2.383  0.00  0.00    -0.092 F 
ENDROOT
TORSDOF 0
ENDMDL
