MODEL 1
REMARK minimizedAffinity 7.83493376
REMARK minimizedRMSD -1
REMARK  0 active torsions:
REMARK  status: ('A' for Active; 'I' for Inactive)
ROOT
ATOM      1  C   UNL d   1       2.456  -0.048   1.175  0.00  0.00     0.124 A 
ATOM      2  C1  UNL d   1       2.746  -1.302   0.656  0.00  0.00     0.062 A 
ATOM      3  C2  UNL d   1       3.478  -1.420  -0.523  0.00  0.00     0.162 A 
ATOM      4  C3  UNL d   1       3.926  -0.280  -1.190  0.00  0.00    -0.034 A 
ATOM      5  C4  UNL d   1       3.630   0.978  -0.662  0.00  0.00     0.162 A 
ATOM      6  C5  UNL d   1       2.898   1.091   0.515  0.00  0.00     0.062 A 
ATOM      7  F   UNL d   1       2.619   2.304   1.015  0.00  0.00    -0.097 F 
ATOM      8  F1  UNL d   1       4.045   2.095  -1.278  0.00  0.00    -0.096 F 
ATOM      9  I   UNL d   1       5.020  -0.452  -2.952  0.00  0.00    -0.060 I 
ATOM     10  F2  UNL d   1       3.743  -2.644  -1.001  0.00  0.00    -0.096 F 
ATOM     11  F3  UNL d   1       2.320  -2.403   1.290  0.00  0.00    -0.097 F 
ATOM     12  F4  UNL d   1       1.752   0.063   2.308  0.00  0.00    -0.092 F 
ENDROOT
TORSDOF 0
ENDMDL
