MODEL 1
REMARK minimizedAffinity 19.3374729
REMARK minimizedRMSD -1
REMARK  0 active torsions:
REMARK  status: ('A' for Active; 'I' for Inactive)
ROOT
ATOM      1  C   UNL d   1       2.720   0.578   0.479  0.00  0.00     0.124 A 
ATOM      2  C1  UNL d   1       3.198   1.751  -0.090  0.00  0.00     0.062 A 
ATOM      3  C2  UNL d   1       4.088   1.699  -1.159  0.00  0.00     0.162 A 
ATOM      4  C3  UNL d   1       4.506   0.469  -1.667  0.00  0.00    -0.034 A 
ATOM      5  C4  UNL d   1       4.023  -0.706  -1.089  0.00  0.00     0.162 A 
ATOM      6  C5  UNL d   1       3.133  -0.649  -0.021  0.00  0.00     0.062 A 
ATOM      7  F   UNL d   1       2.673  -1.783   0.527  0.00  0.00    -0.097 F 
ATOM      8  F1  UNL d   1       4.404  -1.905  -1.553  0.00  0.00    -0.096 F 
ATOM      9  I   UNL d   1       5.838   0.387  -3.264  0.00  0.00    -0.060 I 
ATOM     10  F2  UNL d   1       4.533   2.848  -1.688  0.00  0.00    -0.096 F 
ATOM     11  F3  UNL d   1       2.801   2.938   0.392  0.00  0.00    -0.097 F 
ATOM     12  F4  UNL d   1       1.865   0.631   1.508  0.00  0.00    -0.092 F 
ENDROOT
TORSDOF 0
ENDMDL
