MODEL 1
REMARK minimizedAffinity 20.1938019
REMARK minimizedRMSD -1
REMARK  0 active torsions:
REMARK  status: ('A' for Active; 'I' for Inactive)
ROOT
ATOM      1  C   UNL d   1       4.700  -1.441  -2.705  0.00  0.00     0.124 A 
ATOM      2  C1  UNL d   1       5.056  -0.101  -2.634  0.00  0.00     0.062 A 
ATOM      3  C2  UNL d   1       4.436   0.740  -1.715  0.00  0.00     0.162 A 
ATOM      4  C3  UNL d   1       3.454   0.244  -0.858  0.00  0.00    -0.034 A 
ATOM      5  C4  UNL d   1       3.100  -1.104  -0.936  0.00  0.00     0.162 A 
ATOM      6  C5  UNL d   1       3.723  -1.941  -1.857  0.00  0.00     0.062 A 
ATOM      7  F   UNL d   1       3.377  -3.235  -1.924  0.00  0.00    -0.097 F 
ATOM      8  F1  UNL d   1       2.159  -1.614  -0.127  0.00  0.00    -0.096 F 
ATOM      9  I   UNL d   1       2.524   1.499   0.517  0.00  0.00    -0.060 I 
ATOM     10  F2  UNL d   1       4.801   2.031  -1.668  0.00  0.00    -0.096 F 
ATOM     11  F3  UNL d   1       6.000   0.385  -3.454  0.00  0.00    -0.097 F 
ATOM     12  F4  UNL d   1       5.298  -2.248  -3.591  0.00  0.00    -0.092 F 
ENDROOT
TORSDOF 0
ENDMDL
