MODEL 1
REMARK minimizedAffinity 14.1810942
REMARK minimizedRMSD -1
REMARK  0 active torsions:
REMARK  status: ('A' for Active; 'I' for Inactive)
ROOT
ATOM      1  C   UNL d   1       2.619  -0.566  -0.162  0.00  0.00     0.124 A 
ATOM      2  C1  UNL d   1       2.897   0.729  -0.577  0.00  0.00     0.062 A 
ATOM      3  C2  UNL d   1       3.860   0.958  -1.556  0.00  0.00     0.162 A 
ATOM      4  C3  UNL d   1       4.552  -0.110  -2.127  0.00  0.00    -0.034 A 
ATOM      5  C4  UNL d   1       4.267  -1.409  -1.703  0.00  0.00     0.162 A 
ATOM      6  C5  UNL d   1       3.303  -1.633  -0.725  0.00  0.00     0.062 A 
ATOM      7  F   UNL d   1       3.036  -2.885  -0.326  0.00  0.00    -0.097 F 
ATOM      8  F1  UNL d   1       4.913  -2.459  -2.232  0.00  0.00    -0.096 F 
ATOM      9  I   UNL d   1       5.993   0.229  -3.590  0.00  0.00    -0.060 I 
ATOM     10  F2  UNL d   1       4.109   2.220  -1.938  0.00  0.00    -0.096 F 
ATOM     11  F3  UNL d   1       2.238   1.762  -0.034  0.00  0.00    -0.097 F 
ATOM     12  F4  UNL d   1       1.692  -0.784   0.780  0.00  0.00    -0.092 F 
ENDROOT
TORSDOF 0
ENDMDL
