MODEL 1
REMARK minimizedAffinity 17.536314
REMARK minimizedRMSD -1
REMARK  0 active torsions:
REMARK  status: ('A' for Active; 'I' for Inactive)
ROOT
ATOM      1  C   UNL d   1      -0.274   3.347  -2.637  0.00  0.00     0.124 A 
ATOM      2  C1  UNL d   1       0.730   2.390  -2.682  0.00  0.00     0.062 A 
ATOM      3  C2  UNL d   1       1.523   2.155  -1.563  0.00  0.00     0.162 A 
ATOM      4  C3  UNL d   1       1.315   2.878  -0.388  0.00  0.00    -0.034 A 
ATOM      5  C4  UNL d   1       0.304   3.840  -0.351  0.00  0.00     0.162 A 
ATOM      6  C5  UNL d   1      -0.486   4.071  -1.473  0.00  0.00     0.062 A 
ATOM      7  F   UNL d   1      -1.455   4.996  -1.427  0.00  0.00    -0.097 F 
ATOM      8  F1  UNL d   1       0.077   4.553   0.762  0.00  0.00    -0.096 F 
ATOM      9  I   UNL d   1       2.499   2.529   1.287  0.00  0.00    -0.060 I 
ATOM     10  F2  UNL d   1       2.486   1.223  -1.635  0.00  0.00    -0.096 F 
ATOM     11  F3  UNL d   1       0.938   1.690  -3.807  0.00  0.00    -0.097 F 
ATOM     12  F4  UNL d   1      -1.035   3.572  -3.716  0.00  0.00    -0.092 F 
ENDROOT
TORSDOF 0
ENDMDL
