MODEL 1
REMARK minimizedAffinity 22.2568645
REMARK minimizedRMSD -1
REMARK  0 active torsions:
REMARK  status: ('A' for Active; 'I' for Inactive)
ROOT
ATOM      1  C   UNL d   1       0.570   2.108  -2.974  0.00  0.00     0.124 A 
ATOM      2  C1  UNL d   1      -0.454   3.005  -3.247  0.00  0.00     0.062 A 
ATOM      3  C2  UNL d   1      -0.918   3.861  -2.252  0.00  0.00     0.162 A 
ATOM      4  C3  UNL d   1      -0.358   3.825  -0.975  0.00  0.00    -0.034 A 
ATOM      5  C4  UNL d   1       0.671   2.920  -0.708  0.00  0.00     0.162 A 
ATOM      6  C5  UNL d   1       1.131   2.066  -1.705  0.00  0.00     0.062 A 
ATOM      7  F   UNL d   1       2.120   1.200  -1.440  0.00  0.00    -0.097 F 
ATOM      8  F1  UNL d   1       1.232   2.859   0.509  0.00  0.00    -0.096 F 
ATOM      9  I   UNL d   1      -1.049   5.104   0.515  0.00  0.00    -0.060 I 
ATOM     10  F2  UNL d   1      -1.908   4.718  -2.544  0.00  0.00    -0.096 F 
ATOM     11  F3  UNL d   1      -0.998   3.047  -4.471  0.00  0.00    -0.097 F 
ATOM     12  F4  UNL d   1       1.014   1.285  -3.932  0.00  0.00    -0.092 F 
ENDROOT
TORSDOF 0
ENDMDL
