MODEL 1
REMARK minimizedAffinity 8.95306301
REMARK minimizedRMSD -1
REMARK  0 active torsions:
REMARK  status: ('A' for Active; 'I' for Inactive)
ROOT
ATOM      1  C   UNL d   1      -0.015   3.763  -1.979  0.00  0.00     0.023 A 
ATOM      2  C1  UNL d   1      -1.134   3.063  -1.529  0.00  0.00     0.003 A 
ATOM      3  C2  UNL d   1      -1.139   2.496  -0.253  0.00  0.00     0.048 A 
ATOM      4  C3  UNL d   1      -0.021   2.634   0.569  0.00  0.00     0.023 A 
ATOM      5  C4  UNL d   1       1.101   3.334   0.124  0.00  0.00     0.048 A 
ATOM      6  C5  UNL d   1       1.102   3.899  -1.153  0.00  0.00     0.003 A 
ATOM      7  I   UNL d   1      -0.026   1.792   2.469  0.00  0.00    -0.146 I 
ENDROOT
TORSDOF 0
ENDMDL
