MODEL 1
REMARK minimizedAffinity 11.9053679
REMARK minimizedRMSD -1
REMARK  0 active torsions:
REMARK  status: ('A' for Active; 'I' for Inactive)
ROOT
ATOM      1  C   UNL d   1       1.012   3.290   0.092  0.00  0.00     0.023 A 
ATOM      2  C1  UNL d   1      -0.057   2.875   0.886  0.00  0.00     0.003 A 
ATOM      3  C2  UNL d   1      -1.298   2.609   0.305  0.00  0.00     0.048 A 
ATOM      4  C3  UNL d   1      -1.464   2.759  -1.071  0.00  0.00     0.023 A 
ATOM      5  C4  UNL d   1      -0.397   3.173  -1.870  0.00  0.00     0.048 A 
ATOM      6  C5  UNL d   1       0.842   3.439  -1.285  0.00  0.00     0.003 A 
ATOM      7  I   UNL d   1      -3.311   2.364  -1.939  0.00  0.00    -0.146 I 
ENDROOT
TORSDOF 0
ENDMDL
