MODEL 1
REMARK minimizedAffinity 15.9940567
REMARK minimizedRMSD -1
REMARK  0 active torsions:
REMARK  status: ('A' for Active; 'I' for Inactive)
ROOT
ATOM      1  C   UNL d   1      -0.941   3.470  -0.981  0.00  0.00     0.023 A 
ATOM      2  C1  UNL d   1      -1.388   2.729   0.113  0.00  0.00     0.003 A 
ATOM      3  C2  UNL d   1      -0.479   2.278   1.071  0.00  0.00     0.048 A 
ATOM      4  C3  UNL d   1       0.877   2.573   0.931  0.00  0.00     0.023 A 
ATOM      5  C4  UNL d   1       1.329   3.315  -0.161  0.00  0.00     0.048 A 
ATOM      6  C5  UNL d   1       0.416   3.763  -1.118  0.00  0.00     0.003 A 
ATOM      7  I   UNL d   1       2.233   1.903   2.357  0.00  0.00    -0.146 I 
ENDROOT
TORSDOF 0
ENDMDL
