MODEL 1
REMARK minimizedAffinity 10.0232258
REMARK minimizedRMSD -1
REMARK  0 active torsions:
REMARK  status: ('A' for Active; 'I' for Inactive)
ROOT
ATOM      1  C   UNL d   1      -1.007   2.841   0.365  0.00  0.00     0.023 A 
ATOM      2  C1  UNL d   1       0.267   2.628  -0.162  0.00  0.00     0.003 A 
ATOM      3  C2  UNL d   1       0.805   3.533  -1.079  0.00  0.00     0.048 A 
ATOM      4  C3  UNL d   1       0.064   4.649  -1.464  0.00  0.00     0.023 A 
ATOM      5  C4  UNL d   1      -1.211   4.867  -0.940  0.00  0.00     0.048 A 
ATOM      6  C5  UNL d   1      -1.745   3.959  -0.024  0.00  0.00     0.003 A 
ATOM      7  I   UNL d   1       0.863   5.998  -2.829  0.00  0.00    -0.146 I 
ENDROOT
TORSDOF 0
ENDMDL
