MODEL 1
REMARK minimizedAffinity 11.0396385
REMARK minimizedRMSD -1
REMARK  0 active torsions:
REMARK  status: ('A' for Active; 'I' for Inactive)
ROOT
ATOM      1  C   UNL d   1      -0.623   3.345  -1.027  0.00  0.00     0.023 A 
ATOM      2  C1  UNL d   1       0.697   3.762  -1.197  0.00  0.00     0.003 A 
ATOM      3  C2  UNL d   1       1.657   3.457  -0.229  0.00  0.00     0.048 A 
ATOM      4  C3  UNL d   1       1.289   2.735   0.906  0.00  0.00     0.023 A 
ATOM      5  C4  UNL d   1      -0.031   2.315   1.079  0.00  0.00     0.048 A 
ATOM      6  C5  UNL d   1      -0.987   2.622   0.110  0.00  0.00     0.003 A 
ATOM      7  I   UNL d   1       2.716   2.280   2.347  0.00  0.00    -0.146 I 
ENDROOT
TORSDOF 0
ENDMDL
