MODEL 1
REMARK minimizedAffinity 11.6010456
REMARK minimizedRMSD -1
REMARK  0 active torsions:
REMARK  status: ('A' for Active; 'I' for Inactive)
ROOT
ATOM      1  C   UNL d   1      -0.798  -2.248  -2.988  0.00  0.00     0.023 A 
ATOM      2  C1  UNL d   1      -0.012  -2.106  -1.844  0.00  0.00     0.003 A 
ATOM      3  C2  UNL d   1       0.747  -3.182  -1.379  0.00  0.00     0.048 A 
ATOM      4  C3  UNL d   1       0.716  -4.397  -2.063  0.00  0.00     0.023 A 
ATOM      5  C4  UNL d   1      -0.068  -4.543  -3.208  0.00  0.00     0.048 A 
ATOM      6  C5  UNL d   1      -0.826  -3.465  -3.669  0.00  0.00     0.003 A 
ATOM      7  I   UNL d   1       1.845  -5.999  -1.373  0.00  0.00    -0.146 I 
ENDROOT
TORSDOF 0
ENDMDL
