MODEL 1
REMARK minimizedAffinity 10.8889561
REMARK minimizedRMSD -1
REMARK  0 active torsions:
REMARK  status: ('A' for Active; 'I' for Inactive)
ROOT
ATOM      1  C   UNL d   1       0.029  -3.834  -1.966  0.00  0.00     0.023 A 
ATOM      2  C1  UNL d   1       0.551  -3.853  -3.259  0.00  0.00     0.003 A 
ATOM      3  C2  UNL d   1       1.785  -4.457  -3.506  0.00  0.00     0.048 A 
ATOM      4  C3  UNL d   1       2.492  -5.041  -2.456  0.00  0.00     0.023 A 
ATOM      5  C4  UNL d   1       1.973  -5.026  -1.160  0.00  0.00     0.048 A 
ATOM      6  C5  UNL d   1       0.739  -4.420  -0.918  0.00  0.00     0.003 A 
ATOM      7  I   UNL d   1       4.329  -5.941  -2.822  0.00  0.00    -0.146 I 
ENDROOT
TORSDOF 0
ENDMDL
