MODEL 1
REMARK minimizedAffinity 2.59008813
REMARK minimizedRMSD -1
REMARK  2 active torsions:
REMARK  status: ('A' for Active; 'I' for Inactive)
REMARK    1  A    between atoms: C2'_3  and  C1'_4 
REMARK    2  A    between atoms: C1'_4  and  C1_5 
ROOT
ATOM      1  C1  I4B d   1      -4.932   2.949  -0.663  0.00  0.00    -0.075 A 
ATOM      2  C2  I4B d   1      -5.381   3.306   0.584  0.00  0.00     0.003 A 
ATOM      3  C3  I4B d   1      -4.459   3.546   1.632  0.00  0.00     0.002 A 
ATOM      4  C4  I4B d   1      -3.110   3.369   1.404  0.00  0.00    -0.004 A 
ATOM      5  C5  I4B d   1      -2.655   3.030   0.133  0.00  0.00     0.002 A 
ATOM      6  C6  I4B d   1      -3.570   2.830  -0.911  0.00  0.00     0.003 A 
ENDROOT
BRANCH   1   7
ATOM      7  C1' I4B d   1      -5.934   2.671  -1.738  0.00  0.00     0.060 C 
BRANCH   7   8
ATOM      8  C2' I4B d   1      -5.220   2.742  -3.072  0.00  0.00    -0.013 C 
ATOM      9  C4' I4B d   1      -5.082   1.375  -3.690  0.00  0.00     0.013 C 
ATOM     10  C3' I4B d   1      -5.996   3.663  -3.965  0.00  0.00     0.013 C 
ENDBRANCH   7   8
ENDBRANCH   1   7
TORSDOF 2
ENDMDL
