MODEL 1
REMARK minimizedAffinity 1.93463159
REMARK minimizedRMSD -1
REMARK  2 active torsions:
REMARK  status: ('A' for Active; 'I' for Inactive)
REMARK    1  A    between atoms: C2'_3  and  C1'_4 
REMARK    2  A    between atoms: C1'_4  and  C1_5 
ROOT
ATOM      1  C1  I4B d   1       3.477  -1.699   4.136  0.00  0.00    -0.075 A 
ATOM      2  C2  I4B d   1       3.592  -2.144   5.429  0.00  0.00     0.003 A 
ATOM      3  C3  I4B d   1       4.871  -2.351   6.000  0.00  0.00     0.002 A 
ATOM      4  C4  I4B d   1       6.000  -2.150   5.231  0.00  0.00    -0.004 A 
ATOM      5  C5  I4B d   1       5.881  -1.677   3.927  0.00  0.00     0.002 A 
ATOM      6  C6  I4B d   1       4.612  -1.438   3.380  0.00  0.00     0.003 A 
ENDROOT
BRANCH   1   7
ATOM      7  C1' I4B d   1       2.110  -1.523   3.553  0.00  0.00     0.060 C 
BRANCH   7   8
ATOM      8  C2' I4B d   1       2.189  -0.440   2.497  0.00  0.00    -0.013 C 
ATOM      9  C4' I4B d   1       1.041  -0.541   1.527  0.00  0.00     0.013 C 
ATOM     10  C3' I4B d   1       2.194   0.887   3.194  0.00  0.00     0.013 C 
ENDBRANCH   7   8
ENDBRANCH   1   7
TORSDOF 2
ENDMDL
