MODEL 1
REMARK minimizedAffinity 11.6464195
REMARK minimizedRMSD -1
REMARK  2 active torsions:
REMARK  status: ('A' for Active; 'I' for Inactive)
REMARK    1  A    between atoms: C2'_3  and  C1'_4 
REMARK    2  A    between atoms: C1'_4  and  C1_5 
ROOT
ATOM      1  C1  I4B d   1       1.539  -3.463   5.202  0.00  0.00    -0.075 A 
ATOM      2  C2  I4B d   1       0.201  -3.767   5.231  0.00  0.00     0.003 A 
ATOM      3  C3  I4B d   1      -0.230  -5.045   5.660  0.00  0.00     0.002 A 
ATOM      4  C4  I4B d   1       0.707  -6.000   6.000  0.00  0.00    -0.004 A 
ATOM      5  C5  I4B d   1       2.062  -5.682   5.992  0.00  0.00     0.002 A 
ATOM      6  C6  I4B d   1       2.481  -4.402   5.602  0.00  0.00     0.003 A 
ENDROOT
BRANCH   1   7
ATOM      7  C1' I4B d   1       1.962  -2.114   4.713  0.00  0.00     0.060 C 
BRANCH   7   8
ATOM      8  C2' I4B d   1       1.903  -2.127   3.199  0.00  0.00    -0.013 C 
ATOM      9  C4' I4B d   1       1.766  -0.733   2.646  0.00  0.00     0.013 C 
ATOM     10  C3' I4B d   1       3.150  -2.790   2.693  0.00  0.00     0.013 C 
ENDBRANCH   7   8
ENDBRANCH   1   7
TORSDOF 2
ENDMDL
