MODEL 1
REMARK minimizedAffinity 9.74534702
REMARK minimizedRMSD -1
REMARK  2 active torsions:
REMARK  status: ('A' for Active; 'I' for Inactive)
REMARK    1  A    between atoms: C2'_3  and  C1'_4 
REMARK    2  A    between atoms: C1'_4  and  C1_5 
ROOT
ATOM      1  C1  I4B d   1      -4.410   2.688  -0.914  0.00  0.00    -0.075 A 
ATOM      2  C2  I4B d   1      -3.244   2.693  -0.191  0.00  0.00     0.003 A 
ATOM      3  C3  I4B d   1      -3.279   2.834   1.218  0.00  0.00     0.002 A 
ATOM      4  C4  I4B d   1      -4.491   3.016   1.852  0.00  0.00    -0.004 A 
ATOM      5  C5  I4B d   1      -5.674   2.988   1.119  0.00  0.00     0.002 A 
ATOM      6  C6  I4B d   1      -5.635   2.811  -0.271  0.00  0.00     0.003 A 
ENDROOT
BRANCH   1   7
ATOM      7  C1' I4B d   1      -4.334   2.571  -2.404  0.00  0.00     0.060 C 
BRANCH   7   8
ATOM      8  C2' I4B d   1      -5.748   2.597  -2.947  0.00  0.00    -0.013 C 
ATOM      9  C4' I4B d   1      -5.991   3.831  -3.775  0.00  0.00     0.013 C 
ATOM     10  C3' I4B d   1      -5.957   1.352  -3.756  0.00  0.00     0.013 C 
ENDBRANCH   7   8
ENDBRANCH   1   7
TORSDOF 2
ENDMDL
