MODEL 1
REMARK minimizedAffinity 13.1315889
REMARK minimizedRMSD -1
REMARK  2 active torsions:
REMARK  status: ('A' for Active; 'I' for Inactive)
REMARK    1  A    between atoms: C2'_3  and  C1'_4 
REMARK    2  A    between atoms: C1'_4  and  C1_5 
ROOT
ATOM      1  C1  I4B d   1       1.806  -2.458   3.670  0.00  0.00    -0.075 A 
ATOM      2  C2  I4B d   1       0.758  -3.223   4.117  0.00  0.00     0.003 A 
ATOM      3  C3  I4B d   1       0.926  -4.616   4.314  0.00  0.00     0.002 A 
ATOM      4  C4  I4B d   1       2.135  -5.205   4.006  0.00  0.00    -0.004 A 
ATOM      5  C5  I4B d   1       3.203  -4.424   3.575  0.00  0.00     0.002 A 
ATOM      6  C6  I4B d   1       3.042  -3.039   3.417  0.00  0.00     0.003 A 
ENDROOT
BRANCH   1   7
ATOM      7  C1' I4B d   1       1.585  -0.996   3.442  0.00  0.00     0.060 C 
BRANCH   7   8
ATOM      8  C2' I4B d   1       1.729  -0.729   1.957  0.00  0.00    -0.013 C 
ATOM      9  C4' I4B d   1       0.390  -0.479   1.315  0.00  0.00     0.013 C 
ATOM     10  C3' I4B d   1       2.640   0.450   1.785  0.00  0.00     0.013 C 
ENDBRANCH   7   8
ENDBRANCH   1   7
TORSDOF 2
ENDMDL
