MODEL 1
REMARK minimizedAffinity 1.7987982
REMARK minimizedRMSD -1
REMARK  2 active torsions:
REMARK  status: ('A' for Active; 'I' for Inactive)
REMARK    1  A    between atoms: C2'_3  and  C1'_4 
REMARK    2  A    between atoms: C1'_4  and  C1_5 
ROOT
ATOM      1  C1  I4B d   1       3.906   0.819  -4.812  0.00  0.00    -0.075 A 
ATOM      2  C2  I4B d   1       3.782   2.186  -4.795  0.00  0.00     0.003 A 
ATOM      3  C3  I4B d   1       4.771   3.000  -5.398  0.00  0.00     0.002 A 
ATOM      4  C4  I4B d   1       5.886   2.411  -5.958  0.00  0.00    -0.004 A 
ATOM      5  C5  I4B d   1       6.000   1.024  -5.995  0.00  0.00     0.002 A 
ATOM      6  C6  I4B d   1       4.998   0.222  -5.429  0.00  0.00     0.003 A 
ENDROOT
BRANCH   1   7
ATOM      7  C1' I4B d   1       2.860  -0.009  -4.137  0.00  0.00     0.060 C 
BRANCH   7   8
ATOM      8  C2' I4B d   1       3.544  -0.863  -3.089  0.00  0.00    -0.013 C 
ATOM      9  C4' I4B d   1       4.737  -0.156  -2.503  0.00  0.00     0.013 C 
ATOM     10  C3' I4B d   1       2.535  -1.193  -2.030  0.00  0.00     0.013 C 
ENDBRANCH   7   8
ENDBRANCH   1   7
TORSDOF 2
ENDMDL
