MODEL 1
REMARK minimizedAffinity 9.95894623
REMARK minimizedRMSD -1
REMARK  2 active torsions:
REMARK  status: ('A' for Active; 'I' for Inactive)
REMARK    1  A    between atoms: C2'_3  and  C1'_4 
REMARK    2  A    between atoms: C1'_4  and  C1_5 
ROOT
ATOM      1  C1  I4B d   1      -4.255  -2.274  -4.752  0.00  0.00    -0.075 A 
ATOM      2  C2  I4B d   1      -5.011  -2.621  -3.660  0.00  0.00     0.003 A 
ATOM      3  C3  I4B d   1      -5.881  -3.737  -3.721  0.00  0.00     0.002 A 
ATOM      4  C4  I4B d   1      -6.000  -4.442  -4.901  0.00  0.00    -0.004 A 
ATOM      5  C5  I4B d   1      -5.215  -4.103  -6.000  0.00  0.00     0.002 A 
ATOM      6  C6  I4B d   1      -4.328  -3.019  -5.921  0.00  0.00     0.003 A 
ENDROOT
BRANCH   1   7
ATOM      7  C1' I4B d   1      -3.371  -1.070  -4.663  0.00  0.00     0.060 C 
BRANCH   7   8
ATOM      8  C2' I4B d   1      -3.376  -0.593  -3.226  0.00  0.00    -0.013 C 
ATOM      9  C4' I4B d   1      -2.119  -1.010  -2.508  0.00  0.00     0.013 C 
ATOM     10  C3' I4B d   1      -3.524   0.900  -3.234  0.00  0.00     0.013 C 
ENDBRANCH   7   8
ENDBRANCH   1   7
TORSDOF 2
ENDMDL
