MODEL 1
REMARK minimizedAffinity 8.67455673
REMARK minimizedRMSD -1
REMARK  2 active torsions:
REMARK  status: ('A' for Active; 'I' for Inactive)
REMARK    1  A    between atoms: C2'_3  and  C1'_4 
REMARK    2  A    between atoms: C1'_4  and  C1_5 
ROOT
ATOM      1  C1  I4B d   1       1.476  -0.902   1.575  0.00  0.00    -0.075 A 
ATOM      2  C2  I4B d   1       2.062  -1.664   0.595  0.00  0.00     0.003 A 
ATOM      3  C3  I4B d   1       1.345  -1.983  -0.584  0.00  0.00     0.002 A 
ATOM      4  C4  I4B d   1       0.037  -1.566  -0.718  0.00  0.00    -0.004 A 
ATOM      5  C5  I4B d   1      -0.548  -0.774   0.266  0.00  0.00     0.002 A 
ATOM      6  C6  I4B d   1       0.180  -0.430   1.415  0.00  0.00     0.003 A 
ENDROOT
BRANCH   1   7
ATOM      7  C1' I4B d   1       2.250  -0.612   2.821  0.00  0.00     0.060 C 
BRANCH   7   8
ATOM      8  C2' I4B d   1       2.844  -1.915   3.316  0.00  0.00    -0.013 C 
ATOM      9  C4' I4B d   1       4.100  -1.674   4.112  0.00  0.00     0.013 C 
ATOM     10  C3' I4B d   1       1.805  -2.613   4.142  0.00  0.00     0.013 C 
ENDBRANCH   7   8
ENDBRANCH   1   7
TORSDOF 2
ENDMDL
