MODEL 1
REMARK minimizedAffinity 8.76526928
REMARK minimizedRMSD -1
REMARK  2 active torsions:
REMARK  status: ('A' for Active; 'I' for Inactive)
REMARK    1  A    between atoms: C2'_3  and  C1'_4 
REMARK    2  A    between atoms: C1'_4  and  C1_5 
ROOT
ATOM      1  C1  I4B d   1       1.593  -0.510   1.127  0.00  0.00    -0.075 A 
ATOM      2  C2  I4B d   1       1.697  -1.250  -0.025  0.00  0.00     0.003 A 
ATOM      3  C3  I4B d   1       0.534  -1.605  -0.751  0.00  0.00     0.002 A 
ATOM      4  C4  I4B d   1      -0.707  -1.245  -0.266  0.00  0.00    -0.004 A 
ATOM      5  C5  I4B d   1      -0.809  -0.476   0.889  0.00  0.00     0.002 A 
ATOM      6  C6  I4B d   1       0.349  -0.095   1.584  0.00  0.00     0.003 A 
ENDROOT
BRANCH   1   7
ATOM      7  C1' I4B d   1       2.838  -0.181   1.887  0.00  0.00     0.060 C 
BRANCH   7   8
ATOM      8  C2' I4B d   1       3.341  -1.455   2.534  0.00  0.00    -0.013 C 
ATOM      9  C4' I4B d   1       4.846  -1.501   2.551  0.00  0.00     0.013 C 
ATOM     10  C3' I4B d   1       2.781  -1.521   3.924  0.00  0.00     0.013 C 
ENDBRANCH   7   8
ENDBRANCH   1   7
TORSDOF 2
ENDMDL
