MODEL 1
REMARK minimizedAffinity 1.26224804
REMARK minimizedRMSD -1
REMARK  2 active torsions:
REMARK  status: ('A' for Active; 'I' for Inactive)
REMARK    1  A    between atoms: C1_2  and  C2_3 
REMARK    2  A    between atoms: C2_3  and  C3_4 
ROOT
ATOM      1  C3  UNL d   1      -3.690  -3.062  -1.823  0.00  0.00    -0.075 A 
ATOM      2  C4  UNL d   1      -4.670  -4.064  -1.881  0.00  0.00     0.002 A 
ATOM      3  C5  UNL d   1      -5.632  -4.173  -0.876  0.00  0.00     0.002 A 
ATOM      4  C6  UNL d   1      -5.620  -3.291   0.202  0.00  0.00    -0.004 A 
ATOM      5  C7  UNL d   1      -4.642  -2.302   0.278  0.00  0.00     0.002 A 
ATOM      6  C8  UNL d   1      -3.681  -2.188  -0.728  0.00  0.00     0.002 A 
ENDROOT
BRANCH   1   7
ATOM      7  C2  UNL d   1      -2.665  -2.920  -2.922  0.00  0.00     0.056 C 
BRANCH   7   8
ATOM      8  C1  UNL d   1      -2.984  -1.815  -3.935  0.00  0.00     0.007 C 
ATOM      9  C   UNL d   1      -2.534  -2.150  -5.351  0.00  0.00     0.009 C 
ENDBRANCH   7   8
ENDBRANCH   1   7
TORSDOF 2
ENDMDL
