MODEL 1
REMARK minimizedAffinity -0.512595713
REMARK minimizedRMSD -1
REMARK  2 active torsions:
REMARK  status: ('A' for Active; 'I' for Inactive)
REMARK    1  A    between atoms: C1_2  and  C2_3 
REMARK    2  A    between atoms: C2_3  and  C3_4 
ROOT
ATOM      1  C3  UNL d   1       4.685   3.088  -5.348  0.00  0.00    -0.075 A 
ATOM      2  C4  UNL d   1       4.785   1.846  -5.992  0.00  0.00     0.002 A 
ATOM      3  C5  UNL d   1       5.434   0.778  -5.373  0.00  0.00     0.002 A 
ATOM      4  C6  UNL d   1       5.999   0.939  -4.110  0.00  0.00    -0.004 A 
ATOM      5  C7  UNL d   1       5.920   2.173  -3.468  0.00  0.00     0.002 A 
ATOM      6  C8  UNL d   1       5.267   3.243  -4.083  0.00  0.00     0.002 A 
ENDROOT
BRANCH   1   7
ATOM      7  C2  UNL d   1       3.958   4.240  -6.000  0.00  0.00     0.056 C 
BRANCH   7   8
ATOM      8  C1  UNL d   1       2.432   4.095  -5.999  0.00  0.00     0.007 C 
ATOM      9  C   UNL d   1       1.702   5.431  -5.972  0.00  0.00     0.009 C 
ENDBRANCH   7   8
ENDBRANCH   1   7
TORSDOF 2
ENDMDL
