MODEL 1
REMARK minimizedAffinity 5.48969793
REMARK minimizedRMSD -1
REMARK  2 active torsions:
REMARK  status: ('A' for Active; 'I' for Inactive)
REMARK    1  A    between atoms: C1_2  and  C2_3 
REMARK    2  A    between atoms: C2_3  and  C3_4 
ROOT
ATOM      1  C3  UNL d   1      -2.050  -3.176  -2.069  0.00  0.00    -0.075 A 
ATOM      2  C4  UNL d   1      -1.047  -3.992  -1.525  0.00  0.00     0.002 A 
ATOM      3  C5  UNL d   1      -0.464  -3.676  -0.298  0.00  0.00     0.002 A 
ATOM      4  C6  UNL d   1      -0.868  -2.537   0.395  0.00  0.00    -0.004 A 
ATOM      5  C7  UNL d   1      -1.852  -1.710  -0.143  0.00  0.00     0.002 A 
ATOM      6  C8  UNL d   1      -2.440  -2.027  -1.369  0.00  0.00     0.002 A 
ENDROOT
BRANCH   1   7
ATOM      7  C2  UNL d   1      -2.705  -3.529  -3.383  0.00  0.00     0.056 C 
BRANCH   7   8
ATOM      8  C1  UNL d   1      -1.872  -3.160  -4.614  0.00  0.00     0.007 C 
ATOM      9  C   UNL d   1      -2.705  -3.016  -5.881  0.00  0.00     0.009 C 
ENDBRANCH   7   8
ENDBRANCH   1   7
TORSDOF 2
ENDMDL
