MODEL 1
REMARK minimizedAffinity -0.0925405249
REMARK minimizedRMSD -1
REMARK  2 active torsions:
REMARK  status: ('A' for Active; 'I' for Inactive)
REMARK    1  A    between atoms: C1_2  and  C2_3 
REMARK    2  A    between atoms: C2_3  and  C3_4 
ROOT
ATOM      1  C3  UNL d   1      -1.595  -3.008  -3.566  0.00  0.00    -0.075 A 
ATOM      2  C4  UNL d   1      -1.151  -2.408  -4.753  0.00  0.00     0.002 A 
ATOM      3  C5  UNL d   1      -1.805  -2.658  -5.960  0.00  0.00     0.002 A 
ATOM      4  C6  UNL d   1      -2.902  -3.515  -5.997  0.00  0.00    -0.004 A 
ATOM      5  C7  UNL d   1      -3.342  -4.129  -4.826  0.00  0.00     0.002 A 
ATOM      6  C8  UNL d   1      -2.692  -3.878  -3.616  0.00  0.00     0.002 A 
ENDROOT
BRANCH   1   7
ATOM      7  C2  UNL d   1      -0.909  -2.719  -2.251  0.00  0.00     0.056 C 
BRANCH   7   8
ATOM      8  C1  UNL d   1      -1.530  -1.558  -1.466  0.00  0.00     0.007 C 
ATOM      9  C   UNL d   1      -1.518  -1.779   0.041  0.00  0.00     0.009 C 
ENDBRANCH   7   8
ENDBRANCH   1   7
TORSDOF 2
ENDMDL
