MODEL 1
REMARK minimizedAffinity 9.70202732
REMARK minimizedRMSD -1
REMARK  2 active torsions:
REMARK  status: ('A' for Active; 'I' for Inactive)
REMARK    1  A    between atoms: C1_2  and  C2_3 
REMARK    2  A    between atoms: C2_3  and  C3_4 
ROOT
ATOM      1  C3  UNL d   1      -1.531  -3.162  -2.167  0.00  0.00    -0.075 A 
ATOM      2  C4  UNL d   1      -0.568  -3.968  -1.542  0.00  0.00     0.002 A 
ATOM      3  C5  UNL d   1      -0.041  -3.610  -0.301  0.00  0.00     0.002 A 
ATOM      4  C6  UNL d   1      -0.462  -2.439   0.326  0.00  0.00    -0.004 A 
ATOM      5  C7  UNL d   1      -1.405  -1.622  -0.293  0.00  0.00     0.002 A 
ATOM      6  C8  UNL d   1      -1.937  -1.980  -1.533  0.00  0.00     0.002 A 
ENDROOT
BRANCH   1   7
ATOM      7  C2  UNL d   1      -2.127  -3.559  -3.496  0.00  0.00     0.056 C 
BRANCH   7   8
ATOM      8  C1  UNL d   1      -1.705  -2.660  -4.663  0.00  0.00     0.007 C 
ATOM      9  C   UNL d   1      -2.412  -2.998  -5.968  0.00  0.00     0.009 C 
ENDBRANCH   7   8
ENDBRANCH   1   7
TORSDOF 2
ENDMDL
