MODEL 1
REMARK minimizedAffinity 3.20765877
REMARK minimizedRMSD -1
REMARK  2 active torsions:
REMARK  status: ('A' for Active; 'I' for Inactive)
REMARK    1  A    between atoms: C1_2  and  C2_3 
REMARK    2  A    between atoms: C2_3  and  C3_4 
ROOT
ATOM      1  C3  UNL d   1      -1.548  -3.073  -2.141  0.00  0.00    -0.075 A 
ATOM      2  C4  UNL d   1      -0.569  -3.807  -1.457  0.00  0.00     0.002 A 
ATOM      3  C5  UNL d   1      -0.110  -3.384  -0.209  0.00  0.00     0.002 A 
ATOM      4  C6  UNL d   1      -0.615  -2.220   0.365  0.00  0.00    -0.004 A 
ATOM      5  C7  UNL d   1      -1.576  -1.474  -0.314  0.00  0.00     0.002 A 
ATOM      6  C8  UNL d   1      -2.041  -1.896  -1.560  0.00  0.00     0.002 A 
ENDROOT
BRANCH   1   7
ATOM      7  C2  UNL d   1      -2.070  -3.540  -3.479  0.00  0.00     0.056 C 
BRANCH   7   8
ATOM      8  C1  UNL d   1      -1.513  -2.759  -4.674  0.00  0.00     0.007 C 
ATOM      9  C   UNL d   1      -2.146  -3.159  -6.000  0.00  0.00     0.009 C 
ENDBRANCH   7   8
ENDBRANCH   1   7
TORSDOF 2
ENDMDL
