MODEL 1
REMARK minimizedAffinity 4.48191833
REMARK minimizedRMSD -1
REMARK  2 active torsions:
REMARK  status: ('A' for Active; 'I' for Inactive)
REMARK    1  A    between atoms: C1_2  and  C2_3 
REMARK    2  A    between atoms: C2_3  and  C3_4 
ROOT
ATOM      1  C3  UNL d   1       3.960   1.923  -0.219  0.00  0.00    -0.075 A 
ATOM      2  C4  UNL d   1       2.805   2.594   0.205  0.00  0.00     0.002 A 
ATOM      3  C5  UNL d   1       2.142   2.199   1.368  0.00  0.00     0.002 A 
ATOM      4  C6  UNL d   1       2.620   1.123   2.113  0.00  0.00    -0.004 A 
ATOM      5  C7  UNL d   1       3.757   0.438   1.692  0.00  0.00     0.002 A 
ATOM      6  C8  UNL d   1       4.425   0.835   0.532  0.00  0.00     0.002 A 
ENDROOT
BRANCH   1   7
ATOM      7  C2  UNL d   1       4.699   2.365  -1.460  0.00  0.00     0.056 C 
BRANCH   7   8
ATOM      8  C1  UNL d   1       5.994   1.590  -1.724  0.00  0.00     0.007 C 
ATOM      9  C   UNL d   1       5.996   0.863  -3.062  0.00  0.00     0.009 C 
ENDBRANCH   7   8
ENDBRANCH   1   7
TORSDOF 2
ENDMDL
