MODEL 1
REMARK minimizedAffinity 9.31354523
REMARK minimizedRMSD -1
REMARK  2 active torsions:
REMARK  status: ('A' for Active; 'I' for Inactive)
REMARK    1  A    between atoms: C1_2  and  C2_3 
REMARK    2  A    between atoms: C2_3  and  C3_4 
ROOT
ATOM      1  C3  UNL d   1      -2.299  -3.085  -3.355  0.00  0.00    -0.075 A 
ATOM      2  C4  UNL d   1      -1.396  -2.889  -4.410  0.00  0.00     0.002 A 
ATOM      3  C5  UNL d   1      -1.854  -2.780  -5.723  0.00  0.00     0.002 A 
ATOM      4  C6  UNL d   1      -3.216  -2.876  -5.999  0.00  0.00    -0.004 A 
ATOM      5  C7  UNL d   1      -4.120  -3.088  -4.961  0.00  0.00     0.002 A 
ATOM      6  C8  UNL d   1      -3.665  -3.193  -3.645  0.00  0.00     0.002 A 
ENDROOT
BRANCH   1   7
ATOM      7  C2  UNL d   1      -1.812  -3.174  -1.928  0.00  0.00     0.056 C 
BRANCH   7   8
ATOM      8  C1  UNL d   1      -0.936  -4.398  -1.643  0.00  0.00     0.007 C 
ATOM      9  C   UNL d   1      -0.001  -4.205  -0.457  0.00  0.00     0.009 C 
ENDBRANCH   7   8
ENDBRANCH   1   7
TORSDOF 2
ENDMDL
