MODEL 1
REMARK minimizedAffinity 12.1435347
REMARK minimizedRMSD -1
REMARK  2 active torsions:
REMARK  status: ('A' for Active; 'I' for Inactive)
REMARK    1  A    between atoms: C1_2  and  C2_3 
REMARK    2  A    between atoms: C2_3  and  C3_4 
ROOT
ATOM      1  C3  UNL d   1      -1.478  -3.896  -3.640  0.00  0.00    -0.075 A 
ATOM      2  C4  UNL d   1      -1.483  -4.588  -4.860  0.00  0.00     0.002 A 
ATOM      3  C5  UNL d   1      -2.042  -4.010  -6.000  0.00  0.00     0.002 A 
ATOM      4  C6  UNL d   1      -2.611  -2.740  -5.933  0.00  0.00    -0.004 A 
ATOM      5  C7  UNL d   1      -2.625  -2.050  -4.723  0.00  0.00     0.002 A 
ATOM      6  C8  UNL d   1      -2.063  -2.624  -3.581  0.00  0.00     0.002 A 
ENDROOT
BRANCH   1   7
ATOM      7  C2  UNL d   1      -0.848  -4.504  -2.409  0.00  0.00     0.056 C 
BRANCH   7   8
ATOM      8  C1  UNL d   1      -0.114  -3.494  -1.521  0.00  0.00     0.007 C 
ATOM      9  C   UNL d   1       0.658  -4.147  -0.382  0.00  0.00     0.009 C 
ENDBRANCH   7   8
ENDBRANCH   1   7
TORSDOF 2
ENDMDL
