MODEL 1
REMARK minimizedAffinity 8.53678513
REMARK minimizedRMSD -1
REMARK  2 active torsions:
REMARK  status: ('A' for Active; 'I' for Inactive)
REMARK    1  A    between atoms: C1_2  and  C2_3 
REMARK    2  A    between atoms: C2_3  and  C3_4 
ROOT
ATOM      1  C3  UNL d   1      -1.226  -2.289  -1.238  0.00  0.00    -0.075 A 
ATOM      2  C4  UNL d   1      -2.222  -1.773  -0.396  0.00  0.00     0.002 A 
ATOM      3  C5  UNL d   1      -2.071  -1.817   0.990  0.00  0.00     0.002 A 
ATOM      4  C6  UNL d   1      -0.930  -2.386   1.552  0.00  0.00    -0.004 A 
ATOM      5  C7  UNL d   1       0.058  -2.916   0.726  0.00  0.00     0.002 A 
ATOM      6  C8  UNL d   1      -0.088  -2.869  -0.662  0.00  0.00     0.002 A 
ENDROOT
BRANCH   1   7
ATOM      7  C2  UNL d   1      -1.369  -2.217  -2.739  0.00  0.00     0.056 C 
BRANCH   7   8
ATOM      8  C1  UNL d   1      -1.979  -3.475  -3.368  0.00  0.00     0.007 C 
ATOM      9  C   UNL d   1      -1.815  -3.529  -4.881  0.00  0.00     0.009 C 
ENDBRANCH   7   8
ENDBRANCH   1   7
TORSDOF 2
ENDMDL
