MODEL 1
REMARK minimizedAffinity 7.25678778
REMARK minimizedRMSD -1
REMARK  2 active torsions:
REMARK  status: ('A' for Active; 'I' for Inactive)
REMARK    1  A    between atoms: C1_2  and  C2_3 
REMARK    2  A    between atoms: C2_3  and  C3_4 
ROOT
ATOM      1  C3  UNL d   1      -1.364  -3.324  -2.180  0.00  0.00    -0.075 A 
ATOM      2  C4  UNL d   1      -1.471  -2.294  -1.234  0.00  0.00     0.002 A 
ATOM      3  C5  UNL d   1      -0.764  -2.358  -0.033  0.00  0.00     0.002 A 
ATOM      4  C6  UNL d   1       0.049  -3.455   0.242  0.00  0.00    -0.004 A 
ATOM      5  C7  UNL d   1       0.151  -4.492  -0.683  0.00  0.00     0.002 A 
ATOM      6  C8  UNL d   1      -0.553  -4.429  -1.887  0.00  0.00     0.002 A 
ENDROOT
BRANCH   1   7
ATOM      7  C2  UNL d   1      -2.104  -3.247  -3.494  0.00  0.00     0.056 C 
BRANCH   7   8
ATOM      8  C1  UNL d   1      -1.318  -2.555  -4.612  0.00  0.00     0.007 C 
ATOM      9  C   UNL d   1      -1.899  -2.804  -5.998  0.00  0.00     0.009 C 
ENDBRANCH   7   8
ENDBRANCH   1   7
TORSDOF 2
ENDMDL
