MODEL 1
REMARK minimizedAffinity 7.29323244
REMARK minimizedRMSD -1
REMARK  2 active torsions:
REMARK  status: ('A' for Active; 'I' for Inactive)
REMARK    1  A    between atoms: C1_2  and  C2_3 
REMARK    2  A    between atoms: C2_3  and  C3_4 
ROOT
ATOM      1  C3  UNL d   1      -1.852  -2.602  -3.556  0.00  0.00    -0.075 A 
ATOM      2  C4  UNL d   1      -1.277  -2.193  -4.768  0.00  0.00     0.002 A 
ATOM      3  C5  UNL d   1      -1.899  -2.486  -5.982  0.00  0.00     0.002 A 
ATOM      4  C6  UNL d   1      -3.095  -3.200  -6.000  0.00  0.00    -0.004 A 
ATOM      5  C7  UNL d   1      -3.667  -3.626  -4.803  0.00  0.00     0.002 A 
ATOM      6  C8  UNL d   1      -3.049  -3.330  -3.587  0.00  0.00     0.002 A 
ENDROOT
BRANCH   1   7
ATOM      7  C2  UNL d   1      -1.199  -2.262  -2.237  0.00  0.00     0.056 C 
BRANCH   7   8
ATOM      8  C1  UNL d   1      -0.555  -3.461  -1.532  0.00  0.00     0.007 C 
ATOM      9  C   UNL d   1       0.406  -3.059  -0.422  0.00  0.00     0.009 C 
ENDBRANCH   7   8
ENDBRANCH   1   7
TORSDOF 2
ENDMDL
