MODEL 1
REMARK minimizedAffinity 6.26534414
REMARK minimizedRMSD -1
REMARK  2 active torsions:
REMARK  status: ('A' for Active; 'I' for Inactive)
REMARK    1  A    between atoms: C1_2  and  C2_3 
REMARK    2  A    between atoms: C2_3  and  C3_4 
ROOT
ATOM      1  C3  UNL d   1      -1.946  -2.850  -3.568  0.00  0.00    -0.075 A 
ATOM      2  C4  UNL d   1      -1.030  -3.020  -4.616  0.00  0.00     0.002 A 
ATOM      3  C5  UNL d   1      -1.434  -3.586  -5.825  0.00  0.00     0.002 A 
ATOM      4  C6  UNL d   1      -2.754  -3.997  -5.999  0.00  0.00    -0.004 A 
ATOM      5  C7  UNL d   1      -3.669  -3.848  -4.959  0.00  0.00     0.002 A 
ATOM      6  C8  UNL d   1      -3.268  -3.278  -3.749  0.00  0.00     0.002 A 
ENDROOT
BRANCH   1   7
ATOM      7  C2  UNL d   1      -1.522  -2.212  -2.267  0.00  0.00     0.056 C 
BRANCH   7   8
ATOM      8  C1  UNL d   1      -0.775  -3.158  -1.322  0.00  0.00     0.007 C 
ATOM      9  C   UNL d   1      -0.402  -2.511   0.005  0.00  0.00     0.009 C 
ENDBRANCH   7   8
ENDBRANCH   1   7
TORSDOF 2
ENDMDL
