MODEL 1
REMARK minimizedAffinity 6.29856396
REMARK minimizedRMSD -1
REMARK  2 active torsions:
REMARK  status: ('A' for Active; 'I' for Inactive)
REMARK    1  A    between atoms: C1_2  and  C2_3 
REMARK    2  A    between atoms: C2_3  and  C3_4 
ROOT
ATOM      1  C3  UNL d   1      -2.055  -3.202  -3.408  0.00  0.00    -0.075 A 
ATOM      2  C4  UNL d   1      -3.266  -3.881  -3.603  0.00  0.00     0.002 A 
ATOM      3  C5  UNL d   1      -3.735  -4.137  -4.891  0.00  0.00     0.002 A 
ATOM      4  C6  UNL d   1      -3.006  -3.711  -5.999  0.00  0.00    -0.004 A 
ATOM      5  C7  UNL d   1      -1.809  -3.021  -5.817  0.00  0.00     0.002 A 
ATOM      6  C8  UNL d   1      -1.336  -2.766  -4.529  0.00  0.00     0.002 A 
ENDROOT
BRANCH   1   7
ATOM      7  C2  UNL d   1      -1.527  -2.946  -2.016  0.00  0.00     0.056 C 
BRANCH   7   8
ATOM      8  C1  UNL d   1      -1.915  -1.579  -1.443  0.00  0.00     0.007 C 
ATOM      9  C   UNL d   1      -2.639  -1.672  -0.107  0.00  0.00     0.009 C 
ENDBRANCH   7   8
ENDBRANCH   1   7
TORSDOF 2
ENDMDL
