MODEL 1
REMARK minimizedAffinity 6.13166046
REMARK minimizedRMSD -1
REMARK  2 active torsions:
REMARK  status: ('A' for Active; 'I' for Inactive)
REMARK    1  A    between atoms: C1_2  and  C2_3 
REMARK    2  A    between atoms: C2_3  and  C3_4 
ROOT
ATOM      1  C3  UNL d   1      -1.560  -2.613  -2.154  0.00  0.00    -0.075 A 
ATOM      2  C4  UNL d   1      -1.999  -1.507  -1.412  0.00  0.00     0.002 A 
ATOM      3  C5  UNL d   1      -1.354  -1.147  -0.228  0.00  0.00     0.002 A 
ATOM      4  C6  UNL d   1      -0.271  -1.893   0.233  0.00  0.00    -0.004 A 
ATOM      5  C7  UNL d   1       0.163  -3.003  -0.488  0.00  0.00     0.002 A 
ATOM      6  C8  UNL d   1      -0.478  -3.363  -1.675  0.00  0.00     0.002 A 
ENDROOT
BRANCH   1   7
ATOM      7  C2  UNL d   1      -2.235  -2.990  -3.451  0.00  0.00     0.056 C 
BRANCH   7   8
ATOM      8  C1  UNL d   1      -1.493  -2.511  -4.703  0.00  0.00     0.007 C 
ATOM      9  C   UNL d   1      -2.207  -2.871  -5.999  0.00  0.00     0.009 C 
ENDBRANCH   7   8
ENDBRANCH   1   7
TORSDOF 2
ENDMDL
