MODEL 1
REMARK minimizedAffinity -4.17187166
REMARK minimizedRMSD -1
REMARK  0 active torsions:
REMARK  status: ('A' for Active; 'I' for Inactive)
ROOT
ATOM      1  C2' OXE d   1      -0.802   2.214   2.360  0.00  0.00     0.078 C 
ATOM      2  C1' OXE d   1      -1.472   0.378   0.345  0.00  0.00     0.078 C 
ATOM      3  C1  OXE d   1      -1.831   0.024   1.767  0.00  0.00    -0.078 A 
ATOM      4  C2  OXE d   1      -1.457   0.907   2.751  0.00  0.00    -0.078 A 
ATOM      5  C3  OXE d   1      -1.812   0.655   4.074  0.00  0.00     0.003 A 
ATOM      6  C4  OXE d   1      -2.409  -0.561   4.428  0.00  0.00    -0.002 A 
ATOM      7  C5  OXE d   1      -2.762  -1.491   3.445  0.00  0.00    -0.002 A 
ATOM      8  C6  OXE d   1      -2.519  -1.196   2.108  0.00  0.00     0.003 A 
ENDROOT
TORSDOF 0
ENDMDL
