MODEL 1
REMARK minimizedAffinity 1.75859571
REMARK minimizedRMSD -1
REMARK  0 active torsions:
REMARK  status: ('A' for Active; 'I' for Inactive)
ROOT
ATOM      1  C2' OXE d   1       4.436   4.027   3.177  0.00  0.00     0.078 C 
ATOM      2  C1' OXE d   1       5.992   4.500   5.465  0.00  0.00     0.078 C 
ATOM      3  C1  OXE d   1       5.591   3.077   5.169  0.00  0.00    -0.078 A 
ATOM      4  C2  OXE d   1       4.790   2.860   4.073  0.00  0.00    -0.078 A 
ATOM      5  C3  OXE d   1       4.437   1.560   3.724  0.00  0.00     0.003 A 
ATOM      6  C4  OXE d   1       4.760   0.487   4.564  0.00  0.00    -0.002 A 
ATOM      7  C5  OXE d   1       5.541   0.691   5.706  0.00  0.00    -0.002 A 
ATOM      8  C6  OXE d   1       6.000   1.971   5.999  0.00  0.00     0.003 A 
ENDROOT
TORSDOF 0
ENDMDL
