MODEL 1
REMARK minimizedAffinity 1.20477974
REMARK minimizedRMSD -1
REMARK  0 active torsions:
REMARK  status: ('A' for Active; 'I' for Inactive)
ROOT
ATOM      1  C2' OXE d   1       1.221  -0.055  -3.463  0.00  0.00     0.078 C 
ATOM      2  C1' OXE d   1      -0.082  -1.772  -1.663  0.00  0.00     0.078 C 
ATOM      3  C1  OXE d   1       0.409  -0.445  -1.140  0.00  0.00    -0.078 A 
ATOM      4  C2  OXE d   1       1.086   0.369  -2.016  0.00  0.00    -0.078 A 
ATOM      5  C3  OXE d   1       1.512   1.627  -1.600  0.00  0.00     0.003 A 
ATOM      6  C4  OXE d   1       1.392   2.007  -0.258  0.00  0.00    -0.002 A 
ATOM      7  C5  OXE d   1       0.741   1.177   0.660  0.00  0.00    -0.002 A 
ATOM      8  C6  OXE d   1       0.207  -0.031   0.227  0.00  0.00     0.003 A 
ENDROOT
TORSDOF 0
ENDMDL
