MODEL 1
REMARK minimizedAffinity -0.162650868
REMARK minimizedRMSD -1
REMARK  0 active torsions:
REMARK  status: ('A' for Active; 'I' for Inactive)
ROOT
ATOM      1  C2' OXE d   1       2.066  -0.393  -1.725  0.00  0.00     0.078 C 
ATOM      2  C1' OXE d   1       0.819   2.102  -2.037  0.00  0.00     0.078 C 
ATOM      3  C1  OXE d   1       0.104   1.055  -1.220  0.00  0.00    -0.078 A 
ATOM      4  C2  OXE d   1       0.700  -0.178  -1.111  0.00  0.00    -0.078 A 
ATOM      5  C3  OXE d   1       0.109  -1.162  -0.323  0.00  0.00     0.003 A 
ATOM      6  C4  OXE d   1      -1.159  -0.958   0.233  0.00  0.00    -0.002 A 
ATOM      7  C5  OXE d   1      -1.802   0.277   0.101  0.00  0.00    -0.002 A 
ATOM      8  C6  OXE d   1      -1.166   1.307  -0.585  0.00  0.00     0.003 A 
ENDROOT
TORSDOF 0
ENDMDL
