MODEL 1
REMARK minimizedAffinity -1.699736
REMARK minimizedRMSD -1
REMARK  0 active torsions:
REMARK  status: ('A' for Active; 'I' for Inactive)
ROOT
ATOM      1  C2' OXE d   1       1.911   2.947  -0.353  0.00  0.00     0.078 C 
ATOM      2  C1' OXE d   1       2.711   0.265  -0.139  0.00  0.00     0.078 C 
ATOM      3  C1  OXE d   1       1.248   0.546  -0.370  0.00  0.00    -0.078 A 
ATOM      4  C2  OXE d   1       0.858   1.863  -0.427  0.00  0.00    -0.078 A 
ATOM      5  C3  OXE d   1      -0.472   2.177  -0.693  0.00  0.00     0.003 A 
ATOM      6  C4  OXE d   1      -1.441   1.168  -0.750  0.00  0.00    -0.002 A 
ATOM      7  C5  OXE d   1      -1.071  -0.178  -0.655  0.00  0.00    -0.002 A 
ATOM      8  C6  OXE d   1       0.272  -0.507  -0.508  0.00  0.00     0.003 A 
ENDROOT
TORSDOF 0
ENDMDL
