MODEL 1
REMARK minimizedAffinity -3.77033567
REMARK minimizedRMSD -1
REMARK  0 active torsions:
REMARK  status: ('A' for Active; 'I' for Inactive)
ROOT
ATOM      1  C2' OXE d   1      -1.438   1.010  -0.277  0.00  0.00     0.078 C 
ATOM      2  C1' OXE d   1       0.598   1.895  -1.994  0.00  0.00     0.078 C 
ATOM      3  C1  OXE d   1       0.689   0.486  -1.463  0.00  0.00    -0.078 A 
ATOM      4  C2  OXE d   1      -0.287   0.077  -0.587  0.00  0.00    -0.078 A 
ATOM      5  C3  OXE d   1      -0.282  -1.231  -0.110  0.00  0.00     0.003 A 
ATOM      6  C4  OXE d   1       0.792  -2.084  -0.393  0.00  0.00    -0.002 A 
ATOM      7  C5  OXE d   1       1.817  -1.674  -1.252  0.00  0.00    -0.002 A 
ATOM      8  C6  OXE d   1       1.758  -0.409  -1.828  0.00  0.00     0.003 A 
ENDROOT
TORSDOF 0
ENDMDL
