MODEL 1
REMARK minimizedAffinity -1.81818843
REMARK minimizedRMSD -1
REMARK  0 active torsions:
REMARK  status: ('A' for Active; 'I' for Inactive)
ROOT
ATOM      1  C2' OXE d   1      -2.290   1.233   4.371  0.00  0.00     0.078 C 
ATOM      2  C1' OXE d   1      -2.880  -1.145   3.002  0.00  0.00     0.078 C 
ATOM      3  C1  OXE d   1      -2.344   0.014   2.199  0.00  0.00    -0.078 A 
ATOM      4  C2  OXE d   1      -2.103   1.189   2.870  0.00  0.00    -0.078 A 
ATOM      5  C3  OXE d   1      -1.556   2.272   2.188  0.00  0.00     0.003 A 
ATOM      6  C4  OXE d   1      -1.395   2.226   0.797  0.00  0.00    -0.002 A 
ATOM      7  C5  OXE d   1      -1.673   1.052   0.089  0.00  0.00    -0.002 A 
ATOM      8  C6  OXE d   1      -2.107  -0.074   0.780  0.00  0.00     0.003 A 
ENDROOT
TORSDOF 0
ENDMDL
