MODEL 1
REMARK minimizedAffinity -5.06010342
REMARK minimizedRMSD -1
REMARK  0 active torsions:
REMARK  status: ('A' for Active; 'I' for Inactive)
ROOT
ATOM      1  C2' OXE d   1      -0.064   1.328  -1.420  0.00  0.00     0.078 C 
ATOM      2  C1' OXE d   1      -1.077   0.172   0.929  0.00  0.00     0.078 C 
ATOM      3  C1  OXE d   1      -0.007  -0.582   0.179  0.00  0.00    -0.078 A 
ATOM      4  C2  OXE d   1       0.450  -0.031  -0.994  0.00  0.00    -0.078 A 
ATOM      5  C3  OXE d   1       1.475  -0.658  -1.697  0.00  0.00     0.003 A 
ATOM      6  C4  OXE d   1       1.937  -1.919  -1.302  0.00  0.00    -0.002 A 
ATOM      7  C5  OXE d   1       1.457  -2.516  -0.131  0.00  0.00    -0.002 A 
ATOM      8  C6  OXE d   1       0.517  -1.843   0.642  0.00  0.00     0.003 A 
ENDROOT
TORSDOF 0
ENDMDL
