MODEL 1
REMARK minimizedAffinity -3.76252651
REMARK minimizedRMSD -1
REMARK  0 active torsions:
REMARK  status: ('A' for Active; 'I' for Inactive)
ROOT
ATOM      1  C2' OXE d   1      -0.924   0.615  -0.401  0.00  0.00     0.078 C 
ATOM      2  C1' OXE d   1       1.324   1.998  -1.357  0.00  0.00     0.078 C 
ATOM      3  C1  OXE d   1       1.488   0.537  -1.021  0.00  0.00    -0.078 A 
ATOM      4  C2  OXE d   1       0.394  -0.120  -0.509  0.00  0.00    -0.078 A 
ATOM      5  C3  OXE d   1       0.476  -1.482  -0.234  0.00  0.00     0.003 A 
ATOM      6  C4  OXE d   1       1.702  -2.153  -0.327  0.00  0.00    -0.002 A 
ATOM      7  C5  OXE d   1       2.837  -1.492  -0.808  0.00  0.00    -0.002 A 
ATOM      8  C6  OXE d   1       2.737  -0.161  -1.199  0.00  0.00     0.003 A 
ENDROOT
TORSDOF 0
ENDMDL
