MODEL 1
REMARK minimizedAffinity -4.04528379
REMARK minimizedRMSD -1
REMARK  0 active torsions:
REMARK  status: ('A' for Active; 'I' for Inactive)
ROOT
ATOM      1  C2' OXE d   1      -0.882   0.218  -0.374  0.00  0.00     0.078 C 
ATOM      2  C1' OXE d   1       0.847   1.765  -1.954  0.00  0.00     0.078 C 
ATOM      3  C1  OXE d   1       1.365   0.452  -1.423  0.00  0.00    -0.078 A 
ATOM      4  C2  OXE d   1       0.528  -0.277  -0.612  0.00  0.00    -0.078 A 
ATOM      5  C3  OXE d   1       0.936  -1.521  -0.140  0.00  0.00     0.003 A 
ATOM      6  C4  OXE d   1       2.246  -1.966  -0.357  0.00  0.00    -0.002 A 
ATOM      7  C5  OXE d   1       3.128  -1.221  -1.147  0.00  0.00    -0.002 A 
ATOM      8  C6  OXE d   1       2.690  -0.033  -1.721  0.00  0.00     0.003 A 
ENDROOT
TORSDOF 0
ENDMDL
