MODEL 1
REMARK minimizedAffinity -5.81415749
REMARK minimizedRMSD -1
REMARK  0 active torsions:
REMARK  status: ('A' for Active; 'I' for Inactive)
ROOT
ATOM      1  C2' OXE d   1       1.160   2.827  -2.494  0.00  0.00     0.078 C 
ATOM      2  C1' OXE d   1      -0.765   1.399  -1.034  0.00  0.00     0.078 C 
ATOM      3  C1  OXE d   1       0.577   0.747  -1.253  0.00  0.00    -0.078 A 
ATOM      4  C2  OXE d   1       1.497   1.434  -2.009  0.00  0.00    -0.078 A 
ATOM      5  C3  OXE d   1       2.770   0.902  -2.195  0.00  0.00     0.003 A 
ATOM      6  C4  OXE d   1       3.070  -0.391  -1.751  0.00  0.00    -0.002 A 
ATOM      7  C5  OXE d   1       2.134  -1.124  -1.014  0.00  0.00    -0.002 A 
ATOM      8  C6  OXE d   1       0.901  -0.553  -0.720  0.00  0.00     0.003 A 
ENDROOT
TORSDOF 0
ENDMDL
