MODEL 1
REMARK minimizedAffinity -3.98304653
REMARK minimizedRMSD -1
REMARK  0 active torsions:
REMARK  status: ('A' for Active; 'I' for Inactive)
ROOT
ATOM      1  C2' OXE d   1      -0.806  -1.393   0.667  0.00  0.00     0.078 C 
ATOM      2  C1' OXE d   1      -2.857  -1.649   2.566  0.00  0.00     0.078 C 
ATOM      3  C1  OXE d   1      -2.356  -0.261   2.255  0.00  0.00    -0.078 A 
ATOM      4  C2  OXE d   1      -1.320  -0.149   1.359  0.00  0.00    -0.078 A 
ATOM      5  C3  OXE d   1      -0.856   1.112   0.996  0.00  0.00     0.003 A 
ATOM      6  C4  OXE d   1      -1.329   2.257   1.649  0.00  0.00    -0.002 A 
ATOM      7  C5  OXE d   1      -2.356   2.162   2.594  0.00  0.00    -0.002 A 
ATOM      8  C6  OXE d   1      -2.909   0.917   2.877  0.00  0.00     0.003 A 
ENDROOT
TORSDOF 0
ENDMDL
