MODEL 1
REMARK minimizedAffinity 5.89314461
REMARK minimizedRMSD -1
REMARK  0 active torsions:
REMARK  status: ('A' for Active; 'I' for Inactive)
ROOT
ATOM      1  C2' OXE d   1      -2.012  -1.458   4.083  0.00  0.00     0.078 C 
ATOM      2  C1' OXE d   1      -1.992  -0.655   1.393  0.00  0.00     0.078 C 
ATOM      3  C1  OXE d   1      -1.665   0.381   2.439  0.00  0.00    -0.078 A 
ATOM      4  C2  OXE d   1      -1.723  -0.009   3.755  0.00  0.00    -0.078 A 
ATOM      5  C3  OXE d   1      -1.377   0.893   4.758  0.00  0.00     0.003 A 
ATOM      6  C4  OXE d   1      -1.121   2.234   4.447  0.00  0.00    -0.002 A 
ATOM      7  C5  OXE d   1      -1.096   2.662   3.115  0.00  0.00    -0.002 A 
ATOM      8  C6  OXE d   1      -1.324   1.740   2.099  0.00  0.00     0.003 A 
ENDROOT
TORSDOF 0
ENDMDL
