MODEL 1
REMARK minimizedAffinity -5.94499063
REMARK minimizedRMSD -1
REMARK  0 active torsions:
REMARK  status: ('A' for Active; 'I' for Inactive)
ROOT
ATOM      1  C2' OXE d   1       4.291   0.678  -2.596  0.00  0.00     0.078 C 
ATOM      2  C1' OXE d   1       1.962   2.232  -2.793  0.00  0.00     0.078 C 
ATOM      3  C1  OXE d   1       1.887   0.950  -2.001  0.00  0.00    -0.078 A 
ATOM      4  C2  OXE d   1       3.019   0.173  -1.949  0.00  0.00    -0.078 A 
ATOM      5  C3  OXE d   1       3.021  -0.992  -1.187  0.00  0.00     0.003 A 
ATOM      6  C4  OXE d   1       1.838  -1.457  -0.600  0.00  0.00    -0.002 A 
ATOM      7  C5  OXE d   1       0.664  -0.700  -0.675  0.00  0.00    -0.002 A 
ATOM      8  C6  OXE d   1       0.682   0.524  -1.334  0.00  0.00     0.003 A 
ENDROOT
TORSDOF 0
ENDMDL
