MODEL 1
REMARK minimizedAffinity -5.53668165
REMARK minimizedRMSD -1
REMARK  0 active torsions:
REMARK  status: ('A' for Active; 'I' for Inactive)
ROOT
ATOM      1  C2' OXE d   1      -1.320  -0.656   1.302  0.00  0.00     0.078 C 
ATOM      2  C1' OXE d   1      -2.299   1.830   2.163  0.00  0.00     0.078 C 
ATOM      3  C1  OXE d   1      -2.901   0.588   2.771  0.00  0.00    -0.078 A 
ATOM      4  C2  OXE d   1      -2.449  -0.625   2.310  0.00  0.00    -0.078 A 
ATOM      5  C3  OXE d   1      -2.932  -1.801   2.876  0.00  0.00     0.003 A 
ATOM      6  C4  OXE d   1      -3.983  -1.764   3.800  0.00  0.00    -0.002 A 
ATOM      7  C5  OXE d   1      -4.485  -0.540   4.254  0.00  0.00    -0.002 A 
ATOM      8  C6  OXE d   1      -3.928   0.643   3.783  0.00  0.00     0.003 A 
ENDROOT
TORSDOF 0
ENDMDL
