MODEL 1
REMARK minimizedAffinity -0.603779674
REMARK minimizedRMSD -1
REMARK  0 active torsions:
REMARK  status: ('A' for Active; 'I' for Inactive)
ROOT
ATOM      1  C2' OXE d   1      -0.993   0.586   0.860  0.00  0.00     0.078 C 
ATOM      2  C1' OXE d   1      -1.708   2.433   2.849  0.00  0.00     0.078 C 
ATOM      3  C1  OXE d   1      -2.027   0.979   3.092  0.00  0.00    -0.078 A 
ATOM      4  C2  OXE d   1      -1.715   0.088   2.093  0.00  0.00    -0.078 A 
ATOM      5  C3  OXE d   1      -1.938  -1.272   2.287  0.00  0.00     0.003 A 
ATOM      6  C4  OXE d   1      -2.616  -1.723   3.426  0.00  0.00    -0.002 A 
ATOM      7  C5  OXE d   1      -2.978  -0.828   4.439  0.00  0.00    -0.002 A 
ATOM      8  C6  OXE d   1      -2.653   0.518   4.306  0.00  0.00     0.003 A 
ENDROOT
TORSDOF 0
ENDMDL
