MODEL 1
REMARK minimizedAffinity 0.18190144
REMARK minimizedRMSD -1
REMARK  0 active torsions:
REMARK  status: ('A' for Active; 'I' for Inactive)
ROOT
ATOM      1  C2' OXE d   1       1.432   0.596  -3.634  0.00  0.00     0.078 C 
ATOM      2  C1' OXE d   1      -0.501   1.775  -1.975  0.00  0.00     0.078 C 
ATOM      3  C1  OXE d   1       0.044   0.428  -1.573  0.00  0.00    -0.078 A 
ATOM      4  C2  OXE d   1       0.955  -0.163  -2.415  0.00  0.00    -0.078 A 
ATOM      5  C3  OXE d   1       1.531  -1.381  -2.063  0.00  0.00     0.003 A 
ATOM      6  C4  OXE d   1       1.077  -2.081  -0.939  0.00  0.00    -0.002 A 
ATOM      7  C5  OXE d   1       0.120  -1.515  -0.089  0.00  0.00    -0.002 A 
ATOM      8  C6  OXE d   1      -0.374  -0.245  -0.368  0.00  0.00     0.003 A 
ENDROOT
TORSDOF 0
ENDMDL
