MODEL 1
REMARK minimizedAffinity -4.88663101
REMARK minimizedRMSD -1
REMARK  0 active torsions:
REMARK  status: ('A' for Active; 'I' for Inactive)
ROOT
ATOM      1  C2' OXE d   1      -2.709   1.345   3.831  0.00  0.00     0.078 C 
ATOM      2  C1' OXE d   1      -2.684  -1.442   3.500  0.00  0.00     0.078 C 
ATOM      3  C1  OXE d   1      -2.153  -0.594   2.371  0.00  0.00    -0.078 A 
ATOM      4  C2  OXE d   1      -2.213   0.770   2.523  0.00  0.00    -0.078 A 
ATOM      5  C3  OXE d   1      -1.686   1.597   1.534  0.00  0.00     0.003 A 
ATOM      6  C4  OXE d   1      -1.238   1.057   0.323  0.00  0.00    -0.002 A 
ATOM      7  C5  OXE d   1      -1.206  -0.328   0.132  0.00  0.00    -0.002 A 
ATOM      8  C6  OXE d   1      -1.620  -1.168   1.160  0.00  0.00     0.003 A 
ENDROOT
TORSDOF 0
ENDMDL
