MODEL 1
REMARK minimizedAffinity -5.97688627
REMARK minimizedRMSD -1
REMARK  2 active torsions:
REMARK  status: ('A' for Active; 'I' for Inactive)
REMARK    1  A    between atoms: C1_2  and  C2_3 
REMARK    2  A    between atoms: C2_3  and  C3_4 
ROOT
ATOM      1  C3  UNL d   1       0.167   0.143  -0.000  0.00  0.00    -0.075 A 
ATOM      2  C4  UNL d   1      -1.204   0.365  -0.189  0.00  0.00     0.002 A 
ATOM      3  C5  UNL d   1      -1.955   1.026   0.783  0.00  0.00     0.002 A 
ATOM      4  C6  UNL d   1      -1.348   1.463   1.959  0.00  0.00    -0.004 A 
ATOM      5  C7  UNL d   1       0.010   1.233   2.164  0.00  0.00     0.002 A 
ATOM      6  C8  UNL d   1       0.765   0.576   1.191  0.00  0.00     0.002 A 
ENDROOT
BRANCH   1   7
ATOM      7  C2  UNL d   1       0.992  -0.546  -1.062  0.00  0.00     0.056 C 
BRANCH   7   8
ATOM      8  C1  UNL d   1       1.424   0.373  -2.209  0.00  0.00     0.007 C 
ATOM      9  C   UNL d   1       0.466   0.347  -3.393  0.00  0.00     0.009 C 
ENDBRANCH   7   8
ENDBRANCH   1   7
TORSDOF 2
ENDMDL
