MODEL 1
REMARK minimizedAffinity -5.1315155
REMARK minimizedRMSD -1
REMARK  2 active torsions:
REMARK  status: ('A' for Active; 'I' for Inactive)
REMARK    1  A    between atoms: C1_2  and  C2_3 
REMARK    2  A    between atoms: C2_3  and  C3_4 
ROOT
ATOM      1  C3  UNL d   1      -0.045  -0.184  -0.370  0.00  0.00    -0.075 A 
ATOM      2  C4  UNL d   1      -1.390  -0.413  -0.046  0.00  0.00     0.002 A 
ATOM      3  C5  UNL d   1      -1.964   0.198   1.070  0.00  0.00     0.002 A 
ATOM      4  C6  UNL d   1      -1.199   1.035   1.879  0.00  0.00    -0.004 A 
ATOM      5  C7  UNL d   1       0.143   1.257   1.576  0.00  0.00     0.002 A 
ATOM      6  C8  UNL d   1       0.718   0.650   0.457  0.00  0.00     0.002 A 
ENDROOT
BRANCH   1   7
ATOM      7  C2  UNL d   1       0.573  -0.819  -1.593  0.00  0.00     0.056 C 
BRANCH   7   8
ATOM      8  C1  UNL d   1       0.562   0.078  -2.835  0.00  0.00     0.007 C 
ATOM      9  C   UNL d   1       1.956   0.475  -3.302  0.00  0.00     0.009 C 
ENDBRANCH   7   8
ENDBRANCH   1   7
TORSDOF 2
ENDMDL
