MODEL 1
REMARK minimizedAffinity -3.47482848
REMARK minimizedRMSD -1
REMARK  2 active torsions:
REMARK  status: ('A' for Active; 'I' for Inactive)
REMARK    1  A    between atoms: C1_2  and  C2_3 
REMARK    2  A    between atoms: C2_3  and  C3_4 
ROOT
ATOM      1  C3  UNL d   1      -0.288   0.158   0.029  0.00  0.00    -0.075 A 
ATOM      2  C4  UNL d   1      -1.501  -0.120   0.675  0.00  0.00     0.002 A 
ATOM      3  C5  UNL d   1      -1.781   0.434   1.925  0.00  0.00     0.002 A 
ATOM      4  C6  UNL d   1      -0.850   1.262   2.548  0.00  0.00    -0.004 A 
ATOM      5  C7  UNL d   1       0.366   1.532   1.922  0.00  0.00     0.002 A 
ATOM      6  C8  UNL d   1       0.646   0.983   0.669  0.00  0.00     0.002 A 
ENDROOT
BRANCH   1   7
ATOM      7  C2  UNL d   1       0.009  -0.414  -1.337  0.00  0.00     0.056 C 
BRANCH   7   8
ATOM      8  C1  UNL d   1       0.781   0.537  -2.257  0.00  0.00     0.007 C 
ATOM      9  C   UNL d   1       0.405   0.389  -3.726  0.00  0.00     0.009 C 
ENDBRANCH   7   8
ENDBRANCH   1   7
TORSDOF 2
ENDMDL
