MODEL 1
REMARK minimizedAffinity -4.00167561
REMARK minimizedRMSD -1
REMARK  2 active torsions:
REMARK  status: ('A' for Active; 'I' for Inactive)
REMARK    1  A    between atoms: C1_2  and  C2_3 
REMARK    2  A    between atoms: C2_3  and  C3_4 
ROOT
ATOM      1  C3  UNL d   1      -0.287  -0.020  -0.018  0.00  0.00    -0.075 A 
ATOM      2  C4  UNL d   1       0.728   0.660   0.670  0.00  0.00     0.002 A 
ATOM      3  C5  UNL d   1       0.513   1.132   1.965  0.00  0.00     0.002 A 
ATOM      4  C6  UNL d   1      -0.720   0.940   2.584  0.00  0.00    -0.004 A 
ATOM      5  C7  UNL d   1      -1.741   0.280   1.904  0.00  0.00     0.002 A 
ATOM      6  C8  UNL d   1      -1.528  -0.197   0.610  0.00  0.00     0.002 A 
ENDROOT
BRANCH   1   7
ATOM      7  C2  UNL d   1      -0.052  -0.559  -1.409  0.00  0.00     0.056 C 
BRANCH   7   8
ATOM      8  C1  UNL d   1       0.915   0.283  -2.248  0.00  0.00     0.007 C 
ATOM      9  C   UNL d   1       0.591   0.263  -3.736  0.00  0.00     0.009 C 
ENDBRANCH   7   8
ENDBRANCH   1   7
TORSDOF 2
ENDMDL
