MODEL 1
REMARK minimizedAffinity 0.672315061
REMARK minimizedRMSD -1
REMARK  1 active torsions:
REMARK  status: ('A' for Active; 'I' for Inactive)
REMARK    1  A    between atoms: C3_4  and  O_7 
ROOT
ATOM      1  C   UNL d   1       3.549  -5.873  -5.978  0.00  0.00    -0.033 A 
ATOM      2  C1  UNL d   1       2.465  -5.794  -5.101  0.00  0.00     0.039 A 
ATOM      3  C2  UNL d   1       2.678  -5.816  -3.721  0.00  0.00    -0.080 A 
ATOM      4  C3  UNL d   1       3.977  -5.915  -3.232  0.00  0.00     0.150 A 
ATOM      5  C4  UNL d   1       5.062  -5.990  -4.100  0.00  0.00    -0.007 A 
ATOM      6  C5  UNL d   1       4.847  -5.970  -5.477  0.00  0.00     0.039 A 
ENDROOT
BRANCH   4   7
ATOM      7  O   UNL d   1       4.234  -5.945  -1.894  0.00  0.00    -0.526 OA
ATOM      8  H5  UNL d   1       3.388  -5.914  -1.417  0.00  0.00     0.418 HD
ENDBRANCH   4   7
TORSDOF 1
ENDMDL
