MODEL 1
REMARK minimizedAffinity -0.394010961
REMARK minimizedRMSD -1
REMARK  1 active torsions:
REMARK  status: ('A' for Active; 'I' for Inactive)
REMARK    1  A    between atoms: C3_4  and  O_7 
ROOT
ATOM      1  C   UNL d   1       2.856  -4.515   4.375  0.00  0.00    -0.033 A 
ATOM      2  C1  UNL d   1       1.560  -4.219   3.949  0.00  0.00     0.039 A 
ATOM      3  C2  UNL d   1       1.245  -2.933   3.506  0.00  0.00    -0.080 A 
ATOM      4  C3  UNL d   1       2.234  -1.953   3.494  0.00  0.00     0.150 A 
ATOM      5  C4  UNL d   1       3.528  -2.242   3.914  0.00  0.00    -0.007 A 
ATOM      6  C5  UNL d   1       3.840  -3.527   4.356  0.00  0.00     0.039 A 
ENDROOT
BRANCH   4   7
ATOM      7  O   UNL d   1       1.973  -0.683   3.076  0.00  0.00    -0.526 OA
ATOM      8  H5  UNL d   1       1.031  -0.622   2.843  0.00  0.00     0.418 HD
ENDBRANCH   4   7
TORSDOF 1
ENDMDL
