MODEL 1
REMARK minimizedAffinity 5.7771678
REMARK minimizedRMSD -1
REMARK  1 active torsions:
REMARK  status: ('A' for Active; 'I' for Inactive)
REMARK    1  A    between atoms: C3_4  and  O_7 
ROOT
ATOM      1  C   UNL d   1       2.922   2.407   1.829  0.00  0.00    -0.033 A 
ATOM      2  C1  UNL d   1       2.656   1.390   0.909  0.00  0.00     0.039 A 
ATOM      3  C2  UNL d   1       2.305   0.115   1.357  0.00  0.00    -0.080 A 
ATOM      4  C3  UNL d   1       2.223  -0.130   2.725  0.00  0.00     0.150 A 
ATOM      5  C4  UNL d   1       2.483   0.879   3.647  0.00  0.00    -0.007 A 
ATOM      6  C5  UNL d   1       2.834   2.151   3.198  0.00  0.00     0.039 A 
ENDROOT
BRANCH   4   7
ATOM      7  O   UNL d   1       1.889  -1.359   3.210  0.00  0.00    -0.526 OA
ATOM      8  H5  UNL d   1       1.766  -1.963   2.459  0.00  0.00     0.418 HD
ENDBRANCH   4   7
TORSDOF 1
ENDMDL
