MODEL 1
REMARK minimizedAffinity -2.6340332
REMARK minimizedRMSD -1
REMARK  1 active torsions:
REMARK  status: ('A' for Active; 'I' for Inactive)
REMARK    1  A    between atoms: C3_4  and  O_7 
ROOT
ATOM      1  C   UNL d   1       3.052  -6.000  -1.918  0.00  0.00    -0.033 A 
ATOM      2  C1  UNL d   1       4.136  -5.999  -2.798  0.00  0.00     0.039 A 
ATOM      3  C2  UNL d   1       3.918  -5.996  -4.177  0.00  0.00    -0.080 A 
ATOM      4  C3  UNL d   1       2.613  -5.993  -4.662  0.00  0.00     0.150 A 
ATOM      5  C4  UNL d   1       1.529  -5.989  -3.791  0.00  0.00    -0.007 A 
ATOM      6  C5  UNL d   1       1.749  -5.993  -2.414  0.00  0.00     0.039 A 
ENDROOT
BRANCH   4   7
ATOM      7  O   UNL d   1       2.350  -5.994  -6.000  0.00  0.00    -0.526 OA
ATOM      8  H5  UNL d   1       3.195  -6.026  -6.479  0.00  0.00     0.418 HD
ENDBRANCH   4   7
TORSDOF 1
ENDMDL
