MODEL 1
REMARK minimizedAffinity -3.01073313
REMARK minimizedRMSD -1
REMARK  1 active torsions:
REMARK  status: ('A' for Active; 'I' for Inactive)
REMARK    1  A    between atoms: C3_4  and  O_7 
ROOT
ATOM      1  C   UNL d   1       3.141  -5.999  -5.897  0.00  0.00    -0.033 A 
ATOM      2  C1  UNL d   1       2.434  -6.000  -4.693  0.00  0.00     0.039 A 
ATOM      3  C2  UNL d   1       3.122  -5.995  -3.478  0.00  0.00    -0.080 A 
ATOM      4  C3  UNL d   1       4.514  -5.988  -3.481  0.00  0.00     0.150 A 
ATOM      5  C4  UNL d   1       5.224  -5.983  -4.676  0.00  0.00    -0.007 A 
ATOM      6  C5  UNL d   1       4.536  -5.989  -5.889  0.00  0.00     0.039 A 
ENDROOT
BRANCH   4   7
ATOM      7  O   UNL d   1       5.229  -5.988  -2.320  0.00  0.00    -0.526 OA
ATOM      8  H5  UNL d   1       4.606  -6.021  -1.575  0.00  0.00     0.418 HD
ENDBRANCH   4   7
TORSDOF 1
ENDMDL
