MODEL 1
REMARK minimizedAffinity 5.78815794
REMARK minimizedRMSD -1
REMARK  1 active torsions:
REMARK  status: ('A' for Active; 'I' for Inactive)
REMARK    1  A    between atoms: C3_4  and  O_7 
ROOT
ATOM      1  C   UNL d   1       1.716  -2.113   3.423  0.00  0.00    -0.033 A 
ATOM      2  C1  UNL d   1       0.972  -1.540   2.390  0.00  0.00     0.039 A 
ATOM      3  C2  UNL d   1       1.419  -0.371   1.771  0.00  0.00    -0.080 A 
ATOM      4  C3  UNL d   1       2.610   0.213   2.193  0.00  0.00     0.150 A 
ATOM      5  C4  UNL d   1       3.359  -0.355   3.218  0.00  0.00    -0.007 A 
ATOM      6  C5  UNL d   1       2.910  -1.522   3.836  0.00  0.00     0.039 A 
ENDROOT
BRANCH   4   7
ATOM      7  O   UNL d   1       3.084   1.357   1.622  0.00  0.00    -0.526 OA
ATOM      8  H5  UNL d   1       2.449   1.650   0.948  0.00  0.00     0.418 HD
ENDBRANCH   4   7
TORSDOF 1
ENDMDL
