MODEL 1
REMARK minimizedAffinity 12.7542601
REMARK minimizedRMSD -1
REMARK  0 active torsions:
REMARK  status: ('A' for Active; 'I' for Inactive)
ROOT
ATOM      1  C1  DEN d   1       0.421  -0.628  -5.989  0.00  0.00     0.130 A 
ATOM      2  C2  DEN d   1      -0.461  -1.333  -5.063  0.00  0.00    -0.031 A 
ATOM      3  C3  DEN d   1       0.366  -1.868  -3.963  0.00  0.00     0.027 A 
ATOM      4  C4  DEN d   1       2.912  -1.670  -3.603  0.00  0.00     0.027 A 
ATOM      5  C5  DEN d   1       4.085  -1.174  -4.128  0.00  0.00    -0.003 A 
ATOM      6  C6  DEN d   1       4.123  -0.497  -5.318  0.00  0.00     0.001 A 
ATOM      7  C7  DEN d   1       2.959  -0.257  -6.000  0.00  0.00     0.017 A 
ATOM      8  C8  DEN d   1       1.774  -0.760  -5.480  0.00  0.00    -0.094 A 
ATOM      9  C9  DEN d   1       1.755  -1.432  -4.270  0.00  0.00    -0.072 A 
ENDROOT
TORSDOF 0
ENDMDL
