MODEL 1
REMARK minimizedAffinity 7.98954439
REMARK minimizedRMSD -1
REMARK  0 active torsions:
REMARK  status: ('A' for Active; 'I' for Inactive)
ROOT
ATOM      1  C1  DEN d   1      -1.342  -1.756   4.029  0.00  0.00     0.130 A 
ATOM      2  C2  DEN d   1      -2.031  -1.901   2.750  0.00  0.00    -0.031 A 
ATOM      3  C3  DEN d   1      -1.012  -1.907   1.681  0.00  0.00     0.027 A 
ATOM      4  C4  DEN d   1       1.552  -1.713   1.882  0.00  0.00     0.027 A 
ATOM      5  C5  DEN d   1       2.601  -1.561   2.763  0.00  0.00    -0.003 A 
ATOM      6  C6  DEN d   1       2.408  -1.430   4.112  0.00  0.00     0.001 A 
ATOM      7  C7  DEN d   1       1.140  -1.494   4.626  0.00  0.00     0.017 A 
ATOM      8  C8  DEN d   1       0.077  -1.640   3.744  0.00  0.00    -0.094 A 
ATOM      9  C9  DEN d   1       0.293  -1.783   2.384  0.00  0.00    -0.072 A 
ENDROOT
TORSDOF 0
ENDMDL
