MODEL 1
REMARK minimizedAffinity 6.79114676
REMARK minimizedRMSD -1
REMARK  0 active torsions:
REMARK  status: ('A' for Active; 'I' for Inactive)
ROOT
ATOM      1  C1  DEN d   1       1.499  -1.754   5.997  0.00  0.00     0.130 A 
ATOM      2  C2  DEN d   1       2.897  -1.333   6.000  0.00  0.00    -0.031 A 
ATOM      3  C3  DEN d   1       3.319  -1.141   4.598  0.00  0.00     0.027 A 
ATOM      4  C4  DEN d   1       1.948  -1.447   2.435  0.00  0.00     0.027 A 
ATOM      5  C5  DEN d   1       0.719  -1.805   1.926  0.00  0.00    -0.003 A 
ATOM      6  C6  DEN d   1      -0.317  -2.200   2.729  0.00  0.00     0.001 A 
ATOM      7  C7  DEN d   1      -0.158  -2.204   4.090  0.00  0.00     0.017 A 
ATOM      8  C8  DEN d   1       1.081  -1.852   4.610  0.00  0.00    -0.094 A 
ATOM      9  C9  DEN d   1       2.112  -1.443   3.782  0.00  0.00    -0.072 A 
ENDROOT
TORSDOF 0
ENDMDL
