MODEL 1
REMARK minimizedAffinity 1.61010206
REMARK minimizedRMSD -1
REMARK  0 active torsions:
REMARK  status: ('A' for Active; 'I' for Inactive)
ROOT
ATOM      1  C1  DEN d   1      -2.030  -0.642   2.168  0.00  0.00     0.130 A 
ATOM      2  C2  DEN d   1      -2.281  -2.065   2.379  0.00  0.00    -0.031 A 
ATOM      3  C3  DEN d   1      -1.015  -2.694   2.806  0.00  0.00     0.027 A 
ATOM      4  C4  DEN d   1       1.296  -1.608   3.165  0.00  0.00     0.027 A 
ATOM      5  C5  DEN d   1       2.004  -0.428   3.100  0.00  0.00    -0.003 A 
ATOM      6  C6  DEN d   1       1.431   0.747   2.691  0.00  0.00     0.001 A 
ATOM      7  C7  DEN d   1       0.098   0.777   2.374  0.00  0.00     0.017 A 
ATOM      8  C8  DEN d   1      -0.620  -0.410   2.429  0.00  0.00    -0.094 A 
ATOM      9  C9  DEN d   1      -0.025  -1.585   2.857  0.00  0.00    -0.072 A 
ENDROOT
TORSDOF 0
ENDMDL
