MODEL 1
REMARK minimizedAffinity 4.96127081
REMARK minimizedRMSD -1
REMARK  0 active torsions:
REMARK  status: ('A' for Active; 'I' for Inactive)
ROOT
ATOM      1  C1  DEN d   1       1.498   0.041  -6.000  0.00  0.00     0.130 A 
ATOM      2  C2  DEN d   1       0.597  -0.622  -5.060  0.00  0.00    -0.031 A 
ATOM      3  C3  DEN d   1       1.407  -1.135  -3.937  0.00  0.00     0.027 A 
ATOM      4  C4  DEN d   1       3.953  -0.964  -3.561  0.00  0.00     0.027 A 
ATOM      5  C5  DEN d   1       5.137  -0.502  -4.091  0.00  0.00    -0.003 A 
ATOM      6  C6  DEN d   1       5.196   0.138  -5.300  0.00  0.00     0.001 A 
ATOM      7  C7  DEN d   1       4.042   0.374  -6.000  0.00  0.00     0.017 A 
ATOM      8  C8  DEN d   1       2.845  -0.095  -5.475  0.00  0.00    -0.094 A 
ATOM      9  C9  DEN d   1       2.805  -0.729  -4.245  0.00  0.00    -0.072 A 
ENDROOT
TORSDOF 0
ENDMDL
