MODEL 1
REMARK minimizedAffinity 7.08368874
REMARK minimizedRMSD -1
REMARK  0 active torsions:
REMARK  status: ('A' for Active; 'I' for Inactive)
ROOT
ATOM      1  C   UNL d   1       5.213  -0.024   5.815  0.00  0.00    -0.002 A 
ATOM      2  C1  UNL d   1       3.847   0.070   5.593  0.00  0.00     0.010 A 
ATOM      3  C2  UNL d   1       3.236   1.316   5.442  0.00  0.00     0.041 A 
ATOM      4  C3  UNL d   1       4.029   2.478   5.517  0.00  0.00    -0.075 A 
ATOM      5  S   UNL d   1       3.498   4.111   5.362  0.00  0.00     0.015 SA
ATOM      6  C4  UNL d   1       5.073   4.722   5.586  0.00  0.00     0.022 A 
ATOM      7  C5  UNL d   1       5.994   3.719   5.777  0.00  0.00     0.026 A 
ATOM      8  C6  UNL d   1       5.407   2.409   5.740  0.00  0.00    -0.082 A 
ATOM      9  C7  UNL d   1       5.997   1.130   5.889  0.00  0.00     0.045 A 
ENDROOT
TORSDOF 0
ENDMDL
