MODEL 1
REMARK minimizedAffinity 4.43942118
REMARK minimizedRMSD -1
REMARK  0 active torsions:
REMARK  status: ('A' for Active; 'I' for Inactive)
ROOT
ATOM      1  C   UNL d   1      -1.128  -2.285   3.221  0.00  0.00    -0.002 A 
ATOM      2  C1  UNL d   1      -0.613  -3.562   3.049  0.00  0.00     0.010 A 
ATOM      3  C2  UNL d   1      -0.540  -4.134   1.777  0.00  0.00     0.041 A 
ATOM      4  C3  UNL d   1      -0.997  -3.392   0.670  0.00  0.00    -0.075 A 
ATOM      5  S   UNL d   1      -1.005  -3.888  -0.981  0.00  0.00     0.015 SA
ATOM      6  C4  UNL d   1      -1.692  -2.417  -1.498  0.00  0.00     0.022 A 
ATOM      7  C5  UNL d   1      -1.916  -1.557  -0.449  0.00  0.00     0.026 A 
ATOM      8  C6  UNL d   1      -1.519  -2.104   0.817  0.00  0.00    -0.082 A 
ATOM      9  C7  UNL d   1      -1.580  -1.553   2.120  0.00  0.00     0.045 A 
ENDROOT
TORSDOF 0
ENDMDL
