MODEL 1
REMARK minimizedAffinity 26.5369186
REMARK minimizedRMSD -1
REMARK  0 active torsions:
REMARK  status: ('A' for Active; 'I' for Inactive)
ROOT
ATOM      1  C   UNL d   1      -1.118  -2.442  -0.738  0.00  0.00    -0.002 A 
ATOM      2  C1  UNL d   1      -2.087  -1.459  -0.588  0.00  0.00     0.010 A 
ATOM      3  C2  UNL d   1      -2.552  -1.109   0.681  0.00  0.00     0.041 A 
ATOM      4  C3  UNL d   1      -2.020  -1.767   1.808  0.00  0.00    -0.075 A 
ATOM      5  S   UNL d   1      -2.437  -1.502   3.460  0.00  0.00     0.015 SA
ATOM      6  C4  UNL d   1      -1.338  -2.686   4.004  0.00  0.00     0.022 A 
ATOM      7  C5  UNL d   1      -0.662  -3.279   2.965  0.00  0.00     0.026 A 
ATOM      8  C6  UNL d   1      -1.043  -2.759   1.682  0.00  0.00    -0.082 A 
ATOM      9  C7  UNL d   1      -0.593  -3.092   0.381  0.00  0.00     0.045 A 
ENDROOT
TORSDOF 0
ENDMDL
