MODEL 1
REMARK minimizedAffinity 25.9459858
REMARK minimizedRMSD -1
REMARK  0 active torsions:
REMARK  status: ('A' for Active; 'I' for Inactive)
ROOT
ATOM      1  C   UNL d   1      -2.412  -5.950   4.533  0.00  0.00    -0.002 A 
ATOM      2  C1  UNL d   1      -1.534  -5.992   5.606  0.00  0.00     0.010 A 
ATOM      3  C2  UNL d   1      -0.829  -4.851   5.993  0.00  0.00     0.041 A 
ATOM      4  C3  UNL d   1      -1.024  -3.654   5.276  0.00  0.00    -0.075 A 
ATOM      5  S   UNL d   1      -0.270  -2.132   5.569  0.00  0.00     0.015 SA
ATOM      6  C4  UNL d   1      -1.097  -1.389   4.277  0.00  0.00     0.022 A 
ATOM      7  C5  UNL d   1      -1.932  -2.267   3.626  0.00  0.00     0.026 A 
ATOM      8  C6  UNL d   1      -1.904  -3.586   4.192  0.00  0.00    -0.082 A 
ATOM      9  C7  UNL d   1      -2.604  -4.761   3.824  0.00  0.00     0.045 A 
ENDROOT
TORSDOF 0
ENDMDL
