MODEL 1
REMARK minimizedAffinity 23.8404751
REMARK minimizedRMSD -1
REMARK  0 active torsions:
REMARK  status: ('A' for Active; 'I' for Inactive)
ROOT
ATOM      1  C   UNL d   1      -5.899   6.000  -0.319  0.00  0.00    -0.002 A 
ATOM      2  C1  UNL d   1      -4.781   5.997  -1.140  0.00  0.00     0.010 A 
ATOM      3  C2  UNL d   1      -3.739   5.093  -0.918  0.00  0.00     0.041 A 
ATOM      4  C3  UNL d   1      -3.843   4.183   0.152  0.00  0.00    -0.075 A 
ATOM      5  S   UNL d   1      -2.692   2.985   0.613  0.00  0.00     0.015 SA
ATOM      6  C4  UNL d   1      -3.659   2.448   1.910  0.00  0.00     0.022 A 
ATOM      7  C5  UNL d   1      -4.834   3.155   2.004  0.00  0.00     0.026 A 
ATOM      8  C6  UNL d   1      -4.960   4.166   0.992  0.00  0.00    -0.082 A 
ATOM      9  C7  UNL d   1      -5.999   5.095   0.742  0.00  0.00     0.045 A 
ENDROOT
TORSDOF 0
ENDMDL
