MODEL 1
REMARK minimizedAffinity 19.2294598
REMARK minimizedRMSD -1
REMARK  0 active torsions:
REMARK  status: ('A' for Active; 'I' for Inactive)
ROOT
ATOM      1  C   UNL d   1      -2.286   2.930  -4.085  0.00  0.00    -0.002 A 
ATOM      2  C1  UNL d   1      -2.840   2.356  -5.221  0.00  0.00     0.010 A 
ATOM      3  C2  UNL d   1      -3.993   2.893  -5.797  0.00  0.00     0.041 A 
ATOM      4  C3  UNL d   1      -4.583   4.030  -5.210  0.00  0.00    -0.075 A 
ATOM      5  S   UNL d   1      -5.996   4.860  -5.743  0.00  0.00     0.015 SA
ATOM      6  C4  UNL d   1      -5.897   5.997  -4.478  0.00  0.00     0.022 A 
ATOM      7  C5  UNL d   1      -4.818   5.764  -3.658  0.00  0.00     0.026 A 
ATOM      8  C6  UNL d   1      -4.042   4.626  -4.067  0.00  0.00    -0.082 A 
ATOM      9  C7  UNL d   1      -2.874   4.057  -3.505  0.00  0.00     0.045 A 
ENDROOT
TORSDOF 0
ENDMDL
