MODEL 1
REMARK minimizedAffinity 19.0687656
REMARK minimizedRMSD -1
REMARK  0 active torsions:
REMARK  status: ('A' for Active; 'I' for Inactive)
ROOT
ATOM      1  C   UNL d   1      -1.385  -2.633  -2.993  0.00  0.00    -0.002 A 
ATOM      2  C1  UNL d   1      -2.078  -1.622  -3.644  0.00  0.00     0.010 A 
ATOM      3  C2  UNL d   1      -3.049  -0.878  -2.971  0.00  0.00     0.041 A 
ATOM      4  C3  UNL d   1      -3.313  -1.169  -1.618  0.00  0.00    -0.075 A 
ATOM      5  S   UNL d   1      -4.457  -0.388  -0.591  0.00  0.00     0.015 SA
ATOM      6  C4  UNL d   1      -4.053  -1.377   0.736  0.00  0.00     0.022 A 
ATOM      7  C5  UNL d   1      -3.071  -2.286   0.422  0.00  0.00     0.026 A 
ATOM      8  C6  UNL d   1      -2.628  -2.181  -0.940  0.00  0.00    -0.082 A 
ATOM      9  C7  UNL d   1      -1.650  -2.918  -1.651  0.00  0.00     0.045 A 
ENDROOT
TORSDOF 0
ENDMDL
