MODEL 1
REMARK minimizedAffinity 19.3462963
REMARK minimizedRMSD -1
REMARK  0 active torsions:
REMARK  status: ('A' for Active; 'I' for Inactive)
ROOT
ATOM      1  C   UNL d   1      -3.078  -1.527   0.849  0.00  0.00    -0.002 A 
ATOM      2  C1  UNL d   1      -1.935  -1.245   1.584  0.00  0.00     0.010 A 
ATOM      3  C2  UNL d   1      -0.705  -1.073   0.946  0.00  0.00     0.041 A 
ATOM      4  C3  UNL d   1      -0.643  -1.187  -0.456  0.00  0.00    -0.075 A 
ATOM      5  S   UNL d   1       0.754  -1.015  -1.452  0.00  0.00     0.015 SA
ATOM      6  C4  UNL d   1      -0.133  -1.310  -2.877  0.00  0.00     0.022 A 
ATOM      7  C5  UNL d   1      -1.464  -1.537  -2.618  0.00  0.00     0.026 A 
ATOM      8  C6  UNL d   1      -1.780  -1.469  -1.218  0.00  0.00    -0.082 A 
ATOM      9  C7  UNL d   1      -3.012  -1.640  -0.542  0.00  0.00     0.045 A 
ENDROOT
TORSDOF 0
ENDMDL
