MODEL 1
REMARK minimizedAffinity 23.8109779
REMARK minimizedRMSD -1
REMARK  0 active torsions:
REMARK  status: ('A' for Active; 'I' for Inactive)
ROOT
ATOM      1  C   UNL d   1       1.795   0.028  -1.500  0.00  0.00    -0.002 A 
ATOM      2  C1  UNL d   1       2.336   1.283  -1.262  0.00  0.00     0.010 A 
ATOM      3  C2  UNL d   1       3.634   1.588  -1.678  0.00  0.00     0.041 A 
ATOM      4  C3  UNL d   1       4.384   0.602  -2.347  0.00  0.00    -0.075 A 
ATOM      5  S   UNL d   1       5.993   0.750  -2.949  0.00  0.00     0.015 SA
ATOM      6  C4  UNL d   1       6.000  -0.850  -3.538  0.00  0.00     0.022 A 
ATOM      7  C5  UNL d   1       4.812  -1.496  -3.289  0.00  0.00     0.026 A 
ATOM      8  C6  UNL d   1       3.861  -0.670  -2.599  0.00  0.00    -0.082 A 
ATOM      9  C7  UNL d   1       2.543  -0.948  -2.163  0.00  0.00     0.045 A 
ENDROOT
TORSDOF 0
ENDMDL
