MODEL 1
REMARK minimizedAffinity 22.6403122
REMARK minimizedRMSD -1
REMARK  0 active torsions:
REMARK  status: ('A' for Active; 'I' for Inactive)
ROOT
ATOM      1  C   UNL d   1      -3.355   2.123  -5.000  0.00  0.00    -0.002 A 
ATOM      2  C1  UNL d   1      -2.534   2.637  -4.005  0.00  0.00     0.010 A 
ATOM      3  C2  UNL d   1      -2.857   3.836  -3.367  0.00  0.00     0.041 A 
ATOM      4  C3  UNL d   1      -4.031   4.516  -3.747  0.00  0.00    -0.075 A 
ATOM      5  S   UNL d   1      -4.628   6.000  -3.104  0.00  0.00     0.015 SA
ATOM      6  C4  UNL d   1      -5.986   5.986  -4.133  0.00  0.00     0.022 A 
ATOM      7  C5  UNL d   1      -6.000   4.884  -4.954  0.00  0.00     0.026 A 
ATOM      8  C6  UNL d   1      -4.874   4.018  -4.745  0.00  0.00    -0.082 A 
ATOM      9  C7  UNL d   1      -4.518   2.801  -5.374  0.00  0.00     0.045 A 
ENDROOT
TORSDOF 0
ENDMDL
