MODEL 1
REMARK minimizedAffinity 18.8806877
REMARK minimizedRMSD -1
REMARK  0 active torsions:
REMARK  status: ('A' for Active; 'I' for Inactive)
ROOT
ATOM      1  C   UNL d   1      -1.807  -2.725   1.138  0.00  0.00    -0.002 A 
ATOM      2  C1  UNL d   1      -2.480  -1.514   1.048  0.00  0.00     0.010 A 
ATOM      3  C2  UNL d   1      -2.693  -0.911  -0.193  0.00  0.00     0.041 A 
ATOM      4  C3  UNL d   1      -2.217  -1.553  -1.354  0.00  0.00    -0.075 A 
ATOM      5  S   UNL d   1      -2.364  -1.001  -2.981  0.00  0.00     0.015 SA
ATOM      6  C4  UNL d   1      -1.538  -2.360  -3.594  0.00  0.00     0.022 A 
ATOM      7  C5  UNL d   1      -1.152  -3.223  -2.596  0.00  0.00     0.026 A 
ATOM      8  C6  UNL d   1      -1.538  -2.772  -1.288  0.00  0.00    -0.082 A 
ATOM      9  C7  UNL d   1      -1.336  -3.358  -0.015  0.00  0.00     0.045 A 
ENDROOT
TORSDOF 0
ENDMDL
