MODEL 1
REMARK minimizedAffinity 15.526104
REMARK minimizedRMSD -1
REMARK  0 active torsions:
REMARK  status: ('A' for Active; 'I' for Inactive)
ROOT
ATOM      1  C   UNL d   1      -1.570  -2.441   5.987  0.00  0.00    -0.002 A 
ATOM      2  C1  UNL d   1      -2.925  -2.743   5.991  0.00  0.00     0.010 A 
ATOM      3  C2  UNL d   1      -3.880  -1.724   5.996  0.00  0.00     0.041 A 
ATOM      4  C3  UNL d   1      -3.446  -0.383   5.995  0.00  0.00    -0.075 A 
ATOM      5  S   UNL d   1      -4.434   1.029   5.999  0.00  0.00     0.015 SA
ATOM      6  C4  UNL d   1      -3.082   2.066   5.995  0.00  0.00     0.022 A 
ATOM      7  C5  UNL d   1      -1.897   1.369   5.991  0.00  0.00     0.026 A 
ATOM      8  C6  UNL d   1      -2.087  -0.054   5.990  0.00  0.00    -0.082 A 
ATOM      9  C7  UNL d   1      -1.144  -1.110   5.986  0.00  0.00     0.045 A 
ENDROOT
TORSDOF 0
ENDMDL
