MODEL 1
REMARK minimizedAffinity 13.6818304
REMARK minimizedRMSD -1
REMARK  0 active torsions:
REMARK  status: ('A' for Active; 'I' for Inactive)
ROOT
ATOM      1  C   UNL d   1      -0.907  -3.030   0.871  0.00  0.00    -0.002 A 
ATOM      2  C1  UNL d   1      -2.149  -2.476   0.596  0.00  0.00     0.010 A 
ATOM      3  C2  UNL d   1      -2.940  -1.960   1.625  0.00  0.00     0.041 A 
ATOM      4  C3  UNL d   1      -2.456  -2.010   2.947  0.00  0.00    -0.075 A 
ATOM      5  S   UNL d   1      -3.250  -1.438   4.367  0.00  0.00     0.015 SA
ATOM      6  C4  UNL d   1      -1.958  -1.915   5.371  0.00  0.00     0.022 A 
ATOM      7  C5  UNL d   1      -0.938  -2.498   4.658  0.00  0.00     0.026 A 
ATOM      8  C6  UNL d   1      -1.208  -2.561   3.249  0.00  0.00    -0.082 A 
ATOM      9  C7  UNL d   1      -0.430  -3.077   2.184  0.00  0.00     0.045 A 
ENDROOT
TORSDOF 0
ENDMDL
