MODEL 1
REMARK minimizedAffinity -2.87615919
REMARK minimizedRMSD -1
REMARK  0 active torsions:
REMARK  status: ('A' for Active; 'I' for Inactive)
ROOT
ATOM      1  C   UNL d   1      -4.337   1.268   0.330  0.00  0.00     0.077 C 
ATOM      2  C1  UNL d   1      -2.864   1.516   0.468  0.00  0.00    -0.074 A 
ATOM      3  C2  UNL d   1      -2.012   1.420  -0.637  0.00  0.00    -0.005 A 
ATOM      4  C3  UNL d   1      -0.646   1.663  -0.495  0.00  0.00     0.006 A 
ATOM      5  C4  UNL d   1      -0.119   2.003   0.751  0.00  0.00    -0.005 A 
ATOM      6  C5  UNL d   1      -0.955   2.104   1.868  0.00  0.00    -0.074 A 
ATOM      7  C6  UNL d   1      -0.406   2.478   3.212  0.00  0.00     0.077 C 
ATOM      8  C7  UNL d   1      -2.328   1.866   1.715  0.00  0.00    -0.001 A 
ENDROOT
TORSDOF 0
ENDMDL
