MODEL 1
REMARK minimizedAffinity 4.04263926
REMARK minimizedRMSD -1
REMARK  0 active torsions:
REMARK  status: ('A' for Active; 'I' for Inactive)
ROOT
ATOM      1  C   UNL d   1       2.316  -0.065  -0.606  0.00  0.00     0.077 C 
ATOM      2  C1  UNL d   1       1.648  -1.383  -0.346  0.00  0.00    -0.074 A 
ATOM      3  C2  UNL d   1       2.246  -2.341   0.480  0.00  0.00    -0.005 A 
ATOM      4  C3  UNL d   1       1.609  -3.558   0.720  0.00  0.00     0.006 A 
ATOM      5  C4  UNL d   1       0.370  -3.830   0.138  0.00  0.00    -0.005 A 
ATOM      6  C5  UNL d   1      -0.243  -2.884  -0.690  0.00  0.00    -0.074 A 
ATOM      7  C6  UNL d   1      -1.579  -3.156  -1.315  0.00  0.00     0.077 C 
ATOM      8  C7  UNL d   1       0.400  -1.660  -0.921  0.00  0.00    -0.001 A 
ENDROOT
TORSDOF 0
ENDMDL
