MODEL 1
REMARK minimizedAffinity 4.28677177
REMARK minimizedRMSD -1
REMARK  0 active torsions:
REMARK  status: ('A' for Active; 'I' for Inactive)
ROOT
ATOM      1  C   UNL d   1       5.096   3.174   3.187  0.00  0.00     0.077 C 
ATOM      2  C1  UNL d   1       3.709   2.661   2.939  0.00  0.00    -0.074 A 
ATOM      3  C2  UNL d   1       3.040   1.900   3.904  0.00  0.00    -0.005 A 
ATOM      4  C3  UNL d   1       1.747   1.438   3.662  0.00  0.00     0.006 A 
ATOM      5  C4  UNL d   1       1.110   1.730   2.455  0.00  0.00    -0.005 A 
ATOM      6  C5  UNL d   1       1.762   2.490   1.479  0.00  0.00    -0.074 A 
ATOM      7  C6  UNL d   1       1.088   2.822   0.181  0.00  0.00     0.077 C 
ATOM      8  C7  UNL d   1       3.059   2.958   1.732  0.00  0.00    -0.001 A 
ENDROOT
TORSDOF 0
ENDMDL
