MODEL 1
REMARK minimizedAffinity -1.91533601
REMARK minimizedRMSD -1
REMARK  0 active torsions:
REMARK  status: ('A' for Active; 'I' for Inactive)
ROOT
ATOM      1  C   UNL d   1       1.584   0.675   3.057  0.00  0.00     0.077 C 
ATOM      2  C1  UNL d   1       0.705   1.396   2.079  0.00  0.00    -0.074 A 
ATOM      3  C2  UNL d   1       1.248   2.037   0.961  0.00  0.00    -0.005 A 
ATOM      4  C3  UNL d   1       0.417   2.695   0.055  0.00  0.00     0.006 A 
ATOM      5  C4  UNL d   1      -0.963   2.720   0.257  0.00  0.00    -0.005 A 
ATOM      6  C5  UNL d   1      -1.525   2.085   1.369  0.00  0.00    -0.074 A 
ATOM      7  C6  UNL d   1      -3.007   2.094   1.597  0.00  0.00     0.077 C 
ATOM      8  C7  UNL d   1      -0.684   1.419   2.272  0.00  0.00    -0.001 A 
ENDROOT
TORSDOF 0
ENDMDL
