MODEL 1
REMARK minimizedAffinity 2.3681252
REMARK minimizedRMSD -1
REMARK  0 active torsions:
REMARK  status: ('A' for Active; 'I' for Inactive)
ROOT
ATOM      1  C   UNL d   1       2.365   0.074  -0.247  0.00  0.00     0.077 C 
ATOM      2  C1  UNL d   1       1.385   1.046   0.340  0.00  0.00    -0.074 A 
ATOM      3  C2  UNL d   1       1.131   2.274  -0.280  0.00  0.00    -0.005 A 
ATOM      4  C3  UNL d   1       0.210   3.163   0.274  0.00  0.00     0.006 A 
ATOM      5  C4  UNL d   1      -0.464   2.835   1.450  0.00  0.00    -0.005 A 
ATOM      6  C5  UNL d   1      -0.223   1.612   2.084  0.00  0.00    -0.074 A 
ATOM      7  C6  UNL d   1      -0.947   1.240   3.344  0.00  0.00     0.077 C 
ATOM      8  C7  UNL d   1       0.698   0.720   1.518  0.00  0.00    -0.001 A 
ENDROOT
TORSDOF 0
ENDMDL
