MODEL 1
REMARK minimizedAffinity -0.453630745
REMARK minimizedRMSD -1
REMARK  0 active torsions:
REMARK  status: ('A' for Active; 'I' for Inactive)
ROOT
ATOM      1  C   UNL d   1      -5.063   0.049  -0.707  0.00  0.00     0.077 C 
ATOM      2  C1  UNL d   1      -5.033   0.792  -2.009  0.00  0.00    -0.074 A 
ATOM      3  C2  UNL d   1      -5.997   1.762  -2.305  0.00  0.00    -0.005 A 
ATOM      4  C3  UNL d   1      -5.951   2.452  -3.517  0.00  0.00     0.006 A 
ATOM      5  C4  UNL d   1      -4.943   2.180  -4.442  0.00  0.00    -0.005 A 
ATOM      6  C5  UNL d   1      -3.970   1.215  -4.163  0.00  0.00    -0.074 A 
ATOM      7  C6  UNL d   1      -2.874   0.918  -5.142  0.00  0.00     0.077 C 
ATOM      8  C7  UNL d   1      -4.019   0.531  -2.941  0.00  0.00    -0.001 A 
ENDROOT
TORSDOF 0
ENDMDL
