MODEL 1
REMARK minimizedAffinity 5.97900152
REMARK minimizedRMSD -1
REMARK  0 active torsions:
REMARK  status: ('A' for Active; 'I' for Inactive)
ROOT
ATOM      1  C   UNL d   1      -3.756   2.949   1.931  0.00  0.00     0.077 C 
ATOM      2  C1  UNL d   1      -2.299   2.603   2.021  0.00  0.00    -0.074 A 
ATOM      3  C2  UNL d   1      -1.810   1.821   3.072  0.00  0.00    -0.005 A 
ATOM      4  C3  UNL d   1      -0.454   1.500   3.137  0.00  0.00     0.006 A 
ATOM      5  C4  UNL d   1       0.424   1.957   2.154  0.00  0.00    -0.005 A 
ATOM      6  C5  UNL d   1      -0.047   2.739   1.095  0.00  0.00    -0.074 A 
ATOM      7  C6  UNL d   1       0.882   3.230   0.025  0.00  0.00     0.077 C 
ATOM      8  C7  UNL d   1      -1.412   3.052   1.033  0.00  0.00    -0.001 A 
ENDROOT
TORSDOF 0
ENDMDL
