MODEL 1
REMARK minimizedAffinity 5.02838993
REMARK minimizedRMSD -1
REMARK  0 active torsions:
REMARK  status: ('A' for Active; 'I' for Inactive)
ROOT
ATOM      1  C   UNL d   1       0.355   1.071   3.410  0.00  0.00     0.077 C 
ATOM      2  C1  UNL d   1       0.546   1.013   1.924  0.00  0.00    -0.074 A 
ATOM      3  C2  UNL d   1      -0.202   1.830   1.070  0.00  0.00    -0.005 A 
ATOM      4  C3  UNL d   1      -0.007   1.772  -0.310  0.00  0.00     0.006 A 
ATOM      5  C4  UNL d   1       0.937   0.897  -0.849  0.00  0.00    -0.005 A 
ATOM      6  C5  UNL d   1       1.694   0.072  -0.012  0.00  0.00    -0.074 A 
ATOM      7  C6  UNL d   1       2.719  -0.867  -0.575  0.00  0.00     0.077 C 
ATOM      8  C7  UNL d   1       1.497   0.142   1.374  0.00  0.00    -0.001 A 
ENDROOT
TORSDOF 0
ENDMDL
