MODEL 1
REMARK minimizedAffinity -1.31646097
REMARK minimizedRMSD -1
REMARK  2 active torsions:
REMARK  status: ('A' for Active; 'I' for Inactive)
REMARK    1  A    between atoms: C2'_3  and  C1'_4 
REMARK    2  A    between atoms: C1'_4  and  C1_5 
ROOT
ATOM      1  C1  I4B d   1       0.075  -0.747   1.348  0.00  0.00    -0.075 A 
ATOM      2  C2  I4B d   1      -0.981  -0.236   0.636  0.00  0.00     0.003 A 
ATOM      3  C3  I4B d   1      -2.309  -0.600   0.970  0.00  0.00     0.002 A 
ATOM      4  C4  I4B d   1      -2.529  -1.509   1.984  0.00  0.00    -0.004 A 
ATOM      5  C5  I4B d   1      -1.459  -2.008   2.720  0.00  0.00     0.002 A 
ATOM      6  C6  I4B d   1      -0.149  -1.615   2.409  0.00  0.00     0.003 A 
ENDROOT
BRANCH   1   7
ATOM      7  C1' I4B d   1       1.465  -0.367   0.947  0.00  0.00     0.060 C 
BRANCH   7   8
ATOM      8  C2' I4B d   1       1.857  -1.220  -0.242  0.00  0.00    -0.013 C 
ATOM      9  C4' I4B d   1       1.194  -0.734  -1.504  0.00  0.00     0.013 C 
ATOM     10  C3' I4B d   1       3.351  -1.183  -0.366  0.00  0.00     0.013 C 
ENDBRANCH   7   8
ENDBRANCH   1   7
TORSDOF 2
ENDMDL
