MODEL 1
REMARK minimizedAffinity -5.72568941
REMARK minimizedRMSD -1
REMARK  2 active torsions:
REMARK  status: ('A' for Active; 'I' for Inactive)
REMARK    1  A    between atoms: C2'_3  and  C1'_4 
REMARK    2  A    between atoms: C1'_4  and  C1_5 
ROOT
ATOM      1  C1  I4B d   1      -0.163   0.055  -0.319  0.00  0.00    -0.075 A 
ATOM      2  C2  I4B d   1      -1.293   0.022   0.460  0.00  0.00     0.003 A 
ATOM      3  C3  I4B d   1      -1.190  -0.197   1.855  0.00  0.00     0.002 A 
ATOM      4  C4  I4B d   1       0.049  -0.428   2.417  0.00  0.00    -0.004 A 
ATOM      5  C5  I4B d   1       1.195  -0.372   1.630  0.00  0.00     0.002 A 
ATOM      6  C6  I4B d   1       1.090  -0.117   0.255  0.00  0.00     0.003 A 
ENDROOT
BRANCH   1   7
ATOM      7  C1' I4B d   1      -0.311   0.257  -1.794  0.00  0.00     0.060 C 
BRANCH   7   8
ATOM      8  C2' I4B d   1      -0.501   1.738  -2.046  0.00  0.00    -0.013 C 
ATOM      9  C4' I4B d   1       0.657   2.313  -2.818  0.00  0.00     0.013 C 
ATOM     10  C3' I4B d   1      -1.791   1.920  -2.790  0.00  0.00     0.013 C 
ENDBRANCH   7   8
ENDBRANCH   1   7
TORSDOF 2
ENDMDL
