MODEL 1
REMARK minimizedAffinity -3.71716499
REMARK minimizedRMSD -1
REMARK  2 active torsions:
REMARK  status: ('A' for Active; 'I' for Inactive)
REMARK    1  A    between atoms: C2'_3  and  C1'_4 
REMARK    2  A    between atoms: C1'_4  and  C1_5 
ROOT
ATOM      1  C1  I4B d   1      -0.526  -0.211   0.932  0.00  0.00    -0.075 A 
ATOM      2  C2  I4B d   1      -1.137  -0.772   2.026  0.00  0.00     0.003 A 
ATOM      3  C3  I4B d   1      -0.368  -1.170   3.146  0.00  0.00     0.002 A 
ATOM      4  C4  I4B d   1       1.005  -1.038   3.109  0.00  0.00    -0.004 A 
ATOM      5  C5  I4B d   1       1.621  -0.448   2.009  0.00  0.00     0.002 A 
ATOM      6  C6  I4B d   1       0.850  -0.021   0.918  0.00  0.00     0.003 A 
ENDROOT
BRANCH   1   7
ATOM      7  C1' I4B d   1      -1.365   0.168  -0.247  0.00  0.00     0.060 C 
BRANCH   7   8
ATOM      8  C2' I4B d   1      -0.446   0.723  -1.315  0.00  0.00    -0.013 C 
ATOM      9  C4' I4B d   1       0.139  -0.379  -2.158  0.00  0.00     0.013 C 
ATOM     10  C3' I4B d   1      -1.236   1.684  -2.152  0.00  0.00     0.013 C 
ENDBRANCH   7   8
ENDBRANCH   1   7
TORSDOF 2
ENDMDL
