MODEL 1
REMARK minimizedAffinity -5.62030602
REMARK minimizedRMSD -1
REMARK  2 active torsions:
REMARK  status: ('A' for Active; 'I' for Inactive)
REMARK    1  A    between atoms: C2'_3  and  C1'_4 
REMARK    2  A    between atoms: C1'_4  and  C1_5 
ROOT
ATOM      1  C1  I4B d   1      -0.026   0.009  -0.275  0.00  0.00    -0.075 A 
ATOM      2  C2  I4B d   1       1.305   0.068   0.053  0.00  0.00     0.003 A 
ATOM      3  C3  I4B d   1       1.719  -0.134   1.392  0.00  0.00     0.002 A 
ATOM      4  C4  I4B d   1       0.771  -0.341   2.372  0.00  0.00    -0.004 A 
ATOM      5  C5  I4B d   1      -0.577  -0.423   2.034  0.00  0.00     0.002 A 
ATOM      6  C6  I4B d   1      -0.978  -0.259   0.700  0.00  0.00     0.003 A 
ENDROOT
BRANCH   1   7
ATOM      7  C1' I4B d   1      -0.431   0.260  -1.693  0.00  0.00     0.060 C 
BRANCH   7   8
ATOM      8  C2' I4B d   1      -0.876   1.705  -1.803  0.00  0.00    -0.013 C 
ATOM      9  C4' I4B d   1       0.237   2.581  -2.313  0.00  0.00     0.013 C 
ATOM     10  C3' I4B d   1      -2.065   1.755  -2.715  0.00  0.00     0.013 C 
ENDBRANCH   7   8
ENDBRANCH   1   7
TORSDOF 2
ENDMDL
