MODEL 1
REMARK minimizedAffinity -5.94210625
REMARK minimizedRMSD -1
REMARK  2 active torsions:
REMARK  status: ('A' for Active; 'I' for Inactive)
REMARK    1  A    between atoms: C2'_3  and  C1'_4 
REMARK    2  A    between atoms: C1'_4  and  C1_5 
ROOT
ATOM      1  C1  I4B d   1       0.316  -0.020  -0.162  0.00  0.00    -0.075 A 
ATOM      2  C2  I4B d   1      -0.709  -0.463   0.636  0.00  0.00     0.003 A 
ATOM      3  C3  I4B d   1      -0.483  -0.715   2.011  0.00  0.00     0.002 A 
ATOM      4  C4  I4B d   1       0.786  -0.561   2.532  0.00  0.00    -0.004 A 
ATOM      5  C5  I4B d   1       1.818  -0.090   1.726  0.00  0.00     0.002 A 
ATOM      6  C6  I4B d   1       1.580   0.194   0.373  0.00  0.00     0.003 A 
ENDROOT
BRANCH   1   7
ATOM      7  C1' I4B d   1       0.051   0.206  -1.617  0.00  0.00     0.060 C 
BRANCH   7   8
ATOM      8  C2' I4B d   1      -0.574   1.577  -1.770  0.00  0.00    -0.013 C 
ATOM      9  C4' I4B d   1       0.383   2.544  -2.416  0.00  0.00     0.013 C 
ATOM     10  C3' I4B d   1      -1.824   1.428  -2.584  0.00  0.00     0.013 C 
ENDBRANCH   7   8
ENDBRANCH   1   7
TORSDOF 2
ENDMDL
