MODEL 1
REMARK minimizedAffinity -1.80396807
REMARK minimizedRMSD -1
REMARK  2 active torsions:
REMARK  status: ('A' for Active; 'I' for Inactive)
REMARK    1  A    between atoms: C2'_3  and  C1'_4 
REMARK    2  A    between atoms: C1'_4  and  C1_5 
ROOT
ATOM      1  C1  I4B d   1       0.117  -0.313   0.261  0.00  0.00    -0.075 A 
ATOM      2  C2  I4B d   1       1.417  -0.188   0.684  0.00  0.00     0.003 A 
ATOM      3  C3  I4B d   1       1.746  -0.391   2.047  0.00  0.00     0.002 A 
ATOM      4  C4  I4B d   1       0.744  -0.667   2.954  0.00  0.00    -0.004 A 
ATOM      5  C5  I4B d   1      -0.570  -0.816   2.519  0.00  0.00     0.002 A 
ATOM      6  C6  I4B d   1      -0.884  -0.650   1.162  0.00  0.00     0.003 A 
ENDROOT
BRANCH   1   7
ATOM      7  C1' I4B d   1      -0.200  -0.059  -1.178  0.00  0.00     0.060 C 
BRANCH   7   8
ATOM      8  C2' I4B d   1      -1.024   1.210  -1.258  0.00  0.00    -0.013 C 
ATOM      9  C4' I4B d   1      -0.199   2.366  -1.758  0.00  0.00     0.013 C 
ATOM     10  C3' I4B d   1      -2.192   0.947  -2.161  0.00  0.00     0.013 C 
ENDBRANCH   7   8
ENDBRANCH   1   7
TORSDOF 2
ENDMDL
