MODEL 1
REMARK minimizedAffinity -4.83431005
REMARK minimizedRMSD -1
REMARK  2 active torsions:
REMARK  status: ('A' for Active; 'I' for Inactive)
REMARK    1  A    between atoms: C2'_3  and  C1'_4 
REMARK    2  A    between atoms: C1'_4  and  C1_5 
ROOT
ATOM      1  C1  I4B d   1      -0.406  -0.188  -0.180  0.00  0.00    -0.075 A 
ATOM      2  C2  I4B d   1       0.919  -0.330   0.150  0.00  0.00     0.003 A 
ATOM      3  C3  I4B d   1       1.293  -0.629   1.482  0.00  0.00     0.002 A 
ATOM      4  C4  I4B d   1       0.321  -0.728   2.456  0.00  0.00    -0.004 A 
ATOM      5  C5  I4B d   1      -1.023  -0.607   2.116  0.00  0.00     0.002 A 
ATOM      6  C6  I4B d   1      -1.390  -0.347   0.787  0.00  0.00     0.003 A 
ENDROOT
BRANCH   1   7
ATOM      7  C1' I4B d   1      -0.765   0.161  -1.589  0.00  0.00     0.060 C 
BRANCH   7   8
ATOM      8  C2' I4B d   1      -0.973   1.660  -1.661  0.00  0.00    -0.013 C 
ATOM      9  C4' I4B d   1       0.236   2.352  -2.233  0.00  0.00     0.013 C 
ATOM     10  C3' I4B d   1      -2.192   1.919  -2.496  0.00  0.00     0.013 C 
ENDBRANCH   7   8
ENDBRANCH   1   7
TORSDOF 2
ENDMDL
