MODEL 1
REMARK minimizedAffinity -2.48305607
REMARK minimizedRMSD -1
REMARK  0 active torsions:
REMARK  status: ('A' for Active; 'I' for Inactive)
ROOT
ATOM      1  C1  DEN d   1       2.392  -1.842   1.641  0.00  0.00     0.130 A 
ATOM      2  C2  DEN d   1       1.237  -2.732   1.554  0.00  0.00    -0.031 A 
ATOM      3  C3  DEN d   1       1.735  -4.117   1.442  0.00  0.00     0.027 A 
ATOM      4  C4  DEN d   1       4.170  -4.967   1.400  0.00  0.00     0.027 A 
ATOM      5  C5  DEN d   1       5.493  -4.586   1.435  0.00  0.00    -0.003 A 
ATOM      6  C6  DEN d   1       5.872  -3.271   1.506  0.00  0.00     0.001 A 
ATOM      7  C7  DEN d   1       4.917  -2.293   1.590  0.00  0.00     0.017 A 
ATOM      8  C8  DEN d   1       3.581  -2.670   1.548  0.00  0.00    -0.094 A 
ATOM      9  C9  DEN d   1       3.218  -4.004   1.489  0.00  0.00    -0.072 A 
ENDROOT
TORSDOF 0
ENDMDL
