MODEL 1
REMARK minimizedAffinity 0.92899245
REMARK minimizedRMSD -1
REMARK  0 active torsions:
REMARK  status: ('A' for Active; 'I' for Inactive)
ROOT
ATOM      1  C1  DEN d   1       0.209  -4.805   2.575  0.00  0.00     0.130 A 
ATOM      2  C2  DEN d   1       0.887  -5.916   3.239  0.00  0.00    -0.031 A 
ATOM      3  C3  DEN d   1       2.343  -5.700   3.117  0.00  0.00     0.027 A 
ATOM      4  C4  DEN d   1       3.606  -3.762   1.977  0.00  0.00     0.027 A 
ATOM      5  C5  DEN d   1       3.460  -2.591   1.267  0.00  0.00    -0.003 A 
ATOM      6  C6  DEN d   1       2.231  -2.097   0.917  0.00  0.00     0.001 A 
ATOM      7  C7  DEN d   1       1.097  -2.754   1.316  0.00  0.00     0.017 A 
ATOM      8  C8  DEN d   1       1.237  -3.940   2.025  0.00  0.00    -0.094 A 
ATOM      9  C9  DEN d   1       2.487  -4.416   2.380  0.00  0.00    -0.072 A 
ENDROOT
TORSDOF 0
ENDMDL
