MODEL 1
REMARK minimizedAffinity 5.81551647
REMARK minimizedRMSD -1
REMARK  0 active torsions:
REMARK  status: ('A' for Active; 'I' for Inactive)
ROOT
ATOM      1  C1  DEN d   1       1.793   5.998   5.991  0.00  0.00     0.130 A 
ATOM      2  C2  DEN d   1       2.772   5.680   4.956  0.00  0.00    -0.031 A 
ATOM      3  C3  DEN d   1       2.037   5.321   3.727  0.00  0.00     0.027 A 
ATOM      4  C4  DEN d   1      -0.510   5.233   3.326  0.00  0.00     0.027 A 
ATOM      5  C5  DEN d   1      -1.744   5.408   3.911  0.00  0.00    -0.003 A 
ATOM      6  C6  DEN d   1      -1.886   5.756   5.228  0.00  0.00     0.001 A 
ATOM      7  C7  DEN d   1      -0.773   5.985   5.993  0.00  0.00     0.017 A 
ATOM      8  C8  DEN d   1       0.475   5.803   5.413  0.00  0.00    -0.094 A 
ATOM      9  C9  DEN d   1       0.598   5.462   4.076  0.00  0.00    -0.072 A 
ENDROOT
TORSDOF 0
ENDMDL
