MODEL 1
REMARK minimizedAffinity -4.13869762
REMARK minimizedRMSD -1
REMARK  0 active torsions:
REMARK  status: ('A' for Active; 'I' for Inactive)
ROOT
ATOM      1  C1  DEN d   1      -2.476   3.010   6.000  0.00  0.00     0.130 A 
ATOM      2  C2  DEN d   1      -3.789   3.526   5.625  0.00  0.00    -0.031 A 
ATOM      3  C3  DEN d   1      -3.590   4.795   4.895  0.00  0.00     0.027 A 
ATOM      4  C4  DEN d   1      -1.386   6.000   4.309  0.00  0.00     0.027 A 
ATOM      5  C5  DEN d   1      -0.015   5.952   4.426  0.00  0.00    -0.003 A 
ATOM      6  C6  DEN d   1       0.625   4.946   5.100  0.00  0.00     0.001 A 
ATOM      7  C7  DEN d   1      -0.104   3.922   5.644  0.00  0.00     0.017 A 
ATOM      8  C8  DEN d   1      -1.488   3.967   5.536  0.00  0.00    -0.094 A 
ATOM      9  C9  DEN d   1      -2.116   4.987   4.841  0.00  0.00    -0.072 A 
ENDROOT
TORSDOF 0
ENDMDL
