MODEL 1
REMARK minimizedAffinity 8.34032345
REMARK minimizedRMSD -1
REMARK  0 active torsions:
REMARK  status: ('A' for Active; 'I' for Inactive)
ROOT
ATOM      1  C1  DEN d   1      -0.729   4.978   3.762  0.00  0.00     0.130 A 
ATOM      2  C2  DEN d   1      -1.513   5.496   4.880  0.00  0.00    -0.031 A 
ATOM      3  C3  DEN d   1      -0.574   5.985   5.909  0.00  0.00     0.027 A 
ATOM      4  C4  DEN d   1       2.005   5.996   5.879  0.00  0.00     0.027 A 
ATOM      5  C5  DEN d   1       3.120   5.650   5.148  0.00  0.00    -0.003 A 
ATOM      6  C6  DEN d   1       3.032   5.030   3.930  0.00  0.00     0.001 A 
ATOM      7  C7  DEN d   1       1.801   4.778   3.384  0.00  0.00     0.017 A 
ATOM      8  C8  DEN d   1       0.672   5.117   4.118  0.00  0.00    -0.094 A 
ATOM      9  C9  DEN d   1       0.782   5.754   5.342  0.00  0.00    -0.072 A 
ENDROOT
TORSDOF 0
ENDMDL
