MODEL 1
REMARK minimizedAffinity -3.66047692
REMARK minimizedRMSD -1
REMARK  0 active torsions:
REMARK  status: ('A' for Active; 'I' for Inactive)
ROOT
ATOM      1  C1  DEN d   1       2.108   4.005   4.537  0.00  0.00     0.130 A 
ATOM      2  C2  DEN d   1       1.383   5.118   5.144  0.00  0.00    -0.031 A 
ATOM      3  C3  DEN d   1       2.365   5.988   5.822  0.00  0.00     0.027 A 
ATOM      4  C4  DEN d   1       4.925   5.723   5.987  0.00  0.00     0.027 A 
ATOM      5  C5  DEN d   1       5.996   4.929   5.641  0.00  0.00    -0.003 A 
ATOM      6  C6  DEN d   1       5.844   3.764   4.937  0.00  0.00     0.001 A 
ATOM      7  C7  DEN d   1       4.597   3.382   4.518  0.00  0.00     0.017 A 
ATOM      8  C8  DEN d   1       3.511   4.173   4.870  0.00  0.00    -0.094 A 
ATOM      9  C9  DEN d   1       3.687   5.354   5.571  0.00  0.00    -0.072 A 
ENDROOT
TORSDOF 0
ENDMDL
