MODEL 1
REMARK minimizedAffinity 1.12192905
REMARK minimizedRMSD -1
REMARK  0 active torsions:
REMARK  status: ('A' for Active; 'I' for Inactive)
ROOT
ATOM      1  C1  DEN d   1      -2.698   5.885   5.868  0.00  0.00     0.130 A 
ATOM      2  C2  DEN d   1      -3.621   5.924   4.737  0.00  0.00    -0.031 A 
ATOM      3  C3  DEN d   1      -2.821   5.978   3.497  0.00  0.00     0.027 A 
ATOM      4  C4  DEN d   1      -0.257   6.000   3.219  0.00  0.00     0.027 A 
ATOM      5  C5  DEN d   1       0.945   5.991   3.892  0.00  0.00    -0.003 A 
ATOM      6  C6  DEN d   1       1.016   5.981   5.260  0.00  0.00     0.001 A 
ATOM      7  C7  DEN d   1      -0.136   5.934   5.999  0.00  0.00     0.017 A 
ATOM      8  C8  DEN d   1      -1.352   5.950   5.328  0.00  0.00    -0.094 A 
ATOM      9  C9  DEN d   1      -1.403   5.948   3.945  0.00  0.00    -0.072 A 
ENDROOT
TORSDOF 0
ENDMDL
