MODEL 1
REMARK minimizedAffinity -1.71557915
REMARK minimizedRMSD -1
REMARK  0 active torsions:
REMARK  status: ('A' for Active; 'I' for Inactive)
ROOT
ATOM      1  N1  IND d   1       1.315  -0.062   1.900  0.00  0.00    -0.196 N 
ATOM      2  C2  IND d   1       0.478  -0.030   2.981  0.00  0.00     0.054 A 
ATOM      3  C3  IND d   1      -0.812  -0.072   2.578  0.00  0.00    -0.031 A 
ATOM      4  C4  IND d   1      -1.777  -0.298   0.202  0.00  0.00     0.051 A 
ATOM      5  C5  IND d   1      -1.406  -0.326  -1.113  0.00  0.00    -0.031 A 
ATOM      6  C6  IND d   1      -0.082  -0.270  -1.499  0.00  0.00     0.015 A 
ATOM      7  C7  IND d   1       0.925  -0.194  -0.579  0.00  0.00    -0.016 A 
ATOM      8  C8  IND d   1       0.552  -0.157   0.757  0.00  0.00    -0.047 A 
ATOM      9  C9  IND d   1      -0.792  -0.171   1.153  0.00  0.00    -0.096 A 
ATOM     10  HN1 IND d   1       2.173  -0.028   1.930  0.00  0.00     0.298 HD
ENDROOT
TORSDOF 0
ENDMDL
