MODEL 1
REMARK minimizedAffinity -3.48200703
REMARK minimizedRMSD -1
REMARK  0 active torsions:
REMARK  status: ('A' for Active; 'I' for Inactive)
ROOT
ATOM      1  N1  IND d   1      -0.692  -1.148  -0.739  0.00  0.00    -0.196 N 
ATOM      2  C2  IND d   1       0.342  -0.653  -1.483  0.00  0.00     0.054 A 
ATOM      3  C3  IND d   1       1.142   0.124  -0.718  0.00  0.00    -0.031 A 
ATOM      4  C4  IND d   1       1.000   0.638   1.800  0.00  0.00     0.051 A 
ATOM      5  C5  IND d   1       0.208   0.441   2.897  0.00  0.00    -0.031 A 
ATOM      6  C6  IND d   1      -0.946  -0.313   2.837  0.00  0.00     0.015 A 
ATOM      7  C7  IND d   1      -1.347  -0.911   1.676  0.00  0.00    -0.016 A 
ATOM      8  C8  IND d   1      -0.549  -0.707   0.559  0.00  0.00    -0.047 A 
ATOM      9  C9  IND d   1       0.600   0.092   0.603  0.00  0.00    -0.096 A 
ATOM     10  HN1 IND d   1      -1.325  -1.651  -1.032  0.00  0.00     0.298 HD
ENDROOT
TORSDOF 0
ENDMDL
