MODEL 1
REMARK minimizedAffinity -3.72022676
REMARK minimizedRMSD -1
REMARK  0 active torsions:
REMARK  status: ('A' for Active; 'I' for Inactive)
ROOT
ATOM      1  N1  IND d   1       0.328  -0.064   3.018  0.00  0.00    -0.196 N 
ATOM      2  C2  IND d   1      -0.822  -0.685   3.419  0.00  0.00     0.054 A 
ATOM      3  C3  IND d   1      -1.541  -1.081   2.345  0.00  0.00    -0.031 A 
ATOM      4  C4  IND d   1      -0.972  -0.904  -0.160  0.00  0.00     0.051 A 
ATOM      5  C5  IND d   1      -0.047  -0.383  -1.020  0.00  0.00    -0.031 A 
ATOM      6  C6  IND d   1       1.075   0.283  -0.569  0.00  0.00     0.015 A 
ATOM      7  C7  IND d   1       1.319   0.442   0.766  0.00  0.00    -0.016 A 
ATOM      8  C8  IND d   1       0.379  -0.080   1.642  0.00  0.00    -0.047 A 
ATOM      9  C9  IND d   1      -0.783  -0.719   1.189  0.00  0.00    -0.096 A 
ATOM     10  HN1 IND d   1       0.920   0.279   3.539  0.00  0.00     0.298 HD
ENDROOT
TORSDOF 0
ENDMDL
