MODEL 1
REMARK minimizedAffinity -1.2218765
REMARK minimizedRMSD -1
REMARK  0 active torsions:
REMARK  status: ('A' for Active; 'I' for Inactive)
ROOT
ATOM      1  N1  IND d   1      -0.499   0.103  -2.730  0.00  0.00    -0.196 N 
ATOM      2  C2  IND d   1       0.554  -0.440  -3.413  0.00  0.00     0.054 A 
ATOM      3  C3  IND d   1       1.487  -0.901  -2.549  0.00  0.00    -0.031 A 
ATOM      4  C4  IND d   1       1.447  -0.959   0.024  0.00  0.00     0.051 A 
ATOM      5  C5  IND d   1       0.712  -0.546   1.100  0.00  0.00    -0.031 A 
ATOM      6  C6  IND d   1      -0.490   0.115   0.951  0.00  0.00     0.015 A 
ATOM      7  C7  IND d   1      -1.010   0.379  -0.285  0.00  0.00    -0.016 A 
ATOM      8  C8  IND d   1      -0.262  -0.032  -1.380  0.00  0.00    -0.047 A 
ATOM      9  C9  IND d   1       0.979  -0.666  -1.235  0.00  0.00    -0.096 A 
ATOM     10  HN1 IND d   1      -1.192   0.468  -3.084  0.00  0.00     0.298 HD
ENDROOT
TORSDOF 0
ENDMDL
