MODEL 1
REMARK minimizedAffinity -3.11760235
REMARK minimizedRMSD -1
REMARK  0 active torsions:
REMARK  status: ('A' for Active; 'I' for Inactive)
ROOT
ATOM      1  N1  IND d   1      -2.613   0.190   0.767  0.00  0.00    -0.196 N 
ATOM      2  C2  IND d   1      -3.237   0.418   1.961  0.00  0.00     0.054 A 
ATOM      3  C3  IND d   1      -2.350   0.343   2.978  0.00  0.00    -0.031 A 
ATOM      4  C4  IND d   1       0.195  -0.041   2.902  0.00  0.00     0.051 A 
ATOM      5  C5  IND d   1       1.215  -0.336   2.041  0.00  0.00    -0.031 A 
ATOM      6  C6  IND d   1       1.007  -0.470   0.684  0.00  0.00     0.015 A 
ATOM      7  C7  IND d   1      -0.232  -0.303   0.133  0.00  0.00    -0.016 A 
ATOM      8  C8  IND d   1      -1.271  -0.011   1.005  0.00  0.00    -0.047 A 
ATOM      9  C9  IND d   1      -1.074   0.085   2.388  0.00  0.00    -0.096 A 
ATOM     10  HN1 IND d   1      -2.994   0.175  -0.004  0.00  0.00     0.298 HD
ENDROOT
TORSDOF 0
ENDMDL
