MODEL 1
REMARK minimizedAffinity -3.55614638
REMARK minimizedRMSD -1
REMARK  0 active torsions:
REMARK  status: ('A' for Active; 'I' for Inactive)
ROOT
ATOM      1  N1  IND d   1      -0.803  -0.065  -0.709  0.00  0.00    -0.196 N 
ATOM      2  C2  IND d   1       0.509  -0.287  -1.024  0.00  0.00     0.054 A 
ATOM      3  C3  IND d   1       1.263  -0.316   0.098  0.00  0.00    -0.031 A 
ATOM      4  C4  IND d   1       0.540  -0.125   2.561  0.00  0.00     0.051 A 
ATOM      5  C5  IND d   1      -0.550   0.122   3.348  0.00  0.00    -0.031 A 
ATOM      6  C6  IND d   1      -1.806   0.320   2.812  0.00  0.00     0.015 A 
ATOM      7  C7  IND d   1      -2.021   0.267   1.464  0.00  0.00    -0.016 A 
ATOM      8  C8  IND d   1      -0.916   0.024   0.661  0.00  0.00    -0.047 A 
ATOM      9  C9  IND d   1       0.369  -0.135   1.197  0.00  0.00    -0.096 A 
ATOM     10  HN1 IND d   1      -1.449   0.007  -1.272  0.00  0.00     0.298 HD
ENDROOT
TORSDOF 0
ENDMDL
