MODEL 1
REMARK minimizedAffinity -2.82453346
REMARK minimizedRMSD -1
REMARK  0 active torsions:
REMARK  status: ('A' for Active; 'I' for Inactive)
ROOT
ATOM      1  N1  IND d   1       1.288   1.008   1.136  0.00  0.00    -0.196 N 
ATOM      2  C2  IND d   1       1.143   0.765   2.473  0.00  0.00     0.054 A 
ATOM      3  C3  IND d   1       0.169  -0.148   2.683  0.00  0.00    -0.031 A 
ATOM      4  C4  IND d   1      -1.248  -1.450   0.973  0.00  0.00     0.051 A 
ATOM      5  C5  IND d   1      -1.502  -1.544  -0.367  0.00  0.00    -0.031 A 
ATOM      6  C6  IND d   1      -0.823  -0.778  -1.293  0.00  0.00     0.015 A 
ATOM      7  C7  IND d   1       0.147   0.106  -0.913  0.00  0.00    -0.016 A 
ATOM      8  C8  IND d   1       0.402   0.208   0.447  0.00  0.00    -0.047 A 
ATOM      9  C9  IND d   1      -0.313  -0.535   1.395  0.00  0.00    -0.096 A 
ATOM     10  HN1 IND d   1       1.839   1.566   0.784  0.00  0.00     0.298 HD
ENDROOT
TORSDOF 0
ENDMDL
