MODEL 1
REMARK minimizedAffinity -4.01716566
REMARK minimizedRMSD -1
REMARK  0 active torsions:
REMARK  status: ('A' for Active; 'I' for Inactive)
ROOT
ATOM      1  N1  IND d   1      -2.064   0.313  -0.216  0.00  0.00    -0.196 N 
ATOM      2  C2  IND d   1      -1.493   0.744  -1.381  0.00  0.00     0.054 A 
ATOM      3  C3  IND d   1      -0.190   1.047  -1.182  0.00  0.00    -0.031 A 
ATOM      4  C4  IND d   1       1.236   0.814   0.948  0.00  0.00     0.051 A 
ATOM      5  C5  IND d   1       1.148   0.497   2.274  0.00  0.00    -0.031 A 
ATOM      6  C6  IND d   1      -0.039   0.092   2.850  0.00  0.00     0.015 A 
ATOM      7  C7  IND d   1      -1.185  -0.023   2.114  0.00  0.00    -0.016 A 
ATOM      8  C8  IND d   1      -1.100   0.305   0.768  0.00  0.00    -0.047 A 
ATOM      9  C9  IND d   1       0.092   0.757   0.188  0.00  0.00    -0.096 A 
ATOM     10  HN1 IND d   1      -2.887   0.085  -0.116  0.00  0.00     0.298 HD
ENDROOT
TORSDOF 0
ENDMDL
