MODEL 1
REMARK minimizedAffinity -4.95075464
REMARK minimizedRMSD -1
REMARK  0 active torsions:
REMARK  status: ('A' for Active; 'I' for Inactive)
ROOT
ATOM      1  N1  IND d   1       0.018   0.391   0.847  0.00  0.00    -0.196 N 
ATOM      2  C2  IND d   1      -0.014  -0.780   1.551  0.00  0.00     0.054 A 
ATOM      3  C3  IND d   1       0.305  -1.820   0.749  0.00  0.00    -0.031 A 
ATOM      4  C4  IND d   1       1.015  -1.820  -1.726  0.00  0.00     0.051 A 
ATOM      5  C5  IND d   1       1.157  -0.994  -2.805  0.00  0.00    -0.031 A 
ATOM      6  C6  IND d   1       0.925   0.364  -2.721  0.00  0.00     0.015 A 
ATOM      7  C7  IND d   1       0.551   0.950  -1.545  0.00  0.00    -0.016 A 
ATOM      8  C8  IND d   1       0.399   0.114  -0.448  0.00  0.00    -0.047 A 
ATOM      9  C9  IND d   1       0.592  -1.271  -0.538  0.00  0.00    -0.096 A 
ATOM     10  HN1 IND d   1      -0.168   1.170   1.159  0.00  0.00     0.298 HD
ENDROOT
TORSDOF 0
ENDMDL
