MODEL 1
REMARK minimizedAffinity -2.3078661
REMARK minimizedRMSD -1
REMARK  0 active torsions:
REMARK  status: ('A' for Active; 'I' for Inactive)
ROOT
ATOM      1  N1  IND d   1      -0.501  -1.461  -0.440  0.00  0.00    -0.196 N 
ATOM      2  C2  IND d   1       0.035  -1.058  -1.631  0.00  0.00     0.054 A 
ATOM      3  C3  IND d   1       0.879  -0.019  -1.439  0.00  0.00    -0.031 A 
ATOM      4  C4  IND d   1       1.605   1.114   0.756  0.00  0.00     0.051 A 
ATOM      5  C5  IND d   1       1.357   1.117   2.100  0.00  0.00    -0.031 A 
ATOM      6  C6  IND d   1       0.460   0.242   2.678  0.00  0.00     0.015 A 
ATOM      7  C7  IND d   1      -0.216  -0.681   1.931  0.00  0.00    -0.016 A 
ATOM      8  C8  IND d   1       0.029  -0.683   0.565  0.00  0.00    -0.047 A 
ATOM      9  C9  IND d   1       0.905   0.231  -0.033  0.00  0.00    -0.096 A 
ATOM     10  HN1 IND d   1      -1.073  -2.094  -0.337  0.00  0.00     0.298 HD
ENDROOT
TORSDOF 0
ENDMDL
