MODEL 1
REMARK minimizedAffinity -3.27557063
REMARK minimizedRMSD -1
REMARK  0 active torsions:
REMARK  status: ('A' for Active; 'I' for Inactive)
ROOT
ATOM      1  N1  IND d   1      -0.520   0.026   2.167  0.00  0.00    -0.196 N 
ATOM      2  C2  IND d   1       0.840   0.028   2.303  0.00  0.00     0.054 A 
ATOM      3  C3  IND d   1       1.433   0.199   1.100  0.00  0.00    -0.031 A 
ATOM      4  C4  IND d   1       0.364   0.596  -1.208  0.00  0.00     0.051 A 
ATOM      5  C5  IND d   1      -0.846   0.641  -1.841  0.00  0.00    -0.031 A 
ATOM      6  C6  IND d   1      -2.034   0.483  -1.156  0.00  0.00     0.015 A 
ATOM      7  C7  IND d   1      -2.055   0.284   0.195  0.00  0.00    -0.016 A 
ATOM      8  C8  IND d   1      -0.828   0.231   0.840  0.00  0.00    -0.047 A 
ATOM      9  C9  IND d   1       0.382   0.349   0.144  0.00  0.00    -0.096 A 
ATOM     10  HN1 IND d   1      -1.087  -0.085   2.804  0.00  0.00     0.298 HD
ENDROOT
TORSDOF 0
ENDMDL
