MODEL 1
REMARK minimizedAffinity -3.35845256
REMARK minimizedRMSD -1
REMARK  0 active torsions:
REMARK  status: ('A' for Active; 'I' for Inactive)
ROOT
ATOM      1  N1  IND d   1       0.439  -0.588  -3.187  0.00  0.00    -0.196 N 
ATOM      2  C2  IND d   1       0.686  -1.909  -3.439  0.00  0.00     0.054 A 
ATOM      3  C3  IND d   1       0.777  -2.599  -2.280  0.00  0.00    -0.031 A 
ATOM      4  C4  IND d   1       0.453  -1.783   0.140  0.00  0.00     0.051 A 
ATOM      5  C5  IND d   1       0.249  -0.651   0.877  0.00  0.00    -0.031 A 
ATOM      6  C6  IND d   1       0.091   0.586   0.284  0.00  0.00     0.015 A 
ATOM      7  C7  IND d   1       0.121   0.734  -1.074  0.00  0.00    -0.016 A 
ATOM      8  C8  IND d   1       0.336  -0.413  -1.824  0.00  0.00    -0.047 A 
ATOM      9  C9  IND d   1       0.539  -1.664  -1.227  0.00  0.00    -0.096 A 
ATOM     10  HN1 IND d   1       0.361   0.030  -3.780  0.00  0.00     0.298 HD
ENDROOT
TORSDOF 0
ENDMDL
