MODEL 1
REMARK minimizedAffinity -5.05423355
REMARK minimizedRMSD -1
REMARK  0 active torsions:
REMARK  status: ('A' for Active; 'I' for Inactive)
ROOT
ATOM      1  N1  IND d   1      -2.571   0.824   0.646  0.00  0.00    -0.196 N 
ATOM      2  C2  IND d   1      -3.152   0.745   1.881  0.00  0.00     0.054 A 
ATOM      3  C3  IND d   1      -2.240   0.372   2.806  0.00  0.00    -0.031 A 
ATOM      4  C4  IND d   1       0.283  -0.063   2.535  0.00  0.00     0.051 A 
ATOM      5  C5  IND d   1       1.265  -0.151   1.588  0.00  0.00    -0.031 A 
ATOM      6  C6  IND d   1       1.014   0.089   0.253  0.00  0.00     0.015 A 
ATOM      7  C7  IND d   1      -0.232   0.438  -0.187  0.00  0.00    -0.016 A 
ATOM      8  C8  IND d   1      -1.233   0.522   0.771  0.00  0.00    -0.047 A 
ATOM      9  C9  IND d   1      -0.994   0.238   2.121  0.00  0.00    -0.096 A 
ATOM     10  HN1 IND d   1      -2.974   1.027  -0.086  0.00  0.00     0.298 HD
ENDROOT
TORSDOF 0
ENDMDL
