MODEL 1
REMARK minimizedAffinity -1.27375269
REMARK minimizedRMSD -1
REMARK  0 active torsions:
REMARK  status: ('A' for Active; 'I' for Inactive)
ROOT
ATOM      1  N1  IND d   1       0.285  -0.982  -1.103  0.00  0.00    -0.196 N 
ATOM      2  C2  IND d   1       0.307   0.189  -1.808  0.00  0.00     0.054 A 
ATOM      3  C3  IND d   1       0.293   1.246  -0.966  0.00  0.00    -0.031 A 
ATOM      4  C4  IND d   1       0.336   1.287   1.608  0.00  0.00     0.051 A 
ATOM      5  C5  IND d   1       0.285   0.466   2.699  0.00  0.00    -0.031 A 
ATOM      6  C6  IND d   1       0.233  -0.908   2.577  0.00  0.00     0.015 A 
ATOM      7  C7  IND d   1       0.242  -1.514   1.352  0.00  0.00    -0.016 A 
ATOM      8  C8  IND d   1       0.286  -0.683   0.242  0.00  0.00    -0.047 A 
ATOM      9  C9  IND d   1       0.296   0.713   0.360  0.00  0.00    -0.096 A 
ATOM     10  HN1 IND d   1       0.272  -1.772  -1.442  0.00  0.00     0.298 HD
ENDROOT
TORSDOF 0
ENDMDL
