MODEL 1
REMARK minimizedAffinity -2.57579446
REMARK minimizedRMSD -1
REMARK  0 active torsions:
REMARK  status: ('A' for Active; 'I' for Inactive)
ROOT
ATOM      1  N1  IND d   1       1.304   0.131  -3.664  0.00  0.00    -0.196 N 
ATOM      2  C2  IND d   1       1.364  -1.095  -4.266  0.00  0.00     0.054 A 
ATOM      3  C3  IND d   1       1.084  -2.071  -3.373  0.00  0.00    -0.031 A 
ATOM      4  C4  IND d   1       0.398  -1.877  -0.899  0.00  0.00     0.051 A 
ATOM      5  C5  IND d   1       0.243  -0.966   0.107  0.00  0.00    -0.031 A 
ATOM      6  C6  IND d   1       0.434   0.385  -0.097  0.00  0.00     0.015 A 
ATOM      7  C7  IND d   1       0.779   0.879  -1.323  0.00  0.00    -0.016 A 
ATOM      8  C8  IND d   1       0.945  -0.044  -2.346  0.00  0.00    -0.047 A 
ATOM      9  C9  IND d   1       0.793  -1.421  -2.135  0.00  0.00    -0.096 A 
ATOM     10  HN1 IND d   1       1.464   0.885  -4.045  0.00  0.00     0.298 HD
ENDROOT
TORSDOF 0
ENDMDL
