MODEL 1
REMARK minimizedAffinity -2.95285249
REMARK minimizedRMSD -1
REMARK  0 active torsions:
REMARK  status: ('A' for Active; 'I' for Inactive)
ROOT
ATOM      1  N1  IND d   1      -2.223   0.408  -0.425  0.00  0.00    -0.196 N 
ATOM      2  C2  IND d   1      -1.405   0.535  -1.512  0.00  0.00     0.054 A 
ATOM      3  C3  IND d   1      -0.108   0.474  -1.135  0.00  0.00    -0.031 A 
ATOM      4  C4  IND d   1       0.899   0.070   1.199  0.00  0.00     0.051 A 
ATOM      5  C5  IND d   1       0.551  -0.068   2.514  0.00  0.00    -0.031 A 
ATOM      6  C6  IND d   1      -0.767  -0.057   2.924  0.00  0.00     0.015 A 
ATOM      7  C7  IND d   1      -1.790   0.082   2.029  0.00  0.00    -0.016 A 
ATOM      8  C8  IND d   1      -1.440   0.229   0.694  0.00  0.00    -0.047 A 
ATOM      9  C9  IND d   1      -0.103   0.261   0.277  0.00  0.00    -0.096 A 
ATOM     10  HN1 IND d   1      -3.082   0.435  -0.437  0.00  0.00     0.298 HD
ENDROOT
TORSDOF 0
ENDMDL
