MODEL 1
REMARK minimizedAffinity -3.59512496
REMARK minimizedRMSD -1
REMARK  0 active torsions:
REMARK  status: ('A' for Active; 'I' for Inactive)
ROOT
ATOM      1  C1  DEN d   1      -1.169  -1.059  -2.135  0.00  0.00     0.130 A 
ATOM      2  C2  DEN d   1      -0.499  -0.368  -1.038  0.00  0.00    -0.031 A 
ATOM      3  C3  DEN d   1       0.570   0.474  -1.613  0.00  0.00     0.027 A 
ATOM      4  C4  DEN d   1       1.244   0.775  -4.084  0.00  0.00     0.027 A 
ATOM      5  C5  DEN d   1       0.973   0.385  -5.377  0.00  0.00    -0.003 A 
ATOM      6  C6  DEN d   1      -0.001  -0.531  -5.675  0.00  0.00     0.001 A 
ATOM      7  C7  DEN d   1      -0.770  -1.055  -4.670  0.00  0.00     0.017 A 
ATOM      8  C8  DEN d   1      -0.497  -0.673  -3.363  0.00  0.00    -0.094 A 
ATOM      9  C9  DEN d   1       0.483   0.264  -3.083  0.00  0.00    -0.072 A 
ENDROOT
TORSDOF 0
ENDMDL
