MODEL 1
REMARK minimizedAffinity -4.41956806
REMARK minimizedRMSD -1
REMARK  0 active torsions:
REMARK  status: ('A' for Active; 'I' for Inactive)
ROOT
ATOM      1  C1  DEN d   1       1.367  -0.710  -0.518  0.00  0.00     0.130 A 
ATOM      2  C2  DEN d   1       0.671  -1.145  -1.726  0.00  0.00    -0.031 A 
ATOM      3  C3  DEN d   1      -0.754  -0.782  -1.588  0.00  0.00     0.027 A 
ATOM      4  C4  DEN d   1      -1.942   0.410   0.366  0.00  0.00     0.027 A 
ATOM      5  C5  DEN d   1      -1.769   0.962   1.616  0.00  0.00    -0.003 A 
ATOM      6  C6  DEN d   1      -0.556   0.965   2.251  0.00  0.00     0.001 A 
ATOM      7  C7  DEN d   1       0.543   0.446   1.619  0.00  0.00     0.017 A 
ATOM      8  C8  DEN d   1       0.375  -0.120   0.362  0.00  0.00    -0.094 A 
ATOM      9  C9  DEN d   1      -0.858  -0.102  -0.269  0.00  0.00    -0.072 A 
ENDROOT
TORSDOF 0
ENDMDL
