MODEL 1
REMARK minimizedAffinity -4.11271429
REMARK minimizedRMSD -1
REMARK  0 active torsions:
REMARK  status: ('A' for Active; 'I' for Inactive)
ROOT
ATOM      1  C1  DEN d   1       0.439  -0.146   3.821  0.00  0.00     0.130 A 
ATOM      2  C2  DEN d   1       1.784  -0.613   3.498  0.00  0.00    -0.031 A 
ATOM      3  C3  DEN d   1       1.887  -0.732   2.030  0.00  0.00     0.027 A 
ATOM      4  C4  DEN d   1       0.104  -0.236   0.234  0.00  0.00     0.027 A 
ATOM      5  C5  DEN d   1      -1.195   0.173   0.024  0.00  0.00    -0.003 A 
ATOM      6  C6  DEN d   1      -2.043   0.469   1.057  0.00  0.00     0.001 A 
ATOM      7  C7  DEN d   1      -1.589   0.405   2.348  0.00  0.00     0.017 A 
ATOM      8  C8  DEN d   1      -0.283  -0.014   2.568  0.00  0.00    -0.094 A 
ATOM      9  C9  DEN d   1       0.563  -0.298   1.509  0.00  0.00    -0.072 A 
ENDROOT
TORSDOF 0
ENDMDL
