MODEL 1
REMARK minimizedAffinity -0.667845905
REMARK minimizedRMSD -1
REMARK  0 active torsions:
REMARK  status: ('A' for Active; 'I' for Inactive)
ROOT
ATOM      1  C1  DEN d   1      -2.102   0.154   1.034  0.00  0.00     0.130 A 
ATOM      2  C2  DEN d   1      -1.671   0.647   2.339  0.00  0.00    -0.031 A 
ATOM      3  C3  DEN d   1      -0.198   0.561   2.397  0.00  0.00     0.027 A 
ATOM      4  C4  DEN d   1       1.449  -0.279   0.599  0.00  0.00     0.027 A 
ATOM      5  C5  DEN d   1       1.553  -0.809  -0.669  0.00  0.00    -0.003 A 
ATOM      6  C6  DEN d   1       0.454  -1.084  -1.438  0.00  0.00     0.001 A 
ATOM      7  C7  DEN d   1      -0.797  -0.788  -0.964  0.00  0.00     0.017 A 
ATOM      8  C8  DEN d   1      -0.911  -0.261   0.315  0.00  0.00    -0.094 A 
ATOM      9  C9  DEN d   1       0.214   0.021   1.073  0.00  0.00    -0.072 A 
ENDROOT
TORSDOF 0
ENDMDL
