MODEL 1
REMARK minimizedAffinity -0.79705745
REMARK minimizedRMSD -1
REMARK  0 active torsions:
REMARK  status: ('A' for Active; 'I' for Inactive)
ROOT
ATOM      1  C1  DEN d   1       0.200  -0.550   2.034  0.00  0.00     0.130 A 
ATOM      2  C2  DEN d   1      -0.944   0.072   2.696  0.00  0.00    -0.031 A 
ATOM      3  C3  DEN d   1      -1.859   0.574   1.651  0.00  0.00     0.027 A 
ATOM      4  C4  DEN d   1      -1.619   0.444  -0.914  0.00  0.00     0.027 A 
ATOM      5  C5  DEN d   1      -0.812   0.019  -1.946  0.00  0.00    -0.003 A 
ATOM      6  C6  DEN d   1       0.395  -0.590  -1.725  0.00  0.00     0.001 A 
ATOM      7  C7  DEN d   1       0.809  -0.832  -0.442  0.00  0.00     0.017 A 
ATOM      8  C8  DEN d   1       0.004  -0.399   0.604  0.00  0.00    -0.094 A 
ATOM      9  C9  DEN d   1      -1.219   0.203   0.360  0.00  0.00    -0.072 A 
ENDROOT
TORSDOF 0
ENDMDL
