MODEL 1
REMARK minimizedAffinity -5.19354153
REMARK minimizedRMSD -1
REMARK  0 active torsions:
REMARK  status: ('A' for Active; 'I' for Inactive)
ROOT
ATOM      1  O1  BZF d   1      -0.016  -0.057  -0.993  0.00  0.00    -0.204 OA
ATOM      2  C2  BZF d   1       0.397  -0.968  -0.040  0.00  0.00     0.174 A 
ATOM      3  C3  BZF d   1       0.304  -0.440   1.198  0.00  0.00    -0.012 A 
ATOM      4  C3A BZF d   1      -0.286   0.850   1.013  0.00  0.00    -0.107 A 
ATOM      5  C4  BZF d   1      -0.646   1.849   1.872  0.00  0.00     0.055 A 
ATOM      6  C5  BZF d   1      -1.130   3.014   1.365  0.00  0.00    -0.016 A 
ATOM      7  C6  BZF d   1      -1.262   3.215   0.006  0.00  0.00     0.022 A 
ATOM      8  C7  BZF d   1      -0.923   2.251  -0.884  0.00  0.00     0.029 A 
ATOM      9  C7A BZF d   1      -0.464   1.061  -0.373  0.00  0.00     0.058 A 
ENDROOT
TORSDOF 0
ENDMDL
