MODEL 1
REMARK minimizedAffinity -4.88160038
REMARK minimizedRMSD -1
REMARK  0 active torsions:
REMARK  status: ('A' for Active; 'I' for Inactive)
ROOT
ATOM      1  O1  BZF d   1      -0.081  -0.130  -0.157  0.00  0.00    -0.204 OA
ATOM      2  C2  BZF d   1       0.811  -0.657   0.757  0.00  0.00     0.174 A 
ATOM      3  C3  BZF d   1       1.058   0.224   1.747  0.00  0.00    -0.012 A 
ATOM      4  C3A BZF d   1       0.200   1.338   1.483  0.00  0.00    -0.107 A 
ATOM      5  C4  BZF d   1      -0.023   2.524   2.122  0.00  0.00     0.055 A 
ATOM      6  C5  BZF d   1      -0.873   3.426   1.564  0.00  0.00    -0.016 A 
ATOM      7  C6  BZF d   1      -1.510   3.178   0.366  0.00  0.00     0.022 A 
ATOM      8  C7  BZF d   1      -1.324   2.014  -0.303  0.00  0.00     0.029 A 
ATOM      9  C7A BZF d   1      -0.492   1.086   0.276  0.00  0.00     0.058 A 
ENDROOT
TORSDOF 0
ENDMDL
