MODEL 1
REMARK minimizedAffinity -0.89742291
REMARK minimizedRMSD -1
REMARK  0 active torsions:
REMARK  status: ('A' for Active; 'I' for Inactive)
ROOT
ATOM      1  O1  BZF d   1      -0.714   1.599   2.533  0.00  0.00    -0.204 OA
ATOM      2  C2  BZF d   1      -1.678   2.463   2.050  0.00  0.00     0.174 A 
ATOM      3  C3  BZF d   1      -1.908   2.239   0.740  0.00  0.00    -0.012 A 
ATOM      4  C3A BZF d   1      -1.099   1.108   0.404  0.00  0.00    -0.107 A 
ATOM      5  C4  BZF d   1      -0.907   0.399  -0.748  0.00  0.00     0.055 A 
ATOM      6  C5  BZF d   1       0.006  -0.606  -0.760  0.00  0.00    -0.016 A 
ATOM      7  C6  BZF d   1       0.749  -0.927   0.357  0.00  0.00     0.022 A 
ATOM      8  C7  BZF d   1       0.590  -0.256   1.524  0.00  0.00     0.029 A 
ATOM      9  C7A BZF d   1      -0.356   0.739   1.549  0.00  0.00     0.058 A 
ENDROOT
TORSDOF 0
ENDMDL
