MODEL 1
REMARK minimizedAffinity -5.67327929
REMARK minimizedRMSD -1
REMARK  0 active torsions:
REMARK  status: ('A' for Active; 'I' for Inactive)
ROOT
ATOM      1  O1  BZF d   1       0.276   0.437  -1.101  0.00  0.00    -0.204 OA
ATOM      2  C2  BZF d   1       0.622  -0.538  -0.185  0.00  0.00     0.174 A 
ATOM      3  C3  BZF d   1       0.275  -0.166   1.063  0.00  0.00    -0.012 A 
ATOM      4  C3A BZF d   1      -0.409   1.081   0.908  0.00  0.00    -0.107 A 
ATOM      5  C4  BZF d   1      -1.006   1.941   1.785  0.00  0.00     0.055 A 
ATOM      6  C5  BZF d   1      -1.520   3.109   1.320  0.00  0.00    -0.016 A 
ATOM      7  C6  BZF d   1      -1.449   3.453  -0.015  0.00  0.00     0.022 A 
ATOM      8  C7  BZF d   1      -0.871   2.631  -0.924  0.00  0.00     0.029 A 
ATOM      9  C7A BZF d   1      -0.381   1.434  -0.461  0.00  0.00     0.058 A 
ENDROOT
TORSDOF 0
ENDMDL
