MODEL 1
REMARK minimizedAffinity -6.4713378
REMARK minimizedRMSD -1
REMARK  0 active torsions:
REMARK  status: ('A' for Active; 'I' for Inactive)
ROOT
ATOM      1  O1  BZF d   1       0.351  -0.252  -1.275  0.00  0.00    -0.204 OA
ATOM      2  C2  BZF d   1       0.808  -1.040  -0.236  0.00  0.00     0.174 A 
ATOM      3  C3  BZF d   1       0.634  -0.418   0.948  0.00  0.00    -0.012 A 
ATOM      4  C3A BZF d   1      -0.053   0.798   0.638  0.00  0.00    -0.107 A 
ATOM      5  C4  BZF d   1      -0.520   1.833   1.397  0.00  0.00     0.055 A 
ATOM      6  C5  BZF d   1      -1.080   2.905   0.778  0.00  0.00    -0.016 A 
ATOM      7  C6  BZF d   1      -1.186   2.978  -0.595  0.00  0.00     0.022 A 
ATOM      8  C7  BZF d   1      -0.742   1.974  -1.390  0.00  0.00     0.029 A 
ATOM      9  C7A BZF d   1      -0.205   0.874  -0.766  0.00  0.00     0.058 A 
ENDROOT
TORSDOF 0
ENDMDL
