MODEL 1
REMARK minimizedAffinity -4.16191959
REMARK minimizedRMSD -1
REMARK  0 active torsions:
REMARK  status: ('A' for Active; 'I' for Inactive)
ROOT
ATOM      1  O1  BZF d   1       0.079  -0.079  -1.593  0.00  0.00    -0.204 OA
ATOM      2  C2  BZF d   1       0.352  -1.034  -0.632  0.00  0.00     0.174 A 
ATOM      3  C3  BZF d   1       0.119  -0.548   0.604  0.00  0.00    -0.012 A 
ATOM      4  C3A BZF d   1      -0.414   0.763   0.400  0.00  0.00    -0.107 A 
ATOM      5  C4  BZF d   1      -0.854   1.741   1.246  0.00  0.00     0.055 A 
ATOM      6  C5  BZF d   1      -1.245   2.935   0.730  0.00  0.00    -0.016 A 
ATOM      7  C6  BZF d   1      -1.205   3.188  -0.626  0.00  0.00     0.022 A 
ATOM      8  C7  BZF d   1      -0.781   2.248  -1.505  0.00  0.00     0.029 A 
ATOM      9  C7A BZF d   1      -0.416   1.028  -0.989  0.00  0.00     0.058 A 
ENDROOT
TORSDOF 0
ENDMDL
