MODEL 1
REMARK minimizedAffinity -6.45489073
REMARK minimizedRMSD -1
REMARK  0 active torsions:
REMARK  status: ('A' for Active; 'I' for Inactive)
ROOT
ATOM      1  O1  BZF d   1       0.040   0.117  -0.703  0.00  0.00    -0.204 OA
ATOM      2  C2  BZF d   1       0.418  -0.752   0.302  0.00  0.00     0.174 A 
ATOM      3  C3  BZF d   1       0.290  -0.169   1.512  0.00  0.00    -0.012 A 
ATOM      4  C3A BZF d   1      -0.288   1.114   1.252  0.00  0.00    -0.107 A 
ATOM      5  C4  BZF d   1      -0.669   2.152   2.053  0.00  0.00     0.055 A 
ATOM      6  C5  BZF d   1      -1.131   3.294   1.480  0.00  0.00    -0.016 A 
ATOM      7  C6  BZF d   1      -1.219   3.435   0.110  0.00  0.00     0.022 A 
ATOM      8  C7  BZF d   1      -0.857   2.431  -0.725  0.00  0.00     0.029 A 
ATOM      9  C7A BZF d   1      -0.421   1.264  -0.148  0.00  0.00     0.058 A 
ENDROOT
TORSDOF 0
ENDMDL
