MODEL 1
REMARK minimizedAffinity -4.80216312
REMARK minimizedRMSD -1
REMARK  0 active torsions:
REMARK  status: ('A' for Active; 'I' for Inactive)
ROOT
ATOM      1  O1  BZF d   1       0.102  -0.040  -0.869  0.00  0.00    -0.204 OA
ATOM      2  C2  BZF d   1       0.467  -0.790   0.233  0.00  0.00     0.174 A 
ATOM      3  C3  BZF d   1       0.334  -0.071   1.366  0.00  0.00    -0.012 A 
ATOM      4  C3A BZF d   1      -0.232   1.177   0.955  0.00  0.00    -0.107 A 
ATOM      5  C4  BZF d   1      -0.611   2.303   1.629  0.00  0.00     0.055 A 
ATOM      6  C5  BZF d   1      -1.059   3.375   0.925  0.00  0.00    -0.016 A 
ATOM      7  C6  BZF d   1      -1.136   3.358  -0.453  0.00  0.00     0.022 A 
ATOM      8  C7  BZF d   1      -0.776   2.262  -1.165  0.00  0.00     0.029 A 
ATOM      9  C7A BZF d   1      -0.354   1.166  -0.453  0.00  0.00     0.058 A 
ENDROOT
TORSDOF 0
ENDMDL
