MODEL 1
REMARK minimizedAffinity -6.27743769
REMARK minimizedRMSD -1
REMARK  0 active torsions:
REMARK  status: ('A' for Active; 'I' for Inactive)
ROOT
ATOM      1  O1  BZF d   1       0.137   0.249  -1.426  0.00  0.00    -0.204 OA
ATOM      2  C2  BZF d   1       0.164  -0.849  -0.588  0.00  0.00     0.174 A 
ATOM      3  C3  BZF d   1      -0.134  -0.491   0.678  0.00  0.00    -0.012 A 
ATOM      4  C3A BZF d   1      -0.451   0.902   0.611  0.00  0.00    -0.107 A 
ATOM      5  C4  BZF d   1      -0.841   1.822   1.541  0.00  0.00     0.055 A 
ATOM      6  C5  BZF d   1      -1.000   3.118   1.163  0.00  0.00    -0.016 A 
ATOM      7  C6  BZF d   1      -0.774   3.528  -0.135  0.00  0.00     0.022 A 
ATOM      8  C7  BZF d   1      -0.391   2.651  -1.094  0.00  0.00     0.029 A 
ATOM      9  C7A BZF d   1      -0.261   1.335  -0.722  0.00  0.00     0.058 A 
ENDROOT
TORSDOF 0
ENDMDL
