MODEL 1
REMARK minimizedAffinity -3.46366096
REMARK minimizedRMSD -1
REMARK  0 active torsions:
REMARK  status: ('A' for Active; 'I' for Inactive)
ROOT
ATOM      1  C   UNL d   1      -0.864   0.656   1.171  0.00  0.00     0.020 A 
ATOM      2  C1  UNL d   1      -0.281   1.372   0.126  0.00  0.00     0.020 A 
ATOM      3  C2  UNL d   1       0.431   0.698  -0.869  0.00  0.00     0.034 A 
ATOM      4  C3  UNL d   1       0.563  -0.694  -0.820  0.00  0.00     0.017 A 
ATOM      5  C4  UNL d   1      -0.022  -1.411   0.230  0.00  0.00     0.017 A 
ATOM      6  C5  UNL d   1      -0.735  -0.732   1.223  0.00  0.00     0.034 A 
ATOM      7 Cl   UNL d   1       0.097  -3.131   0.358  0.00  0.00    -0.070 Cl
ATOM      8 Cl1  UNL d   1       1.458  -1.461  -2.083  0.00  0.00    -0.070 Cl
ENDROOT
TORSDOF 0
ENDMDL
