MODEL 1
REMARK minimizedAffinity -2.0818193
REMARK minimizedRMSD -1
REMARK  0 active torsions:
REMARK  status: ('A' for Active; 'I' for Inactive)
ROOT
ATOM      1  C   UNL d   1      -0.033   1.165  -0.045  0.00  0.00     0.020 A 
ATOM      2  C1  UNL d   1      -0.553   0.493   1.060  0.00  0.00     0.020 A 
ATOM      3  C2  UNL d   1      -0.424  -0.894   1.159  0.00  0.00     0.034 A 
ATOM      4  C3  UNL d   1       0.228  -1.614   0.150  0.00  0.00     0.017 A 
ATOM      5  C4  UNL d   1       0.750  -0.938  -0.959  0.00  0.00     0.017 A 
ATOM      6  C5  UNL d   1       0.617   0.451  -1.052  0.00  0.00     0.034 A 
ATOM      7 Cl   UNL d   1       1.567  -1.757  -2.243  0.00  0.00    -0.070 Cl
ATOM      8 Cl1  UNL d   1       0.352  -3.327   0.338  0.00  0.00    -0.070 Cl
ENDROOT
TORSDOF 0
ENDMDL
