MODEL 1
REMARK minimizedAffinity -1.75569403
REMARK minimizedRMSD -1
REMARK  0 active torsions:
REMARK  status: ('A' for Active; 'I' for Inactive)
ROOT
ATOM      1  C   UNL d   1      -0.619  -2.654   0.977  0.00  0.00     0.020 A 
ATOM      2  C1  UNL d   1      -1.026  -1.511   1.664  0.00  0.00     0.020 A 
ATOM      3  C2  UNL d   1      -0.715  -0.246   1.162  0.00  0.00     0.034 A 
ATOM      4  C3  UNL d   1       0.006  -0.120  -0.031  0.00  0.00     0.017 A 
ATOM      5  C4  UNL d   1       0.414  -1.267  -0.721  0.00  0.00     0.017 A 
ATOM      6  C5  UNL d   1       0.099  -2.532  -0.214  0.00  0.00     0.034 A 
ATOM      7 Cl   UNL d   1       1.305  -1.192  -2.200  0.00  0.00    -0.070 Cl
ATOM      8 Cl1  UNL d   1       0.355   1.476  -0.595  0.00  0.00    -0.070 Cl
ENDROOT
TORSDOF 0
ENDMDL
