MODEL 1
REMARK minimizedAffinity -5.46769142
REMARK minimizedRMSD -1
REMARK  0 active torsions:
REMARK  status: ('A' for Active; 'I' for Inactive)
ROOT
ATOM      1  C   UNL d   1       0.004  -3.173   0.454  0.00  0.00     0.020 A 
ATOM      2  C1  UNL d   1       0.766  -2.479  -0.485  0.00  0.00     0.020 A 
ATOM      3  C2  UNL d   1       0.723  -1.084  -0.527  0.00  0.00     0.034 A 
ATOM      4  C3  UNL d   1      -0.083  -0.378   0.373  0.00  0.00     0.017 A 
ATOM      5  C4  UNL d   1      -0.848  -1.074   1.316  0.00  0.00     0.017 A 
ATOM      6  C5  UNL d   1      -0.801  -2.471   1.353  0.00  0.00     0.034 A 
ATOM      7 Cl   UNL d   1      -1.866  -0.272   2.459  0.00  0.00    -0.070 Cl
ATOM      8 Cl1  UNL d   1      -0.088   1.347   0.265  0.00  0.00    -0.070 Cl
ENDROOT
TORSDOF 0
ENDMDL
