MODEL 1
REMARK minimizedAffinity -3.33016658
REMARK minimizedRMSD -1
REMARK  0 active torsions:
REMARK  status: ('A' for Active; 'I' for Inactive)
ROOT
ATOM      1  C   UNL d   1      -1.014   0.390   0.681  0.00  0.00     0.020 A 
ATOM      2  C1  UNL d   1       0.329   0.018   0.692  0.00  0.00     0.020 A 
ATOM      3  C2  UNL d   1       0.682  -1.329   0.593  0.00  0.00     0.034 A 
ATOM      4  C3  UNL d   1      -0.310  -2.310   0.483  0.00  0.00     0.017 A 
ATOM      5  C4  UNL d   1      -1.659  -1.936   0.472  0.00  0.00     0.017 A 
ATOM      6  C5  UNL d   1      -2.006  -0.585   0.572  0.00  0.00     0.034 A 
ATOM      7 Cl   UNL d   1      -2.940  -3.089   0.339  0.00  0.00    -0.070 Cl
ATOM      8 Cl1  UNL d   1       0.198  -3.957   0.364  0.00  0.00    -0.070 Cl
ENDROOT
TORSDOF 0
ENDMDL
