MODEL 1
REMARK minimizedAffinity -4.04838657
REMARK minimizedRMSD -1
REMARK  0 active torsions:
REMARK  status: ('A' for Active; 'I' for Inactive)
ROOT
ATOM      1  C   UNL d   1      -0.056  -3.116   0.852  0.00  0.00     0.020 A 
ATOM      2  C1  UNL d   1       0.824  -2.599  -0.098  0.00  0.00     0.020 A 
ATOM      3  C2  UNL d   1       0.798  -1.237  -0.405  0.00  0.00     0.034 A 
ATOM      4  C3  UNL d   1      -0.109  -0.387   0.239  0.00  0.00     0.017 A 
ATOM      5  C4  UNL d   1      -0.992  -0.908   1.193  0.00  0.00     0.017 A 
ATOM      6  C5  UNL d   1      -0.962  -2.272   1.496  0.00  0.00     0.034 A 
ATOM      7 Cl   UNL d   1      -2.139   0.078   2.029  0.00  0.00    -0.070 Cl
ATOM      8 Cl1  UNL d   1      -0.085   1.286  -0.189  0.00  0.00    -0.070 Cl
ENDROOT
TORSDOF 0
ENDMDL
