MODEL 1
REMARK minimizedAffinity -0.220705613
REMARK minimizedRMSD -1
REMARK  0 active torsions:
REMARK  status: ('A' for Active; 'I' for Inactive)
ROOT
ATOM      1  C   UNL d   1       0.605   1.958  -1.447  0.00  0.00     0.020 A 
ATOM      2  C1  UNL d   1       0.623   1.739  -0.070  0.00  0.00     0.020 A 
ATOM      3  C2  UNL d   1       0.795   0.446   0.429  0.00  0.00     0.034 A 
ATOM      4  C3  UNL d   1       0.949  -0.632  -0.450  0.00  0.00     0.017 A 
ATOM      5  C4  UNL d   1       0.931  -0.411  -1.831  0.00  0.00     0.017 A 
ATOM      6  C5  UNL d   1       0.759   0.885  -2.326  0.00  0.00     0.034 A 
ATOM      7 Cl   UNL d   1       1.116  -1.692  -2.977  0.00  0.00    -0.070 Cl
ATOM      8 Cl1  UNL d   1       1.157  -2.204   0.237  0.00  0.00    -0.070 Cl
ENDROOT
TORSDOF 0
ENDMDL
