MODEL 1
REMARK minimizedAffinity -5.18991327
REMARK minimizedRMSD -1
REMARK  0 active torsions:
REMARK  status: ('A' for Active; 'I' for Inactive)
ROOT
ATOM      1  C   UNL d   1       0.177  -3.488  -1.361  0.00  0.00     0.020 A 
ATOM      2  C1  UNL d   1       0.031  -3.509   0.026  0.00  0.00     0.020 A 
ATOM      3  C2  UNL d   1       0.004  -2.311   0.743  0.00  0.00     0.034 A 
ATOM      4  C3  UNL d   1       0.123  -1.087   0.074  0.00  0.00     0.017 A 
ATOM      5  C4  UNL d   1       0.270  -1.067  -1.318  0.00  0.00     0.017 A 
ATOM      6  C5  UNL d   1       0.296  -2.270  -2.031  0.00  0.00     0.034 A 
ATOM      7 Cl   UNL d   1       0.422   0.404  -2.213  0.00  0.00    -0.070 Cl
ATOM      8 Cl1  UNL d   1       0.080   0.355   1.024  0.00  0.00    -0.070 Cl
ENDROOT
TORSDOF 0
ENDMDL
