MODEL 1
REMARK minimizedAffinity -2.88502407
REMARK minimizedRMSD -1
REMARK  0 active torsions:
REMARK  status: ('A' for Active; 'I' for Inactive)
ROOT
ATOM      1  C   UNL d   1      -1.346  -1.428   2.061  0.00  0.00     0.020 A 
ATOM      2  C1  UNL d   1      -1.243  -2.602   1.315  0.00  0.00     0.020 A 
ATOM      3  C2  UNL d   1      -0.683  -2.570   0.036  0.00  0.00     0.034 A 
ATOM      4  C3  UNL d   1      -0.225  -1.362  -0.501  0.00  0.00     0.017 A 
ATOM      5  C4  UNL d   1      -0.329  -0.184   0.247  0.00  0.00     0.017 A 
ATOM      6  C5  UNL d   1      -0.890  -0.222   1.528  0.00  0.00     0.034 A 
ATOM      7 Cl   UNL d   1       0.214   1.345  -0.349  0.00  0.00    -0.070 Cl
ATOM      8 Cl1  UNL d   1       0.456  -1.396  -2.089  0.00  0.00    -0.070 Cl
ENDROOT
TORSDOF 0
ENDMDL
