MODEL 1
REMARK minimizedAffinity -5.33660746
REMARK minimizedRMSD -1
REMARK  0 active torsions:
REMARK  status: ('A' for Active; 'I' for Inactive)
ROOT
ATOM      1  C   UNL d   1       0.871  -2.615  -0.207  0.00  0.00     0.020 A 
ATOM      2  C1  UNL d   1      -0.221  -3.095   0.515  0.00  0.00     0.020 A 
ATOM      3  C2  UNL d   1      -1.130  -2.200   1.083  0.00  0.00     0.034 A 
ATOM      4  C3  UNL d   1      -0.949  -0.820   0.930  0.00  0.00     0.017 A 
ATOM      5  C4  UNL d   1       0.148  -0.340   0.206  0.00  0.00     0.017 A 
ATOM      6  C5  UNL d   1       1.055  -1.240  -0.361  0.00  0.00     0.034 A 
ATOM      7 Cl   UNL d   1       0.438   1.348  -0.025  0.00  0.00    -0.070 Cl
ATOM      8 Cl1  UNL d   1      -2.112   0.228   1.660  0.00  0.00    -0.070 Cl
ENDROOT
TORSDOF 0
ENDMDL
