MODEL 1
REMARK minimizedAffinity -5.38544321
REMARK minimizedRMSD -1
REMARK  0 active torsions:
REMARK  status: ('A' for Active; 'I' for Inactive)
ROOT
ATOM      1  C   UNL d   1      -0.366  -2.770   0.518  0.00  0.00     0.020 A 
ATOM      2  C1  UNL d   1       0.659  -2.263  -0.280  0.00  0.00     0.020 A 
ATOM      3  C2  UNL d   1       0.795  -0.884  -0.449  0.00  0.00     0.034 A 
ATOM      4  C3  UNL d   1      -0.095  -0.006   0.182  0.00  0.00     0.017 A 
ATOM      5  C4  UNL d   1      -1.123  -0.516   0.983  0.00  0.00     0.017 A 
ATOM      6  C5  UNL d   1      -1.254  -1.898   1.148  0.00  0.00     0.034 A 
ATOM      7 Cl   UNL d   1      -2.259   0.504   1.793  0.00  0.00    -0.070 Cl
ATOM      8 Cl1  UNL d   1       0.133   1.688  -0.071  0.00  0.00    -0.070 Cl
ENDROOT
TORSDOF 0
ENDMDL
