MODEL 1
REMARK minimizedAffinity -4.65191078
REMARK minimizedRMSD -1
REMARK  0 active torsions:
REMARK  status: ('A' for Active; 'I' for Inactive)
ROOT
ATOM      1  C   UNL d   1       0.856  -0.428  -1.996  0.00  0.00     0.020 A 
ATOM      2  C1  UNL d   1       0.074   0.525  -1.343  0.00  0.00     0.020 A 
ATOM      3  C2  UNL d   1      -0.547   0.208  -0.133  0.00  0.00     0.034 A 
ATOM      4  C3  UNL d   1      -0.388  -1.065   0.427  0.00  0.00     0.017 A 
ATOM      5  C4  UNL d   1       0.396  -2.020  -0.229  0.00  0.00     0.017 A 
ATOM      6  C5  UNL d   1       1.016  -1.697  -1.440  0.00  0.00     0.034 A 
ATOM      7 Cl   UNL d   1       0.639  -3.611   0.401  0.00  0.00    -0.070 Cl
ATOM      8 Cl1  UNL d   1      -1.185  -1.388   1.926  0.00  0.00    -0.070 Cl
ENDROOT
TORSDOF 0
ENDMDL
