MODEL 1
REMARK minimizedAffinity -2.46980333
REMARK minimizedRMSD -1
REMARK  0 active torsions:
REMARK  status: ('A' for Active; 'I' for Inactive)
ROOT
ATOM      1  C   UNL d   1      -1.394  -0.396   1.957  0.00  0.00     0.020 A 
ATOM      2  C1  UNL d   1      -1.508  -1.354   0.951  0.00  0.00     0.020 A 
ATOM      3  C2  UNL d   1      -1.055  -1.069  -0.339  0.00  0.00     0.034 A 
ATOM      4  C3  UNL d   1      -0.485   0.177  -0.626  0.00  0.00     0.017 A 
ATOM      5  C4  UNL d   1      -0.370   1.138   0.385  0.00  0.00     0.017 A 
ATOM      6  C5  UNL d   1      -0.826   0.847   1.674  0.00  0.00     0.034 A 
ATOM      7 Cl   UNL d   1       0.322   2.697   0.107  0.00  0.00    -0.070 Cl
ATOM      8 Cl1  UNL d   1       0.055   0.460  -2.243  0.00  0.00    -0.070 Cl
ENDROOT
TORSDOF 0
ENDMDL
