MODEL 1
REMARK minimizedAffinity -2.44252014
REMARK minimizedRMSD -1
REMARK  0 active torsions:
REMARK  status: ('A' for Active; 'I' for Inactive)
ROOT
ATOM      1  C   UNL d   1      -1.818  -0.965   2.443  0.00  0.00     0.020 A 
ATOM      2  C1  UNL d   1      -1.808  -2.022   1.534  0.00  0.00     0.020 A 
ATOM      3  C2  UNL d   1      -1.213  -1.859   0.281  0.00  0.00     0.034 A 
ATOM      4  C3  UNL d   1      -0.626  -0.637  -0.066  0.00  0.00     0.017 A 
ATOM      5  C4  UNL d   1      -0.637   0.423   0.847  0.00  0.00     0.017 A 
ATOM      6  C5  UNL d   1      -1.234   0.255   2.100  0.00  0.00     0.034 A 
ATOM      7 Cl   UNL d   1       0.067   1.961   0.491  0.00  0.00    -0.070 Cl
ATOM      8 Cl1  UNL d   1       0.092  -0.506  -1.633  0.00  0.00    -0.070 Cl
ENDROOT
TORSDOF 0
ENDMDL
