MODEL 1
REMARK minimizedAffinity 10.366848
REMARK minimizedRMSD -1
REMARK  0 active torsions:
REMARK  status: ('A' for Active; 'I' for Inactive)
ROOT
ATOM      1  C   UNL d   1      -0.503  -1.770   0.395  0.00  0.00    -0.002 A 
ATOM      2  C1  UNL d   1      -1.811  -1.600  -0.037  0.00  0.00     0.010 A 
ATOM      3  C2  UNL d   1      -2.761  -2.603   0.162  0.00  0.00     0.041 A 
ATOM      4  C3  UNL d   1      -2.372  -3.791   0.810  0.00  0.00    -0.075 A 
ATOM      5  S   UNL d   1      -3.365  -5.156   1.164  0.00  0.00     0.015 SA
ATOM      6  C4  UNL d   1      -2.078  -5.997   1.898  0.00  0.00     0.022 A 
ATOM      7  C5  UNL d   1      -0.911  -5.270   1.882  0.00  0.00     0.026 A 
ATOM      8  C6  UNL d   1      -1.062  -3.986   1.256  0.00  0.00    -0.082 A 
ATOM      9  C7  UNL d   1      -0.121  -2.951   1.038  0.00  0.00     0.045 A 
ENDROOT
TORSDOF 0
ENDMDL
