MODEL 1
REMARK minimizedAffinity 13.2695379
REMARK minimizedRMSD -1
REMARK  0 active torsions:
REMARK  status: ('A' for Active; 'I' for Inactive)
ROOT
ATOM      1  C   UNL d   1      -6.000  -0.853   3.441  0.00  0.00    -0.002 A 
ATOM      2  C1  UNL d   1      -5.940  -0.672   4.815  0.00  0.00     0.010 A 
ATOM      3  C2  UNL d   1      -5.356   0.476   5.356  0.00  0.00     0.041 A 
ATOM      4  C3  UNL d   1      -4.829   1.448   4.482  0.00  0.00    -0.075 A 
ATOM      5  S   UNL d   1      -4.068   2.932   4.917  0.00  0.00     0.015 SA
ATOM      6  C4  UNL d   1      -3.805   3.361   3.289  0.00  0.00     0.022 A 
ATOM      7  C5  UNL d   1      -4.279   2.406   2.421  0.00  0.00     0.026 A 
ATOM      8  C6  UNL d   1      -4.878   1.288   3.095  0.00  0.00    -0.082 A 
ATOM      9  C7  UNL d   1      -5.476   0.113   2.578  0.00  0.00     0.045 A 
ENDROOT
TORSDOF 0
ENDMDL
