MODEL 1
REMARK minimizedAffinity 10.9758463
REMARK minimizedRMSD -1
REMARK  0 active torsions:
REMARK  status: ('A' for Active; 'I' for Inactive)
ROOT
ATOM      1  C   UNL d   1       4.938  -0.711  -1.491  0.00  0.00    -0.002 A 
ATOM      2  C1  UNL d   1       6.000  -1.336  -0.852  0.00  0.00     0.010 A 
ATOM      3  C2  UNL d   1       6.000  -1.496   0.535  0.00  0.00     0.041 A 
ATOM      4  C3  UNL d   1       4.904  -1.013   1.277  0.00  0.00    -0.075 A 
ATOM      5  S   UNL d   1       4.686  -1.098   2.985  0.00  0.00     0.015 SA
ATOM      6  C4  UNL d   1       3.179  -0.307   2.907  0.00  0.00     0.022 A 
ATOM      7  C5  UNL d   1       2.835   0.021   1.618  0.00  0.00     0.026 A 
ATOM      8  C6  UNL d   1       3.823  -0.381   0.656  0.00  0.00    -0.082 A 
ATOM      9  C7  UNL d   1       3.853  -0.233  -0.751  0.00  0.00     0.045 A 
ENDROOT
TORSDOF 0
ENDMDL
