MODEL 1
REMARK minimizedAffinity 4.97458363
REMARK minimizedRMSD -1
REMARK  0 active torsions:
REMARK  status: ('A' for Active; 'I' for Inactive)
ROOT
ATOM      1  C   UNL d   1      -5.271   4.526   4.049  0.00  0.00    -0.002 A 
ATOM      2  C1  UNL d   1      -5.676   4.480   5.375  0.00  0.00     0.010 A 
ATOM      3  C2  UNL d   1      -5.924   3.257   6.000  0.00  0.00     0.041 A 
ATOM      4  C3  UNL d   1      -5.755   2.068   5.263  0.00  0.00    -0.075 A 
ATOM      5  S   UNL d   1      -6.000   0.455   5.820  0.00  0.00     0.015 SA
ATOM      6  C4  UNL d   1      -5.572  -0.211   4.311  0.00  0.00     0.022 A 
ATOM      7  C5  UNL d   1      -5.247   0.759   3.392  0.00  0.00     0.026 A 
ATOM      8  C6  UNL d   1      -5.347   2.089   3.926  0.00  0.00    -0.082 A 
ATOM      9  C7  UNL d   1      -5.104   3.345   3.321  0.00  0.00     0.045 A 
ENDROOT
TORSDOF 0
ENDMDL
