MODEL 1
REMARK minimizedAffinity 8.43326569
REMARK minimizedRMSD -1
REMARK  0 active torsions:
REMARK  status: ('A' for Active; 'I' for Inactive)
ROOT
ATOM      1  C   UNL d   1      -5.994  -0.182   5.137  0.00  0.00    -0.002 A 
ATOM      2  C1  UNL d   1      -5.630  -0.105   3.800  0.00  0.00     0.010 A 
ATOM      3  C2  UNL d   1      -5.266   1.117   3.233  0.00  0.00     0.041 A 
ATOM      4  C3  UNL d   1      -5.271   2.272   4.040  0.00  0.00    -0.075 A 
ATOM      5  S   UNL d   1      -4.861   3.877   3.561  0.00  0.00     0.015 SA
ATOM      6  C4  UNL d   1      -5.158   4.497   5.120  0.00  0.00     0.022 A 
ATOM      7  C5  UNL d   1      -5.561   3.518   5.997  0.00  0.00     0.026 A 
ATOM      8  C6  UNL d   1      -5.633   2.219   5.389  0.00  0.00    -0.082 A 
ATOM      9  C7  UNL d   1      -5.998   0.965   5.935  0.00  0.00     0.045 A 
ENDROOT
TORSDOF 0
ENDMDL
