MODEL 1
REMARK minimizedAffinity 4.47118235
REMARK minimizedRMSD -1
REMARK  0 active torsions:
REMARK  status: ('A' for Active; 'I' for Inactive)
ROOT
ATOM      1  C   UNL d   1      -4.197   0.062   2.365  0.00  0.00    -0.002 A 
ATOM      2  C1  UNL d   1      -5.376  -0.485   2.851  0.00  0.00     0.010 A 
ATOM      3  C2  UNL d   1      -6.000   0.059   3.976  0.00  0.00     0.041 A 
ATOM      4  C3  UNL d   1      -5.414   1.173   4.609  0.00  0.00    -0.075 A 
ATOM      5  S   UNL d   1      -6.000   2.006   6.000  0.00  0.00     0.015 SA
ATOM      6  C4  UNL d   1      -4.700   3.107   5.980  0.00  0.00     0.022 A 
ATOM      7  C5  UNL d   1      -3.830   2.860   4.945  0.00  0.00     0.026 A 
ATOM      8  C6  UNL d   1      -4.227   1.741   4.137  0.00  0.00    -0.082 A 
ATOM      9  C7  UNL d   1      -3.619   1.167   2.995  0.00  0.00     0.045 A 
ENDROOT
TORSDOF 0
ENDMDL
