MODEL 1
REMARK minimizedAffinity 21.6183281
REMARK minimizedRMSD -1
REMARK  0 active torsions:
REMARK  status: ('A' for Active; 'I' for Inactive)
ROOT
ATOM      1  C   UNL d   1      -5.840  -4.871  -2.402  0.00  0.00    -0.002 A 
ATOM      2  C1  UNL d   1      -5.149  -5.997  -1.976  0.00  0.00     0.010 A 
ATOM      3  C2  UNL d   1      -3.754  -5.994  -1.919  0.00  0.00     0.041 A 
ATOM      4  C3  UNL d   1      -3.058  -4.830  -2.299  0.00  0.00    -0.075 A 
ATOM      5  S   UNL d   1      -1.350  -4.595  -2.309  0.00  0.00     0.015 SA
ATOM      6  C4  UNL d   1      -1.498  -2.995  -2.877  0.00  0.00     0.022 A 
ATOM      7  C5  UNL d   1      -2.811  -2.632  -3.061  0.00  0.00     0.026 A 
ATOM      8  C6  UNL d   1      -3.732  -3.683  -2.730  0.00  0.00    -0.082 A 
ATOM      9  C7  UNL d   1      -5.147  -3.718  -2.777  0.00  0.00     0.045 A 
ENDROOT
TORSDOF 0
ENDMDL
