MODEL 1
REMARK minimizedAffinity 24.3058128
REMARK minimizedRMSD -1
REMARK  0 active torsions:
REMARK  status: ('A' for Active; 'I' for Inactive)
ROOT
ATOM      1  C   UNL d   1      -1.300  -4.686  -3.042  0.00  0.00    -0.002 A 
ATOM      2  C1  UNL d   1      -1.634  -3.374  -3.346  0.00  0.00     0.010 A 
ATOM      3  C2  UNL d   1      -2.970  -2.966  -3.363  0.00  0.00     0.041 A 
ATOM      4  C3  UNL d   1      -3.974  -3.909  -3.065  0.00  0.00    -0.075 A 
ATOM      5  S   UNL d   1      -5.676  -3.637  -3.024  0.00  0.00     0.015 SA
ATOM      6  C4  UNL d   1      -5.999  -5.256  -2.601  0.00  0.00     0.022 A 
ATOM      7  C5  UNL d   1      -4.849  -6.000  -2.490  0.00  0.00     0.026 A 
ATOM      8  C6  UNL d   1      -3.662  -5.236  -2.755  0.00  0.00    -0.082 A 
ATOM      9  C7  UNL d   1      -2.299  -5.618  -2.746  0.00  0.00     0.045 A 
ENDROOT
TORSDOF 0
ENDMDL
