MODEL 1
REMARK minimizedAffinity 15.1225824
REMARK minimizedRMSD -1
REMARK  0 active torsions:
REMARK  status: ('A' for Active; 'I' for Inactive)
ROOT
ATOM      1  C   UNL d   1      -5.903  -3.763  -2.794  0.00  0.00    -0.002 A 
ATOM      2  C1  UNL d   1      -5.682  -3.564  -4.149  0.00  0.00     0.010 A 
ATOM      3  C2  UNL d   1      -4.460  -3.067  -4.604  0.00  0.00     0.041 A 
ATOM      4  C3  UNL d   1      -3.452  -2.772  -3.665  0.00  0.00    -0.075 A 
ATOM      5  S   UNL d   1      -1.875  -2.154  -3.992  0.00  0.00     0.015 SA
ATOM      6  C4  UNL d   1      -1.457  -2.142  -2.339  0.00  0.00     0.022 A 
ATOM      7  C5  UNL d   1      -2.483  -2.594  -1.544  0.00  0.00     0.026 A 
ATOM      8  C6  UNL d   1      -3.650  -2.965  -2.295  0.00  0.00    -0.082 A 
ATOM      9  C7  UNL d   1      -4.900  -3.469  -1.865  0.00  0.00     0.045 A 
ENDROOT
TORSDOF 0
ENDMDL
