MODEL 1
REMARK minimizedAffinity 17.2382374
REMARK minimizedRMSD -1
REMARK  0 active torsions:
REMARK  status: ('A' for Active; 'I' for Inactive)
ROOT
ATOM      1  C   UNL d   1      -5.748  -0.955   5.536  0.00  0.00    -0.002 A 
ATOM      2  C1  UNL d   1      -4.920  -1.201   4.450  0.00  0.00     0.010 A 
ATOM      3  C2  UNL d   1      -4.264  -0.150   3.805  0.00  0.00     0.041 A 
ATOM      4  C3  UNL d   1      -4.455   1.164   4.276  0.00  0.00    -0.075 A 
ATOM      5  S   UNL d   1      -3.754   2.607   3.644  0.00  0.00     0.015 SA
ATOM      6  C4  UNL d   1      -4.537   3.583   4.801  0.00  0.00     0.022 A 
ATOM      7  C5  UNL d   1      -5.318   2.842   5.657  0.00  0.00     0.026 A 
ATOM      8  C6  UNL d   1      -5.283   1.436   5.368  0.00  0.00    -0.082 A 
ATOM      9  C7  UNL d   1      -5.935   0.349   6.000  0.00  0.00     0.045 A 
ENDROOT
TORSDOF 0
ENDMDL
