MODEL 1
REMARK minimizedAffinity 19.5743237
REMARK minimizedRMSD -1
REMARK  0 active torsions:
REMARK  status: ('A' for Active; 'I' for Inactive)
ROOT
ATOM      1  C   UNL d   1      -4.577   1.582   3.400  0.00  0.00    -0.002 A 
ATOM      2  C1  UNL d   1      -4.172   1.516   4.726  0.00  0.00     0.010 A 
ATOM      3  C2  UNL d   1      -4.363   2.602   5.582  0.00  0.00     0.041 A 
ATOM      4  C3  UNL d   1      -4.974   3.767   5.078  0.00  0.00    -0.075 A 
ATOM      5  S   UNL d   1      -5.310   5.221   5.942  0.00  0.00     0.015 SA
ATOM      6  C4  UNL d   1      -6.000   5.964   4.572  0.00  0.00     0.022 A 
ATOM      7  C5  UNL d   1      -5.982   5.138   3.474  0.00  0.00     0.026 A 
ATOM      8  C6  UNL d   1      -5.391   3.858   3.747  0.00  0.00    -0.082 A 
ATOM      9  C7  UNL d   1      -5.183   2.739   2.905  0.00  0.00     0.045 A 
ENDROOT
TORSDOF 0
ENDMDL
