MODEL 1
REMARK minimizedAffinity 16.4103622
REMARK minimizedRMSD -1
REMARK  0 active torsions:
REMARK  status: ('A' for Active; 'I' for Inactive)
ROOT
ATOM      1  C   UNL d   1       1.441   1.727   0.778  0.00  0.00    -0.002 A 
ATOM      2  C1  UNL d   1       1.387   1.621   2.161  0.00  0.00     0.010 A 
ATOM      3  C2  UNL d   1       2.360   0.902   2.858  0.00  0.00     0.041 A 
ATOM      4  C3  UNL d   1       3.400   0.286   2.134  0.00  0.00    -0.075 A 
ATOM      5  S   UNL d   1       4.703  -0.644   2.775  0.00  0.00     0.015 SA
ATOM      6  C4  UNL d   1       5.363  -0.923   1.229  0.00  0.00     0.022 A 
ATOM      7  C5  UNL d   1       4.620  -0.328   0.236  0.00  0.00     0.026 A 
ATOM      8  C6  UNL d   1       3.477   0.379   0.742  0.00  0.00    -0.082 A 
ATOM      9  C7  UNL d   1       2.475   1.114   0.064  0.00  0.00     0.045 A 
ENDROOT
TORSDOF 0
ENDMDL
