MODEL 1
REMARK minimizedAffinity 1.13407016
REMARK minimizedRMSD -1
REMARK  0 active torsions:
REMARK  status: ('A' for Active; 'I' for Inactive)
ROOT
ATOM      1  C   UNL d   1      -2.029  -0.598   2.253  0.00  0.00     0.124 A 
ATOM      2  C1  UNL d   1      -2.033  -1.444   3.354  0.00  0.00     0.062 A 
ATOM      3  C2  UNL d   1      -0.852  -1.702   4.044  0.00  0.00     0.162 A 
ATOM      4  C3  UNL d   1       0.344  -1.112   3.635  0.00  0.00    -0.034 A 
ATOM      5  C4  UNL d   1       0.341  -0.263   2.527  0.00  0.00     0.162 A 
ATOM      6  C5  UNL d   1      -0.842  -0.009   1.841  0.00  0.00     0.062 A 
ATOM      7  F   UNL d   1      -0.836   0.808   0.778  0.00  0.00    -0.097 F 
ATOM      8  F1  UNL d   1       1.473   0.320   2.107  0.00  0.00    -0.096 F 
ATOM      9  I   UNL d   1       2.113  -1.494   4.663  0.00  0.00    -0.060 I 
ATOM     10  F2  UNL d   1      -0.886  -2.523   5.104  0.00  0.00    -0.096 F 
ATOM     11  F3  UNL d   1      -3.178  -2.016   3.754  0.00  0.00    -0.097 F 
ATOM     12  F4  UNL d   1      -3.167  -0.353   1.591  0.00  0.00    -0.092 F 
ENDROOT
TORSDOF 0
ENDMDL
