MODEL 1
REMARK minimizedAffinity 1.08634603
REMARK minimizedRMSD -1
REMARK  0 active torsions:
REMARK  status: ('A' for Active; 'I' for Inactive)
ROOT
ATOM      1  C   UNL d   1      -2.116  -0.455   1.208  0.00  0.00     0.124 A 
ATOM      2  C1  UNL d   1      -1.064   0.438   1.051  0.00  0.00     0.062 A 
ATOM      3  C2  UNL d   1      -0.097   0.561   2.044  0.00  0.00     0.162 A 
ATOM      4  C3  UNL d   1      -0.175  -0.211   3.203  0.00  0.00    -0.034 A 
ATOM      5  C4  UNL d   1      -1.236  -1.106   3.354  0.00  0.00     0.162 A 
ATOM      6  C5  UNL d   1      -2.201  -1.225   2.359  0.00  0.00     0.062 A 
ATOM      7  F   UNL d   1      -3.216  -2.088   2.512  0.00  0.00    -0.097 F 
ATOM      8  F1  UNL d   1      -1.342  -1.864   4.455  0.00  0.00    -0.096 F 
ATOM      9  I   UNL d   1       1.270  -0.030   4.690  0.00  0.00    -0.060 I 
ATOM     10  F2  UNL d   1       0.908   1.432   1.866  0.00  0.00    -0.096 F 
ATOM     11  F3  UNL d   1      -0.981   1.184  -0.060  0.00  0.00    -0.097 F 
ATOM     12  F4  UNL d   1      -3.046  -0.570   0.251  0.00  0.00    -0.092 F 
ENDROOT
TORSDOF 0
ENDMDL
