MODEL 1
REMARK minimizedAffinity 8.29497719
REMARK minimizedRMSD -1
REMARK  0 active torsions:
REMARK  status: ('A' for Active; 'I' for Inactive)
ROOT
ATOM      1  C   UNL d   1      -1.629   0.136   0.092  0.00  0.00     0.124 A 
ATOM      2  C1  UNL d   1      -0.242   0.135   0.139  0.00  0.00     0.062 A 
ATOM      3  C2  UNL d   1       0.418  -0.212   1.314  0.00  0.00     0.162 A 
ATOM      4  C3  UNL d   1      -0.308  -0.563   2.452  0.00  0.00    -0.034 A 
ATOM      5  C4  UNL d   1      -1.703  -0.559   2.397  0.00  0.00     0.162 A 
ATOM      6  C5  UNL d   1      -2.358  -0.212   1.220  0.00  0.00     0.062 A 
ATOM      7  F   UNL d   1      -3.698  -0.212   1.176  0.00  0.00    -0.097 F 
ATOM      8  F1  UNL d   1      -2.432  -0.891   3.473  0.00  0.00    -0.096 F 
ATOM      9  I   UNL d   1       0.675  -1.082   4.211  0.00  0.00    -0.060 I 
ATOM     10  F2  UNL d   1       1.759  -0.203   1.332  0.00  0.00    -0.096 F 
ATOM     11  F3  UNL d   1       0.465   0.471  -0.950  0.00  0.00    -0.097 F 
ATOM     12  F4  UNL d   1      -2.262   0.471  -1.040  0.00  0.00    -0.092 F 
ENDROOT
TORSDOF 0
ENDMDL
