MODEL 1
REMARK minimizedAffinity 6.03447342
REMARK minimizedRMSD -1
REMARK  0 active torsions:
REMARK  status: ('A' for Active; 'I' for Inactive)
ROOT
ATOM      1  C   UNL d   1       0.335   0.620   1.963  0.00  0.00     0.124 A 
ATOM      2  C1  UNL d   1       0.498  -0.124   0.802  0.00  0.00     0.062 A 
ATOM      3  C2  UNL d   1      -0.612  -0.627   0.131  0.00  0.00     0.162 A 
ATOM      4  C3  UNL d   1      -1.897  -0.388   0.619  0.00  0.00    -0.034 A 
ATOM      5  C4  UNL d   1      -2.054   0.360   1.787  0.00  0.00     0.162 A 
ATOM      6  C5  UNL d   1      -0.940   0.861   2.454  0.00  0.00     0.062 A 
ATOM      7  F   UNL d   1      -1.100   1.579   3.575  0.00  0.00    -0.097 F 
ATOM      8  F1  UNL d   1      -3.275   0.609   2.283  0.00  0.00    -0.096 F 
ATOM      9  I   UNL d   1      -3.561  -1.138  -0.381  0.00  0.00    -0.060 I 
ATOM     10  F2  UNL d   1      -0.425  -1.342  -0.988  0.00  0.00    -0.096 F 
ATOM     11  F3  UNL d   1       1.729  -0.359   0.326  0.00  0.00    -0.097 F 
ATOM     12  F4  UNL d   1       1.406   1.102   2.607  0.00  0.00    -0.092 F 
ENDROOT
TORSDOF 0
ENDMDL
