MODEL 1
REMARK minimizedAffinity 14.416543
REMARK minimizedRMSD -1
REMARK  0 active torsions:
REMARK  status: ('A' for Active; 'I' for Inactive)
ROOT
ATOM      1  C   UNL d   1       1.646   0.468   1.253  0.00  0.00     0.124 A 
ATOM      2  C1  UNL d   1       1.396  -0.009  -0.026  0.00  0.00     0.062 A 
ATOM      3  C2  UNL d   1       0.098  -0.335  -0.411  0.00  0.00     0.162 A 
ATOM      4  C3  UNL d   1      -0.960  -0.184   0.486  0.00  0.00    -0.034 A 
ATOM      5  C4  UNL d   1      -0.700   0.295   1.771  0.00  0.00     0.162 A 
ATOM      6  C5  UNL d   1       0.598   0.619   2.150  0.00  0.00     0.062 A 
ATOM      7  F   UNL d   1       0.838   1.080   3.387  0.00  0.00    -0.097 F 
ATOM      8  F1  UNL d   1      -1.694   0.452   2.658  0.00  0.00    -0.096 F 
ATOM      9  I   UNL d   1      -2.901  -0.670  -0.085  0.00  0.00    -0.060 I 
ATOM     10  F2  UNL d   1      -0.114  -0.793  -1.653  0.00  0.00    -0.096 F 
ATOM     11  F3  UNL d   1       2.407  -0.157  -0.895  0.00  0.00    -0.097 F 
ATOM     12  F4  UNL d   1       2.896   0.780   1.620  0.00  0.00    -0.092 F 
ENDROOT
TORSDOF 0
ENDMDL
