MODEL 1
REMARK minimizedAffinity 18.0567989
REMARK minimizedRMSD -1
REMARK  0 active torsions:
REMARK  status: ('A' for Active; 'I' for Inactive)
ROOT
ATOM      1  C   UNL d   1       3.409   1.099   1.262  0.00  0.00     0.124 A 
ATOM      2  C1  UNL d   1       2.426   0.353   1.898  0.00  0.00     0.062 A 
ATOM      3  C2  UNL d   1       1.339  -0.131   1.177  0.00  0.00     0.162 A 
ATOM      4  C3  UNL d   1       1.228   0.129  -0.189  0.00  0.00    -0.034 A 
ATOM      5  C4  UNL d   1       2.220   0.881  -0.822  0.00  0.00     0.162 A 
ATOM      6  C5  UNL d   1       3.305   1.363  -0.097  0.00  0.00     0.062 A 
ATOM      7  F   UNL d   1       4.253   2.083  -0.713  0.00  0.00    -0.097 F 
ATOM      8  F1  UNL d   1       2.144   1.149  -2.134  0.00  0.00    -0.096 F 
ATOM      9  I   UNL d   1      -0.397  -0.593  -1.271  0.00  0.00    -0.060 I 
ATOM     10  F2  UNL d   1       0.404  -0.849   1.817  0.00  0.00    -0.096 F 
ATOM     11  F3  UNL d   1       2.524   0.099   3.210  0.00  0.00    -0.097 F 
ATOM     12  F4  UNL d   1       4.454   1.565   1.958  0.00  0.00    -0.092 F 
ENDROOT
TORSDOF 0
ENDMDL
