MODEL 1
REMARK minimizedAffinity 9.65362263
REMARK minimizedRMSD -1
REMARK  0 active torsions:
REMARK  status: ('A' for Active; 'I' for Inactive)
ROOT
ATOM      1  C   UNL d   1      -2.070  -0.235   1.876  0.00  0.00     0.124 A 
ATOM      2  C1  UNL d   1      -1.904  -0.901   0.670  0.00  0.00     0.062 A 
ATOM      3  C2  UNL d   1      -0.689  -0.832  -0.006  0.00  0.00     0.162 A 
ATOM      4  C3  UNL d   1       0.370  -0.094   0.523  0.00  0.00    -0.034 A 
ATOM      5  C4  UNL d   1       0.195   0.574   1.736  0.00  0.00     0.162 A 
ATOM      6  C5  UNL d   1      -1.021   0.502   2.408  0.00  0.00     0.062 A 
ATOM      7  F   UNL d   1      -1.180   1.147   3.573  0.00  0.00    -0.097 F 
ATOM      8  F1  UNL d   1       1.192   1.293   2.273  0.00  0.00    -0.096 F 
ATOM      9  I   UNL d   1       2.188   0.011  -0.485  0.00  0.00    -0.060 I 
ATOM     10  F2  UNL d   1      -0.556  -1.486  -1.170  0.00  0.00    -0.096 F 
ATOM     11  F3  UNL d   1      -2.916  -1.613   0.154  0.00  0.00    -0.097 F 
ATOM     12  F4  UNL d   1      -3.240  -0.302   2.524  0.00  0.00    -0.092 F 
ENDROOT
TORSDOF 0
ENDMDL
