MODEL 1
REMARK minimizedAffinity 14.882329
REMARK minimizedRMSD -1
REMARK  0 active torsions:
REMARK  status: ('A' for Active; 'I' for Inactive)
ROOT
ATOM      1  C   UNL d   1      -1.039   0.164  -0.499  0.00  0.00     0.124 A 
ATOM      2  C1  UNL d   1      -0.277   0.547  -1.594  0.00  0.00     0.062 A 
ATOM      3  C2  UNL d   1       1.042   0.957  -1.421  0.00  0.00     0.162 A 
ATOM      4  C3  UNL d   1       1.608   0.985  -0.146  0.00  0.00    -0.034 A 
ATOM      5  C4  UNL d   1       0.835   0.599   0.950  0.00  0.00     0.162 A 
ATOM      6  C5  UNL d   1      -0.482   0.190   0.772  0.00  0.00     0.062 A 
ATOM      7  F   UNL d   1      -1.217  -0.180   1.831  0.00  0.00    -0.097 F 
ATOM      8  F1  UNL d   1       1.349   0.613   2.189  0.00  0.00    -0.096 F 
ATOM      9  I   UNL d   1       3.580   1.597   0.117  0.00  0.00    -0.060 I 
ATOM     10  F2  UNL d   1       1.754   1.322  -2.497  0.00  0.00    -0.096 F 
ATOM     11  F3  UNL d   1      -0.813   0.524  -2.823  0.00  0.00    -0.097 F 
ATOM     12  F4  UNL d   1      -2.308  -0.229  -0.669  0.00  0.00    -0.092 F 
ENDROOT
TORSDOF 0
ENDMDL
