MODEL 1
REMARK minimizedAffinity 6.43632364
REMARK minimizedRMSD -1
REMARK  2 active torsions:
REMARK  status: ('A' for Active; 'I' for Inactive)
REMARK    1  A    between atoms: C2'_3  and  C1'_4 
REMARK    2  A    between atoms: C1'_4  and  C1_5 
ROOT
ATOM      1  C1  I4B d   1      -3.318   3.297  -4.998  0.00  0.00    -0.075 A 
ATOM      2  C2  I4B d   1      -3.361   2.686  -3.770  0.00  0.00     0.003 A 
ATOM      3  C3  I4B d   1      -2.560   1.547  -3.512  0.00  0.00     0.002 A 
ATOM      4  C4  I4B d   1      -1.773   1.027  -4.520  0.00  0.00    -0.004 A 
ATOM      5  C5  I4B d   1      -1.714   1.662  -5.757  0.00  0.00     0.002 A 
ATOM      6  C6  I4B d   1      -2.482   2.812  -5.994  0.00  0.00     0.003 A 
ENDROOT
BRANCH   1   7
ATOM      7  C1' I4B d   1      -4.203   4.478  -5.246  0.00  0.00     0.060 C 
BRANCH   7   8
ATOM      8  C2' I4B d   1      -3.358   5.729  -5.121  0.00  0.00    -0.013 C 
ATOM      9  C4' I4B d   1      -2.957   5.974  -3.690  0.00  0.00     0.013 C 
ATOM     10  C3' I4B d   1      -2.154   5.565  -6.000  0.00  0.00     0.013 C 
ENDBRANCH   7   8
ENDBRANCH   1   7
TORSDOF 2
ENDMDL
