MODEL 1
REMARK minimizedAffinity 11.3540907
REMARK minimizedRMSD -1
REMARK  2 active torsions:
REMARK  status: ('A' for Active; 'I' for Inactive)
REMARK    1  A    between atoms: C2'_3  and  C1'_4 
REMARK    2  A    between atoms: C1'_4  and  C1_5 
ROOT
ATOM      1  C1  I4B d   1      -3.406   2.715   1.116  0.00  0.00    -0.075 A 
ATOM      2  C2  I4B d   1      -4.388   2.110   0.372  0.00  0.00     0.003 A 
ATOM      3  C3  I4B d   1      -5.702   2.638   0.362  0.00  0.00     0.002 A 
ATOM      4  C4  I4B d   1      -6.000   3.734   1.145  0.00  0.00    -0.004 A 
ATOM      5  C5  I4B d   1      -4.998   4.360   1.881  0.00  0.00     0.002 A 
ATOM      6  C6  I4B d   1      -3.689   3.855   1.857  0.00  0.00     0.003 A 
ENDROOT
BRANCH   1   7
ATOM      7  C1' I4B d   1      -2.037   2.112   1.129  0.00  0.00     0.060 C 
BRANCH   7   8
ATOM      8  C2' I4B d   1      -1.111   3.041   0.371  0.00  0.00    -0.013 C 
ATOM      9  C4' I4B d   1       0.330   2.641   0.552  0.00  0.00     0.013 C 
ATOM     10  C3' I4B d   1      -1.504   3.008  -1.076  0.00  0.00     0.013 C 
ENDBRANCH   7   8
ENDBRANCH   1   7
TORSDOF 2
ENDMDL
