MODEL 1
REMARK minimizedAffinity 15.7800303
REMARK minimizedRMSD -1
REMARK  2 active torsions:
REMARK  status: ('A' for Active; 'I' for Inactive)
REMARK    1  A    between atoms: C2'_3  and  C1'_4 
REMARK    2  A    between atoms: C1'_4  and  C1_5 
ROOT
ATOM      1  C1  I4B d   1      -1.009   4.046   0.181  0.00  0.00    -0.075 A 
ATOM      2  C2  I4B d   1      -1.020   5.093  -0.706  0.00  0.00     0.003 A 
ATOM      3  C3  I4B d   1       0.197   5.615  -1.209  0.00  0.00     0.002 A 
ATOM      4  C4  I4B d   1       1.395   5.096  -0.761  0.00  0.00    -0.004 A 
ATOM      5  C5  I4B d   1       1.404   4.020   0.121  0.00  0.00     0.002 A 
ATOM      6  C6  I4B d   1       0.194   3.483   0.586  0.00  0.00     0.003 A 
ENDROOT
BRANCH   1   7
ATOM      7  C1' I4B d   1      -2.311   3.541   0.717  0.00  0.00     0.060 C 
BRANCH   7   8
ATOM      8  C2' I4B d   1      -2.991   4.683   1.443  0.00  0.00    -0.013 C 
ATOM      9  C4' I4B d   1      -4.464   4.420   1.614  0.00  0.00     0.013 C 
ATOM     10  C3' I4B d   1      -2.315   4.856   2.770  0.00  0.00     0.013 C 
ENDBRANCH   7   8
ENDBRANCH   1   7
TORSDOF 2
ENDMDL
