MODEL 1
REMARK minimizedAffinity 15.8366318
REMARK minimizedRMSD -1
REMARK  2 active torsions:
REMARK  status: ('A' for Active; 'I' for Inactive)
REMARK    1  A    between atoms: C2'_3  and  C1'_4 
REMARK    2  A    between atoms: C1'_4  and  C1_5 
ROOT
ATOM      1  C1  I4B d   1      -2.960   4.286   1.667  0.00  0.00    -0.075 A 
ATOM      2  C2  I4B d   1      -3.359   5.567   1.958  0.00  0.00     0.003 A 
ATOM      3  C3  I4B d   1      -4.736   5.897   1.979  0.00  0.00     0.002 A 
ATOM      4  C4  I4B d   1      -5.671   4.935   1.657  0.00  0.00    -0.004 A 
ATOM      5  C5  I4B d   1      -5.266   3.631   1.385  0.00  0.00     0.002 A 
ATOM      6  C6  I4B d   1      -3.903   3.301   1.403  0.00  0.00     0.003 A 
ENDROOT
BRANCH   1   7
ATOM      7  C1' I4B d   1      -1.497   3.980   1.621  0.00  0.00     0.060 C 
BRANCH   7   8
ATOM      8  C2' I4B d   1      -1.145   3.598   0.198  0.00  0.00    -0.013 C 
ATOM      9  C4' I4B d   1      -1.038   4.815  -0.683  0.00  0.00     0.013 C 
ATOM     10  C3' I4B d   1       0.147   2.837   0.229  0.00  0.00     0.013 C 
ENDBRANCH   7   8
ENDBRANCH   1   7
TORSDOF 2
ENDMDL
