MODEL 1
REMARK minimizedAffinity 9.01445198
REMARK minimizedRMSD -1
REMARK  2 active torsions:
REMARK  status: ('A' for Active; 'I' for Inactive)
REMARK    1  A    between atoms: C2'_3  and  C1'_4 
REMARK    2  A    between atoms: C1'_4  and  C1_5 
ROOT
ATOM      1  C1  I4B d   1      -0.057   4.121   0.022  0.00  0.00    -0.075 A 
ATOM      2  C2  I4B d   1      -0.674   5.037  -0.793  0.00  0.00     0.003 A 
ATOM      3  C3  I4B d   1       0.096   5.977  -1.520  0.00  0.00     0.002 A 
ATOM      4  C4  I4B d   1       1.467   5.998  -1.365  0.00  0.00    -0.004 A 
ATOM      5  C5  I4B d   1       2.093   5.054  -0.556  0.00  0.00     0.002 A 
ATOM      6  C6  I4B d   1       1.328   4.101   0.132  0.00  0.00     0.003 A 
ENDROOT
BRANCH   1   7
ATOM      7  C1' I4B d   1      -0.902   3.164   0.801  0.00  0.00     0.060 C 
BRANCH   7   8
ATOM      8  C2' I4B d   1      -2.354   3.456   0.480  0.00  0.00    -0.013 C 
ATOM      9  C4' I4B d   1      -3.076   2.211   0.037  0.00  0.00     0.013 C 
ATOM     10  C3' I4B d   1      -2.989   4.043   1.705  0.00  0.00     0.013 C 
ENDBRANCH   7   8
ENDBRANCH   1   7
TORSDOF 2
ENDMDL
