MODEL 1
REMARK minimizedAffinity 4.00941181
REMARK minimizedRMSD -1
REMARK  1 active torsions:
REMARK  status: ('A' for Active; 'I' for Inactive)
REMARK    1  A    between atoms: C1_2  and  C2_3 
ROOT
ATOM      1  C2  UNL d   1       3.336   1.481   0.662  0.00  0.00    -0.077 A 
ATOM      2  C3  UNL d   1       3.284   0.609   1.758  0.00  0.00     0.002 A 
ATOM      3  C4  UNL d   1       2.196  -0.248   1.928  0.00  0.00     0.002 A 
ATOM      4  C5  UNL d   1       1.153  -0.245   1.004  0.00  0.00    -0.004 A 
ATOM      5  C6  UNL d   1       1.194   0.620  -0.089  0.00  0.00     0.002 A 
ATOM      6  C7  UNL d   1       2.281   1.478  -0.260  0.00  0.00     0.002 A 
ENDROOT
BRANCH   1   7
ATOM      7  C1  UNL d   1       4.532   2.372   0.450  0.00  0.00     0.055 C 
ATOM      8  C   UNL d   1       4.208   3.822   0.779  0.00  0.00     0.019 C 
ENDBRANCH   1   7
TORSDOF 1
ENDMDL
