MODEL 1
REMARK minimizedAffinity 0.437429607
REMARK minimizedRMSD -1
REMARK  1 active torsions:
REMARK  status: ('A' for Active; 'I' for Inactive)
REMARK    1  A    between atoms: C1_2  and  C2_3 
ROOT
ATOM      1  C2  UNL d   1      -5.651   2.456   4.390  0.00  0.00    -0.077 A 
ATOM      2  C3  UNL d   1      -5.603   1.069   4.192  0.00  0.00     0.002 A 
ATOM      3  C4  UNL d   1      -5.750   0.533   2.911  0.00  0.00     0.002 A 
ATOM      4  C5  UNL d   1      -5.941   1.377   1.819  0.00  0.00    -0.004 A 
ATOM      5  C6  UNL d   1      -5.992   2.758   2.006  0.00  0.00     0.002 A 
ATOM      6  C7  UNL d   1      -5.847   3.295   3.286  0.00  0.00     0.002 A 
ENDROOT
BRANCH   1   7
ATOM      7  C1  UNL d   1      -5.443   3.038   5.764  0.00  0.00     0.055 C 
ATOM      8  C   UNL d   1      -3.982   3.394   5.999  0.00  0.00     0.019 C 
ENDBRANCH   1   7
TORSDOF 1
ENDMDL
