MODEL 1
REMARK minimizedAffinity 8.44210243
REMARK minimizedRMSD -1
REMARK  1 active torsions:
REMARK  status: ('A' for Active; 'I' for Inactive)
REMARK    1  A    between atoms: C1_2  and  C2_3 
ROOT
ATOM      1  C2  UNL d   1      -1.354   1.206   2.232  0.00  0.00    -0.077 A 
ATOM      2  C3  UNL d   1      -0.104   1.833   2.324  0.00  0.00     0.002 A 
ATOM      3  C4  UNL d   1       1.043   1.194   1.849  0.00  0.00     0.002 A 
ATOM      4  C5  UNL d   1       0.950  -0.072   1.276  0.00  0.00    -0.004 A 
ATOM      5  C6  UNL d   1      -0.289  -0.705   1.182  0.00  0.00     0.002 A 
ATOM      6  C7  UNL d   1      -1.436  -0.068   1.657  0.00  0.00     0.002 A 
ENDROOT
BRANCH   1   7
ATOM      7  C1  UNL d   1      -2.599   1.915   2.699  0.00  0.00     0.055 C 
ATOM      8  C   UNL d   1      -3.817   1.481   1.896  0.00  0.00     0.019 C 
ENDBRANCH   1   7
TORSDOF 1
ENDMDL
