MODEL 1
REMARK minimizedAffinity 13.1778049
REMARK minimizedRMSD -1
REMARK  1 active torsions:
REMARK  status: ('A' for Active; 'I' for Inactive)
REMARK    1  A    between atoms: C1_2  and  C2_3 
ROOT
ATOM      1  C2  UNL d   1       3.367  -0.371   1.548  0.00  0.00    -0.077 A 
ATOM      2  C3  UNL d   1       4.409  -0.780   2.392  0.00  0.00     0.002 A 
ATOM      3  C4  UNL d   1       5.685  -0.230   2.257  0.00  0.00     0.002 A 
ATOM      4  C5  UNL d   1       5.929   0.736   1.282  0.00  0.00    -0.004 A 
ATOM      5  C6  UNL d   1       4.900   1.148   0.437  0.00  0.00     0.002 A 
ATOM      6  C7  UNL d   1       3.624   0.598   0.570  0.00  0.00     0.002 A 
ENDROOT
BRANCH   1   7
ATOM      7  C1  UNL d   1       1.978  -0.927   1.724  0.00  0.00     0.055 C 
ATOM      8  C   UNL d   1       1.070   0.065   2.435  0.00  0.00     0.019 C 
ENDBRANCH   1   7
TORSDOF 1
ENDMDL
