MODEL 1
REMARK minimizedAffinity 0.543553293
REMARK minimizedRMSD -1
REMARK  1 active torsions:
REMARK  status: ('A' for Active; 'I' for Inactive)
REMARK    1  A    between atoms: C1_2  and  C2_3 
ROOT
ATOM      1  C2  UNL d   1      -1.425   0.212   1.549  0.00  0.00    -0.077 A 
ATOM      2  C3  UNL d   1      -1.890   0.746   2.758  0.00  0.00     0.002 A 
ATOM      3  C4  UNL d   1      -3.131   1.383   2.818  0.00  0.00     0.002 A 
ATOM      4  C5  UNL d   1      -3.918   1.489   1.673  0.00  0.00    -0.004 A 
ATOM      5  C6  UNL d   1      -3.463   0.963   0.465  0.00  0.00     0.002 A 
ATOM      6  C7  UNL d   1      -2.222   0.327   0.403  0.00  0.00     0.002 A 
ENDROOT
BRANCH   1   7
ATOM      7  C1  UNL d   1      -0.109  -0.519   1.493  0.00  0.00     0.055 C 
ATOM      8  C   UNL d   1       0.916   0.247   0.669  0.00  0.00     0.019 C 
ENDBRANCH   1   7
TORSDOF 1
ENDMDL
