MODEL 1
REMARK minimizedAffinity 7.09557533
REMARK minimizedRMSD -1
REMARK  1 active torsions:
REMARK  status: ('A' for Active; 'I' for Inactive)
REMARK    1  A    between atoms: C1_2  and  C2_3 
ROOT
ATOM      1  C2  UNL d   1      -1.736  -1.835   0.186  0.00  0.00    -0.077 A 
ATOM      2  C3  UNL d   1      -1.277  -0.911   1.135  0.00  0.00     0.002 A 
ATOM      3  C4  UNL d   1      -1.835   0.367   1.204  0.00  0.00     0.002 A 
ATOM      4  C5  UNL d   1      -2.857   0.731   0.329  0.00  0.00    -0.004 A 
ATOM      5  C6  UNL d   1      -3.318  -0.180  -0.620  0.00  0.00     0.002 A 
ATOM      6  C7  UNL d   1      -2.761  -1.458  -0.691  0.00  0.00     0.002 A 
ENDROOT
BRANCH   1   7
ATOM      7  C1  UNL d   1      -1.170  -3.230   0.143  0.00  0.00     0.055 C 
ATOM      8  C   UNL d   1      -1.609  -4.043   1.352  0.00  0.00     0.019 C 
ENDBRANCH   1   7
TORSDOF 1
ENDMDL
