MODEL 1
REMARK minimizedAffinity 3.63960505
REMARK minimizedRMSD -1
REMARK  1 active torsions:
REMARK  status: ('A' for Active; 'I' for Inactive)
REMARK    1  A    between atoms: C1_2  and  C2_3 
ROOT
ATOM      1  C2  UNL d   1       0.092   0.457   1.034  0.00  0.00    -0.077 A 
ATOM      2  C3  UNL d   1      -0.037   1.206   2.212  0.00  0.00     0.002 A 
ATOM      3  C4  UNL d   1      -1.287   1.681   2.613  0.00  0.00     0.002 A 
ATOM      4  C5  UNL d   1      -2.417   1.409   1.845  0.00  0.00    -0.004 A 
ATOM      5  C6  UNL d   1      -2.298   0.667   0.671  0.00  0.00     0.002 A 
ATOM      6  C7  UNL d   1      -1.050   0.192   0.268  0.00  0.00     0.002 A 
ENDROOT
BRANCH   1   7
ATOM      7  C1  UNL d   1       1.432  -0.098   0.625  0.00  0.00     0.055 C 
ATOM      8  C   UNL d   1       2.298   0.970  -0.026  0.00  0.00     0.019 C 
ENDBRANCH   1   7
TORSDOF 1
ENDMDL
