MODEL 1
REMARK minimizedAffinity -0.692510426
REMARK minimizedRMSD -1
REMARK  1 active torsions:
REMARK  status: ('A' for Active; 'I' for Inactive)
REMARK    1  A    between atoms: C1_2  and  C2_3 
ROOT
ATOM      1  C2  UNL d   1      -0.370   0.531   1.705  0.00  0.00    -0.077 A 
ATOM      2  C3  UNL d   1      -0.732   1.326   2.802  0.00  0.00     0.002 A 
ATOM      3  C4  UNL d   1      -2.032   1.822   2.917  0.00  0.00     0.002 A 
ATOM      4  C5  UNL d   1      -2.981   1.525   1.941  0.00  0.00    -0.004 A 
ATOM      5  C6  UNL d   1      -2.631   0.737   0.846  0.00  0.00     0.002 A 
ATOM      6  C7  UNL d   1      -1.332   0.241   0.728  0.00  0.00     0.002 A 
ENDROOT
BRANCH   1   7
ATOM      7  C1  UNL d   1       1.018  -0.045   1.604  0.00  0.00     0.055 C 
ATOM      8  C   UNL d   1       1.838   0.668   0.539  0.00  0.00     0.019 C 
ENDBRANCH   1   7
TORSDOF 1
ENDMDL
