MODEL 1
REMARK minimizedAffinity 2.82573366
REMARK minimizedRMSD -1
REMARK  1 active torsions:
REMARK  status: ('A' for Active; 'I' for Inactive)
REMARK    1  A    between atoms: C1_2  and  C2_3 
ROOT
ATOM      1  C2  UNL d   1      -0.866   0.550   1.320  0.00  0.00    -0.077 A 
ATOM      2  C3  UNL d   1      -1.787   1.265   2.099  0.00  0.00     0.002 A 
ATOM      3  C4  UNL d   1      -1.342   2.153   3.081  0.00  0.00     0.002 A 
ATOM      4  C5  UNL d   1       0.023   2.337   3.290  0.00  0.00    -0.004 A 
ATOM      5  C6  UNL d   1       0.946   1.629   2.522  0.00  0.00     0.002 A 
ATOM      6  C7  UNL d   1       0.504   0.741   1.541  0.00  0.00     0.002 A 
ENDROOT
BRANCH   1   7
ATOM      7  C1  UNL d   1      -1.343  -0.370   0.227  0.00  0.00     0.055 C 
ATOM      8  C   UNL d   1      -1.516  -1.793   0.738  0.00  0.00     0.019 C 
ENDBRANCH   1   7
TORSDOF 1
ENDMDL
