MODEL 1
REMARK minimizedAffinity 7.87878084
REMARK minimizedRMSD -1
REMARK  1 active torsions:
REMARK  status: ('A' for Active; 'I' for Inactive)
REMARK    1  A    between atoms: C1_2  and  C2_3 
ROOT
ATOM      1  C2  UNL d   1      -0.953   0.991   1.947  0.00  0.00    -0.077 A 
ATOM      2  C3  UNL d   1       0.096   1.894   2.172  0.00  0.00     0.002 A 
ATOM      3  C4  UNL d   1       1.413   1.439   2.256  0.00  0.00     0.002 A 
ATOM      4  C5  UNL d   1       1.694   0.082   2.111  0.00  0.00    -0.004 A 
ATOM      5  C6  UNL d   1       0.657  -0.824   1.888  0.00  0.00     0.002 A 
ATOM      6  C7  UNL d   1      -0.660  -0.371   1.805  0.00  0.00     0.002 A 
ENDROOT
BRANCH   1   7
ATOM      7  C1  UNL d   1      -2.369   1.486   1.807  0.00  0.00     0.055 C 
ATOM      8  C   UNL d   1      -3.011   0.973   0.526  0.00  0.00     0.019 C 
ENDBRANCH   1   7
TORSDOF 1
ENDMDL
