MODEL 1
REMARK minimizedAffinity 1.30981922
REMARK minimizedRMSD -1
REMARK  0 active torsions:
REMARK  status: ('A' for Active; 'I' for Inactive)
ROOT
ATOM      1  C   UNL d   1      -1.612   5.636  -2.569  0.00  0.00     0.077 C 
ATOM      2  C1  UNL d   1      -0.534   5.375  -1.560  0.00  0.00    -0.074 A 
ATOM      3  C2  UNL d   1       0.713   6.000  -1.663  0.00  0.00    -0.005 A 
ATOM      4  C3  UNL d   1       1.703   5.755  -0.712  0.00  0.00     0.006 A 
ATOM      5  C4  UNL d   1       1.457   4.884   0.350  0.00  0.00    -0.005 A 
ATOM      6  C5  UNL d   1       0.216   4.251   0.470  0.00  0.00    -0.074 A 
ATOM      7  C6  UNL d   1      -0.069   3.320   1.611  0.00  0.00     0.077 C 
ATOM      8  C7  UNL d   1      -0.776   4.508  -0.486  0.00  0.00    -0.001 A 
ENDROOT
TORSDOF 0
ENDMDL
