MODEL 1
REMARK minimizedAffinity 17.6318035
REMARK minimizedRMSD -1
REMARK  0 active torsions:
REMARK  status: ('A' for Active; 'I' for Inactive)
ROOT
ATOM      1  C   UNL d   1      -2.239   6.000   2.567  0.00  0.00     0.077 C 
ATOM      2  C1  UNL d   1      -1.336   5.114   1.759  0.00  0.00    -0.074 A 
ATOM      3  C2  UNL d   1      -1.150   3.772   2.104  0.00  0.00    -0.005 A 
ATOM      4  C3  UNL d   1      -0.315   2.958   1.338  0.00  0.00     0.006 A 
ATOM      5  C4  UNL d   1       0.340   3.478   0.221  0.00  0.00    -0.005 A 
ATOM      6  C5  UNL d   1       0.165   4.818  -0.140  0.00  0.00    -0.074 A 
ATOM      7  C6  UNL d   1       0.855   5.390  -1.342  0.00  0.00     0.077 C 
ATOM      8  C7  UNL d   1      -0.680   5.627   0.631  0.00  0.00    -0.001 A 
ENDROOT
TORSDOF 0
ENDMDL
