MODEL 1
REMARK minimizedAffinity 7.72267628
REMARK minimizedRMSD -1
REMARK  0 active torsions:
REMARK  status: ('A' for Active; 'I' for Inactive)
ROOT
ATOM      1  C   UNL d   1       0.745   5.258  -0.968  0.00  0.00     0.077 C 
ATOM      2  C1  UNL d   1       1.017   4.624   0.364  0.00  0.00    -0.074 A 
ATOM      3  C2  UNL d   1       2.182   4.922   1.078  0.00  0.00    -0.005 A 
ATOM      4  C3  UNL d   1       2.417   4.332   2.319  0.00  0.00     0.006 A 
ATOM      5  C4  UNL d   1       1.491   3.439   2.859  0.00  0.00    -0.005 A 
ATOM      6  C5  UNL d   1       0.320   3.129   2.161  0.00  0.00    -0.074 A 
ATOM      7  C6  UNL d   1      -0.691   2.179   2.731  0.00  0.00     0.077 C 
ATOM      8  C7  UNL d   1       0.087   3.732   0.917  0.00  0.00    -0.001 A 
ENDROOT
TORSDOF 0
ENDMDL
