MODEL 1
REMARK minimizedAffinity 7.19049263
REMARK minimizedRMSD -1
REMARK  0 active torsions:
REMARK  status: ('A' for Active; 'I' for Inactive)
ROOT
ATOM      1  C   UNL d   1       0.040   1.710   0.125  0.00  0.00     0.077 C 
ATOM      2  C1  UNL d   1       0.104   3.206   0.038  0.00  0.00    -0.074 A 
ATOM      3  C2  UNL d   1      -0.192   4.004   1.148  0.00  0.00    -0.005 A 
ATOM      4  C3  UNL d   1      -0.119   5.394   1.054  0.00  0.00     0.006 A 
ATOM      5  C4  UNL d   1       0.250   5.999  -0.148  0.00  0.00    -0.005 A 
ATOM      6  C5  UNL d   1       0.550   5.217  -1.268  0.00  0.00    -0.074 A 
ATOM      7  C6  UNL d   1       0.958   5.851  -2.565  0.00  0.00     0.077 C 
ATOM      8  C7  UNL d   1       0.481   3.821  -1.164  0.00  0.00    -0.001 A 
ENDROOT
TORSDOF 0
ENDMDL
