MODEL 1
REMARK minimizedAffinity 3.37631178
REMARK minimizedRMSD -1
REMARK  0 active torsions:
REMARK  status: ('A' for Active; 'I' for Inactive)
ROOT
ATOM      1  C   UNL d   1       0.946   5.999  -0.978  0.00  0.00     0.077 C 
ATOM      2  C1  UNL d   1       0.863   4.850  -0.017  0.00  0.00    -0.074 A 
ATOM      3  C2  UNL d   1      -0.080   3.832  -0.193  0.00  0.00    -0.005 A 
ATOM      4  C3  UNL d   1      -0.139   2.766   0.704  0.00  0.00     0.006 A 
ATOM      5  C4  UNL d   1       0.743   2.706   1.784  0.00  0.00    -0.005 A 
ATOM      6  C5  UNL d   1       1.693   3.714   1.975  0.00  0.00    -0.074 A 
ATOM      7  C6  UNL d   1       2.655   3.661   3.125  0.00  0.00     0.077 C 
ATOM      8  C7  UNL d   1       1.751   4.779   1.066  0.00  0.00    -0.001 A 
ENDROOT
TORSDOF 0
ENDMDL
