MODEL 1
REMARK minimizedAffinity 12.8422518
REMARK minimizedRMSD -1
REMARK  0 active torsions:
REMARK  status: ('A' for Active; 'I' for Inactive)
ROOT
ATOM      1  C   UNL d   1       3.318  -5.656  -3.147  0.00  0.00     0.077 C 
ATOM      2  C1  UNL d   1       4.260  -4.494  -3.040  0.00  0.00    -0.074 A 
ATOM      3  C2  UNL d   1       4.891  -3.973  -4.174  0.00  0.00    -0.005 A 
ATOM      4  C3  UNL d   1       5.757  -2.886  -4.060  0.00  0.00     0.006 A 
ATOM      5  C4  UNL d   1       5.999  -2.309  -2.813  0.00  0.00    -0.005 A 
ATOM      6  C5  UNL d   1       5.376  -2.815  -1.668  0.00  0.00    -0.074 A 
ATOM      7  C6  UNL d   1       5.618  -2.200  -0.321  0.00  0.00     0.077 C 
ATOM      8  C7  UNL d   1       4.502  -3.904  -1.792  0.00  0.00    -0.001 A 
ENDROOT
TORSDOF 0
ENDMDL
