MODEL 1
REMARK minimizedAffinity 11.9727497
REMARK minimizedRMSD -1
REMARK  0 active torsions:
REMARK  status: ('A' for Active; 'I' for Inactive)
ROOT
ATOM      1  C   UNL d   1       5.988  -4.819   5.600  0.00  0.00     0.077 C 
ATOM      2  C1  UNL d   1       5.301  -3.487   5.532  0.00  0.00    -0.074 A 
ATOM      3  C2  UNL d   1       5.931  -2.329   6.000  0.00  0.00    -0.005 A 
ATOM      4  C3  UNL d   1       5.284  -1.096   5.922  0.00  0.00     0.006 A 
ATOM      5  C4  UNL d   1       4.003  -1.008   5.375  0.00  0.00    -0.005 A 
ATOM      6  C5  UNL d   1       3.358  -2.155   4.902  0.00  0.00    -0.074 A 
ATOM      7  C6  UNL d   1       1.985  -2.076   4.303  0.00  0.00     0.077 C 
ATOM      8  C7  UNL d   1       4.017  -3.389   4.977  0.00  0.00    -0.001 A 
ENDROOT
TORSDOF 0
ENDMDL
