MODEL 1
REMARK minimizedAffinity 10.093256
REMARK minimizedRMSD -1
REMARK  0 active torsions:
REMARK  status: ('A' for Active; 'I' for Inactive)
ROOT
ATOM      1  C   UNL d   1       1.126   5.624  -1.994  0.00  0.00     0.077 C 
ATOM      2  C1  UNL d   1       0.554   5.207  -0.672  0.00  0.00    -0.074 A 
ATOM      3  C2  UNL d   1      -0.394   6.000  -0.017  0.00  0.00    -0.005 A 
ATOM      4  C3  UNL d   1      -0.924   5.594   1.208  0.00  0.00     0.006 A 
ATOM      5  C4  UNL d   1      -0.513   4.394   1.788  0.00  0.00    -0.005 A 
ATOM      6  C5  UNL d   1       0.432   3.587   1.147  0.00  0.00    -0.074 A 
ATOM      7  C6  UNL d   1       0.877   2.289   1.752  0.00  0.00     0.077 C 
ATOM      8  C7  UNL d   1       0.955   3.998  -0.086  0.00  0.00    -0.001 A 
ENDROOT
TORSDOF 0
ENDMDL
