MODEL 1
REMARK minimizedAffinity 2.17942524
REMARK minimizedRMSD -1
REMARK  0 active torsions:
REMARK  status: ('A' for Active; 'I' for Inactive)
ROOT
ATOM      1  C   UNL d   1       0.146   2.558   2.574  0.00  0.00     0.077 C 
ATOM      2  C1  UNL d   1      -0.106   3.760   1.713  0.00  0.00    -0.074 A 
ATOM      3  C2  UNL d   1      -0.769   4.882   2.221  0.00  0.00    -0.005 A 
ATOM      4  C3  UNL d   1      -0.987   5.996   1.411  0.00  0.00     0.006 A 
ATOM      5  C4  UNL d   1      -0.546   6.000   0.087  0.00  0.00    -0.005 A 
ATOM      6  C5  UNL d   1       0.119   4.887  -0.438  0.00  0.00    -0.074 A 
ATOM      7  C6  UNL d   1       0.608   4.879  -1.856  0.00  0.00     0.077 C 
ATOM      8  C7  UNL d   1       0.341   3.774   0.384  0.00  0.00    -0.001 A 
ENDROOT
TORSDOF 0
ENDMDL
