MODEL 1
REMARK minimizedAffinity 7.88226986
REMARK minimizedRMSD -1
REMARK  0 active torsions:
REMARK  status: ('A' for Active; 'I' for Inactive)
ROOT
ATOM      1  C   UNL d   1      -0.013   5.760  -1.446  0.00  0.00     0.077 C 
ATOM      2  C1  UNL d   1       0.122   4.594  -0.513  0.00  0.00    -0.074 A 
ATOM      3  C2  UNL d   1       0.925   4.677   0.629  0.00  0.00    -0.005 A 
ATOM      4  C3  UNL d   1       1.034   3.587   1.493  0.00  0.00     0.006 A 
ATOM      5  C4  UNL d   1       0.341   2.406   1.225  0.00  0.00    -0.005 A 
ATOM      6  C5  UNL d   1      -0.467   2.305   0.088  0.00  0.00    -0.074 A 
ATOM      7  C6  UNL d   1      -1.226   1.046  -0.210  0.00  0.00     0.077 C 
ATOM      8  C7  UNL d   1      -0.577   3.406  -0.771  0.00  0.00    -0.001 A 
ENDROOT
TORSDOF 0
ENDMDL
