MODEL 1
REMARK minimizedAffinity 12.464736
REMARK minimizedRMSD -1
REMARK  0 active torsions:
REMARK  status: ('A' for Active; 'I' for Inactive)
ROOT
ATOM      1  C   UNL d   1      -0.791   5.999   1.150  0.00  0.00     0.077 C 
ATOM      2  C1  UNL d   1      -0.235   4.607   1.176  0.00  0.00    -0.074 A 
ATOM      3  C2  UNL d   1       0.491   4.102   0.092  0.00  0.00    -0.005 A 
ATOM      4  C3  UNL d   1       1.010   2.809   0.134  0.00  0.00     0.006 A 
ATOM      5  C4  UNL d   1       0.810   2.008   1.259  0.00  0.00    -0.005 A 
ATOM      6  C5  UNL d   1       0.088   2.495   2.353  0.00  0.00    -0.074 A 
ATOM      7  C6  UNL d   1      -0.128   1.651   3.574  0.00  0.00     0.077 C 
ATOM      8  C7  UNL d   1      -0.425   3.799   2.306  0.00  0.00    -0.001 A 
ENDROOT
TORSDOF 0
ENDMDL
