MODEL 1
REMARK minimizedAffinity 11.523365
REMARK minimizedRMSD -1
REMARK  0 active torsions:
REMARK  status: ('A' for Active; 'I' for Inactive)
ROOT
ATOM      1  C   UNL d   1      -0.039   0.503  -0.986  0.00  0.00     0.077 C 
ATOM      2  C1  UNL d   1      -0.051   1.709  -0.095  0.00  0.00    -0.074 A 
ATOM      3  C2  UNL d   1      -0.431   1.607   1.248  0.00  0.00    -0.005 A 
ATOM      4  C3  UNL d   1      -0.428   2.736   2.067  0.00  0.00     0.006 A 
ATOM      5  C4  UNL d   1      -0.046   3.976   1.553  0.00  0.00    -0.005 A 
ATOM      6  C5  UNL d   1       0.338   4.097   0.214  0.00  0.00    -0.074 A 
ATOM      7  C6  UNL d   1       0.760   5.420  -0.352  0.00  0.00     0.077 C 
ATOM      8  C7  UNL d   1       0.339   2.956  -0.601  0.00  0.00    -0.001 A 
ENDROOT
TORSDOF 0
ENDMDL
