MODEL 1
REMARK minimizedAffinity 5.4819932
REMARK minimizedRMSD -1
REMARK  0 active torsions:
REMARK  status: ('A' for Active; 'I' for Inactive)
ROOT
ATOM      1  C   UNL d   1       1.095   2.297   3.460  0.00  0.00     0.077 C 
ATOM      2  C1  UNL d   1       0.759   2.762   2.074  0.00  0.00    -0.074 A 
ATOM      3  C2  UNL d   1       0.758   1.869   0.997  0.00  0.00    -0.005 A 
ATOM      4  C3  UNL d   1       0.435   2.313  -0.285  0.00  0.00     0.006 A 
ATOM      5  C4  UNL d   1       0.108   3.652  -0.503  0.00  0.00    -0.005 A 
ATOM      6  C5  UNL d   1       0.103   4.559   0.562  0.00  0.00    -0.074 A 
ATOM      7  C6  UNL d   1      -0.255   6.000   0.347  0.00  0.00     0.077 C 
ATOM      8  C7  UNL d   1       0.422   4.104   1.848  0.00  0.00    -0.001 A 
ENDROOT
TORSDOF 0
ENDMDL
