MODEL 1
REMARK minimizedAffinity 6.17142534
REMARK minimizedRMSD -1
REMARK  0 active torsions:
REMARK  status: ('A' for Active; 'I' for Inactive)
ROOT
ATOM      1  O1  BZF d   1       4.105  -1.835  -1.752  0.00  0.00    -0.204 OA
ATOM      2  C2  BZF d   1       4.326  -2.102  -0.415  0.00  0.00     0.174 A 
ATOM      3  C3  BZF d   1       4.292  -3.429  -0.180  0.00  0.00    -0.012 A 
ATOM      4  C3A BZF d   1       4.125  -4.035  -1.465  0.00  0.00    -0.107 A 
ATOM      5  C4  BZF d   1       4.035  -5.330  -1.888  0.00  0.00     0.055 A 
ATOM      6  C5  BZF d   1       3.801  -5.581  -3.203  0.00  0.00    -0.016 A 
ATOM      7  C6  BZF d   1       3.646  -4.562  -4.120  0.00  0.00     0.022 A 
ATOM      8  C7  BZF d   1       3.732  -3.262  -3.749  0.00  0.00     0.029 A 
ATOM      9  C7A BZF d   1       4.001  -3.006  -2.426  0.00  0.00     0.058 A 
ENDROOT
TORSDOF 0
ENDMDL
