MODEL 1
REMARK minimizedAffinity -1.94681263
REMARK minimizedRMSD -1
REMARK  0 active torsions:
REMARK  status: ('A' for Active; 'I' for Inactive)
ROOT
ATOM      1  O1  BZF d   1       4.833  -2.168  -0.853  0.00  0.00    -0.204 OA
ATOM      2  C2  BZF d   1       3.684  -1.421  -1.025  0.00  0.00     0.174 A 
ATOM      3  C3  BZF d   1       2.920  -1.937  -2.009  0.00  0.00    -0.012 A 
ATOM      4  C3A BZF d   1       3.592  -3.132  -2.419  0.00  0.00    -0.107 A 
ATOM      5  C4  BZF d   1       3.315  -4.091  -3.351  0.00  0.00     0.055 A 
ATOM      6  C5  BZF d   1       4.213  -5.091  -3.555  0.00  0.00    -0.016 A 
ATOM      7  C6  BZF d   1       5.397  -5.159  -2.851  0.00  0.00     0.022 A 
ATOM      8  C7  BZF d   1       5.713  -4.233  -1.913  0.00  0.00     0.029 A 
ATOM      9  C7A BZF d   1       4.793  -3.240  -1.681  0.00  0.00     0.058 A 
ENDROOT
TORSDOF 0
ENDMDL
