MODEL 1
REMARK minimizedAffinity 4.81425476
REMARK minimizedRMSD -1
REMARK  0 active torsions:
REMARK  status: ('A' for Active; 'I' for Inactive)
ROOT
ATOM      1  O1  BZF d   1       3.798  -3.442  -2.601  0.00  0.00    -0.204 OA
ATOM      2  C2  BZF d   1       4.854  -2.683  -2.136  0.00  0.00     0.174 A 
ATOM      3  C3  BZF d   1       4.889  -2.686  -0.788  0.00  0.00    -0.012 A 
ATOM      4  C3A BZF d   1       3.840  -3.572  -0.386  0.00  0.00    -0.107 A 
ATOM      5  C4  BZF d   1       3.386  -4.000   0.828  0.00  0.00     0.055 A 
ATOM      6  C5  BZF d   1       2.296  -4.810   0.878  0.00  0.00    -0.016 A 
ATOM      7  C6  BZF d   1       1.633  -5.206  -0.265  0.00  0.00     0.022 A 
ATOM      8  C7  BZF d   1       2.049  -4.812  -1.493  0.00  0.00     0.029 A 
ATOM      9  C7A BZF d   1       3.171  -4.020  -1.548  0.00  0.00     0.058 A 
ENDROOT
TORSDOF 0
ENDMDL
