MODEL 1
REMARK minimizedAffinity 4.99964762
REMARK minimizedRMSD -1
REMARK  0 active torsions:
REMARK  status: ('A' for Active; 'I' for Inactive)
ROOT
ATOM      1  O1  BZF d   1       5.012  -2.463  -2.163  0.00  0.00    -0.204 OA
ATOM      2  C2  BZF d   1       4.800  -2.232  -0.818  0.00  0.00     0.174 A 
ATOM      3  C3  BZF d   1       4.036  -3.206  -0.280  0.00  0.00    -0.012 A 
ATOM      4  C3A BZF d   1       3.831  -4.149  -1.337  0.00  0.00    -0.107 A 
ATOM      5  C4  BZF d   1       3.165  -5.338  -1.417  0.00  0.00     0.055 A 
ATOM      6  C5  BZF d   1       3.093  -5.976  -2.615  0.00  0.00    -0.016 A 
ATOM      7  C6  BZF d   1       3.670  -5.451  -3.752  0.00  0.00     0.022 A 
ATOM      8  C7  BZF d   1       4.345  -4.276  -3.721  0.00  0.00     0.029 A 
ATOM      9  C7A BZF d   1       4.448  -3.646  -2.505  0.00  0.00     0.058 A 
ENDROOT
TORSDOF 0
ENDMDL
