MODEL 1
REMARK minimizedAffinity 0.851580918
REMARK minimizedRMSD -1
REMARK  0 active torsions:
REMARK  status: ('A' for Active; 'I' for Inactive)
ROOT
ATOM      1  O1  BZF d   1       5.475  -3.292  -0.012  0.00  0.00    -0.204 OA
ATOM      2  C2  BZF d   1       4.758  -2.111  -0.018  0.00  0.00     0.174 A 
ATOM      3  C3  BZF d   1       3.795  -2.140  -0.961  0.00  0.00    -0.012 A 
ATOM      4  C3A BZF d   1       3.859  -3.455  -1.523  0.00  0.00    -0.107 A 
ATOM      5  C4  BZF d   1       3.145  -4.096  -2.494  0.00  0.00     0.055 A 
ATOM      6  C5  BZF d   1       3.506  -5.355  -2.858  0.00  0.00    -0.016 A 
ATOM      7  C6  BZF d   1       4.578  -5.999  -2.275  0.00  0.00     0.022 A 
ATOM      8  C7  BZF d   1       5.313  -5.405  -1.304  0.00  0.00     0.029 A 
ATOM      9  C7A BZF d   1       4.930  -4.146  -0.911  0.00  0.00     0.058 A 
ENDROOT
TORSDOF 0
ENDMDL
