MODEL 1
REMARK minimizedAffinity -1.77442467
REMARK minimizedRMSD -1
REMARK  0 active torsions:
REMARK  status: ('A' for Active; 'I' for Inactive)
ROOT
ATOM      1  C   UNL d   1       2.705  -1.369   2.214  0.00  0.00     0.023 A 
ATOM      2  C1  UNL d   1       1.711  -2.265   1.819  0.00  0.00     0.003 A 
ATOM      3  C2  UNL d   1       0.645  -1.825   1.032  0.00  0.00     0.048 A 
ATOM      4  C3  UNL d   1       0.579  -0.488   0.642  0.00  0.00     0.023 A 
ATOM      5  C4  UNL d   1       1.572   0.412   1.033  0.00  0.00     0.048 A 
ATOM      6  C5  UNL d   1       2.635  -0.032   1.821  0.00  0.00     0.003 A 
ATOM      7  I   UNL d   1      -1.007   0.169  -0.530  0.00  0.00    -0.146 I 
ENDROOT
TORSDOF 0
ENDMDL
