MODEL 1
REMARK minimizedAffinity -1.29159176
REMARK minimizedRMSD -1
REMARK  0 active torsions:
REMARK  status: ('A' for Active; 'I' for Inactive)
ROOT
ATOM      1  C   UNL d   1       3.336  -0.380   0.447  0.00  0.00     0.023 A 
ATOM      2  C1  UNL d   1       2.722   0.846   0.703  0.00  0.00     0.003 A 
ATOM      3  C2  UNL d   1       1.340   0.980   0.557  0.00  0.00     0.048 A 
ATOM      4  C3  UNL d   1       0.577  -0.116   0.156  0.00  0.00     0.023 A 
ATOM      5  C4  UNL d   1       1.187  -1.345  -0.100  0.00  0.00     0.048 A 
ATOM      6  C5  UNL d   1       2.570  -1.474   0.046  0.00  0.00     0.003 A 
ATOM      7  I   UNL d   1      -1.480   0.081  -0.061  0.00  0.00    -0.146 I 
ENDROOT
TORSDOF 0
ENDMDL
