MODEL 1
REMARK minimizedAffinity -4.35069799
REMARK minimizedRMSD -1
REMARK  0 active torsions:
REMARK  status: ('A' for Active; 'I' for Inactive)
ROOT
ATOM      1  C   UNL d   1       3.288  -1.025   1.463  0.00  0.00     0.023 A 
ATOM      2  C1  UNL d   1       3.206   0.090   0.629  0.00  0.00     0.003 A 
ATOM      3  C2  UNL d   1       1.962   0.535   0.177  0.00  0.00     0.048 A 
ATOM      4  C3  UNL d   1       0.804  -0.138   0.564  0.00  0.00     0.023 A 
ATOM      5  C4  UNL d   1       0.881  -1.254   1.400  0.00  0.00     0.048 A 
ATOM      6  C5  UNL d   1       2.127  -1.696   1.848  0.00  0.00     0.003 A 
ATOM      7  I   UNL d   1      -1.049   0.523  -0.106  0.00  0.00    -0.146 I 
ENDROOT
TORSDOF 0
ENDMDL
