MODEL 1
REMARK minimizedAffinity -4.64591742
REMARK minimizedRMSD -1
REMARK  0 active torsions:
REMARK  status: ('A' for Active; 'I' for Inactive)
ROOT
ATOM      1  C   UNL d   1       3.490  -0.775   1.400  0.00  0.00     0.023 A 
ATOM      2  C1  UNL d   1       3.215   0.285   0.536  0.00  0.00     0.003 A 
ATOM      3  C2  UNL d   1       1.894   0.602   0.217  0.00  0.00     0.048 A 
ATOM      4  C3  UNL d   1       0.851  -0.144   0.765  0.00  0.00     0.023 A 
ATOM      5  C4  UNL d   1       1.122  -1.206   1.631  0.00  0.00     0.048 A 
ATOM      6  C5  UNL d   1       2.445  -1.520   1.946  0.00  0.00     0.003 A 
ATOM      7  I   UNL d   1      -1.117   0.326   0.292  0.00  0.00    -0.146 I 
ENDROOT
TORSDOF 0
ENDMDL
