MODEL 1
REMARK minimizedAffinity -0.33880046
REMARK minimizedRMSD -1
REMARK  0 active torsions:
REMARK  status: ('A' for Active; 'I' for Inactive)
ROOT
ATOM      1  C   UNL d   1       1.492   0.014   1.258  0.00  0.00     0.023 A 
ATOM      2  C1  UNL d   1       0.868   1.171   0.791  0.00  0.00     0.003 A 
ATOM      3  C2  UNL d   1      -0.074   1.091  -0.236  0.00  0.00     0.048 A 
ATOM      4  C3  UNL d   1      -0.388  -0.149  -0.791  0.00  0.00     0.023 A 
ATOM      5  C4  UNL d   1       0.233  -1.309  -0.326  0.00  0.00     0.048 A 
ATOM      6  C5  UNL d   1       1.175  -1.224   0.700  0.00  0.00     0.003 A 
ATOM      7  I   UNL d   1      -1.791  -0.271  -2.320  0.00  0.00    -0.146 I 
ENDROOT
TORSDOF 0
ENDMDL
