MODEL 1
REMARK minimizedAffinity -3.83115792
REMARK minimizedRMSD -1
REMARK  0 active torsions:
REMARK  status: ('A' for Active; 'I' for Inactive)
ROOT
ATOM      1  C   UNL d   1       2.959   0.347   0.791  0.00  0.00     0.023 A 
ATOM      2  C1  UNL d   1       2.515  -0.866   0.263  0.00  0.00     0.003 A 
ATOM      3  C2  UNL d   1       1.214  -0.979  -0.230  0.00  0.00     0.048 A 
ATOM      4  C3  UNL d   1       0.362   0.124  -0.193  0.00  0.00     0.023 A 
ATOM      5  C4  UNL d   1       0.802   1.340   0.333  0.00  0.00     0.048 A 
ATOM      6  C5  UNL d   1       2.104   1.448   0.826  0.00  0.00     0.003 A 
ATOM      7  I   UNL d   1      -1.576  -0.042  -0.927  0.00  0.00    -0.146 I 
ENDROOT
TORSDOF 0
ENDMDL
