MODEL 1
REMARK minimizedAffinity -1.5772953
REMARK minimizedRMSD -1
REMARK  0 active torsions:
REMARK  status: ('A' for Active; 'I' for Inactive)
ROOT
ATOM      1  C   UNL d   1      -1.935  -0.032   0.045  0.00  0.00     0.023 A 
ATOM      2  C1  UNL d   1      -1.062   0.882  -0.545  0.00  0.00     0.003 A 
ATOM      3  C2  UNL d   1       0.312   0.787  -0.312  0.00  0.00     0.048 A 
ATOM      4  C3  UNL d   1       0.805  -0.224   0.511  0.00  0.00     0.023 A 
ATOM      5  C4  UNL d   1      -0.065  -1.141   1.103  0.00  0.00     0.048 A 
ATOM      6  C5  UNL d   1      -1.438  -1.042   0.868  0.00  0.00     0.003 A 
ATOM      7  I   UNL d   1       2.849  -0.367   0.859  0.00  0.00    -0.146 I 
ENDROOT
TORSDOF 0
ENDMDL
