MODEL 1
REMARK minimizedAffinity -3.74395585
REMARK minimizedRMSD -1
REMARK  1 active torsions:
REMARK  status: ('A' for Active; 'I' for Inactive)
REMARK    1  A    between atoms: C1_2  and  C2_3 
ROOT
ATOM      1  C2  UNL d   1      -0.698  -0.083   0.129  0.00  0.00    -0.073 A 
ATOM      2  C3  UNL d   1       0.383   0.792  -0.030  0.00  0.00    -0.002 A 
ATOM      3  C4  UNL d   1       1.537   0.373  -0.694  0.00  0.00     0.004 A 
ATOM      4  C5  UNL d   1       1.619  -0.920  -1.212  0.00  0.00    -0.004 A 
ATOM      5  C6  UNL d   1       0.545  -1.804  -1.073  0.00  0.00    -0.075 A 
ATOM      6  C7  UNL d   1       0.618  -3.199  -1.622  0.00  0.00     0.076 C 
ATOM      7  C8  UNL d   1      -0.609  -1.377  -0.402  0.00  0.00     0.001 A 
ENDROOT
BRANCH   1   8
ATOM      8  C1  UNL d   1      -1.948   0.367   0.840  0.00  0.00     0.053 C 
ATOM      9  C   UNL d   1      -1.709   1.609   1.683  0.00  0.00     0.018 C 
ENDBRANCH   1   8
TORSDOF 1
ENDMDL
