MODEL 1
REMARK minimizedAffinity -2.59109068
REMARK minimizedRMSD -1
REMARK  1 active torsions:
REMARK  status: ('A' for Active; 'I' for Inactive)
REMARK    1  A    between atoms: C1_2  and  C2_3 
ROOT
ATOM      1  C2  UNL d   1       0.487  -1.105  -0.915  0.00  0.00    -0.073 A 
ATOM      2  C3  UNL d   1       0.791   0.083  -1.590  0.00  0.00    -0.002 A 
ATOM      3  C4  UNL d   1       0.386   1.313  -1.069  0.00  0.00     0.004 A 
ATOM      4  C5  UNL d   1      -0.319   1.368   0.133  0.00  0.00    -0.004 A 
ATOM      5  C6  UNL d   1      -0.622   0.193   0.828  0.00  0.00    -0.075 A 
ATOM      6  C7  UNL d   1      -1.382   0.235   2.121  0.00  0.00     0.076 C 
ATOM      7  C8  UNL d   1      -0.214  -1.039   0.297  0.00  0.00     0.001 A 
ENDROOT
BRANCH   1   8
ATOM      8  C1  UNL d   1       0.928  -2.435  -1.470  0.00  0.00     0.053 C 
ATOM      9  C   UNL d   1       0.551  -2.594  -2.935  0.00  0.00     0.018 C 
ENDBRANCH   1   8
TORSDOF 1
ENDMDL
