MODEL 1
REMARK minimizedAffinity -1.55156231
REMARK minimizedRMSD -1
REMARK  1 active torsions:
REMARK  status: ('A' for Active; 'I' for Inactive)
REMARK    1  A    between atoms: C1_2  and  C2_3 
ROOT
ATOM      1  C2  UNL d   1       0.314  -1.154  -0.876  0.00  0.00    -0.073 A 
ATOM      2  C3  UNL d   1       1.536  -1.671  -0.432  0.00  0.00    -0.002 A 
ATOM      3  C4  UNL d   1       1.995  -2.901  -0.906  0.00  0.00     0.004 A 
ATOM      4  C5  UNL d   1       1.241  -3.622  -1.832  0.00  0.00    -0.004 A 
ATOM      5  C6  UNL d   1       0.023  -3.116  -2.297  0.00  0.00    -0.075 A 
ATOM      6  C7  UNL d   1      -0.802  -3.880  -3.291  0.00  0.00     0.076 C 
ATOM      7  C8  UNL d   1      -0.432  -1.881  -1.814  0.00  0.00     0.001 A 
ENDROOT
BRANCH   1   8
ATOM      8  C1  UNL d   1      -0.182   0.177  -0.372  0.00  0.00     0.053 C 
ATOM      9  C   UNL d   1       0.400   1.338  -1.162  0.00  0.00     0.018 C 
ENDBRANCH   1   8
TORSDOF 1
ENDMDL
