MODEL 1
REMARK minimizedAffinity -2.8927145
REMARK minimizedRMSD -1
REMARK  1 active torsions:
REMARK  status: ('A' for Active; 'I' for Inactive)
REMARK    1  A    between atoms: C1_2  and  C2_3 
ROOT
ATOM      1  C2  UNL d   1      -0.324   0.142   0.821  0.00  0.00    -0.073 A 
ATOM      2  C3  UNL d   1       0.059   1.231   0.031  0.00  0.00    -0.002 A 
ATOM      3  C4  UNL d   1       0.728   1.025  -1.177  0.00  0.00     0.004 A 
ATOM      4  C5  UNL d   1       1.014  -0.270  -1.608  0.00  0.00    -0.004 A 
ATOM      5  C6  UNL d   1       0.628  -1.372  -0.838  0.00  0.00    -0.075 A 
ATOM      6  C7  UNL d   1       0.930  -2.771  -1.287  0.00  0.00     0.076 C 
ATOM      7  C8  UNL d   1      -0.041  -1.156   0.374  0.00  0.00     0.001 A 
ENDROOT
BRANCH   1   8
ATOM      8  C1  UNL d   1      -1.053   0.360   2.122  0.00  0.00     0.053 C 
ATOM      9  C   UNL d   1      -1.371   1.827   2.359  0.00  0.00     0.018 C 
ENDBRANCH   1   8
TORSDOF 1
ENDMDL
