MODEL 1
REMARK minimizedAffinity -6.0231843
REMARK minimizedRMSD -1
REMARK  1 active torsions:
REMARK  status: ('A' for Active; 'I' for Inactive)
REMARK    1  A    between atoms: C1_2  and  C2_3 
ROOT
ATOM      1  C2  UNL d   1      -1.085  -0.146   0.074  0.00  0.00    -0.073 A 
ATOM      2  C3  UNL d   1       0.292   0.098   0.123  0.00  0.00    -0.002 A 
ATOM      3  C4  UNL d   1       1.166  -0.630  -0.685  0.00  0.00     0.004 A 
ATOM      4  C5  UNL d   1       0.673  -1.603  -1.554  0.00  0.00    -0.004 A 
ATOM      5  C6  UNL d   1      -0.701  -1.853  -1.627  0.00  0.00    -0.075 A 
ATOM      6  C7  UNL d   1      -1.247  -2.898  -2.555  0.00  0.00     0.076 C 
ATOM      7  C8  UNL d   1      -1.572  -1.120  -0.810  0.00  0.00     0.001 A 
ENDROOT
BRANCH   1   8
ATOM      8  C1  UNL d   1      -2.034   0.642   0.940  0.00  0.00     0.053 C 
ATOM      9  C   UNL d   1      -1.298   1.490   1.966  0.00  0.00     0.018 C 
ENDBRANCH   1   8
TORSDOF 1
ENDMDL
