MODEL 1
REMARK minimizedAffinity -5.16334772
REMARK minimizedRMSD -1
REMARK  1 active torsions:
REMARK  status: ('A' for Active; 'I' for Inactive)
REMARK    1  A    between atoms: C1_2  and  C2_3 
ROOT
ATOM      1  C2  UNL d   1      -0.890   2.459   0.237  0.00  0.00    -0.073 A 
ATOM      2  C3  UNL d   1      -1.595   2.393   1.445  0.00  0.00    -0.002 A 
ATOM      3  C4  UNL d   1      -1.716   1.181   2.125  0.00  0.00     0.004 A 
ATOM      4  C5  UNL d   1      -1.129   0.025   1.610  0.00  0.00    -0.004 A 
ATOM      5  C6  UNL d   1      -0.410   0.073   0.411  0.00  0.00    -0.075 A 
ATOM      6  C7  UNL d   1       0.225  -1.162  -0.158  0.00  0.00     0.076 C 
ATOM      7  C8  UNL d   1      -0.295   1.294  -0.268  0.00  0.00     0.001 A 
ENDROOT
BRANCH   1   8
ATOM      8  C1  UNL d   1      -0.750   3.767  -0.497  0.00  0.00     0.053 C 
ATOM      9  C   UNL d   1       0.237   3.672  -1.650  0.00  0.00     0.018 C 
ENDBRANCH   1   8
TORSDOF 1
ENDMDL
