MODEL 1
REMARK minimizedAffinity -1.75948489
REMARK minimizedRMSD -1
REMARK  1 active torsions:
REMARK  status: ('A' for Active; 'I' for Inactive)
REMARK    1  A    between atoms: C1_2  and  C2_3 
ROOT
ATOM      1  C2  UNL d   1      -0.456   0.791   0.448  0.00  0.00    -0.073 A 
ATOM      2  C3  UNL d   1       0.183   1.789  -0.297  0.00  0.00    -0.002 A 
ATOM      3  C4  UNL d   1       1.051   1.447  -1.335  0.00  0.00     0.004 A 
ATOM      4  C5  UNL d   1       1.284   0.106  -1.642  0.00  0.00    -0.004 A 
ATOM      5  C6  UNL d   1       0.646  -0.905  -0.917  0.00  0.00    -0.075 A 
ATOM      6  C7  UNL d   1       0.887  -2.351  -1.234  0.00  0.00     0.076 C 
ATOM      7  C8  UNL d   1      -0.222  -0.553   0.125  0.00  0.00     0.001 A 
ENDROOT
BRANCH   1   8
ATOM      8  C1  UNL d   1      -1.399   1.156   1.565  0.00  0.00     0.053 C 
ATOM      9  C   UNL d   1      -2.490   2.108   1.102  0.00  0.00     0.018 C 
ENDBRANCH   1   8
TORSDOF 1
ENDMDL
