MODEL 1
REMARK minimizedAffinity -3.341084
REMARK minimizedRMSD -1
REMARK  1 active torsions:
REMARK  status: ('A' for Active; 'I' for Inactive)
REMARK    1  A    between atoms: C1_2  and  C2_3 
ROOT
ATOM      1  C2  UNL d   1      -0.607  -0.111   0.235  0.00  0.00    -0.073 A 
ATOM      2  C3  UNL d   1       0.437   0.701  -0.221  0.00  0.00    -0.002 A 
ATOM      3  C4  UNL d   1       1.411   0.182  -1.076  0.00  0.00     0.004 A 
ATOM      4  C5  UNL d   1       1.347  -1.149  -1.487  0.00  0.00    -0.004 A 
ATOM      5  C6  UNL d   1       0.305  -1.973  -1.051  0.00  0.00    -0.075 A 
ATOM      6  C7  UNL d   1       0.223  -3.408  -1.483  0.00  0.00     0.076 C 
ATOM      7  C8  UNL d   1      -0.668  -1.446  -0.191  0.00  0.00     0.001 A 
ENDROOT
BRANCH   1   8
ATOM      8  C1  UNL d   1      -1.665   0.446   1.153  0.00  0.00     0.053 C 
ATOM      9  C   UNL d   1      -1.067   1.303   2.258  0.00  0.00     0.018 C 
ENDBRANCH   1   8
TORSDOF 1
ENDMDL
