MODEL 1
REMARK minimizedAffinity -2.56843066
REMARK minimizedRMSD -1
REMARK  1 active torsions:
REMARK  status: ('A' for Active; 'I' for Inactive)
REMARK    1  A    between atoms: C1_2  and  C2_3 
ROOT
ATOM      1  C2  UNL d   1      -2.290   1.564   2.808  0.00  0.00    -0.073 A 
ATOM      2  C3  UNL d   1      -2.876   0.295   2.751  0.00  0.00    -0.002 A 
ATOM      3  C4  UNL d   1      -2.266  -0.731   2.028  0.00  0.00     0.004 A 
ATOM      4  C5  UNL d   1      -1.063  -0.501   1.361  0.00  0.00    -0.004 A 
ATOM      5  C6  UNL d   1      -0.455   0.758   1.416  0.00  0.00    -0.075 A 
ATOM      6  C7  UNL d   1       0.838   1.023   0.703  0.00  0.00     0.076 C 
ATOM      7  C8  UNL d   1      -1.075   1.784   2.142  0.00  0.00     0.001 A 
ENDROOT
BRANCH   1   8
ATOM      8  C1  UNL d   1      -2.941   2.673   3.593  0.00  0.00     0.053 C 
ATOM      9  C   UNL d   1      -4.145   2.183   4.381  0.00  0.00     0.018 C 
ENDBRANCH   1   8
TORSDOF 1
ENDMDL
