MODEL 1
REMARK minimizedAffinity -3.1968441
REMARK minimizedRMSD -1
REMARK  1 active torsions:
REMARK  status: ('A' for Active; 'I' for Inactive)
REMARK    1  A    between atoms: C1_2  and  C2_3 
ROOT
ATOM      1  C2  UNL d   1      -2.529   0.142   2.541  0.00  0.00    -0.073 A 
ATOM      2  C3  UNL d   1      -2.612   1.452   3.024  0.00  0.00    -0.002 A 
ATOM      3  C4  UNL d   1      -1.617   2.382   2.716  0.00  0.00     0.004 A 
ATOM      4  C5  UNL d   1      -0.534   2.013   1.919  0.00  0.00    -0.004 A 
ATOM      5  C6  UNL d   1      -0.439   0.711   1.417  0.00  0.00    -0.075 A 
ATOM      6  C7  UNL d   1       0.721   0.297   0.559  0.00  0.00     0.076 C 
ATOM      7  C8  UNL d   1      -1.441  -0.217   1.732  0.00  0.00     0.001 A 
ENDROOT
BRANCH   1   8
ATOM      8  C1  UNL d   1      -3.604  -0.863   2.864  0.00  0.00     0.053 C 
ATOM      9  C   UNL d   1      -3.293  -1.642   4.133  0.00  0.00     0.018 C 
ENDBRANCH   1   8
TORSDOF 1
ENDMDL
