MODEL 1
REMARK minimizedAffinity 0.873204589
REMARK minimizedRMSD -1
REMARK  1 active torsions:
REMARK  status: ('A' for Active; 'I' for Inactive)
REMARK    1  A    between atoms: C1_2  and  C2_3 
ROOT
ATOM      1  C2  UNL d   1      -2.615   1.845   3.349  0.00  0.00    -0.073 A 
ATOM      2  C3  UNL d   1      -2.890   0.475   3.287  0.00  0.00    -0.002 A 
ATOM      3  C4  UNL d   1      -2.053  -0.380   2.567  0.00  0.00     0.004 A 
ATOM      4  C5  UNL d   1      -0.931   0.126   1.910  0.00  0.00    -0.004 A 
ATOM      5  C6  UNL d   1      -0.633   1.491   1.971  0.00  0.00    -0.075 A 
ATOM      6  C7  UNL d   1       0.568   2.051   1.268  0.00  0.00     0.076 C 
ATOM      7  C8  UNL d   1      -1.480   2.343   2.693  0.00  0.00     0.001 A 
ENDROOT
BRANCH   1   8
ATOM      8  C1  UNL d   1      -3.512   2.771   4.130  0.00  0.00     0.053 C 
ATOM      9  C   UNL d   1      -4.594   2.014   4.885  0.00  0.00     0.018 C 
ENDBRANCH   1   8
TORSDOF 1
ENDMDL
