MODEL 1
REMARK minimizedAffinity -2.77090573
REMARK minimizedRMSD -1
REMARK  1 active torsions:
REMARK  status: ('A' for Active; 'I' for Inactive)
REMARK    1  A    between atoms: C1_2  and  C2_3 
ROOT
ATOM      1  C2  UNL d   1       0.135   0.835   1.168  0.00  0.00    -0.073 A 
ATOM      2  C3  UNL d   1      -0.169  -0.436   0.667  0.00  0.00    -0.002 A 
ATOM      3  C4  UNL d   1      -1.364  -1.065   1.017  0.00  0.00     0.004 A 
ATOM      4  C5  UNL d   1      -2.271  -0.428   1.864  0.00  0.00    -0.004 A 
ATOM      5  C6  UNL d   1      -1.991   0.848   2.365  0.00  0.00    -0.075 A 
ATOM      6  C7  UNL d   1      -2.955   1.546   3.279  0.00  0.00     0.076 C 
ATOM      7  C8  UNL d   1      -0.787   1.471   2.012  0.00  0.00     0.001 A 
ENDROOT
BRANCH   1   8
ATOM      8  C1  UNL d   1       1.422   1.520   0.788  0.00  0.00     0.053 C 
ATOM      9  C   UNL d   1       2.112   0.831  -0.379  0.00  0.00     0.018 C 
ENDBRANCH   1   8
TORSDOF 1
ENDMDL
