MODEL 1
REMARK minimizedAffinity 4.06700373
REMARK minimizedRMSD -1
REMARK  1 active torsions:
REMARK  status: ('A' for Active; 'I' for Inactive)
REMARK    1  A    between atoms: C1_2  and  C2_3 
ROOT
ATOM      1  C2  UNL d   1      -2.791  -0.135   0.216  0.00  0.00    -0.073 A 
ATOM      2  C3  UNL d   1      -2.231   1.076  -0.207  0.00  0.00    -0.002 A 
ATOM      3  C4  UNL d   1      -1.003   1.500   0.301  0.00  0.00     0.004 A 
ATOM      4  C5  UNL d   1      -0.318   0.715   1.229  0.00  0.00    -0.004 A 
ATOM      5  C6  UNL d   1      -0.856  -0.504   1.655  0.00  0.00    -0.075 A 
ATOM      6  C7  UNL d   1      -0.133  -1.358   2.655  0.00  0.00     0.076 C 
ATOM      7  C8  UNL d   1      -2.091  -0.921   1.143  0.00  0.00     0.001 A 
ENDROOT
BRANCH   1   8
ATOM      8  C1  UNL d   1      -4.115  -0.600  -0.334  0.00  0.00     0.053 C 
ATOM      9  C   UNL d   1      -3.943  -1.651  -1.419  0.00  0.00     0.018 C 
ENDBRANCH   1   8
TORSDOF 1
ENDMDL
