MODEL 1
REMARK minimizedAffinity -0.876236558
REMARK minimizedRMSD -1
REMARK  1 active torsions:
REMARK  status: ('A' for Active; 'I' for Inactive)
REMARK    1  A    between atoms: C1_2  and  C2_3 
ROOT
ATOM      1  C2  UNL d   1       0.652   0.679   0.954  0.00  0.00    -0.073 A 
ATOM      2  C3  UNL d   1       0.317  -0.673   1.088  0.00  0.00    -0.002 A 
ATOM      3  C4  UNL d   1      -0.862  -1.046   1.735  0.00  0.00     0.004 A 
ATOM      4  C5  UNL d   1      -1.720  -0.073   2.246  0.00  0.00    -0.004 A 
ATOM      5  C6  UNL d   1      -1.409   1.284   2.112  0.00  0.00    -0.075 A 
ATOM      6  C7  UNL d   1      -2.320   2.343   2.658  0.00  0.00     0.076 C 
ATOM      7  C8  UNL d   1      -0.221   1.651   1.464  0.00  0.00     0.001 A 
ENDROOT
BRANCH   1   8
ATOM      8  C1  UNL d   1       1.921   1.088   0.252  0.00  0.00     0.053 C 
ATOM      9  C   UNL d   1       2.872  -0.085   0.065  0.00  0.00     0.018 C 
ENDBRANCH   1   8
TORSDOF 1
ENDMDL
