MODEL 1
REMARK minimizedAffinity -1.02286553
REMARK minimizedRMSD -1
REMARK  1 active torsions:
REMARK  status: ('A' for Active; 'I' for Inactive)
REMARK    1  A    between atoms: C1_2  and  C2_3 
ROOT
ATOM      1  C2  UNL d   1      -0.956   1.087   2.448  0.00  0.00    -0.073 A 
ATOM      2  C3  UNL d   1      -1.319  -0.176   1.965  0.00  0.00    -0.002 A 
ATOM      3  C4  UNL d   1      -2.573  -0.711   2.263  0.00  0.00     0.004 A 
ATOM      4  C5  UNL d   1      -3.478   0.012   3.040  0.00  0.00    -0.004 A 
ATOM      5  C6  UNL d   1      -3.138   1.280   3.523  0.00  0.00    -0.075 A 
ATOM      6  C7  UNL d   1      -4.100   2.069   4.362  0.00  0.00     0.076 C 
ATOM      7  C8  UNL d   1      -1.876   1.809   3.221  0.00  0.00     0.001 A 
ENDROOT
BRANCH   1   8
ATOM      8  C1  UNL d   1       0.394   1.672   2.124  0.00  0.00     0.053 C 
ATOM      9  C   UNL d   1       0.353   2.544   0.879  0.00  0.00     0.018 C 
ENDBRANCH   1   8
TORSDOF 1
ENDMDL
