MODEL 1
REMARK minimizedAffinity -0.831818819
REMARK minimizedRMSD -1
REMARK  1 active torsions:
REMARK  status: ('A' for Active; 'I' for Inactive)
REMARK    1  A    between atoms: C1_2  and  C2_3 
ROOT
ATOM      1  C2  UNL d   1      -5.512  -2.042  -5.076  0.00  0.00    -0.073 A 
ATOM      2  C3  UNL d   1      -5.999  -2.973  -6.000  0.00  0.00    -0.002 A 
ATOM      3  C4  UNL d   1      -5.550  -4.294  -5.972  0.00  0.00     0.004 A 
ATOM      4  C5  UNL d   1      -4.615  -4.698  -5.019  0.00  0.00    -0.004 A 
ATOM      5  C6  UNL d   1      -4.125  -3.785  -4.081  0.00  0.00    -0.075 A 
ATOM      6  C7  UNL d   1      -3.118  -4.203  -3.050  0.00  0.00     0.076 C 
ATOM      7  C8  UNL d   1      -4.579  -2.460  -4.116  0.00  0.00     0.001 A 
ENDROOT
BRANCH   1   8
ATOM      8  C1  UNL d   1      -5.999  -0.616  -5.098  0.00  0.00     0.053 C 
ATOM      9  C   UNL d   1      -5.993   0.009  -3.712  0.00  0.00     0.018 C 
ENDBRANCH   1   8
TORSDOF 1
ENDMDL
