MODEL 1
REMARK minimizedAffinity -1.16458917
REMARK minimizedRMSD -1
REMARK  1 active torsions:
REMARK  status: ('A' for Active; 'I' for Inactive)
REMARK    1  A    between atoms: C1_2  and  C2_3 
ROOT
ATOM      1  C2  UNL d   1      -2.449  -5.126  -4.540  0.00  0.00    -0.073 A 
ATOM      2  C3  UNL d   1      -2.369  -3.761  -4.839  0.00  0.00    -0.002 A 
ATOM      3  C4  UNL d   1      -3.410  -3.126  -5.517  0.00  0.00     0.004 A 
ATOM      4  C5  UNL d   1      -4.543  -3.847  -5.897  0.00  0.00    -0.004 A 
ATOM      5  C6  UNL d   1      -4.646  -5.209  -5.597  0.00  0.00    -0.075 A 
ATOM      6  C7  UNL d   1      -5.857  -5.998  -6.000  0.00  0.00     0.076 C 
ATOM      7  C8  UNL d   1      -3.595  -5.840  -4.918  0.00  0.00     0.001 A 
ENDROOT
BRANCH   1   8
ATOM      8  C1  UNL d   1      -1.329  -5.815  -3.803  0.00  0.00     0.053 C 
ATOM      9  C   UNL d   1      -0.099  -6.000  -4.677  0.00  0.00     0.018 C 
ENDBRANCH   1   8
TORSDOF 1
ENDMDL
