MODEL 1
REMARK minimizedAffinity -3.89055133
REMARK minimizedRMSD -1
REMARK  1 active torsions:
REMARK  status: ('A' for Active; 'I' for Inactive)
REMARK    1  A    between atoms: C1_2  and  C2_3 
ROOT
ATOM      1  C2  UNL d   1      -2.965  -4.798  -5.311  0.00  0.00    -0.073 A 
ATOM      2  C3  UNL d   1      -3.622  -5.928  -5.813  0.00  0.00    -0.002 A 
ATOM      3  C4  UNL d   1      -5.005  -5.914  -6.000  0.00  0.00     0.004 A 
ATOM      4  C5  UNL d   1      -5.743  -4.771  -5.694  0.00  0.00    -0.004 A 
ATOM      5  C6  UNL d   1      -5.103  -3.628  -5.202  0.00  0.00    -0.075 A 
ATOM      6  C7  UNL d   1      -5.883  -2.391  -4.866  0.00  0.00     0.076 C 
ATOM      7  C8  UNL d   1      -3.715  -3.651  -5.015  0.00  0.00     0.001 A 
ENDROOT
BRANCH   1   8
ATOM      8  C1  UNL d   1      -1.471  -4.807  -5.114  0.00  0.00     0.053 C 
ATOM      9  C   UNL d   1      -0.812  -5.994  -5.797  0.00  0.00     0.018 C 
ENDBRANCH   1   8
TORSDOF 1
ENDMDL
