MODEL 1
REMARK minimizedAffinity -2.85252261
REMARK minimizedRMSD -1
REMARK  1 active torsions:
REMARK  status: ('A' for Active; 'I' for Inactive)
REMARK    1  A    between atoms: C1_2  and  C2_3 
ROOT
ATOM      1  C2  UNL d   1      -5.337  -2.870  -4.162  0.00  0.00    -0.073 A 
ATOM      2  C3  UNL d   1      -5.998  -3.451  -5.250  0.00  0.00    -0.002 A 
ATOM      3  C4  UNL d   1      -5.399  -4.487  -5.968  0.00  0.00     0.004 A 
ATOM      4  C5  UNL d   1      -4.138  -4.957  -5.602  0.00  0.00    -0.004 A 
ATOM      5  C6  UNL d   1      -3.466  -4.398  -4.510  0.00  0.00    -0.075 A 
ATOM      6  C7  UNL d   1      -2.108  -4.890  -4.105  0.00  0.00     0.076 C 
ATOM      7  C8  UNL d   1      -4.073  -3.356  -3.796  0.00  0.00     0.001 A 
ENDROOT
BRANCH   1   8
ATOM      8  C1  UNL d   1      -5.982  -1.756  -3.380  0.00  0.00     0.053 C 
ATOM      9  C   UNL d   1      -6.000  -0.450  -4.158  0.00  0.00     0.018 C 
ENDBRANCH   1   8
TORSDOF 1
ENDMDL
