MODEL 1
REMARK minimizedAffinity 3.81386876
REMARK minimizedRMSD -1
REMARK  1 active torsions:
REMARK  status: ('A' for Active; 'I' for Inactive)
REMARK    1  A    between atoms: C1_2  and  C2_3 
ROOT
ATOM      1  C2  UNL d   1      -2.754  -4.682  -4.528  0.00  0.00    -0.073 A 
ATOM      2  C3  UNL d   1      -2.414  -3.968  -5.682  0.00  0.00    -0.002 A 
ATOM      3  C4  UNL d   1      -3.078  -2.783  -5.999  0.00  0.00     0.004 A 
ATOM      4  C5  UNL d   1      -4.082  -2.296  -5.163  0.00  0.00    -0.004 A 
ATOM      5  C6  UNL d   1      -4.428  -2.989  -3.999  0.00  0.00    -0.075 A 
ATOM      6  C7  UNL d   1      -5.508  -2.479  -3.090  0.00  0.00     0.076 C 
ATOM      7  C8  UNL d   1      -3.759  -4.180  -3.689  0.00  0.00     0.001 A 
ENDROOT
BRANCH   1   8
ATOM      8  C1  UNL d   1      -2.035  -5.960  -4.178  0.00  0.00     0.053 C 
ATOM      9  C   UNL d   1      -0.600  -5.962  -4.680  0.00  0.00     0.018 C 
ENDBRANCH   1   8
TORSDOF 1
ENDMDL
