MODEL 1
REMARK minimizedAffinity -3.83863163
REMARK minimizedRMSD -1
REMARK  1 active torsions:
REMARK  status: ('A' for Active; 'I' for Inactive)
REMARK    1  A    between atoms: C1_2  and  C2_3 
ROOT
ATOM      1  C2  UNL d   1      -3.050  -4.304  -4.567  0.00  0.00    -0.073 A 
ATOM      2  C3  UNL d   1      -3.816  -5.248  -3.874  0.00  0.00    -0.002 A 
ATOM      3  C4  UNL d   1      -5.191  -5.064  -3.719  0.00  0.00     0.004 A 
ATOM      4  C5  UNL d   1      -5.813  -3.939  -4.260  0.00  0.00    -0.004 A 
ATOM      5  C6  UNL d   1      -5.067  -2.991  -4.966  0.00  0.00    -0.075 A 
ATOM      6  C7  UNL d   1      -5.721  -1.775  -5.553  0.00  0.00     0.076 C 
ATOM      7  C8  UNL d   1      -3.686  -3.182  -5.115  0.00  0.00     0.001 A 
ENDROOT
BRANCH   1   8
ATOM      8  C1  UNL d   1      -1.566  -4.503  -4.742  0.00  0.00     0.053 C 
ATOM      9  C   UNL d   1      -1.242  -5.294  -5.999  0.00  0.00     0.018 C 
ENDBRANCH   1   8
TORSDOF 1
ENDMDL
