MODEL 1
REMARK minimizedAffinity 0.653147697
REMARK minimizedRMSD -1
REMARK  1 active torsions:
REMARK  status: ('A' for Active; 'I' for Inactive)
REMARK    1  A    between atoms: C1_2  and  C2_3 
ROOT
ATOM      1  C2  UNL d   1      -3.293  -4.518  -3.530  0.00  0.00    -0.073 A 
ATOM      2  C3  UNL d   1      -2.818  -5.639  -4.220  0.00  0.00    -0.002 A 
ATOM      3  C4  UNL d   1      -3.376  -6.000  -5.447  0.00  0.00     0.004 A 
ATOM      4  C5  UNL d   1      -4.408  -5.241  -5.999  0.00  0.00    -0.004 A 
ATOM      5  C6  UNL d   1      -4.888  -4.111  -5.330  0.00  0.00    -0.075 A 
ATOM      6  C7  UNL d   1      -5.999  -3.285  -5.910  0.00  0.00     0.076 C 
ATOM      7  C8  UNL d   1      -4.324  -3.756  -4.097  0.00  0.00     0.001 A 
ENDROOT
BRANCH   1   8
ATOM      8  C1  UNL d   1      -2.689  -4.121  -2.208  0.00  0.00     0.053 C 
ATOM      9  C   UNL d   1      -2.526  -2.614  -2.085  0.00  0.00     0.018 C 
ENDBRANCH   1   8
TORSDOF 1
ENDMDL
