MODEL 1
REMARK minimizedAffinity -1.0430876
REMARK minimizedRMSD -1
REMARK  1 active torsions:
REMARK  status: ('A' for Active; 'I' for Inactive)
REMARK    1  A    between atoms: C1_2  and  C2_3 
ROOT
ATOM      1  C2  UNL d   1      -4.690  -3.434  -4.709  0.00  0.00    -0.073 A 
ATOM      2  C3  UNL d   1      -4.078  -3.035  -3.515  0.00  0.00    -0.002 A 
ATOM      3  C4  UNL d   1      -2.861  -3.597  -3.124  0.00  0.00     0.004 A 
ATOM      4  C5  UNL d   1      -2.242  -4.556  -3.925  0.00  0.00    -0.004 A 
ATOM      5  C6  UNL d   1      -2.832  -4.959  -5.127  0.00  0.00    -0.075 A 
ATOM      6  C7  UNL d   1      -2.179  -5.992  -5.999  0.00  0.00     0.076 C 
ATOM      7  C8  UNL d   1      -4.055  -4.393  -5.511  0.00  0.00     0.001 A 
ENDROOT
BRANCH   1   8
ATOM      8  C1  UNL d   1      -6.000  -2.826  -5.138  0.00  0.00     0.053 C 
ATOM      9  C   UNL d   1      -5.799  -1.590  -6.000  0.00  0.00     0.018 C 
ENDBRANCH   1   8
TORSDOF 1
ENDMDL
