MODEL 1
REMARK minimizedAffinity -3.15828276
REMARK minimizedRMSD -1
REMARK  1 active torsions:
REMARK  status: ('A' for Active; 'I' for Inactive)
REMARK    1  A    between atoms: C1_2  and  C2_3 
ROOT
ATOM      1  C2  UNL d   1      -3.290  -5.016  -4.980  0.00  0.00    -0.073 A 
ATOM      2  C3  UNL d   1      -3.995  -5.999  -5.682  0.00  0.00    -0.002 A 
ATOM      3  C4  UNL d   1      -5.345  -5.817  -5.987  0.00  0.00     0.004 A 
ATOM      4  C5  UNL d   1      -6.000  -4.648  -5.600  0.00  0.00    -0.004 A 
ATOM      5  C6  UNL d   1      -5.309  -3.648  -4.908  0.00  0.00    -0.075 A 
ATOM      6  C7  UNL d   1      -6.000  -2.385  -4.483  0.00  0.00     0.076 C 
ATOM      7  C8  UNL d   1      -3.955  -3.840  -4.603  0.00  0.00     0.001 A 
ENDROOT
BRANCH   1   8
ATOM      8  C1  UNL d   1      -1.831  -5.206  -4.654  0.00  0.00     0.053 C 
ATOM      9  C   UNL d   1      -1.027  -5.637  -5.870  0.00  0.00     0.018 C 
ENDBRANCH   1   8
TORSDOF 1
ENDMDL
