MODEL 1
REMARK minimizedAffinity 0.527291834
REMARK minimizedRMSD -1
REMARK  1 active torsions:
REMARK  status: ('A' for Active; 'I' for Inactive)
REMARK    1  A    between atoms: C1_2  and  C2_3 
ROOT
ATOM      1  C2  UNL d   1      -3.375  -3.292  -5.133  0.00  0.00    -0.073 A 
ATOM      2  C3  UNL d   1      -4.130  -4.174  -5.914  0.00  0.00    -0.002 A 
ATOM      3  C4  UNL d   1      -3.774  -5.521  -6.000  0.00  0.00     0.004 A 
ATOM      4  C5  UNL d   1      -2.665  -6.000  -5.302  0.00  0.00    -0.004 A 
ATOM      5  C6  UNL d   1      -1.905  -5.136  -4.506  0.00  0.00    -0.075 A 
ATOM      6  C7  UNL d   1      -0.709  -5.636  -3.751  0.00  0.00     0.076 C 
ATOM      7  C8  UNL d   1      -2.268  -3.785  -4.427  0.00  0.00     0.001 A 
ENDROOT
BRANCH   1   8
ATOM      8  C1  UNL d   1      -3.759  -1.838  -5.031  0.00  0.00     0.053 C 
ATOM      9  C   UNL d   1      -5.175  -1.658  -4.508  0.00  0.00     0.018 C 
ENDBRANCH   1   8
TORSDOF 1
ENDMDL
