MODEL 1
REMARK minimizedAffinity 1.03335524
REMARK minimizedRMSD -1
REMARK  1 active torsions:
REMARK  status: ('A' for Active; 'I' for Inactive)
REMARK    1  A    between atoms: C1_2  and  C2_3 
ROOT
ATOM      1  C2  UNL d   1      -4.319  -4.208  -5.181  0.00  0.00    -0.073 A 
ATOM      2  C3  UNL d   1      -4.752  -4.468  -3.875  0.00  0.00    -0.002 A 
ATOM      3  C4  UNL d   1      -5.577  -3.558  -3.212  0.00  0.00     0.004 A 
ATOM      4  C5  UNL d   1      -5.983  -2.385  -3.849  0.00  0.00    -0.004 A 
ATOM      5  C6  UNL d   1      -5.570  -2.114  -5.157  0.00  0.00    -0.075 A 
ATOM      6  C7  UNL d   1      -5.996  -0.855  -5.855  0.00  0.00     0.076 C 
ATOM      7  C8  UNL d   1      -4.739  -3.030  -5.815  0.00  0.00     0.001 A 
ENDROOT
BRANCH   1   8
ATOM      8  C1  UNL d   1      -3.433  -5.190  -5.903  0.00  0.00     0.053 C 
ATOM      9  C   UNL d   1      -1.985  -4.728  -5.944  0.00  0.00     0.018 C 
ENDBRANCH   1   8
TORSDOF 1
ENDMDL
