MODEL 1
REMARK minimizedAffinity 0.0499380305
REMARK minimizedRMSD -1
REMARK  1 active torsions:
REMARK  status: ('A' for Active; 'I' for Inactive)
REMARK    1  A    between atoms: C1_2  and  C2_3 
ROOT
ATOM      1  C2  UNL d   1      -4.478  -3.711  -4.967  0.00  0.00    -0.073 A 
ATOM      2  C3  UNL d   1      -4.238  -3.579  -3.595  0.00  0.00    -0.002 A 
ATOM      3  C4  UNL d   1      -3.157  -4.232  -3.002  0.00  0.00     0.004 A 
ATOM      4  C5  UNL d   1      -2.301  -5.017  -3.775  0.00  0.00    -0.004 A 
ATOM      5  C6  UNL d   1      -2.517  -5.152  -5.150  0.00  0.00    -0.075 A 
ATOM      6  C7  UNL d   1      -1.607  -5.994  -5.995  0.00  0.00     0.076 C 
ATOM      7  C8  UNL d   1      -3.607  -4.495  -5.737  0.00  0.00     0.001 A 
ENDROOT
BRANCH   1   8
ATOM      8  C1  UNL d   1      -5.640  -3.002  -5.613  0.00  0.00     0.053 C 
ATOM      9  C   UNL d   1      -5.943  -1.673  -4.940  0.00  0.00     0.018 C 
ENDBRANCH   1   8
TORSDOF 1
ENDMDL
