MODEL 1
REMARK minimizedAffinity -0.0248795003
REMARK minimizedRMSD -1
REMARK  1 active torsions:
REMARK  status: ('A' for Active; 'I' for Inactive)
REMARK    1  A    between atoms: C1_2  and  C2_3 
ROOT
ATOM      1  C2  UNL d   1       4.890  -5.977  -2.977  0.00  0.00    -0.076 A 
ATOM      2  C3  UNL d   1       5.536  -5.980  -1.729  0.00  0.00     0.004 A 
ATOM      3  C4  UNL d   1       4.805  -5.946  -0.542  0.00  0.00    -0.003 A 
ATOM      4  C5  UNL d   1       3.416  -5.909  -0.585  0.00  0.00     0.000 A 
ATOM      5  C6  UNL d   1       2.758  -5.923  -1.814  0.00  0.00     0.000 A 
ATOM      6  C7  UNL d   1       3.479  -5.974  -3.019  0.00  0.00    -0.073 A 
ATOM      7  C8  UNL d   1       2.718  -5.982  -4.317  0.00  0.00     0.078 C 
ENDROOT
BRANCH   1   8
ATOM      8  C1  UNL d   1       5.735  -5.988  -4.230  0.00  0.00     0.053 C 
ATOM      9  C   UNL d   1       4.897  -5.993  -5.499  0.00  0.00     0.018 C 
ENDBRANCH   1   8
TORSDOF 1
ENDMDL
