MODEL 1
REMARK minimizedAffinity 14.7052011
REMARK minimizedRMSD -1
REMARK  1 active torsions:
REMARK  status: ('A' for Active; 'I' for Inactive)
REMARK    1  A    between atoms: C1_2  and  C2_3 
ROOT
ATOM      1  C2  UNL d   1       1.991  -4.053   3.350  0.00  0.00    -0.076 A 
ATOM      2  C3  UNL d   1       2.814  -3.193   2.602  0.00  0.00     0.004 A 
ATOM      3  C4  UNL d   1       2.624  -1.813   2.631  0.00  0.00    -0.003 A 
ATOM      4  C5  UNL d   1       1.608  -1.269   3.408  0.00  0.00     0.000 A 
ATOM      5  C6  UNL d   1       0.792  -2.105   4.170  0.00  0.00     0.000 A 
ATOM      6  C7  UNL d   1       0.981  -3.498   4.165  0.00  0.00    -0.073 A 
ATOM      7  C8  UNL d   1       0.069  -4.353   5.001  0.00  0.00     0.078 C 
ENDROOT
BRANCH   1   8
ATOM      8  C1  UNL d   1       2.227  -5.543   3.258  0.00  0.00     0.053 C 
ATOM      9  C   UNL d   1       2.527  -6.000   1.839  0.00  0.00     0.018 C 
ENDBRANCH   1   8
TORSDOF 1
ENDMDL
