MODEL 1
REMARK minimizedAffinity 3.90925097
REMARK minimizedRMSD -1
REMARK  1 active torsions:
REMARK  status: ('A' for Active; 'I' for Inactive)
REMARK    1  A    between atoms: C1_2  and  C2_3 
ROOT
ATOM      1  C2  UNL d   1       2.536  -5.835  -3.329  0.00  0.00    -0.076 A 
ATOM      2  C3  UNL d   1       1.735  -5.996  -2.186  0.00  0.00     0.004 A 
ATOM      3  C4  UNL d   1       2.278  -5.882  -0.907  0.00  0.00    -0.003 A 
ATOM      4  C5  UNL d   1       3.632  -5.604  -0.751  0.00  0.00     0.000 A 
ATOM      5  C6  UNL d   1       4.438  -5.424  -1.875  0.00  0.00     0.000 A 
ATOM      6  C7  UNL d   1       3.903  -5.520  -3.171  0.00  0.00    -0.073 A 
ATOM      7  C8  UNL d   1       4.820  -5.323  -4.347  0.00  0.00     0.078 C 
ENDROOT
BRANCH   1   8
ATOM      8  C1  UNL d   1       1.897  -5.997  -4.690  0.00  0.00     0.053 C 
ATOM      9  C   UNL d   1       2.911  -5.927  -5.822  0.00  0.00     0.018 C 
ENDBRANCH   1   8
TORSDOF 1
ENDMDL
