MODEL 1
REMARK minimizedAffinity 9.25047588
REMARK minimizedRMSD -1
REMARK  1 active torsions:
REMARK  status: ('A' for Active; 'I' for Inactive)
REMARK    1  A    between atoms: C1_2  and  C2_3 
ROOT
ATOM      1  C2  UNL d   1       2.345  -2.366   3.226  0.00  0.00    -0.076 A 
ATOM      2  C3  UNL d   1       1.042  -2.846   3.005  0.00  0.00     0.004 A 
ATOM      3  C4  UNL d   1       0.660  -4.112   3.445  0.00  0.00    -0.003 A 
ATOM      4  C5  UNL d   1       1.574  -4.918   4.115  0.00  0.00     0.000 A 
ATOM      5  C6  UNL d   1       2.865  -4.451   4.358  0.00  0.00     0.000 A 
ATOM      6  C7  UNL d   1       3.261  -3.171   3.935  0.00  0.00    -0.073 A 
ATOM      7  C8  UNL d   1       4.668  -2.720   4.219  0.00  0.00     0.078 C 
ENDROOT
BRANCH   1   8
ATOM      8  C1  UNL d   1       2.710  -0.996   2.701  0.00  0.00     0.053 C 
ATOM      9  C   UNL d   1       1.764  -0.518   1.610  0.00  0.00     0.018 C 
ENDBRANCH   1   8
TORSDOF 1
ENDMDL
