MODEL 1
REMARK minimizedAffinity 7.39657736
REMARK minimizedRMSD -1
REMARK  0 active torsions:
REMARK  status: ('A' for Active; 'I' for Inactive)
ROOT
ATOM      1  C   UNL d   1      -0.960   5.704  -5.524  0.00  0.00     0.023 A 
ATOM      2  C1  UNL d   1      -0.177   5.627  -4.372  0.00  0.00     0.003 A 
ATOM      3  C2  UNL d   1      -0.775   5.709  -3.113  0.00  0.00     0.048 A 
ATOM      4  C3  UNL d   1      -2.157   5.867  -3.013  0.00  0.00     0.023 A 
ATOM      5  C4  UNL d   1      -2.945   5.943  -4.163  0.00  0.00     0.048 A 
ATOM      6  C5  UNL d   1      -2.342   5.862  -5.420  0.00  0.00     0.003 A 
ATOM      7  I   UNL d   1      -3.050   5.989  -1.140  0.00  0.00    -0.146 I 
ENDROOT
TORSDOF 0
ENDMDL
