MODEL 1
REMARK minimizedAffinity -1.98581648
REMARK minimizedRMSD -1
REMARK  0 active torsions:
REMARK  status: ('A' for Active; 'I' for Inactive)
ROOT
ATOM      1  C   UNL d   1      -0.491   5.996  -4.712  0.00  0.00     0.023 A 
ATOM      2  C1  UNL d   1       0.251   5.998  -3.531  0.00  0.00     0.003 A 
ATOM      3  C2  UNL d   1       1.645   5.937  -3.581  0.00  0.00     0.048 A 
ATOM      4  C3  UNL d   1       2.291   5.874  -4.815  0.00  0.00     0.023 A 
ATOM      5  C4  UNL d   1       1.553   5.873  -5.999  0.00  0.00     0.048 A 
ATOM      6  C5  UNL d   1       0.159   5.933  -5.945  0.00  0.00     0.003 A 
ATOM      7  I   UNL d   1       4.366   5.784  -4.891  0.00  0.00    -0.146 I 
ENDROOT
TORSDOF 0
ENDMDL
