MODEL 1
REMARK minimizedAffinity 1.57522893
REMARK minimizedRMSD -1
REMARK  0 active torsions:
REMARK  status: ('A' for Active; 'I' for Inactive)
ROOT
ATOM      1  C   UNL d   1       5.998   5.020  -4.888  0.00  0.00     0.023 A 
ATOM      2  C1  UNL d   1       5.178   4.603  -3.839  0.00  0.00     0.003 A 
ATOM      3  C2  UNL d   1       3.811   4.883  -3.866  0.00  0.00     0.048 A 
ATOM      4  C3  UNL d   1       3.269   5.580  -4.945  0.00  0.00     0.023 A 
ATOM      5  C4  UNL d   1       4.085   5.999  -5.998  0.00  0.00     0.048 A 
ATOM      6  C5  UNL d   1       5.452   5.717  -5.966  0.00  0.00     0.003 A 
ATOM      7  I   UNL d   1       1.234   5.999  -4.988  0.00  0.00    -0.146 I 
ENDROOT
TORSDOF 0
ENDMDL
