MODEL 1
REMARK minimizedAffinity -1.27058733
REMARK minimizedRMSD -1
REMARK  0 active torsions:
REMARK  status: ('A' for Active; 'I' for Inactive)
ROOT
ATOM      1  C   UNL d   1      -4.057   5.983  -2.523  0.00  0.00     0.023 A 
ATOM      2  C1  UNL d   1      -2.824   5.981  -1.871  0.00  0.00     0.003 A 
ATOM      3  C2  UNL d   1      -1.641   5.981  -2.612  0.00  0.00     0.048 A 
ATOM      4  C3  UNL d   1      -1.697   5.985  -4.005  0.00  0.00     0.023 A 
ATOM      5  C4  UNL d   1      -2.929   5.987  -4.662  0.00  0.00     0.048 A 
ATOM      6  C5  UNL d   1      -4.109   5.986  -3.917  0.00  0.00     0.003 A 
ATOM      7  I   UNL d   1       0.063   5.985  -5.110  0.00  0.00    -0.146 I 
ENDROOT
TORSDOF 0
ENDMDL
