MODEL 1
REMARK minimizedAffinity 4.48205137
REMARK minimizedRMSD -1
REMARK  0 active torsions:
REMARK  status: ('A' for Active; 'I' for Inactive)
ROOT
ATOM      1  C   UNL d   1       1.656  -1.160  -4.808  0.00  0.00     0.023 A 
ATOM      2  C1  UNL d   1       0.729  -0.346  -5.459  0.00  0.00     0.003 A 
ATOM      3  C2  UNL d   1      -0.638  -0.603  -5.332  0.00  0.00     0.048 A 
ATOM      4  C3  UNL d   1      -1.071  -1.674  -4.552  0.00  0.00     0.023 A 
ATOM      5  C4  UNL d   1      -0.146  -2.491  -3.898  0.00  0.00     0.048 A 
ATOM      6  C5  UNL d   1       1.219  -2.231  -4.028  0.00  0.00     0.003 A 
ATOM      7  I   UNL d   1      -3.104  -2.059  -4.361  0.00  0.00    -0.146 I 
ENDROOT
TORSDOF 0
ENDMDL
