MODEL 1
REMARK minimizedAffinity -2.28289366
REMARK minimizedRMSD -1
REMARK  0 active torsions:
REMARK  status: ('A' for Active; 'I' for Inactive)
ROOT
ATOM      1  C   UNL d   1       5.945   4.097  -3.830  0.00  0.00     0.023 A 
ATOM      2  C1  UNL d   1       4.823   3.291  -4.026  0.00  0.00     0.003 A 
ATOM      3  C2  UNL d   1       3.656   3.836  -4.566  0.00  0.00     0.048 A 
ATOM      4  C3  UNL d   1       3.618   5.187  -4.910  0.00  0.00     0.023 A 
ATOM      5  C4  UNL d   1       4.739   5.996  -4.717  0.00  0.00     0.048 A 
ATOM      6  C5  UNL d   1       5.903   5.448  -4.176  0.00  0.00     0.003 A 
ATOM      7  I   UNL d   1       1.883   6.000  -5.714  0.00  0.00    -0.146 I 
ENDROOT
TORSDOF 0
ENDMDL
