MODEL 1
REMARK minimizedAffinity -0.185345769
REMARK minimizedRMSD -1
REMARK  0 active torsions:
REMARK  status: ('A' for Active; 'I' for Inactive)
ROOT
ATOM      1  C   UNL d   1      -2.536   5.916  -2.800  0.00  0.00     0.023 A 
ATOM      2  C1  UNL d   1      -1.377   5.883  -2.024  0.00  0.00     0.003 A 
ATOM      3  C2  UNL d   1      -0.123   5.907  -2.637  0.00  0.00     0.048 A 
ATOM      4  C3  UNL d   1      -0.035   5.964  -4.028  0.00  0.00     0.023 A 
ATOM      5  C4  UNL d   1      -1.191   5.998  -4.809  0.00  0.00     0.048 A 
ATOM      6  C5  UNL d   1      -2.443   5.973  -4.191  0.00  0.00     0.003 A 
ATOM      7  I   UNL d   1       1.831   5.999  -4.943  0.00  0.00    -0.146 I 
ENDROOT
TORSDOF 0
ENDMDL
