MODEL 1
REMARK minimizedAffinity 1.2596426
REMARK minimizedRMSD -1
REMARK  0 active torsions:
REMARK  status: ('A' for Active; 'I' for Inactive)
ROOT
ATOM      1  C   UNL d   1      -1.805   5.909  -3.249  0.00  0.00     0.023 A 
ATOM      2  C1  UNL d   1      -1.436   5.973  -4.593  0.00  0.00     0.003 A 
ATOM      3  C2  UNL d   1      -0.085   5.999  -4.947  0.00  0.00     0.048 A 
ATOM      4  C3  UNL d   1       0.891   5.960  -3.952  0.00  0.00     0.023 A 
ATOM      5  C4  UNL d   1       0.527   5.895  -2.607  0.00  0.00     0.048 A 
ATOM      6  C5  UNL d   1      -0.825   5.870  -2.257  0.00  0.00     0.003 A 
ATOM      7  I   UNL d   1       2.902   5.999  -4.477  0.00  0.00    -0.146 I 
ENDROOT
TORSDOF 0
ENDMDL
