MODEL 1
REMARK minimizedAffinity 1.82416725
REMARK minimizedRMSD -1
REMARK  0 active torsions:
REMARK  status: ('A' for Active; 'I' for Inactive)
ROOT
ATOM      1  C   UNL d   1       5.970   4.212  -3.728  0.00  0.00     0.023 A 
ATOM      2  C1  UNL d   1       4.849   3.389  -3.846  0.00  0.00     0.003 A 
ATOM      3  C2  UNL d   1       3.690   3.869  -4.458  0.00  0.00     0.048 A 
ATOM      4  C3  UNL d   1       3.658   5.173  -4.952  0.00  0.00     0.023 A 
ATOM      5  C4  UNL d   1       4.777   6.000  -4.836  0.00  0.00     0.048 A 
ATOM      6  C5  UNL d   1       5.934   5.516  -4.222  0.00  0.00     0.003 A 
ATOM      7  I   UNL d   1       1.934   5.890  -5.864  0.00  0.00    -0.146 I 
ENDROOT
TORSDOF 0
ENDMDL
