MODEL 1
REMARK minimizedAffinity 5.61476421
REMARK minimizedRMSD -1
REMARK  0 active torsions:
REMARK  status: ('A' for Active; 'I' for Inactive)
ROOT
ATOM      1  C   UNL d   1      -0.177   5.962  -3.480  0.00  0.00     0.023 A 
ATOM      2  C1  UNL d   1      -0.205   5.963  -4.875  0.00  0.00     0.003 A 
ATOM      3  C2  UNL d   1       0.989   5.971  -5.599  0.00  0.00     0.048 A 
ATOM      4  C3  UNL d   1       2.208   5.977  -4.921  0.00  0.00     0.023 A 
ATOM      5  C4  UNL d   1       2.241   5.976  -3.526  0.00  0.00     0.048 A 
ATOM      6  C5  UNL d   1       1.044   5.969  -2.807  0.00  0.00     0.003 A 
ATOM      7  I   UNL d   1       3.987   5.989  -5.996  0.00  0.00    -0.146 I 
ENDROOT
TORSDOF 0
ENDMDL
