MODEL 1
REMARK minimizedAffinity -0.915163994
REMARK minimizedRMSD -1
REMARK  0 active torsions:
REMARK  status: ('A' for Active; 'I' for Inactive)
ROOT
ATOM      1  C   UNL d   1       0.114   5.968  -4.098  0.00  0.00     0.023 A 
ATOM      2  C1  UNL d   1       0.314   5.951  -5.479  0.00  0.00     0.003 A 
ATOM      3  C2  UNL d   1       1.611   5.959  -5.997  0.00  0.00     0.048 A 
ATOM      4  C3  UNL d   1       2.702   5.983  -5.130  0.00  0.00     0.023 A 
ATOM      5  C4  UNL d   1       2.506   5.999  -3.748  0.00  0.00     0.048 A 
ATOM      6  C5  UNL d   1       1.208   5.992  -3.234  0.00  0.00     0.003 A 
ATOM      7  I   UNL d   1       4.633   5.994  -5.899  0.00  0.00    -0.146 I 
ENDROOT
TORSDOF 0
ENDMDL
