MODEL 1
REMARK minimizedAffinity 6.72162724
REMARK minimizedRMSD -1
REMARK  0 active torsions:
REMARK  status: ('A' for Active; 'I' for Inactive)
ROOT
ATOM      1  C   UNL d   1       1.997   2.778   0.004  0.00  0.00     0.023 A 
ATOM      2  C1  UNL d   1       1.154   2.184  -0.936  0.00  0.00     0.003 A 
ATOM      3  C2  UNL d   1       0.497   0.991  -0.631  0.00  0.00     0.048 A 
ATOM      4  C3  UNL d   1       0.686   0.396   0.616  0.00  0.00     0.023 A 
ATOM      5  C4  UNL d   1       1.528   0.987   1.560  0.00  0.00     0.048 A 
ATOM      6  C5  UNL d   1       2.183   2.180   1.250  0.00  0.00     0.003 A 
ATOM      7  I   UNL d   1      -0.291  -1.381   1.072  0.00  0.00    -0.146 I 
ENDROOT
TORSDOF 0
ENDMDL
