MODEL 1
REMARK minimizedAffinity -1.5620724
REMARK minimizedRMSD -1
REMARK  0 active torsions:
REMARK  status: ('A' for Active; 'I' for Inactive)
ROOT
ATOM      1  C   UNL d   1      -1.871   6.000  -3.525  0.00  0.00     0.023 A 
ATOM      2  C1  UNL d   1      -0.721   6.000  -2.735  0.00  0.00     0.003 A 
ATOM      3  C2  UNL d   1       0.540   5.999  -3.335  0.00  0.00     0.048 A 
ATOM      4  C3  UNL d   1       0.644   5.999  -4.726  0.00  0.00     0.023 A 
ATOM      5  C4  UNL d   1      -0.504   6.000  -5.520  0.00  0.00     0.048 A 
ATOM      6  C5  UNL d   1      -1.762   6.000  -4.916  0.00  0.00     0.003 A 
ATOM      7  I   UNL d   1       2.520   5.999  -5.621  0.00  0.00    -0.146 I 
ENDROOT
TORSDOF 0
ENDMDL
