MODEL 1
REMARK minimizedAffinity -2.75492525
REMARK minimizedRMSD -1
REMARK  1 active torsions:
REMARK  status: ('A' for Active; 'I' for Inactive)
REMARK    1  A    between atoms: N_2  and  C1_3 
ROOT
ATOM      1  C1  UNL d   1      -0.706   0.173  -0.419  0.00  0.00     0.143 A 
ATOM      2  C2  UNL d   1      -0.692  -1.066   0.231  0.00  0.00    -0.057 A 
ATOM      3  C3  UNL d   1       0.507  -1.643   0.668  0.00  0.00     0.033 A 
ATOM      4  C4  UNL d   1       1.719  -1.001   0.436  0.00  0.00    -0.042 A 
ATOM      5  C5  UNL d   1       1.731   0.219  -0.229  0.00  0.00     0.033 A 
ATOM      6  C6  UNL d   1       0.530   0.793  -0.657  0.00  0.00    -0.057 A 
ENDROOT
BRANCH   1   7
ATOM      7  N   UNL d   1      -1.855   0.752  -0.964  0.00  0.00    -0.732 N 
ATOM      8  C   UNL d   1      -1.768   1.604  -2.131  0.00  0.00     0.284 C 
ATOM      9  H3  UNL d   1      -2.645   0.111  -0.976  0.00  0.00     0.395 HD
ENDBRANCH   1   7
TORSDOF 1
ENDMDL
