MODEL 1
REMARK minimizedAffinity -3.56413174
REMARK minimizedRMSD -1
REMARK  1 active torsions:
REMARK  status: ('A' for Active; 'I' for Inactive)
REMARK    1  A    between atoms: N_2  and  C1_3 
ROOT
ATOM      1  C1  UNL d   1      -1.046   1.014  -1.088  0.00  0.00     0.143 A 
ATOM      2  C2  UNL d   1      -0.060   0.161  -1.596  0.00  0.00    -0.057 A 
ATOM      3  C3  UNL d   1       0.548  -0.807  -0.788  0.00  0.00     0.033 A 
ATOM      4  C4  UNL d   1       0.201  -0.920   0.554  0.00  0.00    -0.042 A 
ATOM      5  C5  UNL d   1      -0.758  -0.066   1.087  0.00  0.00     0.033 A 
ATOM      6  C6  UNL d   1      -1.367   0.894   0.273  0.00  0.00    -0.057 A 
ENDROOT
BRANCH   1   7
ATOM      7  N   UNL d   1      -1.617   2.062  -1.814  0.00  0.00    -0.732 N 
ATOM      8  C   UNL d   1      -2.701   1.812  -2.740  0.00  0.00     0.284 C 
ATOM      9  H3  UNL d   1      -1.733   2.904  -1.255  0.00  0.00     0.395 HD
ENDBRANCH   1   7
TORSDOF 1
ENDMDL
