MODEL 1
REMARK minimizedAffinity -3.14427042
REMARK minimizedRMSD -1
REMARK  1 active torsions:
REMARK  status: ('A' for Active; 'I' for Inactive)
REMARK    1  A    between atoms: N_2  and  C1_3 
ROOT
ATOM      1  C1  UNL d   1       0.323  -0.079  -0.197  0.00  0.00     0.143 A 
ATOM      2  C2  UNL d   1       0.832  -0.385   1.070  0.00  0.00    -0.057 A 
ATOM      3  C3  UNL d   1       1.618  -1.525   1.280  0.00  0.00     0.033 A 
ATOM      4  C4  UNL d   1       1.886  -2.396   0.230  0.00  0.00    -0.042 A 
ATOM      5  C5  UNL d   1       1.370  -2.125  -1.032  0.00  0.00     0.033 A 
ATOM      6  C6  UNL d   1       0.591  -0.982  -1.238  0.00  0.00    -0.057 A 
ENDROOT
BRANCH   1   7
ATOM      7  N   UNL d   1      -0.545   0.986  -0.450  0.00  0.00    -0.732 N 
ATOM      8  C   UNL d   1      -1.272   1.064  -1.699  0.00  0.00     0.284 C 
ATOM      9  H3  UNL d   1      -1.095   1.241   0.368  0.00  0.00     0.395 HD
ENDBRANCH   1   7
TORSDOF 1
ENDMDL
