MODEL 1
REMARK minimizedAffinity -3.38769317
REMARK minimizedRMSD -1
REMARK  1 active torsions:
REMARK  status: ('A' for Active; 'I' for Inactive)
REMARK    1  A    between atoms: N_2  and  C1_3 
ROOT
ATOM      1  C1  UNL d   1       0.507  -1.051   0.277  0.00  0.00     0.143 A 
ATOM      2  C2  UNL d   1       1.485  -2.052   0.297  0.00  0.00    -0.057 A 
ATOM      3  C3  UNL d   1       1.583  -2.949   1.367  0.00  0.00     0.033 A 
ATOM      4  C4  UNL d   1       0.721  -2.843   2.454  0.00  0.00    -0.042 A 
ATOM      5  C5  UNL d   1      -0.242  -1.841   2.467  0.00  0.00     0.033 A 
ATOM      6  C6  UNL d   1      -0.340  -0.952   1.392  0.00  0.00    -0.057 A 
ENDROOT
BRANCH   1   7
ATOM      7  N   UNL d   1       0.421  -0.068  -0.711  0.00  0.00    -0.732 N 
ATOM      8  C   UNL d   1      -0.450   1.076  -0.539  0.00  0.00     0.284 C 
ATOM      9  H3  UNL d   1       1.327   0.157  -1.116  0.00  0.00     0.395 HD
ENDBRANCH   1   7
TORSDOF 1
ENDMDL
