MODEL 1
REMARK minimizedAffinity -4.33768892
REMARK minimizedRMSD -1
REMARK  1 active torsions:
REMARK  status: ('A' for Active; 'I' for Inactive)
REMARK    1  A    between atoms: N_2  and  C1_3 
ROOT
ATOM      1  C1  UNL d   1       0.121   0.210  -0.099  0.00  0.00     0.143 A 
ATOM      2  C2  UNL d   1       1.294   0.880  -0.463  0.00  0.00    -0.057 A 
ATOM      3  C3  UNL d   1       2.549   0.278  -0.318  0.00  0.00     0.033 A 
ATOM      4  C4  UNL d   1       2.656  -0.999   0.223  0.00  0.00    -0.042 A 
ATOM      5  C5  UNL d   1       1.506  -1.674   0.616  0.00  0.00     0.033 A 
ATOM      6  C6  UNL d   1       0.255  -1.070   0.462  0.00  0.00    -0.057 A 
ENDROOT
BRANCH   1   7
ATOM      7  N   UNL d   1      -1.148   0.793  -0.127  0.00  0.00    -0.732 N 
ATOM      8  C   UNL d   1      -1.654   1.399  -1.340  0.00  0.00     0.284 C 
ATOM      9  H3  UNL d   1      -1.838   0.246   0.383  0.00  0.00     0.395 HD
ENDBRANCH   1   7
TORSDOF 1
ENDMDL
