MODEL 1
REMARK minimizedAffinity -1.66553569
REMARK minimizedRMSD -1
REMARK  1 active torsions:
REMARK  status: ('A' for Active; 'I' for Inactive)
REMARK    1  A    between atoms: N_2  and  C1_3 
ROOT
ATOM      1  C1  UNL d   1       0.527  -0.539   0.292  0.00  0.00     0.143 A 
ATOM      2  C2  UNL d   1      -0.465  -0.850   1.228  0.00  0.00    -0.057 A 
ATOM      3  C3  UNL d   1      -1.566  -0.008   1.426  0.00  0.00     0.033 A 
ATOM      4  C4  UNL d   1      -1.680   1.178   0.708  0.00  0.00    -0.042 A 
ATOM      5  C5  UNL d   1      -0.694   1.519  -0.210  0.00  0.00     0.033 A 
ATOM      6  C6  UNL d   1       0.400   0.671  -0.408  0.00  0.00    -0.057 A 
ENDROOT
BRANCH   1   7
ATOM      7  N   UNL d   1       1.695  -1.286   0.119  0.00  0.00    -0.732 N 
ATOM      8  C   UNL d   1       1.902  -2.512   0.859  0.00  0.00     0.284 C 
ATOM      9  H3  UNL d   1       1.985  -1.334  -0.855  0.00  0.00     0.395 HD
ENDBRANCH   1   7
TORSDOF 1
ENDMDL
