MODEL 1
REMARK minimizedAffinity -4.37680054
REMARK minimizedRMSD -1
REMARK  1 active torsions:
REMARK  status: ('A' for Active; 'I' for Inactive)
REMARK    1  A    between atoms: N_2  and  C1_3 
ROOT
ATOM      1  C1  UNL d   1       0.336  -0.571  -0.197  0.00  0.00     0.143 A 
ATOM      2  C2  UNL d   1      -0.315  -1.624   0.455  0.00  0.00    -0.057 A 
ATOM      3  C3  UNL d   1       0.406  -2.649   1.078  0.00  0.00     0.033 A 
ATOM      4  C4  UNL d   1       1.796  -2.655   1.036  0.00  0.00    -0.042 A 
ATOM      5  C5  UNL d   1       2.464  -1.632   0.372  0.00  0.00     0.033 A 
ATOM      6  C6  UNL d   1       1.739  -0.608  -0.243  0.00  0.00    -0.057 A 
ENDROOT
BRANCH   1   7
ATOM      7  N   UNL d   1      -0.326   0.425  -0.919  0.00  0.00    -0.732 N 
ATOM      8  C   UNL d   1      -1.064   1.465  -0.236  0.00  0.00     0.284 C 
ATOM      9  H3  UNL d   1       0.218   0.754  -1.714  0.00  0.00     0.395 HD
ENDBRANCH   1   7
TORSDOF 1
ENDMDL
