MODEL 1
REMARK minimizedAffinity 0.840885818
REMARK minimizedRMSD -1
REMARK  1 active torsions:
REMARK  status: ('A' for Active; 'I' for Inactive)
REMARK    1  A    between atoms: N_2  and  C1_3 
ROOT
ATOM      1  C1  UNL d   1       0.078  -1.155   0.699  0.00  0.00     0.143 A 
ATOM      2  C2  UNL d   1      -0.952  -0.667   1.510  0.00  0.00    -0.057 A 
ATOM      3  C3  UNL d   1      -1.527   0.589   1.276  0.00  0.00     0.033 A 
ATOM      4  C4  UNL d   1      -1.060   1.393   0.242  0.00  0.00    -0.042 A 
ATOM      5  C5  UNL d   1      -0.020   0.939  -0.561  0.00  0.00     0.033 A 
ATOM      6  C6  UNL d   1       0.545  -0.319  -0.327  0.00  0.00    -0.057 A 
ENDROOT
BRANCH   1   7
ATOM      7  N   UNL d   1       0.757  -2.352   0.940  0.00  0.00    -0.732 N 
ATOM      8  C   UNL d   1       2.114  -2.341   1.442  0.00  0.00     0.284 C 
ATOM      9  H3  UNL d   1       0.161  -3.057   1.368  0.00  0.00     0.395 HD
ENDBRANCH   1   7
TORSDOF 1
ENDMDL
