MODEL 1
REMARK minimizedAffinity -4.39783859
REMARK minimizedRMSD -1
REMARK  1 active torsions:
REMARK  status: ('A' for Active; 'I' for Inactive)
REMARK    1  A    between atoms: N_2  and  C1_3 
ROOT
ATOM      1  C1  UNL d   1      -1.182   0.383  -2.319  0.00  0.00     0.143 A 
ATOM      2  C2  UNL d   1       0.091   0.940  -2.153  0.00  0.00    -0.057 A 
ATOM      3  C3  UNL d   1       0.959   0.482  -1.154  0.00  0.00     0.033 A 
ATOM      4  C4  UNL d   1       0.556  -0.525  -0.282  0.00  0.00    -0.042 A 
ATOM      5  C5  UNL d   1      -0.713  -1.076  -0.413  0.00  0.00     0.033 A 
ATOM      6  C6  UNL d   1      -1.573  -0.619  -1.417  0.00  0.00    -0.057 A 
ENDROOT
BRANCH   1   7
ATOM      7  N   UNL d   1      -2.127   0.862  -3.230  0.00  0.00    -0.732 N 
ATOM      8  C   UNL d   1      -2.088   2.237  -3.678  0.00  0.00     0.284 C 
ATOM      9  H3  UNL d   1      -2.332   0.190  -3.966  0.00  0.00     0.395 HD
ENDBRANCH   1   7
TORSDOF 1
ENDMDL
