MODEL 1
REMARK minimizedAffinity -3.57678413
REMARK minimizedRMSD -1
REMARK  0 active torsions:
REMARK  status: ('A' for Active; 'I' for Inactive)
ROOT
ATOM      1  C1  DEN d   1      -0.450   1.795   0.507  0.00  0.00     0.130 A 
ATOM      2  C2  DEN d   1      -0.373   0.657  -0.405  0.00  0.00    -0.031 A 
ATOM      3  C3  DEN d   1      -1.262  -0.403   0.112  0.00  0.00     0.027 A 
ATOM      4  C4  DEN d   1      -2.747  -0.389   2.221  0.00  0.00     0.027 A 
ATOM      5  C5  DEN d   1      -3.136   0.352   3.316  0.00  0.00    -0.003 A 
ATOM      6  C6  DEN d   1      -2.635   1.602   3.567  0.00  0.00     0.001 A 
ATOM      7  C7  DEN d   1      -1.751   2.167   2.687  0.00  0.00     0.017 A 
ATOM      8  C8  DEN d   1      -1.348   1.424   1.586  0.00  0.00    -0.094 A 
ATOM      9  C9  DEN d   1      -1.875   0.167   1.343  0.00  0.00    -0.072 A 
ENDROOT
TORSDOF 0
ENDMDL
