MODEL 1
REMARK minimizedAffinity -3.96923351
REMARK minimizedRMSD -1
REMARK  0 active torsions:
REMARK  status: ('A' for Active; 'I' for Inactive)
ROOT
ATOM      1  C1  DEN d   1       1.964  -0.459  -1.904  0.00  0.00     0.130 A 
ATOM      2  C2  DEN d   1       1.882  -1.762  -1.250  0.00  0.00    -0.031 A 
ATOM      3  C3  DEN d   1       0.704  -1.753  -0.359  0.00  0.00     0.027 A 
ATOM      4  C4  DEN d   1      -0.994   0.142   0.065  0.00  0.00     0.027 A 
ATOM      5  C5  DEN d   1      -1.332   1.438  -0.253  0.00  0.00    -0.003 A 
ATOM      6  C6  DEN d   1      -0.582   2.199  -1.111  0.00  0.00     0.001 A 
ATOM      7  C7  DEN d   1       0.520   1.653  -1.715  0.00  0.00     0.017 A 
ATOM      8  C8  DEN d   1       0.871   0.349  -1.394  0.00  0.00    -0.094 A 
ATOM      9  C9  DEN d   1       0.093  -0.408  -0.534  0.00  0.00    -0.072 A 
ENDROOT
TORSDOF 0
ENDMDL
