MODEL 1
REMARK minimizedAffinity -4.07063198
REMARK minimizedRMSD -1
REMARK  0 active torsions:
REMARK  status: ('A' for Active; 'I' for Inactive)
ROOT
ATOM      1  C1  DEN d   1       1.953   0.774  -1.965  0.00  0.00     0.130 A 
ATOM      2  C2  DEN d   1       2.938  -0.300  -2.067  0.00  0.00    -0.031 A 
ATOM      3  C3  DEN d   1       2.542  -1.373  -1.133  0.00  0.00     0.027 A 
ATOM      4  C4  DEN d   1       0.508  -1.478   0.449  0.00  0.00     0.027 A 
ATOM      5  C5  DEN d   1      -0.604  -0.798   0.895  0.00  0.00    -0.003 A 
ATOM      6  C6  DEN d   1      -0.920   0.458   0.447  0.00  0.00     0.001 A 
ATOM      7  C7  DEN d   1      -0.140   1.054  -0.508  0.00  0.00     0.017 A 
ATOM      8  C8  DEN d   1       0.987   0.378  -0.957  0.00  0.00    -0.094 A 
ATOM      9  C9  DEN d   1       1.283  -0.896  -0.501  0.00  0.00    -0.072 A 
ENDROOT
TORSDOF 0
ENDMDL
