MODEL 1
REMARK minimizedAffinity -4.22424459
REMARK minimizedRMSD -1
REMARK  0 active torsions:
REMARK  status: ('A' for Active; 'I' for Inactive)
ROOT
ATOM      1  C1  DEN d   1       2.163   0.361  -2.346  0.00  0.00     0.130 A 
ATOM      2  C2  DEN d   1       1.314   1.547  -2.291  0.00  0.00    -0.031 A 
ATOM      3  C3  DEN d   1       0.257   1.306  -1.288  0.00  0.00     0.027 A 
ATOM      4  C4  DEN d   1      -0.141  -0.778   0.180  0.00  0.00     0.027 A 
ATOM      5  C5  DEN d   1       0.313  -2.044   0.479  0.00  0.00    -0.003 A 
ATOM      6  C6  DEN d   1       1.385  -2.605  -0.162  0.00  0.00     0.001 A 
ATOM      7  C7  DEN d   1       2.069  -1.882  -1.103  0.00  0.00     0.017 A 
ATOM      8  C8  DEN d   1       1.613  -0.607  -1.415  0.00  0.00    -0.094 A 
ATOM      9  C9  DEN d   1       0.534  -0.053  -0.748  0.00  0.00    -0.072 A 
ENDROOT
TORSDOF 0
ENDMDL
