MODEL 1
REMARK minimizedAffinity -3.92782354
REMARK minimizedRMSD -1
REMARK  0 active torsions:
REMARK  status: ('A' for Active; 'I' for Inactive)
ROOT
ATOM      1  C1  DEN d   1      -0.885   0.303   0.127  0.00  0.00     0.130 A 
ATOM      2  C2  DEN d   1      -0.654  -1.039   0.654  0.00  0.00    -0.031 A 
ATOM      3  C3  DEN d   1       0.445  -1.650  -0.121  0.00  0.00     0.027 A 
ATOM      4  C4  DEN d   1       1.805  -0.652  -2.072  0.00  0.00     0.027 A 
ATOM      5  C5  DEN d   1       1.964   0.452  -2.880  0.00  0.00    -0.003 A 
ATOM      6  C6  DEN d   1       1.169   1.561  -2.766  0.00  0.00     0.001 A 
ATOM      7  C7  DEN d   1       0.207   1.609  -1.792  0.00  0.00     0.017 A 
ATOM      8  C8  DEN d   1       0.035   0.497  -0.978  0.00  0.00    -0.094 A 
ATOM      9  C9  DEN d   1       0.857  -0.610  -1.101  0.00  0.00    -0.072 A 
ENDROOT
TORSDOF 0
ENDMDL
