MODEL 1
REMARK minimizedAffinity -4.50080633
REMARK minimizedRMSD -1
REMARK  0 active torsions:
REMARK  status: ('A' for Active; 'I' for Inactive)
ROOT
ATOM      1  C1  DEN d   1      -0.554   0.800  -0.044  0.00  0.00     0.130 A 
ATOM      2  C2  DEN d   1      -0.701  -0.457   0.684  0.00  0.00    -0.031 A 
ATOM      3  C3  DEN d   1       0.490  -1.285   0.410  0.00  0.00     0.027 A 
ATOM      4  C4  DEN d   1       2.540  -0.745  -1.060  0.00  0.00     0.027 A 
ATOM      5  C5  DEN d   1       3.110   0.196  -1.888  0.00  0.00    -0.003 A 
ATOM      6  C6  DEN d   1       2.489   1.380  -2.185  0.00  0.00     0.001 A 
ATOM      7  C7  DEN d   1       1.279   1.674  -1.613  0.00  0.00     0.017 A 
ATOM      8  C8  DEN d   1       0.695   0.727  -0.782  0.00  0.00    -0.094 A 
ATOM      9  C9  DEN d   1       1.344  -0.459  -0.485  0.00  0.00    -0.072 A 
ENDROOT
TORSDOF 0
ENDMDL
