MODEL 1
REMARK minimizedAffinity -0.957486451
REMARK minimizedRMSD -1
REMARK  0 active torsions:
REMARK  status: ('A' for Active; 'I' for Inactive)
ROOT
ATOM      1  C1  DEN d   1      -0.898  -0.070   0.189  0.00  0.00     0.130 A 
ATOM      2  C2  DEN d   1      -0.079   0.869  -0.573  0.00  0.00    -0.031 A 
ATOM      3  C3  DEN d   1       0.286   1.986   0.322  0.00  0.00     0.027 A 
ATOM      4  C4  DEN d   1      -0.328   2.347   2.801  0.00  0.00     0.027 A 
ATOM      5  C5  DEN d   1      -1.016   1.825   3.874  0.00  0.00    -0.003 A 
ATOM      6  C6  DEN d   1      -1.734   0.662   3.786  0.00  0.00     0.001 A 
ATOM      7  C7  DEN d   1      -1.745  -0.041   2.611  0.00  0.00     0.017 A 
ATOM      8  C8  DEN d   1      -1.060   0.482   1.522  0.00  0.00    -0.094 A 
ATOM      9  C9  DEN d   1      -0.329   1.653   1.635  0.00  0.00    -0.072 A 
ENDROOT
TORSDOF 0
ENDMDL
