MODEL 1
REMARK minimizedAffinity -5.0059638
REMARK minimizedRMSD -1
REMARK  0 active torsions:
REMARK  status: ('A' for Active; 'I' for Inactive)
ROOT
ATOM      1  C1  DEN d   1      -0.340   1.087  -0.155  0.00  0.00     0.130 A 
ATOM      2  C2  DEN d   1      -0.561  -0.185   0.527  0.00  0.00    -0.031 A 
ATOM      3  C3  DEN d   1       0.492  -1.125   0.094  0.00  0.00     0.027 A 
ATOM      4  C4  DEN d   1       2.437  -0.735  -1.554  0.00  0.00     0.027 A 
ATOM      5  C5  DEN d   1       3.030   0.182  -2.394  0.00  0.00    -0.003 A 
ATOM      6  C6  DEN d   1       2.526   1.443  -2.571  0.00  0.00     0.001 A 
ATOM      7  C7  DEN d   1       1.421   1.838  -1.864  0.00  0.00     0.017 A 
ATOM      8  C8  DEN d   1       0.813   0.917  -1.021  0.00  0.00    -0.094 A 
ATOM      9  C9  DEN d   1       1.346  -0.349  -0.846  0.00  0.00    -0.072 A 
ENDROOT
TORSDOF 0
ENDMDL
