MODEL 1
REMARK minimizedAffinity -6.59957123
REMARK minimizedRMSD -1
REMARK  0 active torsions:
REMARK  status: ('A' for Active; 'I' for Inactive)
ROOT
ATOM      1  C1  DEN d   1      -0.570   0.558  -0.389  0.00  0.00     0.130 A 
ATOM      2  C2  DEN d   1      -0.954  -0.726   0.192  0.00  0.00    -0.031 A 
ATOM      3  C3  DEN d   1       0.157  -1.675  -0.021  0.00  0.00     0.027 A 
ATOM      4  C4  DEN d   1       2.426  -1.281  -1.185  0.00  0.00     0.027 A 
ATOM      5  C5  DEN d   1       3.202  -0.356  -1.846  0.00  0.00    -0.003 A 
ATOM      6  C6  DEN d   1       2.766   0.918  -2.096  0.00  0.00     0.001 A 
ATOM      7  C7  DEN d   1       1.537   1.316  -1.642  0.00  0.00     0.017 A 
ATOM      8  C8  DEN d   1       0.745   0.387  -0.980  0.00  0.00    -0.094 A 
ATOM      9  C9  DEN d   1       1.208  -0.893  -0.727  0.00  0.00    -0.072 A 
ENDROOT
TORSDOF 0
ENDMDL
