MODEL 1
REMARK minimizedAffinity -1.70736325
REMARK minimizedRMSD -1
REMARK  0 active torsions:
REMARK  status: ('A' for Active; 'I' for Inactive)
ROOT
ATOM      1  C1  DEN d   1       5.695  -1.565   6.000  0.00  0.00     0.130 A 
ATOM      2  C2  DEN d   1       5.286  -0.163   5.975  0.00  0.00    -0.031 A 
ATOM      3  C3  DEN d   1       4.564   0.079   4.710  0.00  0.00     0.027 A 
ATOM      4  C4  DEN d   1       4.037  -1.572   2.800  0.00  0.00     0.027 A 
ATOM      5  C5  DEN d   1       4.190  -2.869   2.364  0.00  0.00    -0.003 A 
ATOM      6  C6  DEN d   1       4.880  -3.806   3.087  0.00  0.00     0.001 A 
ATOM      7  C7  DEN d   1       5.403  -3.471   4.308  0.00  0.00     0.017 A 
ATOM      8  C8  DEN d   1       5.259  -2.163   4.751  0.00  0.00    -0.094 A 
ATOM      9  C9  DEN d   1       4.548  -1.234   4.011  0.00  0.00    -0.072 A 
ENDROOT
TORSDOF 0
ENDMDL
