MODEL 1
REMARK minimizedAffinity -0.582892179
REMARK minimizedRMSD -1
REMARK  0 active torsions:
REMARK  status: ('A' for Active; 'I' for Inactive)
ROOT
ATOM      1  C1  DEN d   1      -0.007   2.241  -1.810  0.00  0.00     0.130 A 
ATOM      2  C2  DEN d   1       1.406   2.300  -2.174  0.00  0.00    -0.031 A 
ATOM      3  C3  DEN d   1       2.185   2.542  -0.943  0.00  0.00     0.027 A 
ATOM      4  C4  DEN d   1       1.346   2.822   1.480  0.00  0.00     0.027 A 
ATOM      5  C5  DEN d   1       0.227   2.861   2.282  0.00  0.00    -0.003 A 
ATOM      6  C6  DEN d   1      -1.039   2.731   1.777  0.00  0.00     0.001 A 
ATOM      7  C7  DEN d   1      -1.216   2.510   0.437  0.00  0.00     0.017 A 
ATOM      8  C8  DEN d   1      -0.094   2.477  -0.380  0.00  0.00    -0.094 A 
ATOM      9  C9  DEN d   1       1.179   2.599   0.151  0.00  0.00    -0.072 A 
ENDROOT
TORSDOF 0
ENDMDL
