MODEL 1
REMARK minimizedAffinity -6.12982178
REMARK minimizedRMSD -1
REMARK  0 active torsions:
REMARK  status: ('A' for Active; 'I' for Inactive)
ROOT
ATOM      1  C1  DEN d   1      -0.218   1.579   0.625  0.00  0.00     0.130 A 
ATOM      2  C2  DEN d   1      -0.467   0.658   1.730  0.00  0.00    -0.031 A 
ATOM      3  C3  DEN d   1       0.145  -0.642   1.388  0.00  0.00     0.027 A 
ATOM      4  C4  DEN d   1       1.451  -1.312  -0.733  0.00  0.00     0.027 A 
ATOM      5  C5  DEN d   1       1.908  -0.872  -1.956  0.00  0.00    -0.003 A 
ATOM      6  C6  DEN d   1       1.662   0.395  -2.415  0.00  0.00     0.001 A 
ATOM      7  C7  DEN d   1       0.977   1.281  -1.626  0.00  0.00     0.017 A 
ATOM      8  C8  DEN d   1       0.506   0.842  -0.396  0.00  0.00    -0.094 A 
ATOM      9  C9  DEN d   1       0.776  -0.438   0.056  0.00  0.00    -0.072 A 
ENDROOT
TORSDOF 0
ENDMDL
