MODEL 1
REMARK minimizedAffinity 12.2144032
REMARK minimizedRMSD -1
REMARK  0 active torsions:
REMARK  status: ('A' for Active; 'I' for Inactive)
ROOT
ATOM      1  O1  BZF d   1       4.121   0.620   1.100  0.00  0.00    -0.204 OA
ATOM      2  C2  BZF d   1       4.119   1.814   1.795  0.00  0.00     0.174 A 
ATOM      3  C3  BZF d   1       2.877   2.111   2.230  0.00  0.00    -0.012 A 
ATOM      4  C3A BZF d   1       2.069   0.991   1.858  0.00  0.00    -0.107 A 
ATOM      5  C4  BZF d   1       0.749   0.687   2.028  0.00  0.00     0.055 A 
ATOM      6  C5  BZF d   1       0.258  -0.455   1.480  0.00  0.00    -0.016 A 
ATOM      7  C6  BZF d   1       1.056  -1.313   0.753  0.00  0.00     0.022 A 
ATOM      8  C7  BZF d   1       2.373  -1.057   0.561  0.00  0.00     0.029 A 
ATOM      9  C7A BZF d   1       2.880   0.080   1.141  0.00  0.00     0.058 A 
ENDROOT
TORSDOF 0
ENDMDL
