MODEL 1
REMARK minimizedAffinity 9.937603
REMARK minimizedRMSD -1
REMARK  0 active torsions:
REMARK  status: ('A' for Active; 'I' for Inactive)
ROOT
ATOM      1  O1  BZF d   1       5.976   5.852   2.446  0.00  0.00    -0.204 OA
ATOM      2  C2  BZF d   1       4.972   5.735   1.504  0.00  0.00     0.174 A 
ATOM      3  C3  BZF d   1       3.766   5.638   2.099  0.00  0.00    -0.012 A 
ATOM      4  C3A BZF d   1       4.024   5.790   3.498  0.00  0.00    -0.107 A 
ATOM      5  C4  BZF d   1       3.223   5.801   4.605  0.00  0.00     0.055 A 
ATOM      6  C5  BZF d   1       3.796   5.897   5.833  0.00  0.00    -0.016 A 
ATOM      7  C6  BZF d   1       5.164   5.978   5.993  0.00  0.00     0.022 A 
ATOM      8  C7  BZF d   1       5.998   5.976   4.925  0.00  0.00     0.029 A 
ATOM      9  C7A BZF d   1       5.421   5.912   3.680  0.00  0.00     0.058 A 
ENDROOT
TORSDOF 0
ENDMDL
