MODEL 1
REMARK minimizedAffinity 10.8063822
REMARK minimizedRMSD -1
REMARK  0 active torsions:
REMARK  status: ('A' for Active; 'I' for Inactive)
ROOT
ATOM      1  O1  BZF d   1      -2.330  -2.272  -3.003  0.00  0.00    -0.204 OA
ATOM      2  C2  BZF d   1      -3.444  -1.523  -3.329  0.00  0.00     0.174 A 
ATOM      3  C3  BZF d   1      -4.468  -1.801  -2.498  0.00  0.00    -0.012 A 
ATOM      4  C3A BZF d   1      -3.935  -2.718  -1.538  0.00  0.00    -0.107 A 
ATOM      5  C4  BZF d   1      -4.463  -3.347  -0.447  0.00  0.00     0.055 A 
ATOM      6  C5  BZF d   1      -3.698  -4.238   0.237  0.00  0.00    -0.016 A 
ATOM      7  C6  BZF d   1      -2.404  -4.527  -0.146  0.00  0.00     0.022 A 
ATOM      8  C7  BZF d   1      -1.835  -3.925  -1.218  0.00  0.00     0.029 A 
ATOM      9  C7A BZF d   1      -2.595  -2.999  -1.891  0.00  0.00     0.058 A 
ENDROOT
TORSDOF 0
ENDMDL
