MODEL 1
REMARK minimizedAffinity 6.06530428
REMARK minimizedRMSD -1
REMARK  0 active torsions:
REMARK  status: ('A' for Active; 'I' for Inactive)
ROOT
ATOM      1  O1  BZF d   1      -4.759  -2.624   4.896  0.00  0.00    -0.204 OA
ATOM      2  C2  BZF d   1      -5.999  -2.768   4.304  0.00  0.00     0.174 A 
ATOM      3  C3  BZF d   1      -6.000  -2.243   3.062  0.00  0.00    -0.012 A 
ATOM      4  C3A BZF d   1      -4.652  -1.822   2.830  0.00  0.00    -0.107 A 
ATOM      5  C4  BZF d   1      -4.020  -1.239   1.769  0.00  0.00     0.055 A 
ATOM      6  C5  BZF d   1      -2.712  -0.889   1.891  0.00  0.00    -0.016 A 
ATOM      7  C6  BZF d   1      -2.009  -1.102   3.058  0.00  0.00     0.022 A 
ATOM      8  C7  BZF d   1      -2.592  -1.682   4.135  0.00  0.00     0.029 A 
ATOM      9  C7A BZF d   1      -3.904  -2.067   4.005  0.00  0.00     0.058 A 
ENDROOT
TORSDOF 0
ENDMDL
