MODEL 1
REMARK minimizedAffinity 0.954917312
REMARK minimizedRMSD -1
REMARK  0 active torsions:
REMARK  status: ('A' for Active; 'I' for Inactive)
ROOT
ATOM      1  O1  BZF d   1       0.694  -3.101  -2.078  0.00  0.00    -0.204 OA
ATOM      2  C2  BZF d   1       2.000  -3.228  -1.647  0.00  0.00     0.174 A 
ATOM      3  C3  BZF d   1       2.091  -3.000  -0.321  0.00  0.00    -0.012 A 
ATOM      4  C3A BZF d   1       0.744  -2.803   0.120  0.00  0.00    -0.107 A 
ATOM      5  C4  BZF d   1       0.182  -2.552   1.339  0.00  0.00     0.055 A 
ATOM      6  C5  BZF d   1      -1.158  -2.339   1.417  0.00  0.00    -0.016 A 
ATOM      7  C6  BZF d   1      -1.964  -2.365   0.298  0.00  0.00     0.022 A 
ATOM      8  C7  BZF d   1      -1.453  -2.615  -0.932  0.00  0.00     0.029 A 
ATOM      9  C7A BZF d   1      -0.105  -2.863  -1.010  0.00  0.00     0.058 A 
ENDROOT
TORSDOF 0
ENDMDL
