MODEL 1
REMARK minimizedAffinity 6.52812719
REMARK minimizedRMSD -1
REMARK  0 active torsions:
REMARK  status: ('A' for Active; 'I' for Inactive)
ROOT
ATOM      1  O1  BZF d   1      -0.568  -3.891   2.988  0.00  0.00    -0.204 OA
ATOM      2  C2  BZF d   1      -0.470  -5.174   3.490  0.00  0.00     0.174 A 
ATOM      3  C3  BZF d   1      -1.344  -5.996   2.875  0.00  0.00    -0.012 A 
ATOM      4  C3A BZF d   1      -1.966  -5.197   1.865  0.00  0.00    -0.107 A 
ATOM      5  C4  BZF d   1      -2.912  -5.454   0.914  0.00  0.00     0.055 A 
ATOM      6  C5  BZF d   1      -3.356  -4.435   0.131  0.00  0.00    -0.016 A 
ATOM      7  C6  BZF d   1      -2.880  -3.148   0.275  0.00  0.00     0.022 A 
ATOM      8  C7  BZF d   1      -1.937  -2.846   1.201  0.00  0.00     0.029 A 
ATOM      9  C7A BZF d   1      -1.463  -3.879   1.971  0.00  0.00     0.058 A 
ENDROOT
TORSDOF 0
ENDMDL
