MODEL 1
REMARK minimizedAffinity 5.54981136
REMARK minimizedRMSD -1
REMARK  0 active torsions:
REMARK  status: ('A' for Active; 'I' for Inactive)
ROOT
ATOM      1  O1  BZF d   1       2.938   5.860   2.341  0.00  0.00    -0.204 OA
ATOM      2  C2  BZF d   1       3.989   5.999   1.455  0.00  0.00     0.174 A 
ATOM      3  C3  BZF d   1       5.170   5.968   2.104  0.00  0.00    -0.012 A 
ATOM      4  C3A BZF d   1       4.841   5.706   3.472  0.00  0.00    -0.107 A 
ATOM      5  C4  BZF d   1       5.588   5.546   4.603  0.00  0.00     0.055 A 
ATOM      6  C5  BZF d   1       4.956   5.375   5.794  0.00  0.00    -0.016 A 
ATOM      7  C6  BZF d   1       3.580   5.364   5.890  0.00  0.00     0.022 A 
ATOM      8  C7  BZF d   1       2.796   5.514   4.795  0.00  0.00     0.029 A 
ATOM      9  C7A BZF d   1       3.432   5.655   3.586  0.00  0.00     0.058 A 
ENDROOT
TORSDOF 0
ENDMDL
