MODEL 1
REMARK minimizedAffinity 10.7480965
REMARK minimizedRMSD -1
REMARK  0 active torsions:
REMARK  status: ('A' for Active; 'I' for Inactive)
ROOT
ATOM      1  O1  BZF d   1       4.688   5.945   1.950  0.00  0.00    -0.204 OA
ATOM      2  C2  BZF d   1       3.339   5.981   1.653  0.00  0.00     0.174 A 
ATOM      3  C3  BZF d   1       2.600   5.948   2.781  0.00  0.00    -0.012 A 
ATOM      4  C3A BZF d   1       3.548   5.982   3.853  0.00  0.00    -0.107 A 
ATOM      5  C4  BZF d   1       3.427   5.987   5.213  0.00  0.00     0.055 A 
ATOM      6  C5  BZF d   1       4.551   5.949   5.976  0.00  0.00    -0.016 A 
ATOM      7  C6  BZF d   1       5.809   5.899   5.413  0.00  0.00     0.022 A 
ATOM      8  C7  BZF d   1       5.979   5.896   4.069  0.00  0.00     0.029 A 
ATOM      9  C7A BZF d   1       4.847   5.969   3.295  0.00  0.00     0.058 A 
ENDROOT
TORSDOF 0
ENDMDL
