MODEL 1
REMARK minimizedAffinity -1.46292305
REMARK minimizedRMSD -1
REMARK  0 active torsions:
REMARK  status: ('A' for Active; 'I' for Inactive)
ROOT
ATOM      1  O1  BZF d   1       0.366   0.759   1.371  0.00  0.00    -0.204 OA
ATOM      2  C2  BZF d   1       1.673   1.204   1.417  0.00  0.00     0.174 A 
ATOM      3  C3  BZF d   1       2.522   0.236   1.013  0.00  0.00    -0.012 A 
ATOM      4  C3A BZF d   1       1.686  -0.852   0.607  0.00  0.00    -0.107 A 
ATOM      5  C4  BZF d   1       1.942  -2.092   0.096  0.00  0.00     0.055 A 
ATOM      6  C5  BZF d   1       0.905  -2.942  -0.126  0.00  0.00    -0.016 A 
ATOM      7  C6  BZF d   1      -0.397  -2.587   0.157  0.00  0.00     0.022 A 
ATOM      8  C7  BZF d   1      -0.701  -1.366   0.660  0.00  0.00     0.029 A 
ATOM      9  C7A BZF d   1       0.341  -0.493   0.854  0.00  0.00     0.058 A 
ENDROOT
TORSDOF 0
ENDMDL
