MODEL 1
REMARK minimizedAffinity 10.3314495
REMARK minimizedRMSD -1
REMARK  0 active torsions:
REMARK  status: ('A' for Active; 'I' for Inactive)
ROOT
ATOM      1  O1  BZF d   1       4.658   5.836   1.944  0.00  0.00    -0.204 OA
ATOM      2  C2  BZF d   1       3.331   5.844   1.559  0.00  0.00     0.174 A 
ATOM      3  C3  BZF d   1       2.521   5.847   2.638  0.00  0.00    -0.012 A 
ATOM      4  C3A BZF d   1       3.397   5.933   3.766  0.00  0.00    -0.107 A 
ATOM      5  C4  BZF d   1       3.188   5.990   5.114  0.00  0.00     0.055 A 
ATOM      6  C5  BZF d   1       4.260   5.995   5.949  0.00  0.00    -0.016 A 
ATOM      7  C6  BZF d   1       5.552   5.938   5.471  0.00  0.00     0.022 A 
ATOM      8  C7  BZF d   1       5.810   5.886   4.142  0.00  0.00     0.029 A 
ATOM      9  C7A BZF d   1       4.730   5.914   3.294  0.00  0.00     0.058 A 
ENDROOT
TORSDOF 0
ENDMDL
