MODEL 1
REMARK minimizedAffinity 9.02534103
REMARK minimizedRMSD -1
REMARK  0 active torsions:
REMARK  status: ('A' for Active; 'I' for Inactive)
ROOT
ATOM      1  O1  BZF d   1       1.808  -3.007   2.200  0.00  0.00    -0.204 OA
ATOM      2  C2  BZF d   1       0.990  -2.863   1.096  0.00  0.00     0.174 A 
ATOM      3  C3  BZF d   1      -0.003  -3.776   1.114  0.00  0.00    -0.012 A 
ATOM      4  C3A BZF d   1       0.153  -4.477   2.351  0.00  0.00    -0.107 A 
ATOM      5  C4  BZF d   1      -0.540  -5.490   2.950  0.00  0.00     0.055 A 
ATOM      6  C5  BZF d   1      -0.084  -5.998   4.125  0.00  0.00    -0.016 A 
ATOM      7  C6  BZF d   1       1.063  -5.521   4.726  0.00  0.00     0.022 A 
ATOM      8  C7  BZF d   1       1.781  -4.513   4.172  0.00  0.00     0.029 A 
ATOM      9  C7A BZF d   1       1.304  -3.976   3.002  0.00  0.00     0.058 A 
ENDROOT
TORSDOF 0
ENDMDL
