MODEL 1
REMARK minimizedAffinity 5.45571995
REMARK minimizedRMSD -1
REMARK  0 active torsions:
REMARK  status: ('A' for Active; 'I' for Inactive)
ROOT
ATOM      1  O1  BZF d   1       1.056   1.897  -3.861  0.00  0.00    -0.204 OA
ATOM      2  C2  BZF d   1       1.902   2.247  -4.896  0.00  0.00     0.174 A 
ATOM      3  C3  BZF d   1       1.211   2.803  -5.912  0.00  0.00    -0.012 A 
ATOM      4  C3A BZF d   1      -0.140   2.884  -5.448  0.00  0.00    -0.107 A 
ATOM      5  C4  BZF d   1      -1.295   3.359  -5.999  0.00  0.00     0.055 A 
ATOM      6  C5  BZF d   1      -2.460   3.224  -5.312  0.00  0.00    -0.016 A 
ATOM      7  C6  BZF d   1      -2.506   2.615  -4.075  0.00  0.00     0.022 A 
ATOM      8  C7  BZF d   1      -1.386   2.133  -3.485  0.00  0.00     0.029 A 
ATOM      9  C7A BZF d   1      -0.202   2.298  -4.162  0.00  0.00     0.058 A 
ENDROOT
TORSDOF 0
ENDMDL
