MODEL 1
REMARK minimizedAffinity 7.25469017
REMARK minimizedRMSD -1
REMARK  0 active torsions:
REMARK  status: ('A' for Active; 'I' for Inactive)
ROOT
ATOM      1  O1  BZF d   1       1.641   2.346  -6.000  0.00  0.00    -0.204 OA
ATOM      2  C2  BZF d   1       2.427   1.747  -5.035  0.00  0.00     0.174 A 
ATOM      3  C3  BZF d   1       1.828   1.800  -3.828  0.00  0.00    -0.012 A 
ATOM      4  C3A BZF d   1       0.548   2.394  -4.070  0.00  0.00    -0.107 A 
ATOM      5  C4  BZF d   1      -0.512   2.699  -3.265  0.00  0.00     0.055 A 
ATOM      6  C5  BZF d   1      -1.584   3.340  -3.800  0.00  0.00    -0.016 A 
ATOM      7  C6  BZF d   1      -1.627   3.696  -5.132  0.00  0.00     0.022 A 
ATOM      8  C7  BZF d   1      -0.601   3.410  -5.970  0.00  0.00     0.029 A 
ATOM      9  C7A BZF d   1       0.469   2.733  -5.440  0.00  0.00     0.058 A 
ENDROOT
TORSDOF 0
ENDMDL
