MODEL 1
REMARK minimizedAffinity 0.798703969
REMARK minimizedRMSD -1
REMARK  0 active torsions:
REMARK  status: ('A' for Active; 'I' for Inactive)
ROOT
ATOM      1  O1  BZF d   1       3.167  -0.806  -1.079  0.00  0.00    -0.204 OA
ATOM      2  C2  BZF d   1       2.850   0.250  -0.247  0.00  0.00     0.174 A 
ATOM      3  C3  BZF d   1       2.063  -0.160   0.768  0.00  0.00    -0.012 A 
ATOM      4  C3A BZF d   1       1.951  -1.577   0.609  0.00  0.00    -0.107 A 
ATOM      5  C4  BZF d   1       1.310  -2.554   1.316  0.00  0.00     0.055 A 
ATOM      6  C5  BZF d   1       1.338  -3.832   0.852  0.00  0.00    -0.016 A 
ATOM      7  C6  BZF d   1       1.992  -4.166  -0.316  0.00  0.00     0.022 A 
ATOM      8  C7  BZF d   1       2.645  -3.232  -1.049  0.00  0.00     0.029 A 
ATOM      9  C7A BZF d   1       2.647  -1.947  -0.566  0.00  0.00     0.058 A 
ENDROOT
TORSDOF 0
ENDMDL
