MODEL 1
REMARK minimizedAffinity 2.95480037
REMARK minimizedRMSD -1
REMARK  0 active torsions:
REMARK  status: ('A' for Active; 'I' for Inactive)
ROOT
ATOM      1  O1  BZF d   1      -4.146   2.487   1.455  0.00  0.00    -0.204 OA
ATOM      2  C2  BZF d   1      -5.211   1.664   1.144  0.00  0.00     0.174 A 
ATOM      3  C3  BZF d   1      -4.815   0.376   1.073  0.00  0.00    -0.012 A 
ATOM      4  C3A BZF d   1      -3.434   0.386   1.446  0.00  0.00    -0.107 A 
ATOM      5  C4  BZF d   1      -2.491  -0.593   1.581  0.00  0.00     0.055 A 
ATOM      6  C5  BZF d   1      -1.215  -0.243   1.890  0.00  0.00    -0.016 A 
ATOM      7  C6  BZF d   1      -0.846   1.075   2.067  0.00  0.00     0.022 A 
ATOM      8  C7  BZF d   1      -1.748   2.080   1.950  0.00  0.00     0.029 A 
ATOM      9  C7A BZF d   1      -3.045   1.727   1.669  0.00  0.00     0.058 A 
ENDROOT
TORSDOF 0
ENDMDL
