MODEL 1
REMARK minimizedAffinity 8.33334923
REMARK minimizedRMSD -1
REMARK  0 active torsions:
REMARK  status: ('A' for Active; 'I' for Inactive)
ROOT
ATOM      1  O1  BZF d   1       1.219   2.934  -3.801  0.00  0.00    -0.204 OA
ATOM      2  C2  BZF d   1       1.714   2.253  -4.896  0.00  0.00     0.174 A 
ATOM      3  C3  BZF d   1       0.819   2.254  -5.905  0.00  0.00    -0.012 A 
ATOM      4  C3A BZF d   1      -0.269   3.060  -5.442  0.00  0.00    -0.107 A 
ATOM      5  C4  BZF d   1      -1.453   3.449  -6.000  0.00  0.00     0.055 A 
ATOM      6  C5  BZF d   1      -2.326   4.177  -5.255  0.00  0.00    -0.016 A 
ATOM      7  C6  BZF d   1      -2.051   4.528  -3.950  0.00  0.00     0.022 A 
ATOM      8  C7  BZF d   1      -0.887   4.169  -3.355  0.00  0.00     0.029 A 
ATOM      9  C7A BZF d   1       0.012   3.462  -4.115  0.00  0.00     0.058 A 
ENDROOT
TORSDOF 0
ENDMDL
