MODEL 1
REMARK minimizedAffinity -3.95523167
REMARK minimizedRMSD -1
REMARK  0 active torsions:
REMARK  status: ('A' for Active; 'I' for Inactive)
ROOT
ATOM      1  O1  BZF d   1       1.620  -2.995   0.816  0.00  0.00    -0.204 OA
ATOM      2  C2  BZF d   1       2.532  -3.483  -0.101  0.00  0.00     0.174 A 
ATOM      3  C3  BZF d   1       1.905  -3.914  -1.215  0.00  0.00    -0.012 A 
ATOM      4  C3A BZF d   1       0.524  -3.596  -1.017  0.00  0.00    -0.107 A 
ATOM      5  C4  BZF d   1      -0.596  -3.763  -1.779  0.00  0.00     0.055 A 
ATOM      6  C5  BZF d   1      -1.804  -3.411  -1.265  0.00  0.00    -0.016 A 
ATOM      7  C6  BZF d   1      -1.928  -2.895   0.009  0.00  0.00     0.022 A 
ATOM      8  C7  BZF d   1      -0.845  -2.707   0.801  0.00  0.00     0.029 A 
ATOM      9  C7A BZF d   1       0.381  -3.031   0.271  0.00  0.00     0.058 A 
ENDROOT
TORSDOF 0
ENDMDL
