MODEL 1
REMARK minimizedAffinity -3.84157515
REMARK minimizedRMSD -1
REMARK  0 active torsions:
REMARK  status: ('A' for Active; 'I' for Inactive)
ROOT
ATOM      1  O1  BZF d   1      -4.621   2.034  -0.208  0.00  0.00    -0.204 OA
ATOM      2  C2  BZF d   1      -5.323   1.422   0.813  0.00  0.00     0.174 A 
ATOM      3  C3  BZF d   1      -4.496   0.695   1.592  0.00  0.00    -0.012 A 
ATOM      4  C3A BZF d   1      -3.183   0.936   1.077  0.00  0.00    -0.107 A 
ATOM      5  C4  BZF d   1      -1.939   0.506   1.438  0.00  0.00     0.055 A 
ATOM      6  C5  BZF d   1      -0.869   0.869   0.683  0.00  0.00    -0.016 A 
ATOM      7  C6  BZF d   1      -1.008   1.655  -0.442  0.00  0.00     0.022 A 
ATOM      8  C7  BZF d   1      -2.222   2.110  -0.838  0.00  0.00     0.029 A 
ATOM      9  C7A BZF d   1      -3.301   1.773  -0.058  0.00  0.00     0.058 A 
ENDROOT
TORSDOF 0
ENDMDL
