MODEL 1
REMARK minimizedAffinity 2.50239801
REMARK minimizedRMSD -1
REMARK  0 active torsions:
REMARK  status: ('A' for Active; 'I' for Inactive)
ROOT
ATOM      1  O1  BZF d   1      -1.265   5.624  -5.950  0.00  0.00    -0.204 OA
ATOM      2  C2  BZF d   1      -0.168   4.785  -5.922  0.00  0.00     0.174 A 
ATOM      3  C3  BZF d   1      -0.554   3.494  -5.871  0.00  0.00    -0.012 A 
ATOM      4  C3A BZF d   1      -1.982   3.525  -5.960  0.00  0.00    -0.107 A 
ATOM      5  C4  BZF d   1      -2.942   2.554  -5.978  0.00  0.00     0.055 A 
ATOM      6  C5  BZF d   1      -4.251   2.921  -6.000  0.00  0.00    -0.016 A 
ATOM      7  C6  BZF d   1      -4.634   4.246  -5.999  0.00  0.00     0.022 A 
ATOM      8  C7  BZF d   1      -3.717   5.244  -5.986  0.00  0.00     0.029 A 
ATOM      9  C7A BZF d   1      -2.394   4.877  -5.998  0.00  0.00     0.058 A 
ENDROOT
TORSDOF 0
ENDMDL
