MODEL 1
REMARK minimizedAffinity 0.331131876
REMARK minimizedRMSD -1
REMARK  1 active torsions:
REMARK  status: ('A' for Active; 'I' for Inactive)
REMARK    1  A    between atoms: C1_2  and  C2_3 
ROOT
ATOM      1  C2  UNL d   1       2.091   0.674  -0.121  0.00  0.00    -0.076 A 
ATOM      2  C3  UNL d   1       3.023   0.737  -1.171  0.00  0.00     0.004 A 
ATOM      3  C4  UNL d   1       3.671  -0.411  -1.625  0.00  0.00    -0.003 A 
ATOM      4  C5  UNL d   1       3.397  -1.640  -1.036  0.00  0.00     0.000 A 
ATOM      5  C6  UNL d   1       2.463  -1.724  -0.004  0.00  0.00     0.000 A 
ATOM      6  C7  UNL d   1       1.788  -0.579   0.454  0.00  0.00    -0.073 A 
ATOM      7  C8  UNL d   1       0.795  -0.727   1.573  0.00  0.00     0.078 C 
ENDROOT
BRANCH   1   8
ATOM      8  C1  UNL d   1       1.440   1.955   0.347  0.00  0.00     0.053 C 
ATOM      9  C   UNL d   1       1.239   2.953  -0.782  0.00  0.00     0.018 C 
ENDBRANCH   1   8
TORSDOF 1
ENDMDL
