MODEL 1
REMARK minimizedAffinity 5.47682524
REMARK minimizedRMSD -1
REMARK  1 active torsions:
REMARK  status: ('A' for Active; 'I' for Inactive)
REMARK    1  A    between atoms: C1_2  and  C2_3 
ROOT
ATOM      1  C2  UNL d   1       2.270  -0.180  -0.581  0.00  0.00    -0.076 A 
ATOM      2  C3  UNL d   1       2.795  -1.480  -0.484  0.00  0.00     0.004 A 
ATOM      3  C4  UNL d   1       2.258  -2.406   0.409  0.00  0.00    -0.003 A 
ATOM      4  C5  UNL d   1       1.187  -2.047   1.220  0.00  0.00     0.000 A 
ATOM      5  C6  UNL d   1       0.643  -0.767   1.125  0.00  0.00     0.000 A 
ATOM      6  C7  UNL d   1       1.161   0.174   0.218  0.00  0.00    -0.073 A 
ATOM      7  C8  UNL d   1       0.539   1.542   0.162  0.00  0.00     0.078 C 
ENDROOT
BRANCH   1   8
ATOM      8  C1  UNL d   1       2.910   0.790  -1.548  0.00  0.00     0.053 C 
ATOM      9  C   UNL d   1       4.195   0.247  -2.153  0.00  0.00     0.018 C 
ENDBRANCH   1   8
TORSDOF 1
ENDMDL
