MODEL 1
REMARK minimizedAffinity 3.08208776
REMARK minimizedRMSD -1
REMARK  1 active torsions:
REMARK  status: ('A' for Active; 'I' for Inactive)
REMARK    1  A    between atoms: C1_2  and  C2_3 
ROOT
ATOM      1  C2  UNL d   1      -3.215  -3.582   2.266  0.00  0.00    -0.076 A 
ATOM      2  C3  UNL d   1      -3.825  -3.130   3.450  0.00  0.00     0.004 A 
ATOM      3  C4  UNL d   1      -4.447  -4.022   4.322  0.00  0.00    -0.003 A 
ATOM      4  C5  UNL d   1      -4.470  -5.380   4.024  0.00  0.00     0.000 A 
ATOM      5  C6  UNL d   1      -3.855  -5.848   2.864  0.00  0.00     0.000 A 
ATOM      6  C7  UNL d   1      -3.209  -4.964   1.982  0.00  0.00    -0.073 A 
ATOM      7  C8  UNL d   1      -2.567  -5.523   0.742  0.00  0.00     0.078 C 
ENDROOT
BRANCH   1   8
ATOM      8  C1  UNL d   1      -2.579  -2.565   1.346  0.00  0.00     0.053 C 
ATOM      9  C   UNL d   1      -2.482  -1.186   1.979  0.00  0.00     0.018 C 
ENDBRANCH   1   8
TORSDOF 1
ENDMDL
