MODEL 1
REMARK minimizedAffinity 7.10321522
REMARK minimizedRMSD -1
REMARK  1 active torsions:
REMARK  status: ('A' for Active; 'I' for Inactive)
REMARK    1  A    between atoms: C1_2  and  C2_3 
ROOT
ATOM      1  C2  UNL d   1      -3.124  -1.384   0.755  0.00  0.00    -0.076 A 
ATOM      2  C3  UNL d   1      -3.544  -1.527  -0.579  0.00  0.00     0.004 A 
ATOM      3  C4  UNL d   1      -3.928  -0.419  -1.333  0.00  0.00    -0.003 A 
ATOM      4  C5  UNL d   1      -3.897   0.850  -0.765  0.00  0.00     0.000 A 
ATOM      5  C6  UNL d   1      -3.466   1.012   0.552  0.00  0.00     0.000 A 
ATOM      6  C7  UNL d   1      -3.060  -0.092   1.320  0.00  0.00    -0.073 A 
ATOM      7  C8  UNL d   1      -2.610   0.140   2.736  0.00  0.00     0.078 C 
ENDROOT
BRANCH   1   8
ATOM      8  C1  UNL d   1      -2.745  -2.625   1.532  0.00  0.00     0.053 C 
ATOM      9  C   UNL d   1      -2.658  -3.861   0.649  0.00  0.00     0.018 C 
ENDBRANCH   1   8
TORSDOF 1
ENDMDL
