MODEL 1
REMARK minimizedAffinity 9.2069273
REMARK minimizedRMSD -1
REMARK  1 active torsions:
REMARK  status: ('A' for Active; 'I' for Inactive)
REMARK    1  A    between atoms: C1_2  and  C2_3 
ROOT
ATOM      1  C2  UNL d   1       2.905  -1.017  -1.102  0.00  0.00    -0.076 A 
ATOM      2  C3  UNL d   1       3.180  -0.110  -0.064  0.00  0.00     0.004 A 
ATOM      3  C4  UNL d   1       2.409  -0.094   1.098  0.00  0.00    -0.003 A 
ATOM      4  C5  UNL d   1       1.352  -0.986   1.240  0.00  0.00     0.000 A 
ATOM      5  C6  UNL d   1       1.076  -1.904   0.228  0.00  0.00     0.000 A 
ATOM      6  C7  UNL d   1       1.853  -1.944  -0.942  0.00  0.00    -0.073 A 
ATOM      7  C8  UNL d   1       1.508  -2.952  -2.004  0.00  0.00     0.078 C 
ENDROOT
BRANCH   1   8
ATOM      8  C1  UNL d   1       3.758  -0.969  -2.349  0.00  0.00     0.053 C 
ATOM      9  C   UNL d   1       4.216   0.440  -2.688  0.00  0.00     0.018 C 
ENDBRANCH   1   8
TORSDOF 1
ENDMDL
