MODEL 1
REMARK minimizedAffinity -3.71440768
REMARK minimizedRMSD -1
REMARK  1 active torsions:
REMARK  status: ('A' for Active; 'I' for Inactive)
REMARK    1  A    between atoms: C1_2  and  C2_3 
ROOT
ATOM      1  C2  UNL d   1       1.706  -3.944   4.190  0.00  0.00    -0.076 A 
ATOM      2  C3  UNL d   1       2.528  -3.006   3.542  0.00  0.00     0.004 A 
ATOM      3  C4  UNL d   1       2.055  -2.261   2.463  0.00  0.00    -0.003 A 
ATOM      4  C5  UNL d   1       0.751  -2.443   2.014  0.00  0.00     0.000 A 
ATOM      5  C6  UNL d   1      -0.084  -3.357   2.656  0.00  0.00     0.000 A 
ATOM      6  C7  UNL d   1       0.373  -4.103   3.756  0.00  0.00    -0.073 A 
ATOM      7  C8  UNL d   1      -0.569  -5.079   4.407  0.00  0.00     0.078 C 
ENDROOT
BRANCH   1   8
ATOM      8  C1  UNL d   1       2.283  -4.742   5.337  0.00  0.00     0.053 C 
ATOM      9  C   UNL d   1       2.999  -6.000   4.870  0.00  0.00     0.018 C 
ENDBRANCH   1   8
TORSDOF 1
ENDMDL
