MODEL 1
REMARK minimizedAffinity 11.1351805
REMARK minimizedRMSD -1
REMARK  1 active torsions:
REMARK  status: ('A' for Active; 'I' for Inactive)
REMARK    1  A    between atoms: C1_2  and  C2_3 
ROOT
ATOM      1  C2  UNL d   1       0.948   0.127   0.088  0.00  0.00    -0.076 A 
ATOM      2  C3  UNL d   1       1.518   1.344   0.500  0.00  0.00     0.004 A 
ATOM      3  C4  UNL d   1       2.825   1.679   0.149  0.00  0.00    -0.003 A 
ATOM      4  C5  UNL d   1       3.583   0.803  -0.620  0.00  0.00     0.000 A 
ATOM      5  C6  UNL d   1       3.027  -0.401  -1.052  0.00  0.00     0.000 A 
ATOM      6  C7  UNL d   1       1.706  -0.747  -0.721  0.00  0.00    -0.073 A 
ATOM      7  C8  UNL d   1       1.160  -2.061  -1.209  0.00  0.00     0.078 C 
ENDROOT
BRANCH   1   8
ATOM      8  C1  UNL d   1      -0.464  -0.195   0.522  0.00  0.00     0.053 C 
ATOM      9  C   UNL d   1      -0.682   0.030   2.010  0.00  0.00     0.018 C 
ENDBRANCH   1   8
TORSDOF 1
ENDMDL
