MODEL 1
REMARK minimizedAffinity 2.71324992
REMARK minimizedRMSD -1
REMARK  1 active torsions:
REMARK  status: ('A' for Active; 'I' for Inactive)
REMARK    1  A    between atoms: C1_2  and  C2_3 
ROOT
ATOM      1  C2  UNL d   1      -3.840  -4.988   0.376  0.00  0.00    -0.076 A 
ATOM      2  C3  UNL d   1      -4.685  -5.478   1.388  0.00  0.00     0.004 A 
ATOM      3  C4  UNL d   1      -4.341  -5.352   2.733  0.00  0.00    -0.003 A 
ATOM      4  C5  UNL d   1      -3.147  -4.734   3.088  0.00  0.00     0.000 A 
ATOM      5  C6  UNL d   1      -2.306  -4.227   2.099  0.00  0.00     0.000 A 
ATOM      6  C7  UNL d   1      -2.645  -4.330   0.739  0.00  0.00    -0.073 A 
ATOM      7  C8  UNL d   1      -1.698  -3.771  -0.286  0.00  0.00     0.078 C 
ENDROOT
BRANCH   1   8
ATOM      8  C1  UNL d   1      -4.252  -5.177  -1.066  0.00  0.00     0.053 C 
ATOM      9  C   UNL d   1      -5.524  -5.999  -1.206  0.00  0.00     0.018 C 
ENDBRANCH   1   8
TORSDOF 1
ENDMDL
