MODEL 1
REMARK minimizedAffinity 8.04492855
REMARK minimizedRMSD -1
REMARK  1 active torsions:
REMARK  status: ('A' for Active; 'I' for Inactive)
REMARK    1  A    between atoms: C1_2  and  C2_3 
ROOT
ATOM      1  C2  UNL d   1      -0.561  -2.353   0.280  0.00  0.00    -0.076 A 
ATOM      2  C3  UNL d   1      -1.073  -1.101   0.664  0.00  0.00     0.004 A 
ATOM      3  C4  UNL d   1      -0.449   0.081   0.270  0.00  0.00    -0.003 A 
ATOM      4  C5  UNL d   1       0.698   0.031  -0.515  0.00  0.00     0.000 A 
ATOM      5  C6  UNL d   1       1.210  -1.202  -0.920  0.00  0.00     0.000 A 
ATOM      6  C7  UNL d   1       0.583  -2.402  -0.545  0.00  0.00    -0.073 A 
ATOM      7  C8  UNL d   1       1.181  -3.703  -1.005  0.00  0.00     0.078 C 
ENDROOT
BRANCH   1   8
ATOM      8  C1  UNL d   1      -1.266  -3.602   0.759  0.00  0.00     0.053 C 
ATOM      9  C   UNL d   1      -2.503  -3.925  -0.063  0.00  0.00     0.018 C 
ENDBRANCH   1   8
TORSDOF 1
ENDMDL
