MODEL 1
REMARK minimizedAffinity -1.69582605
REMARK minimizedRMSD -1
REMARK  1 active torsions:
REMARK  status: ('A' for Active; 'I' for Inactive)
REMARK    1  A    between atoms: C1_2  and  C2_3 
ROOT
ATOM      1  C2  UNL d   1       0.899  -5.987  -3.324  0.00  0.00    -0.076 A 
ATOM      2  C3  UNL d   1      -0.469  -5.998  -3.644  0.00  0.00     0.004 A 
ATOM      3  C4  UNL d   1      -0.896  -5.964  -4.971  0.00  0.00    -0.003 A 
ATOM      4  C5  UNL d   1       0.039  -5.919  -5.999  0.00  0.00     0.000 A 
ATOM      5  C6  UNL d   1       1.401  -5.925  -5.700  0.00  0.00     0.000 A 
ATOM      6  C7  UNL d   1       1.849  -5.976  -4.368  0.00  0.00    -0.073 A 
ATOM      7  C8  UNL d   1       3.329  -5.975  -4.104  0.00  0.00     0.078 C 
ENDROOT
BRANCH   1   8
ATOM      8  C1  UNL d   1       1.302  -5.998  -1.867  0.00  0.00     0.053 C 
ATOM      9  C   UNL d   1       0.845  -4.751  -1.126  0.00  0.00     0.018 C 
ENDBRANCH   1   8
TORSDOF 1
ENDMDL
