MODEL 1
REMARK minimizedAffinity 3.08726144
REMARK minimizedRMSD -1
REMARK  1 active torsions:
REMARK  status: ('A' for Active; 'I' for Inactive)
REMARK    1  A    between atoms: C1_2  and  C2_3 
ROOT
ATOM      1  C2  UNL d   1       0.511  -5.005  -3.185  0.00  0.00    -0.076 A 
ATOM      2  C3  UNL d   1       1.581  -4.520  -3.956  0.00  0.00     0.004 A 
ATOM      3  C4  UNL d   1       1.522  -4.526  -5.349  0.00  0.00    -0.003 A 
ATOM      4  C5  UNL d   1       0.391  -5.016  -5.993  0.00  0.00     0.000 A 
ATOM      5  C6  UNL d   1      -0.687  -5.484  -5.243  0.00  0.00     0.000 A 
ATOM      6  C7  UNL d   1      -0.651  -5.470  -3.838  0.00  0.00    -0.073 A 
ATOM      7  C8  UNL d   1      -1.840  -5.993  -3.079  0.00  0.00     0.078 C 
ENDROOT
BRANCH   1   8
ATOM      8  C1  UNL d   1       0.642  -4.998  -1.678  0.00  0.00     0.053 C 
ATOM      9  C   UNL d   1      -0.016  -3.785  -1.041  0.00  0.00     0.018 C 
ENDBRANCH   1   8
TORSDOF 1
ENDMDL
