MODEL 1
REMARK minimizedAffinity 4.05292702
REMARK minimizedRMSD -1
REMARK  1 active torsions:
REMARK  status: ('A' for Active; 'I' for Inactive)
REMARK    1  A    between atoms: C1_2  and  C2_3 
ROOT
ATOM      1  C2  UNL d   1       0.700   0.285  -0.048  0.00  0.00    -0.076 A 
ATOM      2  C3  UNL d   1      -0.205   0.713  -1.035  0.00  0.00     0.004 A 
ATOM      3  C4  UNL d   1       0.168   0.765  -2.377  0.00  0.00    -0.003 A 
ATOM      4  C5  UNL d   1       1.453   0.390  -2.754  0.00  0.00     0.000 A 
ATOM      5  C6  UNL d   1       2.358  -0.054  -1.790  0.00  0.00     0.000 A 
ATOM      6  C7  UNL d   1       1.993  -0.128  -0.435  0.00  0.00    -0.073 A 
ATOM      7  C8  UNL d   1       3.011  -0.609   0.562  0.00  0.00     0.078 C 
ENDROOT
BRANCH   1   8
ATOM      8  C1  UNL d   1       0.247   0.275   1.395  0.00  0.00     0.053 C 
ATOM      9  C   UNL d   1      -1.196  -0.178   1.549  0.00  0.00     0.018 C 
ENDBRANCH   1   8
TORSDOF 1
ENDMDL
