MODEL 1
REMARK minimizedAffinity -4.03459358
REMARK minimizedRMSD -1
REMARK  0 active torsions:
REMARK  status: ('A' for Active; 'I' for Inactive)
ROOT
ATOM      1  C   UNL d   1       1.751  -1.816   1.816  0.00  0.00     0.124 A 
ATOM      2  C1  UNL d   1       0.650  -1.018   2.096  0.00  0.00     0.062 A 
ATOM      3  C2  UNL d   1      -0.015  -0.356   1.068  0.00  0.00     0.162 A 
ATOM      4  C3  UNL d   1       0.419  -0.490  -0.251  0.00  0.00    -0.034 A 
ATOM      5  C4  UNL d   1       1.527  -1.293  -0.525  0.00  0.00     0.162 A 
ATOM      6  C5  UNL d   1       2.188  -1.953   0.506  0.00  0.00     0.062 A 
ATOM      7  F   UNL d   1       3.251  -2.723   0.233  0.00  0.00    -0.097 F 
ATOM      8  F1  UNL d   1       1.971  -1.444  -1.782  0.00  0.00    -0.096 F 
ATOM      9  I   UNL d   1      -0.573   0.498  -1.792  0.00  0.00    -0.060 I 
ATOM     10  F2  UNL d   1      -1.075   0.408   1.368  0.00  0.00    -0.096 F 
ATOM     11  F3  UNL d   1       0.226  -0.883   3.361  0.00  0.00    -0.097 F 
ATOM     12  F4  UNL d   1       2.389  -2.451   2.807  0.00  0.00    -0.092 F 
ENDROOT
TORSDOF 0
ENDMDL
