MODEL 1
REMARK minimizedAffinity -1.84748328
REMARK minimizedRMSD -1
REMARK  0 active torsions:
REMARK  status: ('A' for Active; 'I' for Inactive)
ROOT
ATOM      1  C   UNL d   1       1.213  -1.503   1.263  0.00  0.00     0.124 A 
ATOM      2  C1  UNL d   1       1.443  -1.561  -0.105  0.00  0.00     0.062 A 
ATOM      3  C2  UNL d   1       0.729  -0.737  -0.970  0.00  0.00     0.162 A 
ATOM      4  C3  UNL d   1      -0.222   0.153  -0.470  0.00  0.00    -0.034 A 
ATOM      5  C4  UNL d   1      -0.448   0.204   0.906  0.00  0.00     0.162 A 
ATOM      6  C5  UNL d   1       0.268  -0.621   1.767  0.00  0.00     0.062 A 
ATOM      7  F   UNL d   1       0.044  -0.564   3.088  0.00  0.00    -0.097 F 
ATOM      8  F1  UNL d   1      -1.355   1.048   1.421  0.00  0.00    -0.096 F 
ATOM      9  I   UNL d   1      -1.291   1.387  -1.761  0.00  0.00    -0.060 I 
ATOM     10  F2  UNL d   1       0.972  -0.814  -2.287  0.00  0.00    -0.096 F 
ATOM     11  F3  UNL d   1       2.355  -2.413  -0.594  0.00  0.00    -0.097 F 
ATOM     12  F4  UNL d   1       1.900  -2.298   2.093  0.00  0.00    -0.092 F 
ENDROOT
TORSDOF 0
ENDMDL
