MODEL 1
REMARK minimizedAffinity -2.09324455
REMARK minimizedRMSD -1
REMARK  0 active torsions:
REMARK  status: ('A' for Active; 'I' for Inactive)
ROOT
ATOM      1  C   UNL d   1       1.394  -2.498   1.577  0.00  0.00     0.124 A 
ATOM      2  C1  UNL d   1       0.273  -1.728   1.856  0.00  0.00     0.062 A 
ATOM      3  C2  UNL d   1      -0.277  -0.911   0.872  0.00  0.00     0.162 A 
ATOM      4  C3  UNL d   1       0.292  -0.860  -0.400  0.00  0.00    -0.034 A 
ATOM      5  C4  UNL d   1       1.420  -1.637  -0.672  0.00  0.00     0.162 A 
ATOM      6  C5  UNL d   1       1.966  -2.451   0.314  0.00  0.00     0.062 A 
ATOM      7  F   UNL d   1       3.049  -3.194   0.043  0.00  0.00    -0.097 F 
ATOM      8  F1  UNL d   1       1.993  -1.612  -1.885  0.00  0.00    -0.096 F 
ATOM      9  I   UNL d   1      -0.528   0.360  -1.873  0.00  0.00    -0.060 I 
ATOM     10  F2  UNL d   1      -1.361  -0.178   1.169  0.00  0.00    -0.096 F 
ATOM     11  F3  UNL d   1      -0.282  -1.770   3.076  0.00  0.00    -0.097 F 
ATOM     12  F4  UNL d   1       1.922  -3.282   2.526  0.00  0.00    -0.092 F 
ENDROOT
TORSDOF 0
ENDMDL
