MODEL 1
REMARK minimizedAffinity -2.33262539
REMARK minimizedRMSD -1
REMARK  0 active torsions:
REMARK  status: ('A' for Active; 'I' for Inactive)
ROOT
ATOM      1  C   UNL d   1       0.969  -1.838   1.460  0.00  0.00     0.124 A 
ATOM      2  C1  UNL d   1       1.410  -1.843   0.144  0.00  0.00     0.062 A 
ATOM      3  C2  UNL d   1       0.868  -0.954  -0.779  0.00  0.00     0.162 A 
ATOM      4  C3  UNL d   1      -0.122  -0.051  -0.390  0.00  0.00    -0.034 A 
ATOM      5  C4  UNL d   1      -0.561  -0.053   0.935  0.00  0.00     0.162 A 
ATOM      6  C5  UNL d   1      -0.016  -0.943   1.854  0.00  0.00     0.062 A 
ATOM      7  F   UNL d   1      -0.443  -0.937   3.125  0.00  0.00    -0.097 F 
ATOM      8  F1  UNL d   1      -1.511   0.802   1.343  0.00  0.00    -0.096 F 
ATOM      9  I   UNL d   1      -0.935   1.280  -1.768  0.00  0.00    -0.060 I 
ATOM     10  F2  UNL d   1       1.313  -0.981  -2.044  0.00  0.00    -0.096 F 
ATOM     11  F3  UNL d   1       2.361  -2.707  -0.240  0.00  0.00    -0.097 F 
ATOM     12  F4  UNL d   1       1.492  -2.695   2.346  0.00  0.00    -0.092 F 
ENDROOT
TORSDOF 0
ENDMDL
