MODEL 1
REMARK minimizedAffinity -3.78426051
REMARK minimizedRMSD -1
REMARK  0 active torsions:
REMARK  status: ('A' for Active; 'I' for Inactive)
ROOT
ATOM      1  C   UNL d   1       0.008   2.043  -3.049  0.00  0.00     0.124 A 
ATOM      2  C1  UNL d   1      -0.720   2.781  -2.126  0.00  0.00     0.062 A 
ATOM      3  C2  UNL d   1      -1.031   2.236  -0.884  0.00  0.00     0.162 A 
ATOM      4  C3  UNL d   1      -0.612   0.947  -0.556  0.00  0.00    -0.034 A 
ATOM      5  C4  UNL d   1       0.119   0.210  -1.489  0.00  0.00     0.162 A 
ATOM      6  C5  UNL d   1       0.427   0.759  -2.730  0.00  0.00     0.062 A 
ATOM      7  F   UNL d   1       1.130   0.044  -3.621  0.00  0.00    -0.097 F 
ATOM      8  F1  UNL d   1       0.536  -1.032  -1.207  0.00  0.00    -0.096 F 
ATOM      9  I   UNL d   1      -1.075   0.129   1.302  0.00  0.00    -0.060 I 
ATOM     10  F2  UNL d   1      -1.736   2.972  -0.011  0.00  0.00    -0.096 F 
ATOM     11  F3  UNL d   1      -1.126   4.021  -2.433  0.00  0.00    -0.097 F 
ATOM     12  F4  UNL d   1       0.305   2.569  -4.245  0.00  0.00    -0.092 F 
ENDROOT
TORSDOF 0
ENDMDL
