MODEL 1
REMARK minimizedAffinity -3.99876642
REMARK minimizedRMSD -1
REMARK  0 active torsions:
REMARK  status: ('A' for Active; 'I' for Inactive)
ROOT
ATOM      1  C   UNL d   1      -0.018   0.832   1.447  0.00  0.00     0.020 A 
ATOM      2  C1  UNL d   1      -0.256   2.191   1.651  0.00  0.00     0.020 A 
ATOM      3  C2  UNL d   1      -1.418   2.605   2.306  0.00  0.00     0.034 A 
ATOM      4  C3  UNL d   1      -2.346   1.660   2.759  0.00  0.00     0.017 A 
ATOM      5  C4  UNL d   1      -2.105   0.297   2.554  0.00  0.00     0.017 A 
ATOM      6  C5  UNL d   1      -0.940  -0.113   1.898  0.00  0.00     0.034 A 
ATOM      7 Cl   UNL d   1      -3.203  -0.928   3.085  0.00  0.00    -0.070 Cl
ATOM      8 Cl1  UNL d   1      -3.760   2.244   3.562  0.00  0.00    -0.070 Cl
ENDROOT
TORSDOF 0
ENDMDL
