MODEL 1
REMARK minimizedAffinity -3.47185421
REMARK minimizedRMSD -1
REMARK  0 active torsions:
REMARK  status: ('A' for Active; 'I' for Inactive)
ROOT
ATOM      1  C   UNL d   1       0.357   1.423   0.937  0.00  0.00     0.020 A 
ATOM      2  C1  UNL d   1      -0.098   0.165   0.547  0.00  0.00     0.020 A 
ATOM      3  C2  UNL d   1      -1.237  -0.381   1.144  0.00  0.00     0.034 A 
ATOM      4  C3  UNL d   1      -1.923   0.332   2.133  0.00  0.00     0.017 A 
ATOM      5  C4  UNL d   1      -1.465   1.595   2.524  0.00  0.00     0.017 A 
ATOM      6  C5  UNL d   1      -0.324   2.137   1.923  0.00  0.00     0.034 A 
ATOM      7 Cl   UNL d   1      -2.259   2.535   3.738  0.00  0.00    -0.070 Cl
ATOM      8 Cl1  UNL d   1      -3.324  -0.404   2.828  0.00  0.00    -0.070 Cl
ENDROOT
TORSDOF 0
ENDMDL
