MODEL 1
REMARK minimizedAffinity 2.05444193
REMARK minimizedRMSD -1
REMARK  0 active torsions:
REMARK  status: ('A' for Active; 'I' for Inactive)
ROOT
ATOM      1  C   UNL d   1      -0.227   2.516   1.538  0.00  0.00     0.020 A 
ATOM      2  C1  UNL d   1       0.246   1.212   1.400  0.00  0.00     0.020 A 
ATOM      3  C2  UNL d   1      -0.590   0.132   1.690  0.00  0.00     0.034 A 
ATOM      4  C3  UNL d   1      -1.904   0.354   2.118  0.00  0.00     0.017 A 
ATOM      5  C4  UNL d   1      -2.378   1.664   2.257  0.00  0.00     0.017 A 
ATOM      6  C5  UNL d   1      -1.536   2.742   1.965  0.00  0.00     0.034 A 
ATOM      7 Cl   UNL d   1      -3.986   2.017   2.780  0.00  0.00    -0.070 Cl
ATOM      8 Cl1  UNL d   1      -2.883  -1.029   2.458  0.00  0.00    -0.070 Cl
ENDROOT
TORSDOF 0
ENDMDL
