MODEL 1
REMARK minimizedAffinity -3.05877614
REMARK minimizedRMSD -1
REMARK  0 active torsions:
REMARK  status: ('A' for Active; 'I' for Inactive)
ROOT
ATOM      1  C   UNL d   1      -0.533   1.663   2.102  0.00  0.00     0.020 A 
ATOM      2  C1  UNL d   1      -0.320   0.303   1.882  0.00  0.00     0.020 A 
ATOM      3  C2  UNL d   1      -1.303  -0.624   2.235  0.00  0.00     0.034 A 
ATOM      4  C3  UNL d   1      -2.503  -0.193   2.810  0.00  0.00     0.017 A 
ATOM      5  C4  UNL d   1      -2.717   1.173   3.031  0.00  0.00     0.017 A 
ATOM      6  C5  UNL d   1      -1.729   2.097   2.675  0.00  0.00     0.034 A 
ATOM      7 Cl   UNL d   1      -4.172   1.782   3.736  0.00  0.00    -0.070 Cl
ATOM      8 Cl1  UNL d   1      -3.675  -1.394   3.222  0.00  0.00    -0.070 Cl
ENDROOT
TORSDOF 0
ENDMDL
