MODEL 1
REMARK minimizedAffinity 2.03825855
REMARK minimizedRMSD -1
REMARK  0 active torsions:
REMARK  status: ('A' for Active; 'I' for Inactive)
ROOT
ATOM      1  C   UNL d   1      -0.969   1.020   1.241  0.00  0.00     0.020 A 
ATOM      2  C1  UNL d   1      -1.032   2.343   1.677  0.00  0.00     0.020 A 
ATOM      3  C2  UNL d   1      -1.992   2.723   2.617  0.00  0.00     0.034 A 
ATOM      4  C3  UNL d   1      -2.892   1.780   3.124  0.00  0.00     0.017 A 
ATOM      5  C4  UNL d   1      -2.828   0.452   2.686  0.00  0.00     0.017 A 
ATOM      6  C5  UNL d   1      -1.865   0.077   1.744  0.00  0.00     0.034 A 
ATOM      7 Cl   UNL d   1      -3.905  -0.769   3.266  0.00  0.00    -0.070 Cl
ATOM      8 Cl1  UNL d   1      -4.053   2.320   4.285  0.00  0.00    -0.070 Cl
ENDROOT
TORSDOF 0
ENDMDL
