MODEL 1
REMARK minimizedAffinity 0.185213238
REMARK minimizedRMSD -1
REMARK  0 active torsions:
REMARK  status: ('A' for Active; 'I' for Inactive)
ROOT
ATOM      1  C   UNL d   1      -0.126   0.612   1.161  0.00  0.00     0.020 A 
ATOM      2  C1  UNL d   1      -0.339   1.949   1.496  0.00  0.00     0.020 A 
ATOM      3  C2  UNL d   1      -1.396   2.296   2.340  0.00  0.00     0.034 A 
ATOM      4  C3  UNL d   1      -2.243   1.307   2.852  0.00  0.00     0.017 A 
ATOM      5  C4  UNL d   1      -2.027  -0.034   2.516  0.00  0.00     0.017 A 
ATOM      6  C5  UNL d   1      -0.968  -0.377   1.670  0.00  0.00     0.034 A 
ATOM      7 Cl   UNL d   1      -3.030  -1.311   3.109  0.00  0.00    -0.070 Cl
ATOM      8 Cl1  UNL d   1      -3.530   1.809   3.890  0.00  0.00    -0.070 Cl
ENDROOT
TORSDOF 0
ENDMDL
