MODEL 1
REMARK minimizedAffinity -2.48275828
REMARK minimizedRMSD -1
REMARK  0 active torsions:
REMARK  status: ('A' for Active; 'I' for Inactive)
ROOT
ATOM      1  C   UNL d   1       0.578   1.678   0.331  0.00  0.00     0.020 A 
ATOM      2  C1  UNL d   1       0.284   2.927   0.876  0.00  0.00     0.020 A 
ATOM      3  C2  UNL d   1      -0.800   3.072   1.744  0.00  0.00     0.034 A 
ATOM      4  C3  UNL d   1      -1.593   1.966   2.071  0.00  0.00     0.017 A 
ATOM      5  C4  UNL d   1      -1.297   0.713   1.523  0.00  0.00     0.017 A 
ATOM      6  C5  UNL d   1      -0.211   0.574   0.654  0.00  0.00     0.034 A 
ATOM      7 Cl   UNL d   1      -2.230  -0.698   1.878  0.00  0.00    -0.070 Cl
ATOM      8 Cl1  UNL d   1      -2.918   2.218   3.152  0.00  0.00    -0.070 Cl
ENDROOT
TORSDOF 0
ENDMDL
