MODEL 1
REMARK minimizedAffinity -2.00143504
REMARK minimizedRMSD -1
REMARK  0 active torsions:
REMARK  status: ('A' for Active; 'I' for Inactive)
ROOT
ATOM      1  C   UNL d   1      -0.328   1.410   1.155  0.00  0.00     0.020 A 
ATOM      2  C1  UNL d   1       0.040   0.067   1.070  0.00  0.00     0.020 A 
ATOM      3  C2  UNL d   1      -0.750  -0.912   1.675  0.00  0.00     0.034 A 
ATOM      4  C3  UNL d   1      -1.912  -0.552   2.367  0.00  0.00     0.017 A 
ATOM      5  C4  UNL d   1      -2.280   0.796   2.451  0.00  0.00     0.017 A 
ATOM      6  C5  UNL d   1      -1.486   1.773   1.843  0.00  0.00     0.034 A 
ATOM      7 Cl   UNL d   1      -3.700   1.318   3.287  0.00  0.00    -0.070 Cl
ATOM      8 Cl1  UNL d   1      -2.841  -1.816   3.090  0.00  0.00    -0.070 Cl
ENDROOT
TORSDOF 0
ENDMDL
