MODEL 1
REMARK minimizedAffinity 2.32589006
REMARK minimizedRMSD -1
REMARK  0 active torsions:
REMARK  status: ('A' for Active; 'I' for Inactive)
ROOT
ATOM      1  C   UNL d   1      -0.317   0.249   1.164  0.00  0.00     0.020 A 
ATOM      2  C1  UNL d   1      -0.272   1.619   1.421  0.00  0.00     0.020 A 
ATOM      3  C2  UNL d   1      -1.203   2.197   2.287  0.00  0.00     0.034 A 
ATOM      4  C3  UNL d   1      -2.182   1.406   2.899  0.00  0.00     0.017 A 
ATOM      5  C4  UNL d   1      -2.225   0.031   2.641  0.00  0.00     0.017 A 
ATOM      6  C5  UNL d   1      -1.291  -0.543   1.773  0.00  0.00     0.034 A 
ATOM      7 Cl   UNL d   1      -3.403  -1.010   3.358  0.00  0.00    -0.070 Cl
ATOM      8 Cl1  UNL d   1      -3.300   2.188   3.959  0.00  0.00    -0.070 Cl
ENDROOT
TORSDOF 0
ENDMDL
