MODEL 1
REMARK minimizedAffinity 1.04591417
REMARK minimizedRMSD -1
REMARK  0 active torsions:
REMARK  status: ('A' for Active; 'I' for Inactive)
ROOT
ATOM      1  C   UNL d   1      -0.295   0.392   1.288  0.00  0.00     0.020 A 
ATOM      2  C1  UNL d   1      -1.204  -0.372   2.019  0.00  0.00     0.020 A 
ATOM      3  C2  UNL d   1      -2.277   0.248   2.663  0.00  0.00     0.034 A 
ATOM      4  C3  UNL d   1      -2.444   1.635   2.577  0.00  0.00     0.017 A 
ATOM      5  C4  UNL d   1      -1.530   2.401   1.843  0.00  0.00     0.017 A 
ATOM      6  C5  UNL d   1      -0.458   1.775   1.200  0.00  0.00     0.034 A 
ATOM      7 Cl   UNL d   1      -1.669   4.117   1.692  0.00  0.00    -0.070 Cl
ATOM      8 Cl1  UNL d   1      -3.793   2.335   3.398  0.00  0.00    -0.070 Cl
ENDROOT
TORSDOF 0
ENDMDL
