MODEL 1
REMARK minimizedAffinity -4.61047029
REMARK minimizedRMSD -1
REMARK  0 active torsions:
REMARK  status: ('A' for Active; 'I' for Inactive)
ROOT
ATOM      1  C   UNL d   1       0.532   0.895   0.435  0.00  0.00     0.020 A 
ATOM      2  C1  UNL d   1       0.399   2.251   0.734  0.00  0.00     0.020 A 
ATOM      3  C2  UNL d   1      -0.608   2.679   1.601  0.00  0.00     0.034 A 
ATOM      4  C3  UNL d   1      -1.488   1.752   2.171  0.00  0.00     0.017 A 
ATOM      5  C4  UNL d   1      -1.355   0.392   1.870  0.00  0.00     0.017 A 
ATOM      6  C5  UNL d   1      -0.344  -0.032   1.002  0.00  0.00     0.034 A 
ATOM      7 Cl   UNL d   1      -2.402  -0.812   2.535  0.00  0.00    -0.070 Cl
ATOM      8 Cl1  UNL d   1      -2.710   2.353   3.234  0.00  0.00    -0.070 Cl
ENDROOT
TORSDOF 0
ENDMDL
