MODEL 1
REMARK minimizedAffinity -2.24363589
REMARK minimizedRMSD -1
REMARK  0 active torsions:
REMARK  status: ('A' for Active; 'I' for Inactive)
ROOT
ATOM      1  C   UNL d   1       0.372   1.489   0.685  0.00  0.00     0.020 A 
ATOM      2  C1  UNL d   1       0.221   0.112   0.529  0.00  0.00     0.020 A 
ATOM      3  C2  UNL d   1      -0.835  -0.550   1.158  0.00  0.00     0.034 A 
ATOM      4  C3  UNL d   1      -1.744   0.165   1.947  0.00  0.00     0.017 A 
ATOM      5  C4  UNL d   1      -1.591   1.547   2.103  0.00  0.00     0.017 A 
ATOM      6  C5  UNL d   1      -0.532   2.205   1.471  0.00  0.00     0.034 A 
ATOM      7 Cl   UNL d   1      -2.673   2.497   3.060  0.00  0.00    -0.070 Cl
ATOM      8 Cl1  UNL d   1      -3.027  -0.718   2.695  0.00  0.00    -0.070 Cl
ENDROOT
TORSDOF 0
ENDMDL
