MODEL 1
REMARK minimizedAffinity 4.74733353
REMARK minimizedRMSD -1
REMARK  0 active torsions:
REMARK  status: ('A' for Active; 'I' for Inactive)
ROOT
ATOM      1  C   UNL d   1      -2.501   2.298   2.779  0.00  0.00     0.020 A 
ATOM      2  C1  UNL d   1      -2.207   3.440   2.034  0.00  0.00     0.020 A 
ATOM      3  C2  UNL d   1      -1.077   3.467   1.214  0.00  0.00     0.034 A 
ATOM      4  C3  UNL d   1      -0.236   2.350   1.138  0.00  0.00     0.017 A 
ATOM      5  C4  UNL d   1      -0.532   1.205   1.887  0.00  0.00     0.017 A 
ATOM      6  C5  UNL d   1      -1.665   1.184   2.705  0.00  0.00     0.034 A 
ATOM      7 Cl   UNL d   1       0.459  -0.211   1.845  0.00  0.00    -0.070 Cl
ATOM      8 Cl1  UNL d   1       1.145   2.454   0.105  0.00  0.00    -0.070 Cl
ENDROOT
TORSDOF 0
ENDMDL
