MODEL 1
REMARK minimizedAffinity 0.278424174
REMARK minimizedRMSD -1
REMARK  0 active torsions:
REMARK  status: ('A' for Active; 'I' for Inactive)
ROOT
ATOM      1  C   UNL d   1       1.002   1.151   0.978  0.00  0.00     0.020 A 
ATOM      2  C1  UNL d   1       0.589  -0.124   0.595  0.00  0.00     0.020 A 
ATOM      3  C2  UNL d   1      -0.570  -0.677   1.145  0.00  0.00     0.034 A 
ATOM      4  C3  UNL d   1      -1.320   0.046   2.080  0.00  0.00     0.017 A 
ATOM      5  C4  UNL d   1      -0.904   1.327   2.463  0.00  0.00     0.017 A 
ATOM      6  C5  UNL d   1       0.257   1.875   1.910  0.00  0.00     0.034 A 
ATOM      7 Cl   UNL d   1      -1.777   2.279   3.611  0.00  0.00    -0.070 Cl
ATOM      8 Cl1  UNL d   1      -2.742  -0.699   2.718  0.00  0.00    -0.070 Cl
ENDROOT
TORSDOF 0
ENDMDL
