MODEL 1
REMARK minimizedAffinity 3.06404424
REMARK minimizedRMSD -1
REMARK  0 active torsions:
REMARK  status: ('A' for Active; 'I' for Inactive)
ROOT
ATOM      1  C   UNL d   1       2.560  -0.006   0.128  0.00  0.00     0.020 A 
ATOM      2  C1  UNL d   1       2.298   1.342  -0.111  0.00  0.00     0.020 A 
ATOM      3  C2  UNL d   1       1.227   1.969   0.528  0.00  0.00     0.034 A 
ATOM      4  C3  UNL d   1       0.413   1.248   1.410  0.00  0.00     0.017 A 
ATOM      5  C4  UNL d   1       0.677  -0.106   1.649  0.00  0.00     0.017 A 
ATOM      6  C5  UNL d   1       1.751  -0.729   1.006  0.00  0.00     0.034 A 
ATOM      7 Cl   UNL d   1      -0.282  -1.061   2.723  0.00  0.00    -0.070 Cl
ATOM      8 Cl1  UNL d   1      -0.894   2.087   2.166  0.00  0.00    -0.070 Cl
ENDROOT
TORSDOF 0
ENDMDL
