MODEL 1
REMARK minimizedAffinity -3.54717278
REMARK minimizedRMSD -1
REMARK  0 active torsions:
REMARK  status: ('A' for Active; 'I' for Inactive)
ROOT
ATOM      1  C   UNL d   1      -0.689  -0.397   1.550  0.00  0.00     0.020 A 
ATOM      2  C1  UNL d   1       0.174   0.536   0.977  0.00  0.00     0.020 A 
ATOM      3  C2  UNL d   1      -0.075   1.902   1.127  0.00  0.00     0.034 A 
ATOM      4  C3  UNL d   1      -1.190   2.339   1.851  0.00  0.00     0.017 A 
ATOM      5  C4  UNL d   1      -2.056   1.402   2.426  0.00  0.00     0.017 A 
ATOM      6  C5  UNL d   1      -1.802   0.035   2.273  0.00  0.00     0.034 A 
ATOM      7 Cl   UNL d   1      -3.452   1.864   3.333  0.00  0.00    -0.070 Cl
ATOM      8 Cl1  UNL d   1      -1.436   4.043   1.996  0.00  0.00    -0.070 Cl
ENDROOT
TORSDOF 0
ENDMDL
