MODEL 1
REMARK minimizedAffinity -5.46672487
REMARK minimizedRMSD -1
REMARK  0 active torsions:
REMARK  status: ('A' for Active; 'I' for Inactive)
ROOT
ATOM      1  C1  DEN d   1       1.104   2.433  -0.437  0.00  0.00     0.130 A 
ATOM      2  C2  DEN d   1       0.087   3.441  -0.151  0.00  0.00    -0.031 A 
ATOM      3  C3  DEN d   1      -1.100   2.750   0.391  0.00  0.00     0.027 A 
ATOM      4  C4  DEN d   1      -1.458   0.232   0.819  0.00  0.00     0.027 A 
ATOM      5  C5  DEN d   1      -0.883  -1.016   0.722  0.00  0.00    -0.003 A 
ATOM      6  C6  DEN d   1       0.371  -1.204   0.204  0.00  0.00     0.001 A 
ATOM      7  C7  DEN d   1       1.110  -0.121  -0.194  0.00  0.00     0.017 A 
ATOM      8  C8  DEN d   1       0.534   1.139  -0.106  0.00  0.00    -0.094 A 
ATOM      9  C9  DEN d   1      -0.730   1.310   0.431  0.00  0.00    -0.072 A 
ENDROOT
TORSDOF 0
ENDMDL
