MODEL 1
REMARK minimizedAffinity -2.64183164
REMARK minimizedRMSD -1
REMARK  0 active torsions:
REMARK  status: ('A' for Active; 'I' for Inactive)
ROOT
ATOM      1  C1  DEN d   1       0.067  -1.074  -0.129  0.00  0.00     0.130 A 
ATOM      2  C2  DEN d   1      -0.984  -1.321   0.854  0.00  0.00    -0.031 A 
ATOM      3  C3  DEN d   1      -1.562  -0.019   1.242  0.00  0.00     0.027 A 
ATOM      4  C4  DEN d   1      -0.937   2.344   0.418  0.00  0.00     0.027 A 
ATOM      5  C5  DEN d   1      -0.098   3.059  -0.407  0.00  0.00    -0.003 A 
ATOM      6  C6  DEN d   1       0.870   2.455  -1.165  0.00  0.00     0.001 A 
ATOM      7  C7  DEN d   1       0.993   1.091  -1.148  0.00  0.00     0.017 A 
ATOM      8  C8  DEN d   1       0.155   0.363  -0.314  0.00  0.00    -0.094 A 
ATOM      9  C9  DEN d   1      -0.825   0.991   0.436  0.00  0.00    -0.072 A 
ENDROOT
TORSDOF 0
ENDMDL
