MODEL 1
REMARK minimizedAffinity -0.811745822
REMARK minimizedRMSD -1
REMARK  0 active torsions:
REMARK  status: ('A' for Active; 'I' for Inactive)
ROOT
ATOM      1  C1  DEN d   1      -1.448   0.405   0.822  0.00  0.00     0.130 A 
ATOM      2  C2  DEN d   1      -0.828  -0.768   0.211  0.00  0.00    -0.031 A 
ATOM      3  C3  DEN d   1       0.411  -0.330  -0.463  0.00  0.00     0.027 A 
ATOM      4  C4  DEN d   1       1.427   2.036  -0.614  0.00  0.00     0.027 A 
ATOM      5  C5  DEN d   1       1.254   3.357  -0.261  0.00  0.00    -0.003 A 
ATOM      6  C6  DEN d   1       0.161   3.788   0.442  0.00  0.00     0.001 A 
ATOM      7  C7  DEN d   1      -0.781   2.882   0.855  0.00  0.00     0.017 A 
ATOM      8  C8  DEN d   1      -0.618   1.551   0.497  0.00  0.00    -0.094 A 
ATOM      9  C9  DEN d   1       0.501   1.133  -0.204  0.00  0.00    -0.072 A 
ENDROOT
TORSDOF 0
ENDMDL
