MODEL 1
REMARK minimizedAffinity -3.23236394
REMARK minimizedRMSD -1
REMARK  0 active torsions:
REMARK  status: ('A' for Active; 'I' for Inactive)
ROOT
ATOM      1  C1  DEN d   1       0.826  -0.900  -0.679  0.00  0.00     0.130 A 
ATOM      2  C2  DEN d   1       0.035  -1.844   0.105  0.00  0.00    -0.031 A 
ATOM      3  C3  DEN d   1      -0.993  -1.080   0.839  0.00  0.00     0.027 A 
ATOM      4  C4  DEN d   1      -1.437   1.461   0.835  0.00  0.00     0.027 A 
ATOM      5  C5  DEN d   1      -1.018   2.673   0.332  0.00  0.00    -0.003 A 
ATOM      6  C6  DEN d   1       0.057   2.782  -0.509  0.00  0.00     0.001 A 
ATOM      7  C7  DEN d   1       0.723   1.654  -0.910  0.00  0.00     0.017 A 
ATOM      8  C8  DEN d   1       0.311   0.429  -0.401  0.00  0.00    -0.094 A 
ATOM      9  C9  DEN d   1      -0.786   0.338   0.439  0.00  0.00    -0.072 A 
ENDROOT
TORSDOF 0
ENDMDL
