MODEL 1
REMARK minimizedAffinity -4.22523689
REMARK minimizedRMSD -1
REMARK  0 active torsions:
REMARK  status: ('A' for Active; 'I' for Inactive)
ROOT
ATOM      1  C1  DEN d   1       0.341  -0.725  -1.646  0.00  0.00     0.130 A 
ATOM      2  C2  DEN d   1      -0.022  -1.896  -0.853  0.00  0.00    -0.031 A 
ATOM      3  C3  DEN d   1      -0.528  -1.425   0.452  0.00  0.00     0.027 A 
ATOM      4  C4  DEN d   1      -0.788   0.991   1.315  0.00  0.00     0.027 A 
ATOM      5  C5  DEN d   1      -0.601   2.320   1.005  0.00  0.00    -0.003 A 
ATOM      6  C6  DEN d   1      -0.060   2.723  -0.188  0.00  0.00     0.001 A 
ATOM      7  C7  DEN d   1       0.271   1.788  -1.133  0.00  0.00     0.017 A 
ATOM      8  C8  DEN d   1       0.093   0.446  -0.824  0.00  0.00    -0.094 A 
ATOM      9  C9  DEN d   1      -0.467   0.060   0.382  0.00  0.00    -0.072 A 
ENDROOT
TORSDOF 0
ENDMDL
