MODEL 1
REMARK minimizedAffinity -5.82264757
REMARK minimizedRMSD -1
REMARK  0 active torsions:
REMARK  status: ('A' for Active; 'I' for Inactive)
ROOT
ATOM      1  C1  DEN d   1      -0.619   0.335   1.077  0.00  0.00     0.130 A 
ATOM      2  C2  DEN d   1       0.062  -0.956   1.083  0.00  0.00    -0.031 A 
ATOM      3  C3  DEN d   1       1.491  -0.719   0.792  0.00  0.00     0.027 A 
ATOM      4  C4  DEN d   1       2.707   1.510   0.341  0.00  0.00     0.027 A 
ATOM      5  C5  DEN d   1       2.545   2.873   0.219  0.00  0.00    -0.003 A 
ATOM      6  C6  DEN d   1       1.322   3.476   0.341  0.00  0.00     0.001 A 
ATOM      7  C7  DEN d   1       0.218   2.720   0.636  0.00  0.00     0.017 A 
ATOM      8  C8  DEN d   1       0.372   1.345   0.752  0.00  0.00    -0.094 A 
ATOM      9  C9  DEN d   1       1.619   0.755   0.638  0.00  0.00    -0.072 A 
ENDROOT
TORSDOF 0
ENDMDL
