MODEL 1
REMARK minimizedAffinity -1.70184302
REMARK minimizedRMSD -1
REMARK  0 active torsions:
REMARK  status: ('A' for Active; 'I' for Inactive)
ROOT
ATOM      1  C1  DEN d   1       1.291   0.194  -0.629  0.00  0.00     0.130 A 
ATOM      2  C2  DEN d   1       0.979  -1.162  -0.185  0.00  0.00    -0.031 A 
ATOM      3  C3  DEN d   1      -0.192  -1.090   0.713  0.00  0.00     0.027 A 
ATOM      4  C4  DEN d   1      -1.547   0.977   1.450  0.00  0.00     0.027 A 
ATOM      5  C5  DEN d   1      -1.654   2.346   1.343  0.00  0.00    -0.003 A 
ATOM      6  C6  DEN d   1      -0.773   3.091   0.604  0.00  0.00     0.001 A 
ATOM      7  C7  DEN d   1       0.227   2.467  -0.093  0.00  0.00     0.017 A 
ATOM      8  C8  DEN d   1       0.345   1.087   0.016  0.00  0.00    -0.094 A 
ATOM      9  C9  DEN d   1      -0.562   0.350   0.758  0.00  0.00    -0.072 A 
ENDROOT
TORSDOF 0
ENDMDL
