MODEL 1
REMARK minimizedAffinity -3.2038703
REMARK minimizedRMSD -1
REMARK  0 active torsions:
REMARK  status: ('A' for Active; 'I' for Inactive)
ROOT
ATOM      1  C1  DEN d   1      -0.637   0.048   1.234  0.00  0.00     0.130 A 
ATOM      2  C2  DEN d   1      -1.687   0.866   1.833  0.00  0.00    -0.031 A 
ATOM      3  C3  DEN d   1      -1.385   2.282   1.540  0.00  0.00     0.027 A 
ATOM      4  C4  DEN d   1       0.592   3.280   0.219  0.00  0.00     0.027 A 
ATOM      5  C5  DEN d   1       1.746   2.981  -0.471  0.00  0.00    -0.003 A 
ATOM      6  C6  DEN d   1       2.201   1.696  -0.610  0.00  0.00     0.001 A 
ATOM      7  C7  DEN d   1       1.474   0.658  -0.091  0.00  0.00     0.017 A 
ATOM      8  C8  DEN d   1       0.313   0.952   0.612  0.00  0.00    -0.094 A 
ATOM      9  C9  DEN d   1      -0.136   2.256   0.732  0.00  0.00    -0.072 A 
ENDROOT
TORSDOF 0
ENDMDL
