MODEL 1
REMARK minimizedAffinity -4.09422302
REMARK minimizedRMSD -1
REMARK  0 active torsions:
REMARK  status: ('A' for Active; 'I' for Inactive)
ROOT
ATOM      1  C1  DEN d   1       0.466  -0.685  -0.668  0.00  0.00     0.130 A 
ATOM      2  C2  DEN d   1       0.176  -1.385   0.580  0.00  0.00    -0.031 A 
ATOM      3  C3  DEN d   1      -0.395  -0.408   1.529  0.00  0.00     0.027 A 
ATOM      4  C4  DEN d   1      -0.861   2.105   1.186  0.00  0.00     0.027 A 
ATOM      5  C5  DEN d   1      -0.770   3.153   0.296  0.00  0.00    -0.003 A 
ATOM      6  C6  DEN d   1      -0.234   3.003  -0.955  0.00  0.00     0.001 A 
ATOM      7  C7  DEN d   1       0.191   1.768  -1.369  0.00  0.00     0.017 A 
ATOM      8  C8  DEN d   1       0.109   0.708  -0.474  0.00  0.00    -0.094 A 
ATOM      9  C9  DEN d   1      -0.447   0.878   0.782  0.00  0.00    -0.072 A 
ENDROOT
TORSDOF 0
ENDMDL
