MODEL 1
REMARK minimizedAffinity -3.63510919
REMARK minimizedRMSD -1
REMARK  0 active torsions:
REMARK  status: ('A' for Active; 'I' for Inactive)
ROOT
ATOM      1  C1  DEN d   1       0.019  -0.843  -1.199  0.00  0.00     0.130 A 
ATOM      2  C2  DEN d   1      -0.322  -1.600   0.003  0.00  0.00    -0.031 A 
ATOM      3  C3  DEN d   1      -0.505  -0.641   1.110  0.00  0.00     0.027 A 
ATOM      4  C4  DEN d   1      -0.298   1.930   1.081  0.00  0.00     0.027 A 
ATOM      5  C5  DEN d   1      -0.016   3.024   0.294  0.00  0.00    -0.003 A 
ATOM      6  C6  DEN d   1       0.328   2.905  -1.026  0.00  0.00     0.001 A 
ATOM      7  C7  DEN d   1       0.355   1.667  -1.612  0.00  0.00     0.017 A 
ATOM      8  C8  DEN d   1       0.078   0.558  -0.823  0.00  0.00    -0.094 A 
ATOM      9  C9  DEN d   1      -0.279   0.700   0.507  0.00  0.00    -0.072 A 
ENDROOT
TORSDOF 0
ENDMDL
