MODEL 1
REMARK minimizedAffinity -0.990575969
REMARK minimizedRMSD -1
REMARK  0 active torsions:
REMARK  status: ('A' for Active; 'I' for Inactive)
ROOT
ATOM      1  C1  DEN d   1      -1.348   2.308   1.344  0.00  0.00     0.130 A 
ATOM      2  C2  DEN d   1      -0.382   3.322   0.932  0.00  0.00    -0.031 A 
ATOM      3  C3  DEN d   1       0.732   2.639   0.243  0.00  0.00     0.027 A 
ATOM      4  C4  DEN d   1       1.049   0.124  -0.228  0.00  0.00     0.027 A 
ATOM      5  C5  DEN d   1       0.499  -1.128  -0.060  0.00  0.00    -0.003 A 
ATOM      6  C6  DEN d   1      -0.678  -1.324   0.612  0.00  0.00     0.001 A 
ATOM      7  C7  DEN d   1      -1.368  -0.246   1.102  0.00  0.00     0.017 A 
ATOM      8  C8  DEN d   1      -0.816   1.018   0.943  0.00  0.00    -0.094 A 
ATOM      9  C9  DEN d   1       0.369   1.197   0.249  0.00  0.00    -0.072 A 
ENDROOT
TORSDOF 0
ENDMDL
