MODEL 1
REMARK minimizedAffinity -1.23880196
REMARK minimizedRMSD -1
REMARK  0 active torsions:
REMARK  status: ('A' for Active; 'I' for Inactive)
ROOT
ATOM      1  C1  DEN d   1       1.745  -0.377   0.593  0.00  0.00     0.130 A 
ATOM      2  C2  DEN d   1       2.663   0.695   0.970  0.00  0.00    -0.031 A 
ATOM      3  C3  DEN d   1       1.871   1.924   1.174  0.00  0.00     0.027 A 
ATOM      4  C4  DEN d   1      -0.675   2.270   0.948  0.00  0.00     0.027 A 
ATOM      5  C5  DEN d   1      -1.868   1.656   0.638  0.00  0.00    -0.003 A 
ATOM      6  C6  DEN d   1      -1.936   0.341   0.261  0.00  0.00     0.001 A 
ATOM      7  C7  DEN d   1      -0.794  -0.416   0.228  0.00  0.00     0.017 A 
ATOM      8  C8  DEN d   1       0.414   0.199   0.532  0.00  0.00    -0.094 A 
ATOM      9  C9  DEN d   1       0.460   1.526   0.923  0.00  0.00    -0.072 A 
ENDROOT
TORSDOF 0
ENDMDL
