MODEL 1
REMARK minimizedAffinity -5.23601675
REMARK minimizedRMSD -1
REMARK  0 active torsions:
REMARK  status: ('A' for Active; 'I' for Inactive)
ROOT
ATOM      1  C1  DEN d   1      -0.788  -1.351  -0.553  0.00  0.00     0.130 A 
ATOM      2  C2  DEN d   1       0.358  -1.871  -1.294  0.00  0.00    -0.031 A 
ATOM      3  C3  DEN d   1       1.353  -0.786  -1.415  0.00  0.00     0.027 A 
ATOM      4  C4  DEN d   1       1.232   1.633  -0.527  0.00  0.00     0.027 A 
ATOM      5  C5  DEN d   1       0.452   2.541   0.153  0.00  0.00    -0.003 A 
ATOM      6  C6  DEN d   1      -0.800   2.229   0.612  0.00  0.00     0.001 A 
ATOM      7  C7  DEN d   1      -1.291   0.962   0.437  0.00  0.00     0.017 A 
ATOM      8  C8  DEN d   1      -0.513   0.043  -0.255  0.00  0.00    -0.094 A 
ATOM      9  C9  DEN d   1       0.755   0.374  -0.701  0.00  0.00    -0.072 A 
ENDROOT
TORSDOF 0
ENDMDL
