MODEL 1
REMARK minimizedAffinity 12.6018143
REMARK minimizedRMSD -1
REMARK  0 active torsions:
REMARK  status: ('A' for Active; 'I' for Inactive)
ROOT
ATOM      1  C   UNL d   1      -0.446   2.987   1.854  0.00  0.00     0.023 A 
ATOM      2  C1  UNL d   1       0.736   3.007   1.114  0.00  0.00     0.003 A 
ATOM      3  C2  UNL d   1       0.865   3.871   0.025  0.00  0.00     0.048 A 
ATOM      4  C3  UNL d   1      -0.192   4.713  -0.319  0.00  0.00     0.023 A 
ATOM      5  C4  UNL d   1      -1.377   4.697   0.419  0.00  0.00     0.048 A 
ATOM      6  C5  UNL d   1      -1.501   3.831   1.507  0.00  0.00     0.003 A 
ATOM      7  I   UNL d   1      -0.002   6.000  -1.940  0.00  0.00    -0.146 I 
ENDROOT
TORSDOF 0
ENDMDL
