MODEL 1
REMARK minimizedAffinity 9.22201157
REMARK minimizedRMSD -1
REMARK  0 active torsions:
REMARK  status: ('A' for Active; 'I' for Inactive)
ROOT
ATOM      1  C   UNL d   1       0.299   1.171   3.797  0.00  0.00     0.023 A 
ATOM      2  C1  UNL d   1       1.455   1.706   3.229  0.00  0.00     0.003 A 
ATOM      3  C2  UNL d   1       1.367   2.521   2.098  0.00  0.00     0.048 A 
ATOM      4  C3  UNL d   1       0.119   2.798   1.542  0.00  0.00     0.023 A 
ATOM      5  C4  UNL d   1      -1.041   2.265   2.107  0.00  0.00     0.048 A 
ATOM      6  C5  UNL d   1      -0.948   1.450   3.236  0.00  0.00     0.003 A 
ATOM      7  I   UNL d   1      -0.015   4.011  -0.141  0.00  0.00    -0.146 I 
ENDROOT
TORSDOF 0
ENDMDL
