MODEL 1
REMARK minimizedAffinity 9.75104237
REMARK minimizedRMSD -1
REMARK  0 active torsions:
REMARK  status: ('A' for Active; 'I' for Inactive)
ROOT
ATOM      1  C   UNL d   1      -1.435  -0.437  -1.851  0.00  0.00     0.023 A 
ATOM      2  C1  UNL d   1      -2.416   0.444  -1.395  0.00  0.00     0.003 A 
ATOM      3  C2  UNL d   1      -2.048   1.642  -0.779  0.00  0.00     0.048 A 
ATOM      4  C3  UNL d   1      -0.698   1.954  -0.624  0.00  0.00     0.023 A 
ATOM      5  C4  UNL d   1       0.287   1.077  -1.080  0.00  0.00     0.048 A 
ATOM      6  C5  UNL d   1      -0.085  -0.121  -1.694  0.00  0.00     0.003 A 
ATOM      7  I   UNL d   1      -0.149   3.737   0.292  0.00  0.00    -0.146 I 
ENDROOT
TORSDOF 0
ENDMDL
