MODEL 1
REMARK minimizedAffinity 1.67185438
REMARK minimizedRMSD -1
REMARK  0 active torsions:
REMARK  status: ('A' for Active; 'I' for Inactive)
ROOT
ATOM      1  C   UNL d   1       0.559   4.212  -0.783  0.00  0.00     0.023 A 
ATOM      2  C1  UNL d   1       0.003   5.485  -0.907  0.00  0.00     0.003 A 
ATOM      3  C2  UNL d   1      -0.801   6.000   0.112  0.00  0.00     0.048 A 
ATOM      4  C3  UNL d   1      -1.044   5.236   1.253  0.00  0.00     0.023 A 
ATOM      5  C4  UNL d   1      -0.489   3.962   1.383  0.00  0.00     0.048 A 
ATOM      6  C5  UNL d   1       0.314   3.452   0.361  0.00  0.00     0.003 A 
ATOM      7  I   UNL d   1      -2.241   6.000   2.771  0.00  0.00    -0.146 I 
ENDROOT
TORSDOF 0
ENDMDL
