MODEL 1
REMARK minimizedAffinity 9.62992382
REMARK minimizedRMSD -1
REMARK  0 active torsions:
REMARK  status: ('A' for Active; 'I' for Inactive)
ROOT
ATOM      1  C   UNL d   1       0.565   4.124  -0.677  0.00  0.00     0.023 A 
ATOM      2  C1  UNL d   1       0.166   5.458  -0.773  0.00  0.00     0.003 A 
ATOM      3  C2  UNL d   1      -0.704   5.997   0.176  0.00  0.00     0.048 A 
ATOM      4  C3  UNL d   1      -1.172   5.199   1.219  0.00  0.00     0.023 A 
ATOM      5  C4  UNL d   1      -0.775   3.864   1.320  0.00  0.00     0.048 A 
ATOM      6  C5  UNL d   1       0.095   3.329   0.368  0.00  0.00     0.003 A 
ATOM      7  I   UNL d   1      -2.468   6.000   2.632  0.00  0.00    -0.146 I 
ENDROOT
TORSDOF 0
ENDMDL
