MODEL 1
REMARK minimizedAffinity 5.61521864
REMARK minimizedRMSD -1
REMARK  0 active torsions:
REMARK  status: ('A' for Active; 'I' for Inactive)
ROOT
ATOM      1  C   UNL d   1       1.853   2.756   2.911  0.00  0.00     0.023 A 
ATOM      2  C1  UNL d   1       0.575   2.478   2.426  0.00  0.00     0.003 A 
ATOM      3  C2  UNL d   1       0.055   3.216   1.360  0.00  0.00     0.048 A 
ATOM      4  C3  UNL d   1       0.819   4.230   0.784  0.00  0.00     0.023 A 
ATOM      5  C4  UNL d   1       2.099   4.511   1.266  0.00  0.00     0.048 A 
ATOM      6  C5  UNL d   1       2.614   3.771   2.332  0.00  0.00     0.003 A 
ATOM      7  I   UNL d   1       0.048   5.330  -0.802  0.00  0.00    -0.146 I 
ENDROOT
TORSDOF 0
ENDMDL
