MODEL 1
REMARK minimizedAffinity 3.78798246
REMARK minimizedRMSD -1
REMARK  0 active torsions:
REMARK  status: ('A' for Active; 'I' for Inactive)
ROOT
ATOM      1  C   UNL d   1       0.860   4.196  -0.567  0.00  0.00     0.023 A 
ATOM      2  C1  UNL d   1       0.379   3.430   0.495  0.00  0.00     0.003 A 
ATOM      3  C2  UNL d   1      -0.605   3.946   1.340  0.00  0.00     0.048 A 
ATOM      4  C3  UNL d   1      -1.104   5.229   1.118  0.00  0.00     0.023 A 
ATOM      5  C4  UNL d   1      -0.626   5.999   0.056  0.00  0.00     0.048 A 
ATOM      6  C5  UNL d   1       0.358   5.479  -0.786  0.00  0.00     0.003 A 
ATOM      7  I   UNL d   1      -2.569   6.000   2.375  0.00  0.00    -0.146 I 
ENDROOT
TORSDOF 0
ENDMDL
