MODEL 1
REMARK minimizedAffinity 9.29033756
REMARK minimizedRMSD -1
REMARK  0 active torsions:
REMARK  status: ('A' for Active; 'I' for Inactive)
ROOT
ATOM      1  C   UNL d   1       0.785   4.130  -0.980  0.00  0.00     0.023 A 
ATOM      2  C1  UNL d   1       0.381   5.458  -1.118  0.00  0.00     0.003 A 
ATOM      3  C2  UNL d   1      -0.563   5.996  -0.241  0.00  0.00     0.048 A 
ATOM      4  C3  UNL d   1      -1.098   5.201   0.772  0.00  0.00     0.023 A 
ATOM      5  C4  UNL d   1      -0.696   3.872   0.914  0.00  0.00     0.048 A 
ATOM      6  C5  UNL d   1       0.247   3.338   0.035  0.00  0.00     0.003 A 
ATOM      7  I   UNL d   1      -2.503   6.000   2.079  0.00  0.00    -0.146 I 
ENDROOT
TORSDOF 0
ENDMDL
