MODEL 1
REMARK minimizedAffinity 7.13848495
REMARK minimizedRMSD -1
REMARK  0 active torsions:
REMARK  status: ('A' for Active; 'I' for Inactive)
ROOT
ATOM      1  C   UNL d   1      -4.945  -5.956  -4.721  0.00  0.00     0.023 A 
ATOM      2  C1  UNL d   1      -4.236  -5.990  -5.922  0.00  0.00     0.003 A 
ATOM      3  C2  UNL d   1      -2.857  -5.774  -5.927  0.00  0.00     0.048 A 
ATOM      4  C3  UNL d   1      -2.192  -5.525  -4.727  0.00  0.00     0.023 A 
ATOM      5  C4  UNL d   1      -2.896  -5.490  -3.523  0.00  0.00     0.048 A 
ATOM      6  C5  UNL d   1      -4.275  -5.706  -3.523  0.00  0.00     0.003 A 
ATOM      7  I   UNL d   1      -0.138  -5.203  -4.732  0.00  0.00    -0.146 I 
ENDROOT
TORSDOF 0
ENDMDL
