MODEL 1
REMARK minimizedAffinity 9.10585308
REMARK minimizedRMSD -1
REMARK  0 active torsions:
REMARK  status: ('A' for Active; 'I' for Inactive)
ROOT
ATOM      1  C   UNL d   1      -0.380   6.000  -0.738  0.00  0.00     0.023 A 
ATOM      2  C1  UNL d   1       0.480   4.931  -0.991  0.00  0.00     0.003 A 
ATOM      3  C2  UNL d   1       0.539   3.855  -0.102  0.00  0.00     0.048 A 
ATOM      4  C3  UNL d   1      -0.264   3.856   1.038  0.00  0.00     0.023 A 
ATOM      5  C4  UNL d   1      -1.126   4.923   1.295  0.00  0.00     0.048 A 
ATOM      6  C5  UNL d   1      -1.181   5.996   0.404  0.00  0.00     0.003 A 
ATOM      7  I   UNL d   1      -0.177   2.256   2.363  0.00  0.00    -0.146 I 
ENDROOT
TORSDOF 0
ENDMDL
