MODEL 1
REMARK minimizedAffinity 11.2116852
REMARK minimizedRMSD -1
REMARK  0 active torsions:
REMARK  status: ('A' for Active; 'I' for Inactive)
ROOT
ATOM      1  C   UNL d   1      -1.198  -0.749  -1.032  0.00  0.00     0.023 A 
ATOM      2  C1  UNL d   1      -2.273   0.123  -0.858  0.00  0.00     0.003 A 
ATOM      3  C2  UNL d   1      -2.836   0.768  -1.961  0.00  0.00     0.048 A 
ATOM      4  C3  UNL d   1      -2.319   0.537  -3.235  0.00  0.00     0.023 A 
ATOM      5  C4  UNL d   1      -1.244  -0.335  -3.414  0.00  0.00     0.048 A 
ATOM      6  C5  UNL d   1      -0.684  -0.977  -2.308  0.00  0.00     0.003 A 
ATOM      7  I   UNL d   1      -3.154   1.497  -4.878  0.00  0.00    -0.146 I 
ENDROOT
TORSDOF 0
ENDMDL
