MODEL 1
REMARK minimizedAffinity 6.06818676
REMARK minimizedRMSD -1
REMARK  0 active torsions:
REMARK  status: ('A' for Active; 'I' for Inactive)
ROOT
ATOM      1  C   UNL d   1      -1.155   3.764   4.039  0.00  0.00     0.020 A 
ATOM      2  C1  UNL d   1      -2.102   3.081   3.276  0.00  0.00     0.020 A 
ATOM      3  C2  UNL d   1      -1.795   2.688   1.972  0.00  0.00     0.034 A 
ATOM      4  C3  UNL d   1      -0.539   2.978   1.426  0.00  0.00     0.017 A 
ATOM      5  C4  UNL d   1       0.410   3.664   2.192  0.00  0.00     0.017 A 
ATOM      6  C5  UNL d   1       0.098   4.055   3.498  0.00  0.00     0.034 A 
ATOM      7 Cl   UNL d   1       1.980   4.057   1.587  0.00  0.00    -0.070 Cl
ATOM      8 Cl1  UNL d   1      -0.229   2.461  -0.193  0.00  0.00    -0.070 Cl
ENDROOT
TORSDOF 0
ENDMDL
