MODEL 1
REMARK minimizedAffinity 0.59382385
REMARK minimizedRMSD -1
REMARK  0 active torsions:
REMARK  status: ('A' for Active; 'I' for Inactive)
ROOT
ATOM      1  C   UNL d   1      -1.551   4.433  -6.000  0.00  0.00     0.020 A 
ATOM      2  C1  UNL d   1      -1.385   5.221  -4.862  0.00  0.00     0.020 A 
ATOM      3  C2  UNL d   1      -0.783   4.683  -3.722  0.00  0.00     0.034 A 
ATOM      4  C3  UNL d   1      -0.346   3.353  -3.718  0.00  0.00     0.017 A 
ATOM      5  C4  UNL d   1      -0.514   2.563  -4.861  0.00  0.00     0.017 A 
ATOM      6  C5  UNL d   1      -1.117   3.107  -6.000  0.00  0.00     0.034 A 
ATOM      7 Cl   UNL d   1      -0.001   0.914  -4.932  0.00  0.00    -0.070 Cl
ATOM      8 Cl1  UNL d   1       0.389   2.753  -2.275  0.00  0.00    -0.070 Cl
ENDROOT
TORSDOF 0
ENDMDL
