MODEL 1
REMARK minimizedAffinity 7.35810184
REMARK minimizedRMSD -1
REMARK  0 active torsions:
REMARK  status: ('A' for Active; 'I' for Inactive)
ROOT
ATOM      1  C   UNL d   1      -2.157   0.206   0.124  0.00  0.00     0.020 A 
ATOM      2  C1  UNL d   1      -2.532   1.375   0.785  0.00  0.00     0.020 A 
ATOM      3  C2  UNL d   1      -1.558   2.284   1.203  0.00  0.00     0.034 A 
ATOM      4  C3  UNL d   1      -0.204   2.026   0.960  0.00  0.00     0.017 A 
ATOM      5  C4  UNL d   1       0.171   0.853   0.297  0.00  0.00     0.017 A 
ATOM      6  C5  UNL d   1      -0.808  -0.054  -0.120  0.00  0.00     0.034 A 
ATOM      7 Cl   UNL d   1       1.822   0.465  -0.039  0.00  0.00    -0.070 Cl
ATOM      8 Cl1  UNL d   1       0.947   3.195   1.504  0.00  0.00    -0.070 Cl
ENDROOT
TORSDOF 0
ENDMDL
