MODEL 1
REMARK minimizedAffinity 2.39168715
REMARK minimizedRMSD -1
REMARK  0 active torsions:
REMARK  status: ('A' for Active; 'I' for Inactive)
ROOT
ATOM      1  C   UNL d   1       4.330   4.086  -5.844  0.00  0.00     0.020 A 
ATOM      2  C1  UNL d   1       5.053   3.659  -4.730  0.00  0.00     0.020 A 
ATOM      3  C2  UNL d   1       4.440   2.856  -3.766  0.00  0.00     0.034 A 
ATOM      4  C3  UNL d   1       3.101   2.477  -3.914  0.00  0.00     0.017 A 
ATOM      5  C4  UNL d   1       2.376   2.906  -5.032  0.00  0.00     0.017 A 
ATOM      6  C5  UNL d   1       2.995   3.710  -5.995  0.00  0.00     0.034 A 
ATOM      7 Cl   UNL d   1       0.720   2.479  -5.284  0.00  0.00    -0.070 Cl
ATOM      8 Cl1  UNL d   1       2.407   1.482  -2.684  0.00  0.00    -0.070 Cl
ENDROOT
TORSDOF 0
ENDMDL
