MODEL 1
REMARK minimizedAffinity 2.41917038
REMARK minimizedRMSD -1
REMARK  0 active torsions:
REMARK  status: ('A' for Active; 'I' for Inactive)
ROOT
ATOM      1  C   UNL d   1      -0.376  -3.758  -3.140  0.00  0.00     0.020 A 
ATOM      2  C1  UNL d   1      -0.346  -5.143  -2.979  0.00  0.00     0.020 A 
ATOM      3  C2  UNL d   1       0.877  -5.814  -2.937  0.00  0.00     0.034 A 
ATOM      4  C3  UNL d   1       2.076  -5.101  -3.056  0.00  0.00     0.017 A 
ATOM      5  C4  UNL d   1       2.045  -3.712  -3.218  0.00  0.00     0.017 A 
ATOM      6  C5  UNL d   1       0.817  -3.044  -3.259  0.00  0.00     0.034 A 
ATOM      7 Cl   UNL d   1       3.482  -2.764  -3.371  0.00  0.00    -0.070 Cl
ATOM      8 Cl1  UNL d   1       3.553  -5.997  -2.995  0.00  0.00    -0.070 Cl
ENDROOT
TORSDOF 0
ENDMDL
