MODEL 1
REMARK minimizedAffinity -4.56588364
REMARK minimizedRMSD -1
REMARK  0 active torsions:
REMARK  status: ('A' for Active; 'I' for Inactive)
ROOT
ATOM      1  C   UNL d   1       2.342  -0.911  -1.699  0.00  0.00     0.020 A 
ATOM      2  C1  UNL d   1       2.231   0.352  -1.118  0.00  0.00     0.020 A 
ATOM      3  C2  UNL d   1       1.216   0.609  -0.194  0.00  0.00     0.034 A 
ATOM      4  C3  UNL d   1       0.307  -0.398   0.151  0.00  0.00     0.017 A 
ATOM      5  C4  UNL d   1       0.419  -1.665  -0.433  0.00  0.00     0.017 A 
ATOM      6  C5  UNL d   1       1.437  -1.917  -1.357  0.00  0.00     0.034 A 
ATOM      7 Cl   UNL d   1      -0.665  -2.957  -0.057  0.00  0.00    -0.070 Cl
ATOM      8 Cl1  UNL d   1      -0.923  -0.009   1.301  0.00  0.00    -0.070 Cl
ENDROOT
TORSDOF 0
ENDMDL
