MODEL 1
REMARK minimizedAffinity 2.12925124
REMARK minimizedRMSD -1
REMARK  0 active torsions:
REMARK  status: ('A' for Active; 'I' for Inactive)
ROOT
ATOM      1  C   UNL d   1       0.080  -0.107   0.825  0.00  0.00     0.020 A 
ATOM      2  C1  UNL d   1      -1.123   0.327   0.270  0.00  0.00     0.020 A 
ATOM      3  C2  UNL d   1      -1.125   0.999  -0.954  0.00  0.00     0.034 A 
ATOM      4  C3  UNL d   1       0.078   1.240  -1.627  0.00  0.00     0.017 A 
ATOM      5  C4  UNL d   1       1.285   0.804  -1.069  0.00  0.00     0.017 A 
ATOM      6  C5  UNL d   1       1.282   0.131   0.157  0.00  0.00     0.034 A 
ATOM      7 Cl   UNL d   1       2.810   1.063  -1.840  0.00  0.00    -0.070 Cl
ATOM      8 Cl1  UNL d   1       0.001   2.077  -3.137  0.00  0.00    -0.070 Cl
ENDROOT
TORSDOF 0
ENDMDL
