MODEL 1
REMARK minimizedAffinity 2.85593605
REMARK minimizedRMSD -1
REMARK  0 active torsions:
REMARK  status: ('A' for Active; 'I' for Inactive)
ROOT
ATOM      1  C   UNL d   1      -1.692   0.769   0.196  0.00  0.00     0.020 A 
ATOM      2  C1  UNL d   1      -1.391  -0.038   1.292  0.00  0.00     0.020 A 
ATOM      3  C2  UNL d   1      -2.411  -0.467   2.144  0.00  0.00     0.034 A 
ATOM      4  C3  UNL d   1      -3.736  -0.090   1.901  0.00  0.00     0.017 A 
ATOM      5  C4  UNL d   1      -4.038   0.719   0.800  0.00  0.00     0.017 A 
ATOM      6  C5  UNL d   1      -3.013   1.146  -0.050  0.00  0.00     0.034 A 
ATOM      7 Cl   UNL d   1      -5.650   1.225   0.435  0.00  0.00    -0.070 Cl
ATOM      8 Cl1  UNL d   1      -4.947  -0.658   2.995  0.00  0.00    -0.070 Cl
ENDROOT
TORSDOF 0
ENDMDL
