MODEL 1
REMARK minimizedAffinity -1.47640514
REMARK minimizedRMSD -1
REMARK  0 active torsions:
REMARK  status: ('A' for Active; 'I' for Inactive)
ROOT
ATOM      1  C   UNL d   1       1.593  -0.195   0.777  0.00  0.00     0.020 A 
ATOM      2  C1  UNL d   1       0.699  -1.242   0.998  0.00  0.00     0.020 A 
ATOM      3  C2  UNL d   1      -0.657  -0.973   1.192  0.00  0.00     0.034 A 
ATOM      4  C3  UNL d   1      -1.124   0.347   1.165  0.00  0.00     0.017 A 
ATOM      5  C4  UNL d   1      -0.225   1.397   0.943  0.00  0.00     0.017 A 
ATOM      6  C5  UNL d   1       1.132   1.121   0.749  0.00  0.00     0.034 A 
ATOM      7 Cl   UNL d   1      -0.726   3.051   0.896  0.00  0.00    -0.070 Cl
ATOM      8 Cl1  UNL d   1      -2.814   0.607   1.412  0.00  0.00    -0.070 Cl
ENDROOT
TORSDOF 0
ENDMDL
