MODEL 1
REMARK minimizedAffinity 1.11215484
REMARK minimizedRMSD -1
REMARK  0 active torsions:
REMARK  status: ('A' for Active; 'I' for Inactive)
ROOT
ATOM      1  C   UNL d   1      -2.192   0.705   0.451  0.00  0.00     0.020 A 
ATOM      2  C1  UNL d   1      -2.139   1.972   1.030  0.00  0.00     0.020 A 
ATOM      3  C2  UNL d   1      -0.919   2.487   1.473  0.00  0.00     0.034 A 
ATOM      4  C3  UNL d   1       0.254   1.735   1.338  0.00  0.00     0.017 A 
ATOM      5  C4  UNL d   1       0.200   0.463   0.756  0.00  0.00     0.017 A 
ATOM      6  C5  UNL d   1      -1.025  -0.048   0.314  0.00  0.00     0.034 A 
ATOM      7 Cl   UNL d   1       1.604  -0.525   0.555  0.00  0.00    -0.070 Cl
ATOM      8 Cl1  UNL d   1       1.728   2.434   1.907  0.00  0.00    -0.070 Cl
ENDROOT
TORSDOF 0
ENDMDL
