MODEL 1
REMARK minimizedAffinity 2.91770792
REMARK minimizedRMSD -1
REMARK  0 active torsions:
REMARK  status: ('A' for Active; 'I' for Inactive)
ROOT
ATOM      1  C   UNL d   1      -1.270   2.280   0.789  0.00  0.00     0.020 A 
ATOM      2  C1  UNL d   1      -1.448   1.005   0.254  0.00  0.00     0.020 A 
ATOM      3  C2  UNL d   1      -0.370   0.120   0.185  0.00  0.00     0.034 A 
ATOM      4  C3  UNL d   1       0.890   0.509   0.652  0.00  0.00     0.017 A 
ATOM      5  C4  UNL d   1       1.068   1.789   1.189  0.00  0.00     0.017 A 
ATOM      6  C5  UNL d   1      -0.015   2.671   1.256  0.00  0.00     0.034 A 
ATOM      7 Cl   UNL d   1       2.594   2.341   1.785  0.00  0.00    -0.070 Cl
ATOM      8 Cl1  UNL d   1       2.179  -0.637   0.537  0.00  0.00    -0.070 Cl
ENDROOT
TORSDOF 0
ENDMDL
