MODEL 1
REMARK minimizedAffinity 0.522644997
REMARK minimizedRMSD -1
REMARK  0 active torsions:
REMARK  status: ('A' for Active; 'I' for Inactive)
ROOT
ATOM      1  C   UNL d   1      -1.189  -1.031   1.015  0.00  0.00     0.020 A 
ATOM      2  C1  UNL d   1      -2.274  -0.156   0.985  0.00  0.00     0.020 A 
ATOM      3  C2  UNL d   1      -2.057   1.221   0.902  0.00  0.00     0.034 A 
ATOM      4  C3  UNL d   1      -0.753   1.727   0.849  0.00  0.00     0.017 A 
ATOM      5  C4  UNL d   1       0.335   0.847   0.879  0.00  0.00     0.017 A 
ATOM      6  C5  UNL d   1       0.113  -0.531   0.962  0.00  0.00     0.034 A 
ATOM      7 Cl   UNL d   1       1.973   1.395   0.817  0.00  0.00    -0.070 Cl
ATOM      8 Cl1  UNL d   1      -0.558   3.441   0.746  0.00  0.00    -0.070 Cl
ENDROOT
TORSDOF 0
ENDMDL
