MODEL 1
REMARK minimizedAffinity 3.7709415
REMARK minimizedRMSD -1
REMARK  0 active torsions:
REMARK  status: ('A' for Active; 'I' for Inactive)
ROOT
ATOM      1  C   UNL d   1      -1.101   2.442   1.473  0.00  0.00     0.020 A 
ATOM      2  C1  UNL d   1      -2.268   1.680   1.449  0.00  0.00     0.020 A 
ATOM      3  C2  UNL d   1      -2.221   0.342   1.051  0.00  0.00     0.034 A 
ATOM      4  C3  UNL d   1      -1.003  -0.238   0.675  0.00  0.00     0.017 A 
ATOM      5  C4  UNL d   1       0.168   0.528   0.700  0.00  0.00     0.017 A 
ATOM      6  C5  UNL d   1       0.114   1.867   1.099  0.00  0.00     0.034 A 
ATOM      7 Cl   UNL d   1       1.707  -0.117   0.250  0.00  0.00    -0.070 Cl
ATOM      8 Cl1  UNL d   1      -1.018  -1.897   0.194  0.00  0.00    -0.070 Cl
ENDROOT
TORSDOF 0
ENDMDL
