MODEL 1
REMARK minimizedAffinity 1.02622521
REMARK minimizedRMSD -1
REMARK  0 active torsions:
REMARK  status: ('A' for Active; 'I' for Inactive)
ROOT
ATOM      1  C   UNL d   1      -1.429   2.257   1.155  0.00  0.00     0.020 A 
ATOM      2  C1  UNL d   1      -1.596   0.969   0.647  0.00  0.00     0.020 A 
ATOM      3  C2  UNL d   1      -0.512   0.089   0.606  0.00  0.00     0.034 A 
ATOM      4  C3  UNL d   1       0.743   0.496   1.073  0.00  0.00     0.017 A 
ATOM      5  C4  UNL d   1       0.909   1.788   1.582  0.00  0.00     0.017 A 
ATOM      6  C5  UNL d   1      -0.179   2.666   1.621  0.00  0.00     0.034 A 
ATOM      7 Cl   UNL d   1       2.427   2.362   2.177  0.00  0.00    -0.070 Cl
ATOM      8 Cl1  UNL d   1       2.038  -0.645   0.992  0.00  0.00    -0.070 Cl
ENDROOT
TORSDOF 0
ENDMDL
