MODEL 1
REMARK minimizedAffinity 1.82417583
REMARK minimizedRMSD -1
REMARK  0 active torsions:
REMARK  status: ('A' for Active; 'I' for Inactive)
ROOT
ATOM      1  C   UNL d   1      -4.624   5.999  -5.903  0.00  0.00     0.020 A 
ATOM      2  C1  UNL d   1      -3.240   5.837  -5.862  0.00  0.00     0.020 A 
ATOM      3  C2  UNL d   1      -2.687   4.554  -5.863  0.00  0.00     0.034 A 
ATOM      4  C3  UNL d   1      -3.519   3.429  -5.905  0.00  0.00     0.017 A 
ATOM      5  C4  UNL d   1      -4.908   3.594  -5.946  0.00  0.00     0.017 A 
ATOM      6  C5  UNL d   1      -5.456   4.880  -5.944  0.00  0.00     0.034 A 
ATOM      7 Cl   UNL d   1      -5.999   2.254  -5.998  0.00  0.00    -0.070 Cl
ATOM      8 Cl1  UNL d   1      -2.767   1.874  -5.904  0.00  0.00    -0.070 Cl
ENDROOT
TORSDOF 0
ENDMDL
