MODEL 1
REMARK minimizedAffinity -3.98140454
REMARK minimizedRMSD -1
REMARK  0 active torsions:
REMARK  status: ('A' for Active; 'I' for Inactive)
ROOT
ATOM      1  C2' OXE d   1       1.953   1.318   1.063  0.00  0.00     0.078 C 
ATOM      2  C1' OXE d   1       0.317   0.112  -0.873  0.00  0.00     0.078 C 
ATOM      3  C1  OXE d   1      -0.047  -0.085   0.578  0.00  0.00    -0.078 A 
ATOM      4  C2  OXE d   1       0.786   0.470   1.520  0.00  0.00    -0.078 A 
ATOM      5  C3  OXE d   1       0.466   0.365   2.870  0.00  0.00     0.003 A 
ATOM      6  C4  OXE d   1      -0.610  -0.430   3.284  0.00  0.00    -0.002 A 
ATOM      7  C5  OXE d   1      -1.447  -1.037   2.343  0.00  0.00    -0.002 A 
ATOM      8  C6  OXE d   1      -1.205  -0.840   0.988  0.00  0.00     0.003 A 
ENDROOT
TORSDOF 0
ENDMDL
