MODEL 1
REMARK minimizedAffinity -3.22317719
REMARK minimizedRMSD -1
REMARK  0 active torsions:
REMARK  status: ('A' for Active; 'I' for Inactive)
ROOT
ATOM      1  C2' OXE d   1       0.550  -0.793  -0.623  0.00  0.00     0.078 C 
ATOM      2  C1' OXE d   1       1.844   1.418   0.525  0.00  0.00     0.078 C 
ATOM      3  C1  OXE d   1       0.685   0.813   1.276  0.00  0.00    -0.078 A 
ATOM      4  C2  OXE d   1       0.028  -0.239   0.685  0.00  0.00    -0.078 A 
ATOM      5  C3  OXE d   1      -1.014  -0.869   1.361  0.00  0.00     0.003 A 
ATOM      6  C4  OXE d   1      -1.497  -0.344   2.565  0.00  0.00    -0.002 A 
ATOM      7  C5  OXE d   1      -0.868   0.752   3.165  0.00  0.00    -0.002 A 
ATOM      8  C6  OXE d   1       0.249   1.315   2.556  0.00  0.00     0.003 A 
ENDROOT
TORSDOF 0
ENDMDL
