MODEL 1
REMARK minimizedAffinity 6.94964266
REMARK minimizedRMSD -1
REMARK  0 active torsions:
REMARK  status: ('A' for Active; 'I' for Inactive)
ROOT
ATOM      1  C2' OXE d   1      -5.347  -5.917   1.077  0.00  0.00     0.078 C 
ATOM      2  C1' OXE d   1      -2.966  -6.000  -0.408  0.00  0.00     0.078 C 
ATOM      3  C1  OXE d   1      -3.376  -4.677   0.190  0.00  0.00    -0.078 A 
ATOM      4  C2  OXE d   1      -4.567  -4.636   0.876  0.00  0.00    -0.078 A 
ATOM      5  C3  OXE d   1      -4.965  -3.454   1.494  0.00  0.00     0.003 A 
ATOM      6  C4  OXE d   1      -4.243  -2.271   1.294  0.00  0.00    -0.002 A 
ATOM      7  C5  OXE d   1      -3.048  -2.283   0.566  0.00  0.00    -0.002 A 
ATOM      8  C6  OXE d   1      -2.580  -3.484   0.044  0.00  0.00     0.003 A 
ENDROOT
TORSDOF 0
ENDMDL
