MODEL 1
REMARK minimizedAffinity 1.03100157
REMARK minimizedRMSD -1
REMARK  0 active torsions:
REMARK  status: ('A' for Active; 'I' for Inactive)
ROOT
ATOM      1  C2' OXE d   1      -4.130  -4.875   0.241  0.00  0.00     0.078 C 
ATOM      2  C1' OXE d   1      -2.748  -2.698   1.351  0.00  0.00     0.078 C 
ATOM      3  C1  OXE d   1      -3.096  -3.849   2.261  0.00  0.00    -0.078 A 
ATOM      4  C2  OXE d   1      -3.814  -4.888   1.721  0.00  0.00    -0.078 A 
ATOM      5  C3  OXE d   1      -4.114  -6.000   2.504  0.00  0.00     0.003 A 
ATOM      6  C4  OXE d   1      -3.826  -6.000   3.874  0.00  0.00    -0.002 A 
ATOM      7  C5  OXE d   1      -3.131  -4.933   4.453  0.00  0.00    -0.002 A 
ATOM      8  C6  OXE d   1      -2.722  -3.871   3.654  0.00  0.00     0.003 A 
ENDROOT
TORSDOF 0
ENDMDL
