MODEL 1
REMARK minimizedAffinity 0.0417370871
REMARK minimizedRMSD -1
REMARK  0 active torsions:
REMARK  status: ('A' for Active; 'I' for Inactive)
ROOT
ATOM      1  C2' OXE d   1      -3.169  -5.248   5.023  0.00  0.00     0.078 C 
ATOM      2  C1' OXE d   1      -1.947  -3.733   3.000  0.00  0.00     0.078 C 
ATOM      3  C1  OXE d   1      -3.194  -4.504   2.646  0.00  0.00    -0.078 A 
ATOM      4  C2  OXE d   1      -3.759  -5.280   3.630  0.00  0.00    -0.078 A 
ATOM      5  C3  OXE d   1      -4.941  -5.968   3.372  0.00  0.00     0.003 A 
ATOM      6  C4  OXE d   1      -5.474  -6.000   2.078  0.00  0.00    -0.002 A 
ATOM      7  C5  OXE d   1      -4.892  -5.249   1.051  0.00  0.00    -0.002 A 
ATOM      8  C6  OXE d   1      -3.779  -4.464   1.328  0.00  0.00     0.003 A 
ENDROOT
TORSDOF 0
ENDMDL
