MODEL 1
REMARK minimizedAffinity 4.53546906
REMARK minimizedRMSD -1
REMARK  0 active torsions:
REMARK  status: ('A' for Active; 'I' for Inactive)
ROOT
ATOM      1  C2' OXE d   1      -0.466   2.710   3.224  0.00  0.00     0.078 C 
ATOM      2  C1' OXE d   1       1.681   1.721   1.710  0.00  0.00     0.078 C 
ATOM      3  C1  OXE d   1       0.322   1.106   1.488  0.00  0.00    -0.078 A 
ATOM      4  C2  OXE d   1      -0.714   1.564   2.266  0.00  0.00    -0.078 A 
ATOM      5  C3  OXE d   1      -1.999   1.070   2.064  0.00  0.00     0.003 A 
ATOM      6  C4  OXE d   1      -2.218   0.003   1.183  0.00  0.00    -0.002 A 
ATOM      7  C5  OXE d   1      -1.169  -0.505   0.410  0.00  0.00    -0.002 A 
ATOM      8  C6  OXE d   1       0.096   0.063   0.519  0.00  0.00     0.003 A 
ENDROOT
TORSDOF 0
ENDMDL
