MODEL 1
REMARK minimizedAffinity -0.442225039
REMARK minimizedRMSD -1
REMARK  0 active torsions:
REMARK  status: ('A' for Active; 'I' for Inactive)
ROOT
ATOM      1  C2' OXE d   1      -4.712   3.388   5.214  0.00  0.00     0.078 C 
ATOM      2  C1' OXE d   1      -5.573   2.505   2.692  0.00  0.00     0.078 C 
ATOM      3  C1  OXE d   1      -4.102   2.400   3.010  0.00  0.00    -0.078 A 
ATOM      4  C2  OXE d   1      -3.683   2.878   4.228  0.00  0.00    -0.078 A 
ATOM      5  C3  OXE d   1      -2.345   2.755   4.593  0.00  0.00     0.003 A 
ATOM      6  C4  OXE d   1      -1.399   2.291   3.672  0.00  0.00    -0.002 A 
ATOM      7  C5  OXE d   1      -1.799   1.836   2.411  0.00  0.00    -0.002 A 
ATOM      8  C6  OXE d   1      -3.149   1.845   2.081  0.00  0.00     0.003 A 
ENDROOT
TORSDOF 0
ENDMDL
