MODEL 1
REMARK minimizedAffinity -3.91245937
REMARK minimizedRMSD -1
REMARK  0 active torsions:
REMARK  status: ('A' for Active; 'I' for Inactive)
ROOT
ATOM      1  C2' OXE d   1      -2.146  -0.306   0.325  0.00  0.00     0.078 C 
ATOM      2  C1' OXE d   1       0.411  -0.339  -0.835  0.00  0.00     0.078 C 
ATOM      3  C1  OXE d   1       0.318  -0.153   0.659  0.00  0.00    -0.078 A 
ATOM      4  C2  OXE d   1      -0.938  -0.091   1.212  0.00  0.00    -0.078 A 
ATOM      5  C3  OXE d   1      -1.079   0.025   2.592  0.00  0.00     0.003 A 
ATOM      6  C4  OXE d   1       0.042   0.234   3.404  0.00  0.00    -0.002 A 
ATOM      7  C5  OXE d   1       1.329   0.214   2.856  0.00  0.00    -0.002 A 
ATOM      8  C6  OXE d   1       1.486  -0.020   1.494  0.00  0.00     0.003 A 
ENDROOT
TORSDOF 0
ENDMDL
