MODEL 1
REMARK minimizedAffinity -4.96790695
REMARK minimizedRMSD -1
REMARK  0 active torsions:
REMARK  status: ('A' for Active; 'I' for Inactive)
ROOT
ATOM      1  C2' OXE d   1       0.294   0.969  -1.071  0.00  0.00     0.078 C 
ATOM      2  C1' OXE d   1      -2.237   0.635   0.097  0.00  0.00     0.078 C 
ATOM      3  C1  OXE d   1      -1.026   0.420   0.970  0.00  0.00    -0.078 A 
ATOM      4  C2  OXE d   1       0.209   0.540   0.378  0.00  0.00    -0.078 A 
ATOM      5  C3  OXE d   1       1.359   0.406   1.150  0.00  0.00     0.003 A 
ATOM      6  C4  OXE d   1       1.272   0.000   2.487  0.00  0.00    -0.002 A 
ATOM      7  C5  OXE d   1       0.025  -0.166   3.099  0.00  0.00    -0.002 A 
ATOM      8  C6  OXE d   1      -1.131   0.081   2.367  0.00  0.00     0.003 A 
ENDROOT
TORSDOF 0
ENDMDL
