MODEL 1
REMARK minimizedAffinity -4.44610596
REMARK minimizedRMSD -1
REMARK  0 active torsions:
REMARK  status: ('A' for Active; 'I' for Inactive)
ROOT
ATOM      1  C2' OXE d   1      -1.330  -1.058   0.028  0.00  0.00     0.078 C 
ATOM      2  C1' OXE d   1       0.600   0.825  -0.750  0.00  0.00     0.078 C 
ATOM      3  C1  OXE d   1       0.445   0.545   0.724  0.00  0.00    -0.078 A 
ATOM      4  C2  OXE d   1      -0.534  -0.344   1.098  0.00  0.00    -0.078 A 
ATOM      5  C3  OXE d   1      -0.683  -0.679   2.441  0.00  0.00     0.003 A 
ATOM      6  C4  OXE d   1       0.050  -0.006   3.426  0.00  0.00    -0.002 A 
ATOM      7  C5  OXE d   1       1.025   0.932   3.068  0.00  0.00    -0.002 A 
ATOM      8  C6  OXE d   1       1.264   1.187   1.722  0.00  0.00     0.003 A 
ENDROOT
TORSDOF 0
ENDMDL
