MODEL 1
REMARK minimizedAffinity -5.00952578
REMARK minimizedRMSD -1
REMARK  0 active torsions:
REMARK  status: ('A' for Active; 'I' for Inactive)
ROOT
ATOM      1  C2' OXE d   1      -1.718   0.353   0.207  0.00  0.00     0.078 C 
ATOM      2  C1' OXE d   1       0.531  -0.136  -1.401  0.00  0.00     0.078 C 
ATOM      3  C1  OXE d   1       0.734  -0.071   0.092  0.00  0.00    -0.078 A 
ATOM      4  C2  OXE d   1      -0.363   0.215   0.868  0.00  0.00    -0.078 A 
ATOM      5  C3  OXE d   1      -0.242   0.233   2.254  0.00  0.00     0.003 A 
ATOM      6  C4  OXE d   1       1.016   0.114   2.857  0.00  0.00    -0.002 A 
ATOM      7  C5  OXE d   1       2.153  -0.138   2.083  0.00  0.00    -0.002 A 
ATOM      8  C6  OXE d   1       2.023  -0.276   0.705  0.00  0.00     0.003 A 
ENDROOT
TORSDOF 0
ENDMDL
