MODEL 1
REMARK minimizedAffinity -5.13040972
REMARK minimizedRMSD -1
REMARK  0 active torsions:
REMARK  status: ('A' for Active; 'I' for Inactive)
ROOT
ATOM      1  C2' OXE d   1      -0.937  -1.000   2.871  0.00  0.00     0.078 C 
ATOM      2  C1' OXE d   1       1.485   0.413   3.010  0.00  0.00     0.078 C 
ATOM      3  C1  OXE d   1       0.807   0.308   1.666  0.00  0.00    -0.078 A 
ATOM      4  C2  OXE d   1      -0.353  -0.425   1.599  0.00  0.00    -0.078 A 
ATOM      5  C3  OXE d   1      -1.047  -0.507   0.395  0.00  0.00     0.003 A 
ATOM      6  C4  OXE d   1      -0.495   0.019  -0.779  0.00  0.00    -0.002 A 
ATOM      7  C5  OXE d   1       0.706   0.736  -0.740  0.00  0.00    -0.002 A 
ATOM      8  C6  OXE d   1       1.347   0.925   0.480  0.00  0.00     0.003 A 
ENDROOT
TORSDOF 0
ENDMDL
