MODEL 1
REMARK minimizedAffinity -3.12366247
REMARK minimizedRMSD -1
REMARK  0 active torsions:
REMARK  status: ('A' for Active; 'I' for Inactive)
ROOT
ATOM      1  C2' OXE d   1       0.040   0.657  -1.024  0.00  0.00     0.078 C 
ATOM      2  C1' OXE d   1      -2.275  -0.299   0.244  0.00  0.00     0.078 C 
ATOM      3  C1  OXE d   1      -1.020  -0.177   1.071  0.00  0.00    -0.078 A 
ATOM      4  C2  OXE d   1       0.120   0.247   0.431  0.00  0.00    -0.078 A 
ATOM      5  C3  OXE d   1       1.292   0.429   1.160  0.00  0.00     0.003 A 
ATOM      6  C4  OXE d   1       1.360   0.038   2.502  0.00  0.00    -0.002 A 
ATOM      7  C5  OXE d   1       0.221  -0.434   3.163  0.00  0.00    -0.002 A 
ATOM      8  C6  OXE d   1      -0.985  -0.507   2.474  0.00  0.00     0.003 A 
ENDROOT
TORSDOF 0
ENDMDL
