MODEL 1
REMARK minimizedAffinity -0.609353364
REMARK minimizedRMSD -1
REMARK  0 active torsions:
REMARK  status: ('A' for Active; 'I' for Inactive)
ROOT
ATOM      1  C2' OXE d   1      -0.240   1.440  -0.902  0.00  0.00     0.078 C 
ATOM      2  C1' OXE d   1       1.418  -0.765  -1.425  0.00  0.00     0.078 C 
ATOM      3  C1  OXE d   1       1.169  -0.397   0.017  0.00  0.00    -0.078 A 
ATOM      4  C2  OXE d   1       0.395   0.711   0.262  0.00  0.00    -0.078 A 
ATOM      5  C3  OXE d   1       0.090   1.062   1.574  0.00  0.00     0.003 A 
ATOM      6  C4  OXE d   1       0.689   0.389   2.646  0.00  0.00    -0.002 A 
ATOM      7  C5  OXE d   1       1.513  -0.719   2.417  0.00  0.00    -0.002 A 
ATOM      8  C6  OXE d   1       1.728  -1.150   1.113  0.00  0.00     0.003 A 
ENDROOT
TORSDOF 0
ENDMDL
