MODEL 1
REMARK minimizedAffinity 17.0779457
REMARK minimizedRMSD -1
REMARK  0 active torsions:
REMARK  status: ('A' for Active; 'I' for Inactive)
ROOT
ATOM      1  C2' OXE d   1       4.549   0.804  -3.291  0.00  0.00     0.078 C 
ATOM      2  C1' OXE d   1       2.706   2.249  -1.744  0.00  0.00     0.078 C 
ATOM      3  C1  OXE d   1       2.431   0.785  -1.981  0.00  0.00    -0.078 A 
ATOM      4  C2  OXE d   1       3.313   0.097  -2.778  0.00  0.00    -0.078 A 
ATOM      5  C3  OXE d   1       3.136  -1.268  -2.984  0.00  0.00     0.003 A 
ATOM      6  C4  OXE d   1       1.985  -1.912  -2.514  0.00  0.00    -0.002 A 
ATOM      7  C5  OXE d   1       1.053  -1.220  -1.733  0.00  0.00    -0.002 A 
ATOM      8  C6  OXE d   1       1.282   0.115  -1.422  0.00  0.00     0.003 A 
ENDROOT
TORSDOF 0
ENDMDL
