MODEL 1
REMARK minimizedAffinity 12.1171312
REMARK minimizedRMSD -1
REMARK  0 active torsions:
REMARK  status: ('A' for Active; 'I' for Inactive)
ROOT
ATOM      1  C2' OXE d   1      -2.274  -5.919  -1.850  0.00  0.00     0.078 C 
ATOM      2  C1' OXE d   1      -3.762  -5.938   0.530  0.00  0.00     0.078 C 
ATOM      3  C1  OXE d   1      -2.258  -5.943   0.641  0.00  0.00    -0.078 A 
ATOM      4  C2  OXE d   1      -1.538  -5.980  -0.529  0.00  0.00    -0.078 A 
ATOM      5  C3  OXE d   1      -0.147  -5.930  -0.484  0.00  0.00     0.003 A 
ATOM      6  C4  OXE d   1       0.525  -5.997   0.742  0.00  0.00    -0.002 A 
ATOM      7  C5  OXE d   1      -0.189  -6.000   1.944  0.00  0.00    -0.002 A 
ATOM      8  C6  OXE d   1      -1.578  -5.930   1.912  0.00  0.00     0.003 A 
ENDROOT
TORSDOF 0
ENDMDL
