MODEL 1
REMARK minimizedAffinity 9.93445015
REMARK minimizedRMSD -1
REMARK  0 active torsions:
REMARK  status: ('A' for Active; 'I' for Inactive)
ROOT
ATOM      1  C2' OXE d   1       3.999  -1.044  -2.881  0.00  0.00     0.078 C 
ATOM      2  C1' OXE d   1       1.887   0.458  -1.803  0.00  0.00     0.078 C 
ATOM      3  C1  OXE d   1       1.539  -0.786  -2.581  0.00  0.00    -0.078 A 
ATOM      4  C2  OXE d   1       2.577  -1.489  -3.145  0.00  0.00    -0.078 A 
ATOM      5  C3  OXE d   1       2.316  -2.675  -3.826  0.00  0.00     0.003 A 
ATOM      6  C4  OXE d   1       0.997  -3.074  -4.074  0.00  0.00    -0.002 A 
ATOM      7  C5  OXE d   1      -0.076  -2.351  -3.543  0.00  0.00    -0.002 A 
ATOM      8  C6  OXE d   1       0.179  -1.230  -2.760  0.00  0.00     0.003 A 
ENDROOT
TORSDOF 0
ENDMDL
