MODEL 1
REMARK minimizedAffinity -2.55576873
REMARK minimizedRMSD -1
REMARK  0 active torsions:
REMARK  status: ('A' for Active; 'I' for Inactive)
ROOT
ATOM      1  C2' OXE d   1       5.132   1.382  -3.678  0.00  0.00     0.078 C 
ATOM      2  C1' OXE d   1       4.534  -1.144  -4.746  0.00  0.00     0.078 C 
ATOM      3  C1  OXE d   1       3.662  -0.629  -3.628  0.00  0.00    -0.078 A 
ATOM      4  C2  OXE d   1       3.991   0.588  -3.080  0.00  0.00    -0.078 A 
ATOM      5  C3  OXE d   1       3.187   1.134  -2.084  0.00  0.00     0.003 A 
ATOM      6  C4  OXE d   1       2.139   0.389  -1.529  0.00  0.00    -0.002 A 
ATOM      7  C5  OXE d   1       1.813  -0.870  -2.046  0.00  0.00    -0.002 A 
ATOM      8  C6  OXE d   1       2.536  -1.373  -3.122  0.00  0.00     0.003 A 
ENDROOT
TORSDOF 0
ENDMDL
