MODEL 1
REMARK minimizedAffinity 5.94358492
REMARK minimizedRMSD -1
REMARK  0 active torsions:
REMARK  status: ('A' for Active; 'I' for Inactive)
ROOT
ATOM      1  C4' PXY d   1       5.997   5.871  -4.722  0.00  0.00     0.077 C 
ATOM      2  C1' PXY d   1       1.900   5.080  -0.722  0.00  0.00     0.077 C 
ATOM      3  C1  PXY d   1       2.969   5.278  -1.778  0.00  0.00    -0.082 A 
ATOM      4  C2  PXY d   1       4.142   5.784  -1.435  0.00  0.00     0.003 A 
ATOM      5  C3  PXY d   1       5.109   6.000  -2.383  0.00  0.00     0.003 A 
ATOM      6  C4  PXY d   1       4.891   5.644  -3.687  0.00  0.00    -0.082 A 
ATOM      7  C5  PXY d   1       3.701   5.117  -4.044  0.00  0.00     0.003 A 
ATOM      8  C6  PXY d   1       2.718   4.945  -3.074  0.00  0.00     0.003 A 
ENDROOT
TORSDOF 0
ENDMDL
