MODEL 1
REMARK minimizedAffinity 5.13017893
REMARK minimizedRMSD -1
REMARK  0 active torsions:
REMARK  status: ('A' for Active; 'I' for Inactive)
ROOT
ATOM      1  C4' PXY d   1      -4.087  -1.093  -4.655  0.00  0.00     0.077 C 
ATOM      2  C1' PXY d   1      -3.417   3.674  -1.454  0.00  0.00     0.077 C 
ATOM      3  C1  PXY d   1      -3.601   2.430  -2.301  0.00  0.00    -0.082 A 
ATOM      4  C2  PXY d   1      -3.305   1.244  -1.794  0.00  0.00     0.003 A 
ATOM      5  C3  PXY d   1      -3.436   0.112  -2.557  0.00  0.00     0.003 A 
ATOM      6  C4  PXY d   1      -3.925   0.189  -3.833  0.00  0.00    -0.082 A 
ATOM      7  C5  PXY d   1      -4.240   1.394  -4.354  0.00  0.00     0.003 A 
ATOM      8  C6  PXY d   1      -4.061   2.535  -3.577  0.00  0.00     0.003 A 
ENDROOT
TORSDOF 0
ENDMDL
