MODEL 1
REMARK minimizedAffinity 9.27941513
REMARK minimizedRMSD -1
REMARK  0 active torsions:
REMARK  status: ('A' for Active; 'I' for Inactive)
ROOT
ATOM      1  C4' PXY d   1      -5.633  -6.000  -5.457  0.00  0.00     0.077 C 
ATOM      2  C1' PXY d   1      -4.309  -0.410  -4.811  0.00  0.00     0.077 C 
ATOM      3  C1  PXY d   1      -4.662  -1.876  -4.968  0.00  0.00    -0.082 A 
ATOM      4  C2  PXY d   1      -3.980  -2.625  -5.820  0.00  0.00     0.003 A 
ATOM      5  C3  PXY d   1      -4.307  -3.944  -5.998  0.00  0.00     0.003 A 
ATOM      6  C4  PXY d   1      -5.306  -4.517  -5.258  0.00  0.00    -0.082 A 
ATOM      7  C5  PXY d   1      -5.999  -3.763  -4.379  0.00  0.00     0.003 A 
ATOM      8  C6  PXY d   1      -5.679  -2.415  -4.243  0.00  0.00     0.003 A 
ENDROOT
TORSDOF 0
ENDMDL
