MODEL 1
REMARK minimizedAffinity 14.1603708
REMARK minimizedRMSD -1
REMARK  0 active torsions:
REMARK  status: ('A' for Active; 'I' for Inactive)
ROOT
ATOM      1  C4' PXY d   1      -3.048   2.944   1.043  0.00  0.00     0.077 C 
ATOM      2  C1' PXY d   1      -3.195   0.327  -4.109  0.00  0.00     0.077 C 
ATOM      3  C1  PXY d   1      -3.157   1.001  -2.752  0.00  0.00    -0.082 A 
ATOM      4  C2  PXY d   1      -3.583   2.248  -2.629  0.00  0.00     0.003 A 
ATOM      5  C3  PXY d   1      -3.526   2.884  -1.416  0.00  0.00     0.003 A 
ATOM      6  C4  PXY d   1      -3.077   2.220  -0.306  0.00  0.00    -0.082 A 
ATOM      7  C5  PXY d   1      -2.650   0.945  -0.421  0.00  0.00     0.003 A 
ATOM      8  C6  PXY d   1      -2.678   0.330  -1.670  0.00  0.00     0.003 A 
ENDROOT
TORSDOF 0
ENDMDL
