MODEL 1
REMARK minimizedAffinity 9.81251431
REMARK minimizedRMSD -1
REMARK  0 active torsions:
REMARK  status: ('A' for Active; 'I' for Inactive)
ROOT
ATOM      1  C4' PXY d   1       5.998  -2.990   5.638  0.00  0.00     0.077 C 
ATOM      2  C1' PXY d   1       0.617  -2.430   3.603  0.00  0.00     0.077 C 
ATOM      3  C1  PXY d   1       2.025  -2.570   4.147  0.00  0.00    -0.082 A 
ATOM      4  C2  PXY d   1       3.030  -2.785   3.314  0.00  0.00     0.003 A 
ATOM      5  C3  PXY d   1       4.305  -2.946   3.792  0.00  0.00     0.003 A 
ATOM      6  C4  PXY d   1       4.562  -2.833   5.133  0.00  0.00    -0.082 A 
ATOM      7  C5  PXY d   1       3.543  -2.603   5.988  0.00  0.00     0.003 A 
ATOM      8  C6  PXY d   1       2.250  -2.484   5.486  0.00  0.00     0.003 A 
ENDROOT
TORSDOF 0
ENDMDL
