MODEL 1
REMARK minimizedAffinity 2.65154123
REMARK minimizedRMSD -1
REMARK  0 active torsions:
REMARK  status: ('A' for Active; 'I' for Inactive)
ROOT
ATOM      1  C4' PXY d   1       1.262  -2.277   2.824  0.00  0.00     0.077 C 
ATOM      2  C1' PXY d   1       5.999  -4.243   5.489  0.00  0.00     0.077 C 
ATOM      3  C1  PXY d   1       4.751  -3.739   4.792  0.00  0.00    -0.082 A 
ATOM      4  C2  PXY d   1       4.847  -2.767   3.900  0.00  0.00     0.003 A 
ATOM      5  C3  PXY d   1       3.724  -2.277   3.284  0.00  0.00     0.003 A 
ATOM      6  C4  PXY d   1       2.497  -2.824   3.545  0.00  0.00    -0.082 A 
ATOM      7  C5  PXY d   1       2.391  -3.823   4.446  0.00  0.00     0.003 A 
ATOM      8  C6  PXY d   1       3.538  -4.278   5.091  0.00  0.00     0.003 A 
ENDROOT
TORSDOF 0
ENDMDL
