MODEL 1
REMARK minimizedAffinity 0.966339946
REMARK minimizedRMSD -1
REMARK  0 active torsions:
REMARK  status: ('A' for Active; 'I' for Inactive)
ROOT
ATOM      1  C4' PXY d   1       3.563  -0.812  -1.674  0.00  0.00     0.077 C 
ATOM      2  C1' PXY d   1       1.889   0.153   3.774  0.00  0.00     0.077 C 
ATOM      3  C1  PXY d   1       2.334  -0.089   2.345  0.00  0.00    -0.082 A 
ATOM      4  C2  PXY d   1       1.638  -0.906   1.572  0.00  0.00     0.003 A 
ATOM      5  C3  PXY d   1       2.044  -1.161   0.287  0.00  0.00     0.003 A 
ATOM      6  C4  PXY d   1       3.146  -0.531  -0.228  0.00  0.00    -0.082 A 
ATOM      7  C5  PXY d   1       3.855   0.312   0.551  0.00  0.00     0.003 A 
ATOM      8  C6  PXY d   1       3.449   0.526   1.865  0.00  0.00     0.003 A 
ENDROOT
TORSDOF 0
ENDMDL
