MODEL 1
REMARK minimizedAffinity 6.86997747
REMARK minimizedRMSD -1
REMARK  0 active torsions:
REMARK  status: ('A' for Active; 'I' for Inactive)
ROOT
ATOM      1  C4' PXY d   1       6.000  -2.956   5.305  0.00  0.00     0.077 C 
ATOM      2  C1' PXY d   1       2.811  -6.000   1.565  0.00  0.00     0.077 C 
ATOM      3  C1  PXY d   1       3.658  -5.208   2.542  0.00  0.00    -0.082 A 
ATOM      4  C2  PXY d   1       3.099  -4.695   3.626  0.00  0.00     0.003 A 
ATOM      5  C3  PXY d   1       3.844  -3.949   4.503  0.00  0.00     0.003 A 
ATOM      6  C4  PXY d   1       5.185  -3.771   4.296  0.00  0.00    -0.082 A 
ATOM      7  C5  PXY d   1       5.765  -4.300   3.198  0.00  0.00     0.003 A 
ATOM      8  C6  PXY d   1       4.984  -5.019   2.299  0.00  0.00     0.003 A 
ENDROOT
TORSDOF 0
ENDMDL
