MODEL 1
REMARK minimizedAffinity 7.34793949
REMARK minimizedRMSD -1
REMARK  0 active torsions:
REMARK  status: ('A' for Active; 'I' for Inactive)
ROOT
ATOM      1  C4' PXY d   1       2.237   2.337  -0.241  0.00  0.00     0.077 C 
ATOM      2  C1' PXY d   1       1.980  -2.241   3.280  0.00  0.00     0.077 C 
ATOM      3  C1  PXY d   1       2.046  -1.032   2.366  0.00  0.00    -0.082 A 
ATOM      4  C2  PXY d   1       1.742  -1.163   1.085  0.00  0.00     0.003 A 
ATOM      5  C3  PXY d   1       1.828  -0.088   0.239  0.00  0.00     0.003 A 
ATOM      6  C4  PXY d   1       2.176   1.146   0.719  0.00  0.00    -0.082 A 
ATOM      7  C5  PXY d   1       2.476   1.290   2.027  0.00  0.00     0.003 A 
ATOM      8  C6  PXY d   1       2.424   0.177   2.862  0.00  0.00     0.003 A 
ENDROOT
TORSDOF 0
ENDMDL
