MODEL 1
REMARK minimizedAffinity 13.2425928
REMARK minimizedRMSD -1
REMARK  0 active torsions:
REMARK  status: ('A' for Active; 'I' for Inactive)
ROOT
ATOM      1  C   UNL d   1      -2.815   2.853  -2.795  0.00  0.00     0.124 A 
ATOM      2  C1  UNL d   1      -1.697   3.478  -3.331  0.00  0.00     0.062 A 
ATOM      3  C2  UNL d   1      -0.436   2.911  -3.174  0.00  0.00     0.162 A 
ATOM      4  C3  UNL d   1      -0.284   1.712  -2.477  0.00  0.00    -0.034 A 
ATOM      5  C4  UNL d   1      -1.413   1.090  -1.940  0.00  0.00     0.162 A 
ATOM      6  C5  UNL d   1      -2.672   1.660  -2.100  0.00  0.00     0.062 A 
ATOM      7  F   UNL d   1      -3.750   1.055  -1.581  0.00  0.00    -0.097 F 
ATOM      8  F1  UNL d   1      -1.303  -0.063  -1.264  0.00  0.00    -0.096 F 
ATOM      9  I   UNL d   1       1.600   0.862  -2.239  0.00  0.00    -0.060 I 
ATOM     10  F2  UNL d   1       0.627   3.537  -3.703  0.00  0.00    -0.096 F 
ATOM     11  F3  UNL d   1      -1.833   4.630  -4.002  0.00  0.00    -0.097 F 
ATOM     12  F4  UNL d   1      -4.027   3.400  -2.947  0.00  0.00    -0.092 F 
ENDROOT
TORSDOF 0
ENDMDL
