MODEL 1
REMARK minimizedAffinity 7.0517087
REMARK minimizedRMSD -1
REMARK  0 active torsions:
REMARK  status: ('A' for Active; 'I' for Inactive)
ROOT
ATOM      1  C   UNL d   1       2.810  -3.638   0.860  0.00  0.00     0.124 A 
ATOM      2  C1  UNL d   1       2.165  -4.832   1.150  0.00  0.00     0.062 A 
ATOM      3  C2  UNL d   1       0.932  -4.823   1.795  0.00  0.00     0.162 A 
ATOM      4  C3  UNL d   1       0.334  -3.614   2.154  0.00  0.00    -0.034 A 
ATOM      5  C4  UNL d   1       0.990  -2.417   1.860  0.00  0.00     0.162 A 
ATOM      6  C5  UNL d   1       2.223  -2.432   1.215  0.00  0.00     0.062 A 
ATOM      7  F   UNL d   1       2.845  -1.277   0.937  0.00  0.00    -0.097 F 
ATOM      8  F1  UNL d   1       0.444  -1.238   2.191  0.00  0.00    -0.096 F 
ATOM      9  I   UNL d   1      -1.510  -3.596   3.118  0.00  0.00    -0.060 I 
ATOM     10  F2  UNL d   1       0.331  -5.992   2.062  0.00  0.00    -0.096 F 
ATOM     11  F3  UNL d   1       2.731  -5.998   0.808  0.00  0.00    -0.097 F 
ATOM     12  F4  UNL d   1       3.998  -3.650   0.240  0.00  0.00    -0.092 F 
ENDROOT
TORSDOF 0
ENDMDL
