MODEL 1
REMARK minimizedAffinity 19.7272339
REMARK minimizedRMSD -1
REMARK  0 active torsions:
REMARK  status: ('A' for Active; 'I' for Inactive)
ROOT
ATOM      1  C   UNL d   1       1.836  -3.486   0.364  0.00  0.00     0.124 A 
ATOM      2  C1  UNL d   1       0.866  -3.827   1.295  0.00  0.00     0.062 A 
ATOM      3  C2  UNL d   1       0.446  -2.897   2.242  0.00  0.00     0.162 A 
ATOM      4  C3  UNL d   1       0.995  -1.615   2.261  0.00  0.00    -0.034 A 
ATOM      5  C4  UNL d   1       1.971  -1.279   1.321  0.00  0.00     0.162 A 
ATOM      6  C5  UNL d   1       2.388  -2.212   0.377  0.00  0.00     0.062 A 
ATOM      7  F   UNL d   1       3.325  -1.880  -0.522  0.00  0.00    -0.097 F 
ATOM      8  F1  UNL d   1       2.520  -0.056   1.311  0.00  0.00    -0.096 F 
ATOM      9  I   UNL d   1       0.369  -0.222   3.674  0.00  0.00    -0.060 I 
ATOM     10  F2  UNL d   1      -0.494  -3.255   3.130  0.00  0.00    -0.096 F 
ATOM     11  F3  UNL d   1       0.332  -5.057   1.285  0.00  0.00    -0.097 F 
ATOM     12  F4  UNL d   1       2.239  -4.383  -0.545  0.00  0.00    -0.092 F 
ENDROOT
TORSDOF 0
ENDMDL
