MODEL 1
REMARK minimizedAffinity 12.4872322
REMARK minimizedRMSD -1
REMARK  0 active torsions:
REMARK  status: ('A' for Active; 'I' for Inactive)
ROOT
ATOM      1  C   UNL d   1      -0.889  -1.751   1.193  0.00  0.00     0.124 A 
ATOM      2  C1  UNL d   1      -0.012  -1.996   2.241  0.00  0.00     0.062 A 
ATOM      3  C2  UNL d   1       1.350  -2.140   1.994  0.00  0.00     0.162 A 
ATOM      4  C3  UNL d   1       1.845  -2.039   0.694  0.00  0.00    -0.034 A 
ATOM      5  C4  UNL d   1       0.957  -1.793  -0.355  0.00  0.00     0.162 A 
ATOM      6  C5  UNL d   1      -0.404  -1.650  -0.103  0.00  0.00     0.062 A 
ATOM      7  F   UNL d   1      -1.250  -1.413  -1.117  0.00  0.00    -0.097 F 
ATOM      8  F1  UNL d   1       1.398  -1.690  -1.617  0.00  0.00    -0.096 F 
ATOM      9  I   UNL d   1       3.881  -2.255   0.321  0.00  0.00    -0.060 I 
ATOM     10  F2  UNL d   1       2.174  -2.377   3.026  0.00  0.00    -0.096 F 
ATOM     11  F3  UNL d   1      -0.478  -2.095   3.494  0.00  0.00    -0.097 F 
ATOM     12  F4  UNL d   1      -2.199  -1.613   1.433  0.00  0.00    -0.092 F 
ENDROOT
TORSDOF 0
ENDMDL
