MODEL 1
REMARK minimizedAffinity 17.1446362
REMARK minimizedRMSD -1
REMARK  0 active torsions:
REMARK  status: ('A' for Active; 'I' for Inactive)
ROOT
ATOM      1  C   UNL d   1       2.774  -4.680   1.528  0.00  0.00     0.124 A 
ATOM      2  C1  UNL d   1       3.959  -3.986   1.322  0.00  0.00     0.062 A 
ATOM      3  C2  UNL d   1       3.935  -2.614   1.089  0.00  0.00     0.162 A 
ATOM      4  C3  UNL d   1       2.722  -1.926   1.062  0.00  0.00    -0.034 A 
ATOM      5  C4  UNL d   1       1.535  -2.630   1.269  0.00  0.00     0.162 A 
ATOM      6  C5  UNL d   1       1.564  -4.001   1.501  0.00  0.00     0.062 A 
ATOM      7  F   UNL d   1       0.419  -4.670   1.700  0.00  0.00    -0.097 F 
ATOM      8  F1  UNL d   1       0.351  -2.000   1.250  0.00  0.00    -0.096 F 
ATOM      9  I   UNL d   1       2.683   0.126   0.714  0.00  0.00    -0.060 I 
ATOM     10  F2  UNL d   1       5.095  -1.969   0.893  0.00  0.00    -0.096 F 
ATOM     11  F3  UNL d   1       5.130  -4.639   1.346  0.00  0.00    -0.097 F 
ATOM     12  F4  UNL d   1       2.800  -6.000   1.751  0.00  0.00    -0.092 F 
ENDROOT
TORSDOF 0
ENDMDL
