MODEL 1
REMARK minimizedAffinity 9.39247417
REMARK minimizedRMSD -1
REMARK  0 active torsions:
REMARK  status: ('A' for Active; 'I' for Inactive)
ROOT
ATOM      1  C   UNL d   1       1.079  -2.036   1.067  0.00  0.00     0.124 A 
ATOM      2  C1  UNL d   1       0.029  -1.568   0.289  0.00  0.00     0.062 A 
ATOM      3  C2  UNL d   1      -1.071  -0.962   0.889  0.00  0.00     0.162 A 
ATOM      4  C3  UNL d   1      -1.127  -0.819   2.276  0.00  0.00    -0.034 A 
ATOM      5  C4  UNL d   1      -0.067  -1.293   3.051  0.00  0.00     0.162 A 
ATOM      6  C5  UNL d   1       1.030  -1.898   2.447  0.00  0.00     0.062 A 
ATOM      7  F   UNL d   1       2.043  -2.350   3.200  0.00  0.00    -0.097 F 
ATOM      8  F1  UNL d   1      -0.089  -1.173   4.387  0.00  0.00    -0.096 F 
ATOM      9  I   UNL d   1      -2.770   0.086   3.177  0.00  0.00    -0.060 I 
ATOM     10  F2  UNL d   1      -2.071  -0.519   0.113  0.00  0.00    -0.096 F 
ATOM     11  F3  UNL d   1       0.074  -1.700  -1.045  0.00  0.00    -0.097 F 
ATOM     12  F4  UNL d   1       2.136  -2.619   0.487  0.00  0.00    -0.092 F 
ENDROOT
TORSDOF 0
ENDMDL
