MODEL 1
REMARK minimizedAffinity 18.5741024
REMARK minimizedRMSD -1
REMARK  0 active torsions:
REMARK  status: ('A' for Active; 'I' for Inactive)
ROOT
ATOM      1  C   UNL d   1      -1.010  -1.583   0.099  0.00  0.00     0.124 A 
ATOM      2  C1  UNL d   1       0.345  -1.491  -0.186  0.00  0.00     0.062 A 
ATOM      3  C2  UNL d   1       1.276  -1.445   0.848  0.00  0.00     0.162 A 
ATOM      4  C3  UNL d   1       0.855  -1.491   2.177  0.00  0.00    -0.034 A 
ATOM      5  C4  UNL d   1      -0.510  -1.582   2.455  0.00  0.00     0.162 A 
ATOM      6  C5  UNL d   1      -1.437  -1.628   1.419  0.00  0.00     0.062 A 
ATOM      7  F   UNL d   1      -2.746  -1.716   1.696  0.00  0.00    -0.097 F 
ATOM      8  F1  UNL d   1      -0.950  -1.629   3.722  0.00  0.00    -0.096 F 
ATOM      9  I   UNL d   1       2.243  -1.422   3.725  0.00  0.00    -0.060 I 
ATOM     10  F2  UNL d   1       2.579  -1.357   0.543  0.00  0.00    -0.096 F 
ATOM     11  F3  UNL d   1       0.759  -1.446  -1.460  0.00  0.00    -0.097 F 
ATOM     12  F4  UNL d   1      -1.904  -1.626  -0.898  0.00  0.00    -0.092 F 
ENDROOT
TORSDOF 0
ENDMDL
