MODEL 1
REMARK minimizedAffinity 16.3291359
REMARK minimizedRMSD -1
REMARK  0 active torsions:
REMARK  status: ('A' for Active; 'I' for Inactive)
ROOT
ATOM      1  C   UNL d   1       3.834   0.768  -3.843  0.00  0.00     0.124 A 
ATOM      2  C1  UNL d   1       3.029   0.299  -2.814  0.00  0.00     0.062 A 
ATOM      3  C2  UNL d   1       1.803   0.903  -2.553  0.00  0.00     0.162 A 
ATOM      4  C3  UNL d   1       1.373   1.984  -3.322  0.00  0.00    -0.034 A 
ATOM      5  C4  UNL d   1       2.188   2.451  -4.355  0.00  0.00     0.162 A 
ATOM      6  C5  UNL d   1       3.412   1.844  -4.612  0.00  0.00     0.062 A 
ATOM      7  F   UNL d   1       4.188   2.299  -5.607  0.00  0.00    -0.097 F 
ATOM      8  F1  UNL d   1       1.805   3.489  -5.114  0.00  0.00    -0.096 F 
ATOM      9  I   UNL d   1      -0.460   2.891  -2.934  0.00  0.00    -0.060 I 
ATOM     10  F2  UNL d   1       1.047   0.428  -1.552  0.00  0.00    -0.096 F 
ATOM     11  F3  UNL d   1       3.435  -0.740  -2.069  0.00  0.00    -0.097 F 
ATOM     12  F4  UNL d   1       5.014   0.186  -4.092  0.00  0.00    -0.092 F 
ENDROOT
TORSDOF 0
ENDMDL
