MODEL 1
REMARK minimizedAffinity 16.4313202
REMARK minimizedRMSD -1
REMARK  0 active torsions:
REMARK  status: ('A' for Active; 'I' for Inactive)
ROOT
ATOM      1  C   UNL d   1      -4.099  -1.468  -2.095  0.00  0.00     0.124 A 
ATOM      2  C1  UNL d   1      -5.056  -1.149  -3.049  0.00  0.00     0.062 A 
ATOM      3  C2  UNL d   1      -5.038   0.097  -3.669  0.00  0.00     0.162 A 
ATOM      4  C3  UNL d   1      -4.060   1.034  -3.338  0.00  0.00    -0.034 A 
ATOM      5  C4  UNL d   1      -3.101   0.707  -2.377  0.00  0.00     0.162 A 
ATOM      6  C5  UNL d   1      -3.123  -0.539  -1.760  0.00  0.00     0.062 A 
ATOM      7  F   UNL d   1      -2.198  -0.845  -0.838  0.00  0.00    -0.097 F 
ATOM      8  F1  UNL d   1      -2.147   1.585  -2.034  0.00  0.00    -0.096 F 
ATOM      9  I   UNL d   1      -4.030   2.898  -4.263  0.00  0.00    -0.060 I 
ATOM     10  F2  UNL d   1      -5.975   0.377  -4.587  0.00  0.00    -0.096 F 
ATOM     11  F3  UNL d   1      -6.000  -2.044  -3.373  0.00  0.00    -0.097 F 
ATOM     12  F4  UNL d   1      -4.118  -2.667  -1.499  0.00  0.00    -0.092 F 
ENDROOT
TORSDOF 0
ENDMDL
