MODEL 1
REMARK minimizedAffinity 5.60550165
REMARK minimizedRMSD -1
REMARK  0 active torsions:
REMARK  status: ('A' for Active; 'I' for Inactive)
ROOT
ATOM      1  C   UNL d   1       3.326   2.409   0.198  0.00  0.00    -0.002 A 
ATOM      2  C1  UNL d   1       2.323   1.610   0.727  0.00  0.00     0.010 A 
ATOM      3  C2  UNL d   1       2.180   0.283   0.317  0.00  0.00     0.041 A 
ATOM      4  C3  UNL d   1       3.074  -0.233  -0.642  0.00  0.00    -0.075 A 
ATOM      5  S   UNL d   1       3.091  -1.829  -1.294  0.00  0.00     0.015 SA
ATOM      6  C4  UNL d   1       4.431  -1.488  -2.290  0.00  0.00     0.022 A 
ATOM      7  C5  UNL d   1       4.868  -0.193  -2.142  0.00  0.00     0.026 A 
ATOM      8  C6  UNL d   1       4.093   0.552  -1.190  0.00  0.00    -0.082 A 
ATOM      9  C7  UNL d   1       4.210   1.894  -0.754  0.00  0.00     0.045 A 
ENDROOT
TORSDOF 0
ENDMDL
