MODEL 1
REMARK minimizedAffinity 10.1780691
REMARK minimizedRMSD -1
REMARK  0 active torsions:
REMARK  status: ('A' for Active; 'I' for Inactive)
ROOT
ATOM      1  C   UNL d   1      -0.238   1.333   0.600  0.00  0.00    -0.002 A 
ATOM      2  C1  UNL d   1      -0.751   1.211   1.884  0.00  0.00     0.010 A 
ATOM      3  C2  UNL d   1      -0.191   0.307   2.789  0.00  0.00     0.041 A 
ATOM      4  C3  UNL d   1       0.905  -0.477   2.379  0.00  0.00    -0.075 A 
ATOM      5  S   UNL d   1       1.754  -1.649   3.317  0.00  0.00     0.015 SA
ATOM      6  C4  UNL d   1       2.817  -2.014   2.037  0.00  0.00     0.022 A 
ATOM      7  C5  UNL d   1       2.546  -1.269   0.913  0.00  0.00     0.026 A 
ATOM      8  C6  UNL d   1       1.440  -0.371   1.092  0.00  0.00    -0.082 A 
ATOM      9  C7  UNL d   1       0.849   0.554   0.198  0.00  0.00     0.045 A 
ENDROOT
TORSDOF 0
ENDMDL
