MODEL 1
REMARK minimizedAffinity 5.4605608
REMARK minimizedRMSD -1
REMARK  0 active torsions:
REMARK  status: ('A' for Active; 'I' for Inactive)
ROOT
ATOM      1  C   UNL d   1      -1.578   2.935   0.914  0.00  0.00    -0.002 A 
ATOM      2  C1  UNL d   1      -1.152   2.396  -0.292  0.00  0.00     0.010 A 
ATOM      3  C2  UNL d   1      -0.320   1.274  -0.313  0.00  0.00     0.041 A 
ATOM      4  C3  UNL d   1       0.079   0.698   0.908  0.00  0.00    -0.075 A 
ATOM      5  S   UNL d   1       1.094  -0.679   1.126  0.00  0.00     0.015 SA
ATOM      6  C4  UNL d   1       0.986  -0.583   2.824  0.00  0.00     0.022 A 
ATOM      7  C5  UNL d   1       0.199   0.467   3.232  0.00  0.00     0.026 A 
ATOM      8  C6  UNL d   1      -0.337   1.223   2.135  0.00  0.00    -0.082 A 
ATOM      9  C7  UNL d   1      -1.179   2.361   2.124  0.00  0.00     0.045 A 
ENDROOT
TORSDOF 0
ENDMDL
