MODEL 1
REMARK minimizedAffinity 12.6320972
REMARK minimizedRMSD -1
REMARK  0 active torsions:
REMARK  status: ('A' for Active; 'I' for Inactive)
ROOT
ATOM      1  C   UNL d   1      -1.453   1.686   0.086  0.00  0.00    -0.002 A 
ATOM      2  C1  UNL d   1      -0.288   1.278  -0.548  0.00  0.00     0.010 A 
ATOM      3  C2  UNL d   1       0.753   0.701   0.182  0.00  0.00     0.041 A 
ATOM      4  C3  UNL d   1       0.601   0.538   1.573  0.00  0.00    -0.075 A 
ATOM      5  S   UNL d   1       1.742  -0.144   2.671  0.00  0.00     0.015 SA
ATOM      6  C4  UNL d   1       0.710   0.091   4.007  0.00  0.00     0.022 A 
ATOM      7  C5  UNL d   1      -0.480   0.674   3.642  0.00  0.00     0.026 A 
ATOM      8  C6  UNL d   1      -0.563   0.941   2.234  0.00  0.00    -0.082 A 
ATOM      9  C7  UNL d   1      -1.600   1.524   1.466  0.00  0.00     0.045 A 
ENDROOT
TORSDOF 0
ENDMDL
