MODEL 1
REMARK minimizedAffinity 10.8955393
REMARK minimizedRMSD -1
REMARK  0 active torsions:
REMARK  status: ('A' for Active; 'I' for Inactive)
ROOT
ATOM      1  C   UNL d   1       4.201  -1.566  -1.815  0.00  0.00    -0.002 A 
ATOM      2  C1  UNL d   1       3.346  -2.627  -1.552  0.00  0.00     0.010 A 
ATOM      3  C2  UNL d   1       2.390  -2.535  -0.539  0.00  0.00     0.041 A 
ATOM      4  C3  UNL d   1       2.305  -1.345   0.211  0.00  0.00    -0.075 A 
ATOM      5  S   UNL d   1       1.212  -1.005   1.500  0.00  0.00     0.015 SA
ATOM      6  C4  UNL d   1       1.852   0.557   1.731  0.00  0.00     0.022 A 
ATOM      7  C5  UNL d   1       2.877   0.829   0.855  0.00  0.00     0.026 A 
ATOM      8  C6  UNL d   1       3.154  -0.263  -0.035  0.00  0.00    -0.082 A 
ATOM      9  C7  UNL d   1       4.114  -0.388  -1.069  0.00  0.00     0.045 A 
ENDROOT
TORSDOF 0
ENDMDL
