MODEL 1
REMARK minimizedAffinity 8.05640793
REMARK minimizedRMSD -1
REMARK  0 active torsions:
REMARK  status: ('A' for Active; 'I' for Inactive)
ROOT
ATOM      1  C   UNL d   1       4.506  -0.978  -2.149  0.00  0.00    -0.002 A 
ATOM      2  C1  UNL d   1       4.506   0.002  -1.167  0.00  0.00     0.010 A 
ATOM      3  C2  UNL d   1       3.599  -0.054  -0.107  0.00  0.00     0.041 A 
ATOM      4  C3  UNL d   1       2.684  -1.123  -0.050  0.00  0.00    -0.075 A 
ATOM      5  S   UNL d   1       1.482  -1.399   1.155  0.00  0.00     0.015 SA
ATOM      6  C4  UNL d   1       0.940  -2.825   0.394  0.00  0.00     0.022 A 
ATOM      7  C5  UNL d   1       1.647  -3.099  -0.752  0.00  0.00     0.026 A 
ATOM      8  C6  UNL d   1       2.664  -2.123  -1.027  0.00  0.00    -0.082 A 
ATOM      9  C7  UNL d   1       3.596  -2.037  -2.089  0.00  0.00     0.045 A 
ENDROOT
TORSDOF 0
ENDMDL
