MODEL 1
REMARK minimizedAffinity -4.03338194
REMARK minimizedRMSD -1
REMARK  0 active torsions:
REMARK  status: ('A' for Active; 'I' for Inactive)
ROOT
ATOM      1  C   UNL d   1       0.832   0.301  -0.697  0.00  0.00     0.077 C 
ATOM      2  C1  UNL d   1       0.542  -1.009  -1.367  0.00  0.00    -0.074 A 
ATOM      3  C2  UNL d   1      -0.034  -1.053  -2.641  0.00  0.00    -0.005 A 
ATOM      4  C3  UNL d   1      -0.289  -2.279  -3.255  0.00  0.00     0.006 A 
ATOM      5  C4  UNL d   1       0.027  -3.472  -2.603  0.00  0.00    -0.005 A 
ATOM      6  C5  UNL d   1       0.604  -3.447  -1.329  0.00  0.00    -0.074 A 
ATOM      7  C6  UNL d   1       0.959  -4.719  -0.618  0.00  0.00     0.077 C 
ATOM      8  C7  UNL d   1       0.864  -2.211  -0.721  0.00  0.00    -0.001 A 
ENDROOT
TORSDOF 0
ENDMDL
