MODEL 1
REMARK minimizedAffinity -6.04062796
REMARK minimizedRMSD -1
REMARK  0 active torsions:
REMARK  status: ('A' for Active; 'I' for Inactive)
ROOT
ATOM      1  C   UNL d   1       0.891  -0.497  -0.692  0.00  0.00     0.077 C 
ATOM      2  C1  UNL d   1       0.106   0.522   0.079  0.00  0.00    -0.074 A 
ATOM      3  C2  UNL d   1      -0.234   0.303   1.418  0.00  0.00    -0.005 A 
ATOM      4  C3  UNL d   1      -0.957   1.264   2.125  0.00  0.00     0.006 A 
ATOM      5  C4  UNL d   1      -1.345   2.451   1.502  0.00  0.00    -0.005 A 
ATOM      6  C5  UNL d   1      -1.013   2.687   0.165  0.00  0.00    -0.074 A 
ATOM      7  C6  UNL d   1      -1.414   3.961  -0.517  0.00  0.00     0.077 C 
ATOM      8  C7  UNL d   1      -0.281   1.720  -0.537  0.00  0.00    -0.001 A 
ENDROOT
TORSDOF 0
ENDMDL
