MODEL 1
REMARK minimizedAffinity -4.57013464
REMARK minimizedRMSD -1
REMARK  0 active torsions:
REMARK  status: ('A' for Active; 'I' for Inactive)
ROOT
ATOM      1  C   UNL d   1      -2.364   2.193   1.507  0.00  0.00     0.077 C 
ATOM      2  C1  UNL d   1      -1.330   1.258   0.951  0.00  0.00    -0.074 A 
ATOM      3  C2  UNL d   1      -1.062   1.218  -0.421  0.00  0.00    -0.005 A 
ATOM      4  C3  UNL d   1      -0.091   0.350  -0.922  0.00  0.00     0.006 A 
ATOM      5  C4  UNL d   1       0.620  -0.484  -0.058  0.00  0.00    -0.005 A 
ATOM      6  C5  UNL d   1       0.365  -0.456   1.317  0.00  0.00    -0.074 A 
ATOM      7  C6  UNL d   1       1.127  -1.339   2.261  0.00  0.00     0.077 C 
ATOM      8  C7  UNL d   1      -0.607   0.423   1.814  0.00  0.00    -0.001 A 
ENDROOT
TORSDOF 0
ENDMDL
