MODEL 1
REMARK minimizedAffinity -3.61998296
REMARK minimizedRMSD -1
REMARK  0 active torsions:
REMARK  status: ('A' for Active; 'I' for Inactive)
ROOT
ATOM      1  C   UNL d   1       0.566  -1.219  -0.161  0.00  0.00     0.077 C 
ATOM      2  C1  UNL d   1      -0.093   0.037   0.326  0.00  0.00    -0.074 A 
ATOM      3  C2  UNL d   1      -0.838   0.045   1.510  0.00  0.00    -0.005 A 
ATOM      4  C3  UNL d   1      -1.437   1.223   1.956  0.00  0.00     0.006 A 
ATOM      5  C4  UNL d   1      -1.298   2.403   1.224  0.00  0.00    -0.005 A 
ATOM      6  C5  UNL d   1      -0.556   2.414   0.039  0.00  0.00    -0.074 A 
ATOM      7  C6  UNL d   1      -0.388   3.676  -0.755  0.00  0.00     0.077 C 
ATOM      8  C7  UNL d   1       0.049   1.228  -0.399  0.00  0.00    -0.001 A 
ENDROOT
TORSDOF 0
ENDMDL
