MODEL 1
REMARK minimizedAffinity -3.30351925
REMARK minimizedRMSD -1
REMARK  0 active torsions:
REMARK  status: ('A' for Active; 'I' for Inactive)
ROOT
ATOM      1  C   UNL d   1       1.553   0.412  -1.855  0.00  0.00     0.077 C 
ATOM      2  C1  UNL d   1       0.802   0.204  -0.574  0.00  0.00    -0.074 A 
ATOM      3  C2  UNL d   1       1.123  -0.852   0.285  0.00  0.00    -0.005 A 
ATOM      4  C3  UNL d   1       0.421  -1.027   1.478  0.00  0.00     0.006 A 
ATOM      5  C4  UNL d   1      -0.606  -0.148   1.824  0.00  0.00    -0.005 A 
ATOM      6  C5  UNL d   1      -0.939   0.915   0.979  0.00  0.00    -0.074 A 
ATOM      7  C6  UNL d   1      -2.034   1.875   1.341  0.00  0.00     0.077 C 
ATOM      8  C7  UNL d   1      -0.226   1.088  -0.215  0.00  0.00    -0.001 A 
ENDROOT
TORSDOF 0
ENDMDL
