MODEL 1
REMARK minimizedAffinity 0.656085014
REMARK minimizedRMSD -1
REMARK  0 active torsions:
REMARK  status: ('A' for Active; 'I' for Inactive)
ROOT
ATOM      1  C   UNL d   1      -1.931   2.151   1.484  0.00  0.00     0.077 C 
ATOM      2  C1  UNL d   1      -1.126   0.901   1.285  0.00  0.00    -0.074 A 
ATOM      3  C2  UNL d   1      -1.049  -0.072   2.288  0.00  0.00    -0.005 A 
ATOM      4  C3  UNL d   1      -0.304  -1.233   2.085  0.00  0.00     0.006 A 
ATOM      5  C4  UNL d   1       0.370  -1.435   0.880  0.00  0.00    -0.005 A 
ATOM      6  C5  UNL d   1       0.304  -0.474  -0.134  0.00  0.00    -0.074 A 
ATOM      7  C6  UNL d   1       1.015  -0.679  -1.439  0.00  0.00     0.077 C 
ATOM      8  C7  UNL d   1      -0.452   0.688   0.074  0.00  0.00    -0.001 A 
ENDROOT
TORSDOF 0
ENDMDL
