MODEL 1
REMARK minimizedAffinity -5.78341722
REMARK minimizedRMSD -1
REMARK  0 active torsions:
REMARK  status: ('A' for Active; 'I' for Inactive)
ROOT
ATOM      1  C   UNL d   1      -0.768   3.795  -0.413  0.00  0.00     0.077 C 
ATOM      2  C1  UNL d   1      -0.717   2.462   0.272  0.00  0.00    -0.074 A 
ATOM      3  C2  UNL d   1      -1.457   2.222   1.435  0.00  0.00    -0.005 A 
ATOM      4  C3  UNL d   1      -1.407   0.974   2.055  0.00  0.00     0.006 A 
ATOM      5  C4  UNL d   1      -0.618  -0.046   1.521  0.00  0.00    -0.005 A 
ATOM      6  C5  UNL d   1       0.128   0.175   0.359  0.00  0.00    -0.074 A 
ATOM      7  C6  UNL d   1       0.973  -0.913  -0.235  0.00  0.00     0.077 C 
ATOM      8  C7  UNL d   1       0.067   1.430  -0.263  0.00  0.00    -0.001 A 
ENDROOT
TORSDOF 0
ENDMDL
