MODEL 1
REMARK minimizedAffinity -5.13540173
REMARK minimizedRMSD -1
REMARK  0 active torsions:
REMARK  status: ('A' for Active; 'I' for Inactive)
ROOT
ATOM      1  C   UNL d   1      -0.701   3.940  -1.087  0.00  0.00     0.077 C 
ATOM      2  C1  UNL d   1      -0.695   2.739  -0.188  0.00  0.00    -0.074 A 
ATOM      3  C2  UNL d   1      -1.233   2.803   1.101  0.00  0.00    -0.005 A 
ATOM      4  C3  UNL d   1      -1.229   1.676   1.922  0.00  0.00     0.006 A 
ATOM      5  C4  UNL d   1      -0.689   0.474   1.462  0.00  0.00    -0.005 A 
ATOM      6  C5  UNL d   1      -0.148   0.390   0.175  0.00  0.00    -0.074 A 
ATOM      7  C6  UNL d   1       0.427  -0.897  -0.338  0.00  0.00     0.077 C 
ATOM      8  C7  UNL d   1      -0.162   1.526  -0.646  0.00  0.00    -0.001 A 
ENDROOT
TORSDOF 0
ENDMDL
