MODEL 1
REMARK minimizedAffinity -3.67693567
REMARK minimizedRMSD -1
REMARK  0 active torsions:
REMARK  status: ('A' for Active; 'I' for Inactive)
ROOT
ATOM      1  C   UNL d   1      -1.860   0.867   0.447  0.00  0.00     0.077 C 
ATOM      2  C1  UNL d   1      -0.734   0.161  -0.248  0.00  0.00    -0.074 A 
ATOM      3  C2  UNL d   1       0.559   0.695  -0.249  0.00  0.00    -0.005 A 
ATOM      4  C3  UNL d   1       1.598   0.022  -0.891  0.00  0.00     0.006 A 
ATOM      5  C4  UNL d   1       1.355  -1.191  -1.538  0.00  0.00    -0.005 A 
ATOM      6  C5  UNL d   1       0.069  -1.741  -1.547  0.00  0.00    -0.074 A 
ATOM      7  C6  UNL d   1      -0.206  -3.047  -2.230  0.00  0.00     0.077 C 
ATOM      8  C7  UNL d   1      -0.968  -1.061  -0.894  0.00  0.00    -0.001 A 
ENDROOT
TORSDOF 0
ENDMDL
