MODEL 1
REMARK minimizedAffinity -3.17058396
REMARK minimizedRMSD -1
REMARK  0 active torsions:
REMARK  status: ('A' for Active; 'I' for Inactive)
ROOT
ATOM      1  C   UNL d   1      -0.047   0.381   0.090  0.00  0.00     0.077 C 
ATOM      2  C1  UNL d   1       0.147  -0.793  -0.823  0.00  0.00    -0.074 A 
ATOM      3  C2  UNL d   1      -0.684  -0.987  -1.932  0.00  0.00    -0.005 A 
ATOM      4  C3  UNL d   1      -0.486  -2.078  -2.777  0.00  0.00     0.006 A 
ATOM      5  C4  UNL d   1       0.543  -2.986  -2.523  0.00  0.00    -0.005 A 
ATOM      6  C5  UNL d   1       1.384  -2.809  -1.420  0.00  0.00    -0.074 A 
ATOM      7  C6  UNL d   1       2.501  -3.770  -1.138  0.00  0.00     0.077 C 
ATOM      8  C7  UNL d   1       1.183  -1.706  -0.579  0.00  0.00    -0.001 A 
ENDROOT
TORSDOF 0
ENDMDL
