MODEL 1
REMARK minimizedAffinity -4.26855993
REMARK minimizedRMSD -1
REMARK  0 active torsions:
REMARK  status: ('A' for Active; 'I' for Inactive)
ROOT
ATOM      1  C   UNL d   1       0.948  -0.097  -1.470  0.00  0.00     0.077 C 
ATOM      2  C1  UNL d   1       0.070   0.321  -0.329  0.00  0.00    -0.074 A 
ATOM      3  C2  UNL d   1      -0.830   1.383  -0.466  0.00  0.00    -0.005 A 
ATOM      4  C3  UNL d   1      -1.648   1.755   0.601  0.00  0.00     0.006 A 
ATOM      5  C4  UNL d   1      -1.574   1.070   1.814  0.00  0.00    -0.005 A 
ATOM      6  C5  UNL d   1      -0.681   0.005   1.970  0.00  0.00    -0.074 A 
ATOM      7  C6  UNL d   1      -0.595  -0.748   3.264  0.00  0.00     0.077 C 
ATOM      8  C7  UNL d   1       0.133  -0.367   0.891  0.00  0.00    -0.001 A 
ENDROOT
TORSDOF 0
ENDMDL
