MODEL 1
REMARK minimizedAffinity -2.4371841
REMARK minimizedRMSD -1
REMARK  0 active torsions:
REMARK  status: ('A' for Active; 'I' for Inactive)
ROOT
ATOM      1  C   UNL d   1      -2.094   2.238   1.515  0.00  0.00     0.077 C 
ATOM      2  C1  UNL d   1      -1.278   1.002   1.279  0.00  0.00    -0.074 A 
ATOM      3  C2  UNL d   1      -1.248  -0.031   2.221  0.00  0.00    -0.005 A 
ATOM      4  C3  UNL d   1      -0.492  -1.178   1.983  0.00  0.00     0.006 A 
ATOM      5  C4  UNL d   1       0.240  -1.305   0.802  0.00  0.00    -0.005 A 
ATOM      6  C5  UNL d   1       0.221  -0.283  -0.153  0.00  0.00    -0.074 A 
ATOM      7  C6  UNL d   1       0.994  -0.408  -1.432  0.00  0.00     0.077 C 
ATOM      8  C7  UNL d   1      -0.546   0.864   0.091  0.00  0.00    -0.001 A 
ENDROOT
TORSDOF 0
ENDMDL
