MODEL 1
REMARK minimizedAffinity -4.35903931
REMARK minimizedRMSD -1
REMARK  0 active torsions:
REMARK  status: ('A' for Active; 'I' for Inactive)
ROOT
ATOM      1  C   UNL d   1       1.113  -0.084  -1.121  0.00  0.00     0.077 C 
ATOM      2  C1  UNL d   1       0.155   0.711  -0.284  0.00  0.00    -0.074 A 
ATOM      3  C2  UNL d   1      -0.530   0.120   0.782  0.00  0.00    -0.005 A 
ATOM      4  C3  UNL d   1      -1.410   0.875   1.558  0.00  0.00     0.006 A 
ATOM      5  C4  UNL d   1      -1.614   2.226   1.275  0.00  0.00    -0.005 A 
ATOM      6  C5  UNL d   1      -0.937   2.834   0.213  0.00  0.00    -0.074 A 
ATOM      7  C6  UNL d   1      -1.137   4.288  -0.098  0.00  0.00     0.077 C 
ATOM      8  C7  UNL d   1      -0.049   2.071  -0.557  0.00  0.00    -0.001 A 
ENDROOT
TORSDOF 0
ENDMDL
