MODEL 1
REMARK minimizedAffinity -4.83955288
REMARK minimizedRMSD -1
REMARK  0 active torsions:
REMARK  status: ('A' for Active; 'I' for Inactive)
ROOT
ATOM      1  C   UNL d   1      -1.133   3.381   0.008  0.00  0.00     0.077 C 
ATOM      2  C1  UNL d   1      -0.863   1.971   0.441  0.00  0.00    -0.074 A 
ATOM      3  C2  UNL d   1      -1.358   1.484   1.654  0.00  0.00    -0.005 A 
ATOM      4  C3  UNL d   1      -1.107   0.167   2.039  0.00  0.00     0.006 A 
ATOM      5  C4  UNL d   1      -0.359  -0.675   1.216  0.00  0.00    -0.005 A 
ATOM      6  C5  UNL d   1       0.144  -0.206  -0.002  0.00  0.00    -0.074 A 
ATOM      7  C6  UNL d   1       0.942  -1.101  -0.904  0.00  0.00     0.077 C 
ATOM      8  C7  UNL d   1      -0.119   1.117  -0.385  0.00  0.00    -0.001 A 
ENDROOT
TORSDOF 0
ENDMDL
