MODEL 1
REMARK minimizedAffinity -3.77368474
REMARK minimizedRMSD -1
REMARK  0 active torsions:
REMARK  status: ('A' for Active; 'I' for Inactive)
ROOT
ATOM      1  C   UNL d   1      -1.466   0.287   1.193  0.00  0.00     0.077 C 
ATOM      2  C1  UNL d   1      -0.441  -0.191   0.207  0.00  0.00    -0.074 A 
ATOM      3  C2  UNL d   1       0.110  -1.472   0.308  0.00  0.00    -0.005 A 
ATOM      4  C3  UNL d   1       1.056  -1.906  -0.622  0.00  0.00     0.006 A 
ATOM      5  C4  UNL d   1       1.458  -1.064  -1.659  0.00  0.00    -0.005 A 
ATOM      6  C5  UNL d   1       0.917   0.220  -1.777  0.00  0.00    -0.074 A 
ATOM      7  C6  UNL d   1       1.331   1.134  -2.892  0.00  0.00     0.077 C 
ATOM      8  C7  UNL d   1      -0.038   0.646  -0.843  0.00  0.00    -0.001 A 
ENDROOT
TORSDOF 0
ENDMDL
