MODEL 1
REMARK minimizedAffinity -1.86036372
REMARK minimizedRMSD -1
REMARK  0 active torsions:
REMARK  status: ('A' for Active; 'I' for Inactive)
ROOT
ATOM      1  C   UNL d   1       1.267   1.107  -2.768  0.00  0.00     0.077 C 
ATOM      2  C1  UNL d   1       0.959   0.230  -1.591  0.00  0.00    -0.074 A 
ATOM      3  C2  UNL d   1       1.534  -1.040  -1.472  0.00  0.00    -0.005 A 
ATOM      4  C3  UNL d   1       1.246  -1.841  -0.367  0.00  0.00     0.006 A 
ATOM      5  C4  UNL d   1       0.382  -1.382   0.628  0.00  0.00    -0.005 A 
ATOM      6  C5  UNL d   1      -0.201  -0.115   0.526  0.00  0.00    -0.074 A 
ATOM      7  C6  UNL d   1      -1.125   0.397   1.591  0.00  0.00     0.077 C 
ATOM      8  C7  UNL d   1       0.098   0.687  -0.584  0.00  0.00    -0.001 A 
ENDROOT
TORSDOF 0
ENDMDL
