MODEL 1
REMARK minimizedAffinity -1.57524586
REMARK minimizedRMSD -1
REMARK  0 active torsions:
REMARK  status: ('A' for Active; 'I' for Inactive)
ROOT
ATOM      1  C   UNL d   1       0.031   0.291   0.033  0.00  0.00     0.077 C 
ATOM      2  C1  UNL d   1      -0.828   0.374   1.260  0.00  0.00    -0.074 A 
ATOM      3  C2  UNL d   1      -0.466   1.190   2.337  0.00  0.00    -0.005 A 
ATOM      4  C3  UNL d   1      -1.279   1.265   3.467  0.00  0.00     0.006 A 
ATOM      5  C4  UNL d   1      -2.461   0.526   3.533  0.00  0.00    -0.005 A 
ATOM      6  C5  UNL d   1      -2.840  -0.294   2.465  0.00  0.00    -0.074 A 
ATOM      7  C6  UNL d   1      -4.112  -1.088   2.515  0.00  0.00     0.077 C 
ATOM      8  C7  UNL d   1      -2.021  -0.359   1.330  0.00  0.00    -0.001 A 
ENDROOT
TORSDOF 0
ENDMDL
