MODEL 1
REMARK minimizedAffinity -3.17152119
REMARK minimizedRMSD -1
REMARK  0 active torsions:
REMARK  status: ('A' for Active; 'I' for Inactive)
ROOT
ATOM      1  C   UNL d   1      -1.517   0.712   1.087  0.00  0.00     0.077 C 
ATOM      2  C1  UNL d   1      -0.405   0.315   0.162  0.00  0.00    -0.074 A 
ATOM      3  C2  UNL d   1       0.233  -0.923   0.295  0.00  0.00    -0.005 A 
ATOM      4  C3  UNL d   1       1.259  -1.282  -0.579  0.00  0.00     0.006 A 
ATOM      5  C4  UNL d   1       1.657  -0.410  -1.592  0.00  0.00    -0.005 A 
ATOM      6  C5  UNL d   1       1.030   0.831  -1.741  0.00  0.00    -0.074 A 
ATOM      7  C6  UNL d   1       1.438   1.777  -2.832  0.00  0.00     0.077 C 
ATOM      8  C7  UNL d   1      -0.005   1.183  -0.864  0.00  0.00    -0.001 A 
ENDROOT
TORSDOF 0
ENDMDL
