MODEL 1
REMARK minimizedAffinity -3.77332997
REMARK minimizedRMSD -1
REMARK  0 active torsions:
REMARK  status: ('A' for Active; 'I' for Inactive)
ROOT
ATOM      1  C   UNL d   1       3.278  -0.262  -2.397  0.00  0.00     0.077 C 
ATOM      2  C1  UNL d   1       2.039  -0.712  -1.682  0.00  0.00    -0.074 A 
ATOM      3  C2  UNL d   1       1.628  -2.048  -1.727  0.00  0.00    -0.005 A 
ATOM      4  C3  UNL d   1       0.479  -2.454  -1.049  0.00  0.00     0.006 A 
ATOM      5  C4  UNL d   1      -0.271  -1.530  -0.321  0.00  0.00    -0.005 A 
ATOM      6  C5  UNL d   1       0.124  -0.189  -0.264  0.00  0.00    -0.074 A 
ATOM      7  C6  UNL d   1      -0.665   0.815   0.522  0.00  0.00     0.077 C 
ATOM      8  C7  UNL d   1       1.284   0.209  -0.942  0.00  0.00    -0.001 A 
ENDROOT
TORSDOF 0
ENDMDL
