MODEL 1
REMARK minimizedAffinity -2.85003829
REMARK minimizedRMSD -1
REMARK  0 active torsions:
REMARK  status: ('A' for Active; 'I' for Inactive)
ROOT
ATOM      1  C   UNL d   1       0.750   1.908  -2.568  0.00  0.00     0.077 C 
ATOM      2  C1  UNL d   1       0.466   0.784  -1.616  0.00  0.00    -0.074 A 
ATOM      3  C2  UNL d   1       1.070  -0.466  -1.780  0.00  0.00    -0.005 A 
ATOM      4  C3  UNL d   1       0.804  -1.499  -0.881  0.00  0.00     0.006 A 
ATOM      5  C4  UNL d   1      -0.067  -1.292   0.189  0.00  0.00    -0.005 A 
ATOM      6  C5  UNL d   1      -0.680  -0.049   0.369  0.00  0.00    -0.074 A 
ATOM      7  C6  UNL d   1      -1.612   0.193   1.520  0.00  0.00     0.077 C 
ATOM      8  C7  UNL d   1      -0.402   0.987  -0.534  0.00  0.00    -0.001 A 
ENDROOT
TORSDOF 0
ENDMDL
