MODEL 1
REMARK minimizedAffinity -2.84632254
REMARK minimizedRMSD -1
REMARK  0 active torsions:
REMARK  status: ('A' for Active; 'I' for Inactive)
ROOT
ATOM      1  C   UNL d   1       3.188  -0.839   0.151  0.00  0.00     0.077 C 
ATOM      2  C1  UNL d   1       1.730  -1.187   0.101  0.00  0.00    -0.074 A 
ATOM      3  C2  UNL d   1       1.311  -2.521   0.043  0.00  0.00    -0.005 A 
ATOM      4  C3  UNL d   1      -0.048  -2.830   0.007  0.00  0.00     0.006 A 
ATOM      5  C4  UNL d   1      -1.002  -1.811   0.028  0.00  0.00    -0.005 A 
ATOM      6  C5  UNL d   1      -0.602  -0.472   0.086  0.00  0.00    -0.074 A 
ATOM      7  C6  UNL d   1      -1.614   0.635   0.119  0.00  0.00     0.077 C 
ATOM      8  C7  UNL d   1       0.766  -0.170   0.129  0.00  0.00    -0.001 A 
ENDROOT
TORSDOF 0
ENDMDL
