MODEL 1
REMARK minimizedAffinity 9.08422184
REMARK minimizedRMSD -1
REMARK  0 active torsions:
REMARK  status: ('A' for Active; 'I' for Inactive)
ROOT
ATOM      1  C   UNL d   1      -5.816  -3.092   3.108  0.00  0.00     0.077 C 
ATOM      2  C1  UNL d   1      -4.626  -2.265   3.496  0.00  0.00    -0.074 A 
ATOM      3  C2  UNL d   1      -4.192  -2.208   4.824  0.00  0.00    -0.005 A 
ATOM      4  C3  UNL d   1      -3.078  -1.443   5.168  0.00  0.00     0.006 A 
ATOM      5  C4  UNL d   1      -2.389  -0.726   4.189  0.00  0.00    -0.005 A 
ATOM      6  C5  UNL d   1      -2.808  -0.772   2.855  0.00  0.00    -0.074 A 
ATOM      7  C6  UNL d   1      -2.072  -0.016   1.789  0.00  0.00     0.077 C 
ATOM      8  C7  UNL d   1      -3.923  -1.549   2.517  0.00  0.00    -0.001 A 
ENDROOT
TORSDOF 0
ENDMDL
