MODEL 1
REMARK minimizedAffinity -1.12189257
REMARK minimizedRMSD -1
REMARK  0 active torsions:
REMARK  status: ('A' for Active; 'I' for Inactive)
ROOT
ATOM      1  C   UNL d   1      -0.571   2.793  -1.648  0.00  0.00     0.077 C 
ATOM      2  C1  UNL d   1       0.127   1.471  -1.778  0.00  0.00    -0.074 A 
ATOM      3  C2  UNL d   1       1.086   1.259  -2.773  0.00  0.00    -0.005 A 
ATOM      4  C3  UNL d   1       1.733   0.028  -2.874  0.00  0.00     0.006 A 
ATOM      5  C4  UNL d   1       1.428  -1.002  -1.984  0.00  0.00    -0.005 A 
ATOM      6  C5  UNL d   1       0.472  -0.808  -0.982  0.00  0.00    -0.074 A 
ATOM      7  C6  UNL d   1       0.139  -1.901  -0.010  0.00  0.00     0.077 C 
ATOM      8  C7  UNL d   1      -0.169   0.434  -0.882  0.00  0.00    -0.001 A 
ENDROOT
TORSDOF 0
ENDMDL
