MODEL 1
REMARK minimizedAffinity -3.802145
REMARK minimizedRMSD -1
REMARK  0 active torsions:
REMARK  status: ('A' for Active; 'I' for Inactive)
ROOT
ATOM      1  C   UNL d   1       2.054  -1.013  -2.646  0.00  0.00     0.077 C 
ATOM      2  C1  UNL d   1       0.971  -0.400  -1.809  0.00  0.00    -0.074 A 
ATOM      3  C2  UNL d   1       0.432  -1.086  -0.716  0.00  0.00    -0.005 A 
ATOM      4  C3  UNL d   1      -0.568  -0.500   0.060  0.00  0.00     0.006 A 
ATOM      5  C4  UNL d   1      -1.039   0.777  -0.249  0.00  0.00    -0.005 A 
ATOM      6  C5  UNL d   1      -0.512   1.478  -1.338  0.00  0.00    -0.074 A 
ATOM      7  C6  UNL d   1      -1.000   2.855  -1.678  0.00  0.00     0.077 C 
ATOM      8  C7  UNL d   1       0.498   0.885  -2.108  0.00  0.00    -0.001 A 
ENDROOT
TORSDOF 0
ENDMDL
