MODEL 1
REMARK minimizedAffinity -5.40088177
REMARK minimizedRMSD -1
REMARK  0 active torsions:
REMARK  status: ('A' for Active; 'I' for Inactive)
ROOT
ATOM      1  C   UNL d   1       2.438  -0.055  -2.265  0.00  0.00     0.077 C 
ATOM      2  C1  UNL d   1       1.179  -0.067  -1.451  0.00  0.00    -0.074 A 
ATOM      3  C2  UNL d   1       0.572   1.126  -1.048  0.00  0.00    -0.005 A 
ATOM      4  C3  UNL d   1      -0.605   1.099  -0.299  0.00  0.00     0.006 A 
ATOM      5  C4  UNL d   1      -1.185  -0.120   0.053  0.00  0.00    -0.005 A 
ATOM      6  C5  UNL d   1      -0.593  -1.323  -0.342  0.00  0.00    -0.074 A 
ATOM      7  C6  UNL d   1      -1.210  -2.642   0.020  0.00  0.00     0.077 C 
ATOM      8  C7  UNL d   1       0.585  -1.288  -1.100  0.00  0.00    -0.001 A 
ENDROOT
TORSDOF 0
ENDMDL
