MODEL 1
REMARK minimizedAffinity -3.52526045
REMARK minimizedRMSD -1
REMARK  0 active torsions:
REMARK  status: ('A' for Active; 'I' for Inactive)
ROOT
ATOM      1  C   UNL d   1      -1.195   0.824   0.461  0.00  0.00     0.077 C 
ATOM      2  C1  UNL d   1      -0.085   0.299  -0.400  0.00  0.00    -0.074 A 
ATOM      3  C2  UNL d   1       0.521  -0.929  -0.121  0.00  0.00    -0.005 A 
ATOM      4  C3  UNL d   1       1.546  -1.409  -0.937  0.00  0.00     0.006 A 
ATOM      5  C4  UNL d   1       1.974  -0.666  -2.038  0.00  0.00    -0.005 A 
ATOM      6  C5  UNL d   1       1.378   0.565  -2.333  0.00  0.00    -0.074 A 
ATOM      7  C6  UNL d   1       1.819   1.371  -3.519  0.00  0.00     0.077 C 
ATOM      8  C7  UNL d   1       0.344   1.036  -1.513  0.00  0.00    -0.001 A 
ENDROOT
TORSDOF 0
ENDMDL
