MODEL 1
REMARK minimizedAffinity -4.43277884
REMARK minimizedRMSD -1
REMARK  0 active torsions:
REMARK  status: ('A' for Active; 'I' for Inactive)
ROOT
ATOM      1  C   UNL d   1       2.822   0.679  -1.818  0.00  0.00     0.077 C 
ATOM      2  C1  UNL d   1       1.744  -0.101  -1.126  0.00  0.00    -0.074 A 
ATOM      3  C2  UNL d   1       1.851  -1.486  -0.964  0.00  0.00    -0.005 A 
ATOM      4  C3  UNL d   1       0.845  -2.197  -0.309  0.00  0.00     0.006 A 
ATOM      5  C4  UNL d   1      -0.276  -1.531   0.190  0.00  0.00    -0.005 A 
ATOM      6  C5  UNL d   1      -0.399  -0.147   0.038  0.00  0.00    -0.074 A 
ATOM      7  C6  UNL d   1      -1.592   0.586   0.577  0.00  0.00     0.077 C 
ATOM      8  C7  UNL d   1       0.619   0.562  -0.615  0.00  0.00    -0.001 A 
ENDROOT
TORSDOF 0
ENDMDL
