MODEL 1
REMARK minimizedAffinity -3.47925282
REMARK minimizedRMSD -1
REMARK  0 active torsions:
REMARK  status: ('A' for Active; 'I' for Inactive)
ROOT
ATOM      1  C   UNL d   1       0.827   1.009  -0.740  0.00  0.00     0.077 C 
ATOM      2  C1  UNL d   1       1.704   0.384  -1.784  0.00  0.00    -0.074 A 
ATOM      3  C2  UNL d   1       1.750  -1.004  -1.947  0.00  0.00    -0.005 A 
ATOM      4  C3  UNL d   1       2.563  -1.570  -2.929  0.00  0.00     0.006 A 
ATOM      5  C4  UNL d   1       3.336  -0.755  -3.757  0.00  0.00    -0.005 A 
ATOM      6  C5  UNL d   1       3.302   0.635  -3.609  0.00  0.00    -0.074 A 
ATOM      7  C6  UNL d   1       4.120   1.526  -4.497  0.00  0.00     0.077 C 
ATOM      8  C7  UNL d   1       2.478   1.197  -2.625  0.00  0.00    -0.001 A 
ENDROOT
TORSDOF 0
ENDMDL
