MODEL 1
REMARK minimizedAffinity -4.52215719
REMARK minimizedRMSD -1
REMARK  0 active torsions:
REMARK  status: ('A' for Active; 'I' for Inactive)
ROOT
ATOM      1  C   UNL d   1      -0.808  -1.166  -0.267  0.00  0.00     0.078 C 
ATOM      2  C1  UNL d   1      -1.261  -0.448   0.969  0.00  0.00    -0.077 A 
ATOM      3  C2  UNL d   1      -0.585  -0.609   2.185  0.00  0.00    -0.001 A 
ATOM      4  C3  UNL d   1      -1.023   0.058   3.330  0.00  0.00     0.003 A 
ATOM      5  C4  UNL d   1      -2.139   0.890   3.271  0.00  0.00    -0.005 A 
ATOM      6  C5  UNL d   1      -2.820   1.055   2.066  0.00  0.00     0.003 A 
ATOM      7  C6  UNL d   1      -2.383   0.388   0.920  0.00  0.00    -0.001 A 
ENDROOT
TORSDOF 0
ENDMDL
