MODEL 1
REMARK minimizedAffinity -1.0692662
REMARK minimizedRMSD -1
REMARK  0 active torsions:
REMARK  status: ('A' for Active; 'I' for Inactive)
ROOT
ATOM      1  C   UNL d   1      -2.816  -0.686   3.589  0.00  0.00     0.078 C 
ATOM      2  C1  UNL d   1      -2.297  -0.820   2.189  0.00  0.00    -0.077 A 
ATOM      3  C2  UNL d   1      -3.056  -1.450   1.195  0.00  0.00    -0.001 A 
ATOM      4  C3  UNL d   1      -2.556  -1.576  -0.102  0.00  0.00     0.003 A 
ATOM      5  C4  UNL d   1      -1.294  -1.077  -0.417  0.00  0.00    -0.005 A 
ATOM      6  C5  UNL d   1      -0.530  -0.451   0.565  0.00  0.00     0.003 A 
ATOM      7  C6  UNL d   1      -1.028  -0.323   1.863  0.00  0.00    -0.001 A 
ENDROOT
TORSDOF 0
ENDMDL
