MODEL 1
REMARK minimizedAffinity -5.55731344
REMARK minimizedRMSD -1
REMARK  0 active torsions:
REMARK  status: ('A' for Active; 'I' for Inactive)
ROOT
ATOM      1  C   UNL d   1      -4.146   0.212   0.372  0.00  0.00     0.078 C 
ATOM      2  C1  UNL d   1      -2.703  -0.007   0.715  0.00  0.00    -0.077 A 
ATOM      3  C2  UNL d   1      -2.226   0.227   2.011  0.00  0.00    -0.001 A 
ATOM      4  C3  UNL d   1      -0.878   0.028   2.314  0.00  0.00     0.003 A 
ATOM      5  C4  UNL d   1       0.005  -0.404   1.326  0.00  0.00    -0.005 A 
ATOM      6  C5  UNL d   1      -0.460  -0.637   0.033  0.00  0.00     0.003 A 
ATOM      7  C6  UNL d   1      -1.807  -0.438  -0.272  0.00  0.00    -0.001 A 
ENDROOT
TORSDOF 0
ENDMDL
