MODEL 1
REMARK minimizedAffinity -4.9342494
REMARK minimizedRMSD -1
REMARK  0 active torsions:
REMARK  status: ('A' for Active; 'I' for Inactive)
ROOT
ATOM      1  C   UNL d   1      -2.268   0.206   1.970  0.00  0.00     0.078 C 
ATOM      2  C1  UNL d   1      -1.055  -0.475   1.411  0.00  0.00    -0.077 A 
ATOM      3  C2  UNL d   1       0.063  -0.731   2.215  0.00  0.00    -0.001 A 
ATOM      4  C3  UNL d   1       1.190  -1.357   1.679  0.00  0.00     0.003 A 
ATOM      5  C4  UNL d   1       1.210  -1.730   0.336  0.00  0.00    -0.005 A 
ATOM      6  C5  UNL d   1       0.104  -1.477  -0.472  0.00  0.00     0.003 A 
ATOM      7  C6  UNL d   1      -1.024  -0.852   0.062  0.00  0.00    -0.001 A 
ENDROOT
TORSDOF 0
ENDMDL
