MODEL 1
REMARK minimizedAffinity -3.61917448
REMARK minimizedRMSD -1
REMARK  0 active torsions:
REMARK  status: ('A' for Active; 'I' for Inactive)
ROOT
ATOM      1  C   UNL d   1       0.779  -1.073   1.803  0.00  0.00     0.078 C 
ATOM      2  C1  UNL d   1      -0.629  -0.689   1.457  0.00  0.00    -0.077 A 
ATOM      3  C2  UNL d   1      -1.130  -0.875   0.163  0.00  0.00    -0.001 A 
ATOM      4  C3  UNL d   1      -2.439  -0.504  -0.147  0.00  0.00     0.003 A 
ATOM      5  C4  UNL d   1      -3.258   0.057   0.831  0.00  0.00    -0.005 A 
ATOM      6  C5  UNL d   1      -2.767   0.248   2.121  0.00  0.00     0.003 A 
ATOM      7  C6  UNL d   1      -1.458  -0.122   2.433  0.00  0.00    -0.001 A 
ENDROOT
TORSDOF 0
ENDMDL
