MODEL 1
REMARK minimizedAffinity 3.67727661
REMARK minimizedRMSD -1
REMARK  0 active torsions:
REMARK  status: ('A' for Active; 'I' for Inactive)
ROOT
ATOM      1  C   UNL d   1      -3.987  -5.952  -5.914  0.00  0.00     0.172 C 
ATOM      2  N   UNL d   1      -2.981  -4.945  -5.667  0.00  0.00    -0.070 N 
ATOM      3  C1  UNL d   1      -1.769  -5.158  -5.068  0.00  0.00    -0.004 A 
ATOM      4  C2  UNL d   1      -1.104  -3.952  -5.019  0.00  0.00    -0.047 A 
ATOM      5  C3  UNL d   1      -1.947  -2.980  -5.608  0.00  0.00    -0.047 A 
ATOM      6  C4  UNL d   1      -3.103  -3.622  -6.000  0.00  0.00    -0.004 A 
ENDROOT
TORSDOF 0
ENDMDL
