MODEL 1
REMARK minimizedAffinity 2.7195971
REMARK minimizedRMSD -1
REMARK  0 active torsions:
REMARK  status: ('A' for Active; 'I' for Inactive)
ROOT
ATOM      1  C   UNL d   1      -0.688  -1.359   1.623  0.00  0.00     0.172 C 
ATOM      2  N   UNL d   1      -0.264  -2.060   2.811  0.00  0.00    -0.070 N 
ATOM      3  C1  UNL d   1      -1.091  -2.678   3.712  0.00  0.00    -0.004 A 
ATOM      4  C2  UNL d   1      -0.303  -3.229   4.699  0.00  0.00    -0.047 A 
ATOM      5  C3  UNL d   1       1.044  -2.932   4.382  0.00  0.00    -0.047 A 
ATOM      6  C4  UNL d   1       1.039  -2.207   3.208  0.00  0.00    -0.004 A 
ENDROOT
TORSDOF 0
ENDMDL
