MODEL 1
REMARK minimizedAffinity 7.08534288
REMARK minimizedRMSD -1
REMARK  0 active torsions:
REMARK  status: ('A' for Active; 'I' for Inactive)
ROOT
ATOM      1  C   UNL d   1      -2.636  -1.869  -1.066  0.00  0.00     0.172 C 
ATOM      2  N   UNL d   1      -3.953  -1.294  -1.209  0.00  0.00    -0.070 N 
ATOM      3  C1  UNL d   1      -4.861  -1.116  -0.199  0.00  0.00    -0.004 A 
ATOM      4  C2  UNL d   1      -5.989  -0.541  -0.742  0.00  0.00    -0.047 A 
ATOM      5  C3  UNL d   1      -5.752  -0.367  -2.126  0.00  0.00    -0.047 A 
ATOM      6  C4  UNL d   1      -4.484  -0.842  -2.388  0.00  0.00    -0.004 A 
ENDROOT
TORSDOF 0
ENDMDL
