MODEL 1
REMARK minimizedAffinity -1.36326671
REMARK minimizedRMSD -1
REMARK  0 active torsions:
REMARK  status: ('A' for Active; 'I' for Inactive)
ROOT
ATOM      1  C   UNL d   1      -5.096  -5.811  -5.973  0.00  0.00     0.172 C 
ATOM      2  N   UNL d   1      -3.759  -5.269  -5.930  0.00  0.00    -0.070 N 
ATOM      3  C1  UNL d   1      -2.605  -5.998  -5.826  0.00  0.00    -0.004 A 
ATOM      4  C2  UNL d   1      -1.547  -5.115  -5.817  0.00  0.00    -0.047 A 
ATOM      5  C3  UNL d   1      -2.084  -3.810  -5.919  0.00  0.00    -0.047 A 
ATOM      6  C4  UNL d   1      -3.455  -3.934  -5.987  0.00  0.00    -0.004 A 
ENDROOT
TORSDOF 0
ENDMDL
