MODEL 1
REMARK minimizedAffinity -1.1331954
REMARK minimizedRMSD -1
REMARK  0 active torsions:
REMARK  status: ('A' for Active; 'I' for Inactive)
ROOT
ATOM      1  C   UNL d   1      -4.022   4.270  -1.439  0.00  0.00     0.172 C 
ATOM      2  N   UNL d   1      -2.747   3.973  -2.047  0.00  0.00    -0.070 N 
ATOM      3  C1  UNL d   1      -2.427   4.163  -3.365  0.00  0.00    -0.004 A 
ATOM      4  C2  UNL d   1      -1.121   3.760  -3.544  0.00  0.00    -0.047 A 
ATOM      5  C3  UNL d   1      -0.640   3.311  -2.291  0.00  0.00    -0.047 A 
ATOM      6  C4  UNL d   1      -1.667   3.454  -1.382  0.00  0.00    -0.004 A 
ENDROOT
TORSDOF 0
ENDMDL
