MODEL 1
REMARK minimizedAffinity -1.35469329
REMARK minimizedRMSD -1
REMARK  0 active torsions:
REMARK  status: ('A' for Active; 'I' for Inactive)
ROOT
ATOM      1  C   UNL d   1      -0.768  -5.756  -5.931  0.00  0.00     0.172 C 
ATOM      2  N   UNL d   1      -2.114  -5.231  -5.956  0.00  0.00    -0.070 N 
ATOM      3  C1  UNL d   1      -2.453  -3.905  -5.978  0.00  0.00    -0.004 A 
ATOM      4  C2  UNL d   1      -3.828  -3.821  -5.997  0.00  0.00    -0.047 A 
ATOM      5  C3  UNL d   1      -4.333  -5.143  -5.984  0.00  0.00    -0.047 A 
ATOM      6  C4  UNL d   1      -3.250  -5.996  -5.959  0.00  0.00    -0.004 A 
ENDROOT
TORSDOF 0
ENDMDL
