MODEL 1
REMARK minimizedAffinity -1.69310951
REMARK minimizedRMSD -1
REMARK  0 active torsions:
REMARK  status: ('A' for Active; 'I' for Inactive)
ROOT
ATOM      1  C   UNL d   1      -0.729  -5.956  -4.956  0.00  0.00     0.172 C 
ATOM      2  N   UNL d   1      -1.952  -5.317  -5.380  0.00  0.00    -0.070 N 
ATOM      3  C1  UNL d   1      -2.113  -3.976  -5.610  0.00  0.00    -0.004 A 
ATOM      4  C2  UNL d   1      -3.420  -3.769  -5.997  0.00  0.00    -0.047 A 
ATOM      5  C3  UNL d   1      -4.066  -5.028  -5.999  0.00  0.00    -0.047 A 
ATOM      6  C4  UNL d   1      -3.134  -5.968  -5.612  0.00  0.00    -0.004 A 
ENDROOT
TORSDOF 0
ENDMDL
