MODEL 1
REMARK minimizedAffinity 5.79600859
REMARK minimizedRMSD -1
REMARK  0 active torsions:
REMARK  status: ('A' for Active; 'I' for Inactive)
ROOT
ATOM      1  C   UNL d   1       6.000  -2.979   0.393  0.00  0.00     0.172 C 
ATOM      2  N   UNL d   1       5.414  -1.968   1.242  0.00  0.00    -0.070 N 
ATOM      3  C1  UNL d   1       4.199  -1.368   1.046  0.00  0.00    -0.004 A 
ATOM      4  C2  UNL d   1       4.004  -0.465   2.070  0.00  0.00    -0.047 A 
ATOM      5  C3  UNL d   1       5.143  -0.525   2.909  0.00  0.00    -0.047 A 
ATOM      6  C4  UNL d   1       5.999  -1.463   2.372  0.00  0.00    -0.004 A 
ENDROOT
TORSDOF 0
ENDMDL
