MODEL 1
REMARK minimizedAffinity -0.8675403
REMARK minimizedRMSD -1
REMARK  0 active torsions:
REMARK  status: ('A' for Active; 'I' for Inactive)
ROOT
ATOM      1  C   UNL d   1      -1.831  -5.890  -5.667  0.00  0.00     0.172 C 
ATOM      2  N   UNL d   1      -2.477  -4.684  -5.207  0.00  0.00    -0.070 N 
ATOM      3  C1  UNL d   1      -3.118  -3.769  -5.999  0.00  0.00    -0.004 A 
ATOM      4  C2  UNL d   1      -3.599  -2.768  -5.184  0.00  0.00    -0.047 A 
ATOM      5  C3  UNL d   1      -3.233  -3.091  -3.855  0.00  0.00    -0.047 A 
ATOM      6  C4  UNL d   1      -2.539  -4.282  -3.899  0.00  0.00    -0.004 A 
ENDROOT
TORSDOF 0
ENDMDL
