MODEL 1
REMARK minimizedAffinity 0.206687972
REMARK minimizedRMSD -1
REMARK  0 active torsions:
REMARK  status: ('A' for Active; 'I' for Inactive)
ROOT
ATOM      1  C   UNL d   1      -4.888  -5.850  -5.995  0.00  0.00     0.172 C 
ATOM      2  N   UNL d   1      -3.560  -5.313  -5.815  0.00  0.00    -0.070 N 
ATOM      3  C1  UNL d   1      -2.390  -6.000  -6.000  0.00  0.00    -0.004 A 
ATOM      4  C2  UNL d   1      -1.348  -5.139  -5.728  0.00  0.00    -0.047 A 
ATOM      5  C3  UNL d   1      -1.912  -3.893  -5.366  0.00  0.00    -0.047 A 
ATOM      6  C4  UNL d   1      -3.282  -4.029  -5.428  0.00  0.00    -0.004 A 
ENDROOT
TORSDOF 0
ENDMDL
