MODEL 1
REMARK minimizedAffinity 0.38829571
REMARK minimizedRMSD -1
REMARK  0 active torsions:
REMARK  status: ('A' for Active; 'I' for Inactive)
ROOT
ATOM      1  C   UNL d   1       4.130  -0.752   1.240  0.00  0.00     0.172 C 
ATOM      2  N   UNL d   1       2.826  -0.286   0.828  0.00  0.00    -0.070 N 
ATOM      3  C1  UNL d   1       2.355   0.992   0.967  0.00  0.00    -0.004 A 
ATOM      4  C2  UNL d   1       1.077   1.029   0.453  0.00  0.00    -0.047 A 
ATOM      5  C3  UNL d   1       0.769  -0.273  -0.010  0.00  0.00    -0.047 A 
ATOM      6  C4  UNL d   1       1.870  -1.067   0.234  0.00  0.00    -0.004 A 
ENDROOT
TORSDOF 0
ENDMDL
