MODEL 1
REMARK minimizedAffinity 5.76169682
REMARK minimizedRMSD -1
REMARK  0 active torsions:
REMARK  status: ('A' for Active; 'I' for Inactive)
ROOT
ATOM      1  C   UNL d   1       1.739   1.990  -3.859  0.00  0.00     0.172 C 
ATOM      2  N   UNL d   1       0.460   2.655  -3.947  0.00  0.00    -0.070 N 
ATOM      3  C1  UNL d   1      -0.355   2.961  -2.889  0.00  0.00    -0.004 A 
ATOM      4  C2  UNL d   1      -1.476   3.589  -3.388  0.00  0.00    -0.047 A 
ATOM      5  C3  UNL d   1      -1.331   3.660  -4.794  0.00  0.00    -0.047 A 
ATOM      6  C4  UNL d   1      -0.124   3.075  -5.113  0.00  0.00    -0.004 A 
ENDROOT
TORSDOF 0
ENDMDL
