MODEL 1
REMARK minimizedAffinity 7.24866915
REMARK minimizedRMSD -1
REMARK  0 active torsions:
REMARK  status: ('A' for Active; 'I' for Inactive)
ROOT
ATOM      1  C   UNL d   1      -0.070  -5.990  -5.042  0.00  0.00     0.172 C 
ATOM      2  N   UNL d   1      -1.304  -5.349  -5.430  0.00  0.00    -0.070 N 
ATOM      3  C1  UNL d   1      -2.499  -5.982  -5.646  0.00  0.00    -0.004 A 
ATOM      4  C2  UNL d   1      -3.426  -5.025  -5.998  0.00  0.00    -0.047 A 
ATOM      5  C3  UNL d   1      -2.765  -3.774  -5.995  0.00  0.00    -0.047 A 
ATOM      6  C4  UNL d   1      -1.453  -4.004  -5.640  0.00  0.00    -0.004 A 
ENDROOT
TORSDOF 0
ENDMDL
