MODEL 1
REMARK minimizedAffinity -2.32641649
REMARK minimizedRMSD -1
REMARK  0 active torsions:
REMARK  status: ('A' for Active; 'I' for Inactive)
ROOT
ATOM      1  C   UNL d   1      -1.210  -5.618  -5.629  0.00  0.00     0.172 C 
ATOM      2  N   UNL d   1      -2.567  -5.146  -5.776  0.00  0.00    -0.070 N 
ATOM      3  C1  UNL d   1      -2.950  -3.835  -5.871  0.00  0.00    -0.004 A 
ATOM      4  C2  UNL d   1      -4.322  -3.804  -6.000  0.00  0.00    -0.047 A 
ATOM      5  C3  UNL d   1      -4.779  -5.143  -5.980  0.00  0.00    -0.047 A 
ATOM      6  C4  UNL d   1      -3.672  -5.953  -5.841  0.00  0.00    -0.004 A 
ENDROOT
TORSDOF 0
ENDMDL
