MODEL 1
REMARK minimizedAffinity 10.2478828
REMARK minimizedRMSD -1
REMARK  1 active torsions:
REMARK  status: ('A' for Active; 'I' for Inactive)
REMARK    1  A    between atoms: C1_2  and  C2_3 
ROOT
ATOM      1  C2  UNL d   1       1.205  -0.011   3.835  0.00  0.00    -0.076 A 
ATOM      2  C3  UNL d   1       1.107  -0.748   2.642  0.00  0.00     0.004 A 
ATOM      3  C4  UNL d   1       0.186  -0.398   1.656  0.00  0.00    -0.003 A 
ATOM      4  C5  UNL d   1      -0.651   0.696   1.846  0.00  0.00     0.000 A 
ATOM      5  C6  UNL d   1      -0.556   1.449   3.016  0.00  0.00     0.000 A 
ATOM      6  C7  UNL d   1       0.379   1.119   4.013  0.00  0.00    -0.073 A 
ATOM      7  C8  UNL d   1       0.434   1.962   5.258  0.00  0.00     0.078 C 
ENDROOT
BRANCH   1   8
ATOM      8  C1  UNL d   1       2.204  -0.455   4.880  0.00  0.00     0.053 C 
ATOM      9  C   UNL d   1       2.047  -1.922   5.250  0.00  0.00     0.018 C 
ENDBRANCH   1   8
TORSDOF 1
ENDMDL
