MODEL 1
REMARK minimizedAffinity 11.6258898
REMARK minimizedRMSD -1
REMARK  1 active torsions:
REMARK  status: ('A' for Active; 'I' for Inactive)
REMARK    1  A    between atoms: C1_2  and  C2_3 
ROOT
ATOM      1  C2  UNL d   1       2.595  -1.242  -5.963  0.00  0.00    -0.076 A 
ATOM      2  C3  UNL d   1       2.640   0.162  -5.997  0.00  0.00     0.004 A 
ATOM      3  C4  UNL d   1       3.855   0.843  -5.941  0.00  0.00    -0.003 A 
ATOM      4  C5  UNL d   1       5.045   0.129  -5.850  0.00  0.00     0.000 A 
ATOM      5  C6  UNL d   1       5.020  -1.265  -5.833  0.00  0.00     0.000 A 
ATOM      6  C7  UNL d   1       3.805  -1.967  -5.906  0.00  0.00    -0.073 A 
ATOM      7  C8  UNL d   1       3.836  -3.470  -5.878  0.00  0.00     0.078 C 
ENDROOT
BRANCH   1   8
ATOM      8  C1  UNL d   1       1.246  -1.925  -6.000  0.00  0.00     0.053 C 
ATOM      9  C   UNL d   1       0.093  -0.944  -5.853  0.00  0.00     0.018 C 
ENDBRANCH   1   8
TORSDOF 1
ENDMDL
