MODEL 1
REMARK minimizedAffinity 20.2137909
REMARK minimizedRMSD -1
REMARK  1 active torsions:
REMARK  status: ('A' for Active; 'I' for Inactive)
REMARK    1  A    between atoms: C1_2  and  C2_3 
ROOT
ATOM      1  C2  UNL d   1      -0.321  -1.142  -3.842  0.00  0.00    -0.076 A 
ATOM      2  C3  UNL d   1       0.588  -0.093  -3.620  0.00  0.00     0.004 A 
ATOM      3  C4  UNL d   1       1.558   0.229  -4.567  0.00  0.00    -0.003 A 
ATOM      4  C5  UNL d   1       1.634  -0.492  -5.754  0.00  0.00     0.000 A 
ATOM      5  C6  UNL d   1       0.729  -1.524  -5.999  0.00  0.00     0.000 A 
ATOM      6  C7  UNL d   1      -0.265  -1.851  -5.061  0.00  0.00    -0.073 A 
ATOM      7  C8  UNL d   1      -1.211  -2.977  -5.375  0.00  0.00     0.078 C 
ENDROOT
BRANCH   1   8
ATOM      8  C1  UNL d   1      -1.334  -1.463  -2.767  0.00  0.00     0.053 C 
ATOM      9  C   UNL d   1      -0.779  -2.401  -1.705  0.00  0.00     0.018 C 
ENDBRANCH   1   8
TORSDOF 1
ENDMDL
