MODEL 1
REMARK minimizedAffinity 2.38519502
REMARK minimizedRMSD -1
REMARK  1 active torsions:
REMARK  status: ('A' for Active; 'I' for Inactive)
REMARK    1  A    between atoms: C1_2  and  C2_3 
ROOT
ATOM      1  C2  UNL d   1       1.703   0.552   3.297  0.00  0.00    -0.076 A 
ATOM      2  C3  UNL d   1       0.716   1.371   2.721  0.00  0.00     0.004 A 
ATOM      3  C4  UNL d   1      -0.584   0.905   2.537  0.00  0.00    -0.003 A 
ATOM      4  C5  UNL d   1      -0.919  -0.387   2.926  0.00  0.00     0.000 A 
ATOM      5  C6  UNL d   1       0.043  -1.207   3.515  0.00  0.00     0.000 A 
ATOM      6  C7  UNL d   1       1.354  -0.747   3.723  0.00  0.00    -0.073 A 
ATOM      7  C8  UNL d   1       2.353  -1.676   4.356  0.00  0.00     0.078 C 
ENDROOT
BRANCH   1   8
ATOM      8  C1  UNL d   1       3.104   1.103   3.447  0.00  0.00     0.053 C 
ATOM      9  C   UNL d   1       3.308   2.395   2.672  0.00  0.00     0.018 C 
ENDBRANCH   1   8
TORSDOF 1
ENDMDL
