MODEL 1
REMARK minimizedAffinity 10.6986599
REMARK minimizedRMSD -1
REMARK  1 active torsions:
REMARK  status: ('A' for Active; 'I' for Inactive)
REMARK    1  A    between atoms: C1_2  and  C2_3 
ROOT
ATOM      1  C2  UNL d   1       3.183  -0.516  -5.337  0.00  0.00    -0.076 A 
ATOM      2  C3  UNL d   1       2.081   0.286  -5.679  0.00  0.00     0.004 A 
ATOM      3  C4  UNL d   1       0.807  -0.264  -5.811  0.00  0.00    -0.003 A 
ATOM      4  C5  UNL d   1       0.615  -1.626  -5.604  0.00  0.00     0.000 A 
ATOM      5  C6  UNL d   1       1.694  -2.434  -5.247  0.00  0.00     0.000 A 
ATOM      6  C7  UNL d   1       2.982  -1.892  -5.094  0.00  0.00    -0.073 A 
ATOM      7  C8  UNL d   1       4.111  -2.810  -4.714  0.00  0.00     0.078 C 
ENDROOT
BRANCH   1   8
ATOM      8  C1  UNL d   1       4.546   0.131  -5.234  0.00  0.00     0.053 C 
ATOM      9  C   UNL d   1       4.621   1.452  -5.984  0.00  0.00     0.018 C 
ENDBRANCH   1   8
TORSDOF 1
ENDMDL
