MODEL 1
REMARK minimizedAffinity 10.8858385
REMARK minimizedRMSD -1
REMARK  1 active torsions:
REMARK  status: ('A' for Active; 'I' for Inactive)
REMARK    1  A    between atoms: C1_2  and  C2_3 
ROOT
ATOM      1  C2  UNL d   1      -0.510  -1.448  -3.999  0.00  0.00    -0.076 A 
ATOM      2  C3  UNL d   1       0.409  -0.391  -3.875  0.00  0.00     0.004 A 
ATOM      3  C4  UNL d   1       1.446  -0.231  -4.792  0.00  0.00    -0.003 A 
ATOM      4  C5  UNL d   1       1.580  -1.124  -5.850  0.00  0.00     0.000 A 
ATOM      5  C6  UNL d   1       0.666  -2.167  -5.999  0.00  0.00     0.000 A 
ATOM      6  C7  UNL d   1      -0.394  -2.333  -5.092  0.00  0.00    -0.073 A 
ATOM      7  C8  UNL d   1      -1.347  -3.479  -5.297  0.00  0.00     0.078 C 
ENDROOT
BRANCH   1   8
ATOM      8  C1  UNL d   1      -1.598  -1.587  -2.958  0.00  0.00     0.053 C 
ATOM      9  C   UNL d   1      -1.134  -2.354  -1.730  0.00  0.00     0.018 C 
ENDBRANCH   1   8
TORSDOF 1
ENDMDL
