MODEL 1
REMARK minimizedAffinity 9.51511765
REMARK minimizedRMSD -1
REMARK  1 active torsions:
REMARK  status: ('A' for Active; 'I' for Inactive)
REMARK    1  A    between atoms: C1_2  and  C2_3 
ROOT
ATOM      1  C2  UNL d   1       4.293   3.655   2.648  0.00  0.00    -0.076 A 
ATOM      2  C3  UNL d   1       4.320   4.879   1.957  0.00  0.00     0.004 A 
ATOM      3  C4  UNL d   1       5.165   5.912   2.359  0.00  0.00    -0.003 A 
ATOM      4  C5  UNL d   1       5.996   5.738   3.460  0.00  0.00     0.000 A 
ATOM      5  C6  UNL d   1       5.995   4.524   4.148  0.00  0.00     0.000 A 
ATOM      6  C7  UNL d   1       5.161   3.467   3.745  0.00  0.00    -0.073 A 
ATOM      7  C8  UNL d   1       5.196   2.182   4.526  0.00  0.00     0.078 C 
ENDROOT
BRANCH   1   8
ATOM      8  C1  UNL d   1       3.336   2.581   2.182  0.00  0.00     0.053 C 
ATOM      9  C   UNL d   1       2.989   2.711   0.706  0.00  0.00     0.018 C 
ENDBRANCH   1   8
TORSDOF 1
ENDMDL
