MODEL 1
REMARK minimizedAffinity 11.2082758
REMARK minimizedRMSD -1
REMARK  1 active torsions:
REMARK  status: ('A' for Active; 'I' for Inactive)
REMARK    1  A    between atoms: C1_2  and  C2_3 
ROOT
ATOM      1  C2  UNL d   1       2.575  -0.775  -5.357  0.00  0.00    -0.076 A 
ATOM      2  C3  UNL d   1       1.427   0.036  -5.326  0.00  0.00     0.004 A 
ATOM      3  C4  UNL d   1       0.171  -0.486  -5.632  0.00  0.00    -0.003 A 
ATOM      4  C5  UNL d   1       0.043  -1.828  -5.973  0.00  0.00     0.000 A 
ATOM      5  C6  UNL d   1       1.169  -2.651  -5.991  0.00  0.00     0.000 A 
ATOM      6  C7  UNL d   1       2.440  -2.144  -5.670  0.00  0.00    -0.073 A 
ATOM      7  C8  UNL d   1       3.620  -3.075  -5.712  0.00  0.00     0.078 C 
ENDROOT
BRANCH   1   8
ATOM      8  C1  UNL d   1       3.914  -0.147  -5.043  0.00  0.00     0.053 C 
ATOM      9  C   UNL d   1       4.266   0.983  -5.998  0.00  0.00     0.018 C 
ENDBRANCH   1   8
TORSDOF 1
ENDMDL
