MODEL 1
REMARK minimizedAffinity 17.8076878
REMARK minimizedRMSD -1
REMARK  0 active torsions:
REMARK  status: ('A' for Active; 'I' for Inactive)
ROOT
ATOM      1  C   UNL d   1      -2.971  -1.693   0.380  0.00  0.00    -0.002 A 
ATOM      2  C1  UNL d   1      -2.943  -0.349   0.723  0.00  0.00     0.010 A 
ATOM      3  C2  UNL d   1      -1.816   0.204   1.334  0.00  0.00     0.041 A 
ATOM      4  C3  UNL d   1      -0.707  -0.624   1.596  0.00  0.00    -0.075 A 
ATOM      5  S   UNL d   1       0.782  -0.165   2.335  0.00  0.00     0.015 SA
ATOM      6  C4  UNL d   1       1.415  -1.743   2.212  0.00  0.00     0.022 A 
ATOM      7  C5  UNL d   1       0.526  -2.611   1.625  0.00  0.00     0.026 A 
ATOM      8  C6  UNL d   1      -0.712  -1.981   1.259  0.00  0.00    -0.082 A 
ATOM      9  C7  UNL d   1      -1.869  -2.512   0.641  0.00  0.00     0.045 A 
ENDROOT
TORSDOF 0
ENDMDL
