MODEL 1
REMARK minimizedAffinity 17.3583241
REMARK minimizedRMSD -1
REMARK  0 active torsions:
REMARK  status: ('A' for Active; 'I' for Inactive)
ROOT
ATOM      1  C   UNL d   1      -3.770  -5.996  -5.116  0.00  0.00    -0.002 A 
ATOM      2  C1  UNL d   1      -4.831  -5.753  -5.978  0.00  0.00     0.010 A 
ATOM      3  C2  UNL d   1      -5.574  -4.576  -5.875  0.00  0.00     0.041 A 
ATOM      4  C3  UNL d   1      -5.230  -3.637  -4.882  0.00  0.00    -0.075 A 
ATOM      5  S   UNL d   1      -5.998  -2.126  -4.569  0.00  0.00     0.015 SA
ATOM      6  C4  UNL d   1      -4.937  -1.767  -3.285  0.00  0.00     0.022 A 
ATOM      7  C5  UNL d   1      -4.013  -2.765  -3.086  0.00  0.00     0.026 A 
ATOM      8  C6  UNL d   1      -4.166  -3.859  -4.003  0.00  0.00    -0.082 A 
ATOM      9  C7  UNL d   1      -3.432  -5.063  -4.133  0.00  0.00     0.045 A 
ENDROOT
TORSDOF 0
ENDMDL
