MODEL 1
REMARK minimizedAffinity 6.66108942
REMARK minimizedRMSD -1
REMARK  0 active torsions:
REMARK  status: ('A' for Active; 'I' for Inactive)
ROOT
ATOM      1  C   UNL d   1      -3.036  -0.234   0.413  0.00  0.00    -0.002 A 
ATOM      2  C1  UNL d   1      -2.582   0.729   1.302  0.00  0.00     0.010 A 
ATOM      3  C2  UNL d   1      -1.311   0.628   1.871  0.00  0.00     0.041 A 
ATOM      4  C3  UNL d   1      -0.495  -0.467   1.526  0.00  0.00    -0.075 A 
ATOM      5  S   UNL d   1       1.098  -0.797   2.097  0.00  0.00     0.015 SA
ATOM      6  C4  UNL d   1       1.214  -2.225   1.173  0.00  0.00     0.022 A 
ATOM      7  C5  UNL d   1       0.074  -2.459   0.441  0.00  0.00     0.026 A 
ATOM      8  C6  UNL d   1      -0.930  -1.449   0.632  0.00  0.00    -0.082 A 
ATOM      9  C7  UNL d   1      -2.224  -1.319   0.073  0.00  0.00     0.045 A 
ENDROOT
TORSDOF 0
ENDMDL
