MODEL 1
REMARK minimizedAffinity 18.0225639
REMARK minimizedRMSD -1
REMARK  0 active torsions:
REMARK  status: ('A' for Active; 'I' for Inactive)
ROOT
ATOM      1  C   UNL d   1      -5.361   0.903  -3.175  0.00  0.00    -0.002 A 
ATOM      2  C1  UNL d   1      -4.247   0.428  -2.496  0.00  0.00     0.010 A 
ATOM      3  C2  UNL d   1      -3.750  -0.851  -2.755  0.00  0.00     0.041 A 
ATOM      4  C3  UNL d   1      -4.395  -1.651  -3.719  0.00  0.00    -0.075 A 
ATOM      5  S   UNL d   1      -3.963  -3.248  -4.202  0.00  0.00     0.015 SA
ATOM      6  C4  UNL d   1      -5.244  -3.337  -5.322  0.00  0.00     0.022 A 
ATOM      7  C5  UNL d   1      -5.995  -2.185  -5.339  0.00  0.00     0.026 A 
ATOM      8  C6  UNL d   1      -5.517  -1.194  -4.416  0.00  0.00    -0.082 A 
ATOM      9  C7  UNL d   1      -5.998   0.107  -4.130  0.00  0.00     0.045 A 
ENDROOT
TORSDOF 0
ENDMDL
