MODEL 1
REMARK minimizedAffinity 12.1829453
REMARK minimizedRMSD -1
REMARK  0 active torsions:
REMARK  status: ('A' for Active; 'I' for Inactive)
ROOT
ATOM      1  C   UNL d   1      -2.012  -0.461   1.158  0.00  0.00    -0.002 A 
ATOM      2  C1  UNL d   1      -2.239  -1.501   0.268  0.00  0.00     0.010 A 
ATOM      3  C2  UNL d   1      -1.172  -2.128  -0.378  0.00  0.00     0.041 A 
ATOM      4  C3  UNL d   1       0.140  -1.690  -0.110  0.00  0.00    -0.075 A 
ATOM      5  S   UNL d   1       1.601  -2.309  -0.784  0.00  0.00     0.015 SA
ATOM      6  C4  UNL d   1       2.560  -1.209   0.095  0.00  0.00     0.022 A 
ATOM      7  C5  UNL d   1       1.801  -0.381   0.888  0.00  0.00     0.026 A 
ATOM      8  C6  UNL d   1       0.393  -0.645   0.783  0.00  0.00    -0.082 A 
ATOM      9  C7  UNL d   1      -0.710  -0.029   1.421  0.00  0.00     0.045 A 
ENDROOT
TORSDOF 0
ENDMDL
