MODEL 1
REMARK minimizedAffinity 0.914151192
REMARK minimizedRMSD -1
REMARK  0 active torsions:
REMARK  status: ('A' for Active; 'I' for Inactive)
ROOT
ATOM      1  C   UNL d   1       3.819   1.156  -0.428  0.00  0.00    -0.002 A 
ATOM      2  C1  UNL d   1       3.904  -0.149   0.036  0.00  0.00     0.010 A 
ATOM      3  C2  UNL d   1       2.765  -0.818   0.490  0.00  0.00     0.041 A 
ATOM      4  C3  UNL d   1       1.527  -0.147   0.467  0.00  0.00    -0.075 A 
ATOM      5  S   UNL d   1      -0.001  -0.766   0.972  0.00  0.00     0.015 SA
ATOM      6  C4  UNL d   1      -0.803   0.686   0.583  0.00  0.00     0.022 A 
ATOM      7  C5  UNL d   1       0.058   1.632   0.079  0.00  0.00     0.026 A 
ATOM      8  C6  UNL d   1       1.415   1.167   0.004  0.00  0.00    -0.082 A 
ATOM      9  C7  UNL d   1       2.588   1.818  -0.449  0.00  0.00     0.045 A 
ENDROOT
TORSDOF 0
ENDMDL
