MODEL 1
REMARK minimizedAffinity 17.2163925
REMARK minimizedRMSD -1
REMARK  0 active torsions:
REMARK  status: ('A' for Active; 'I' for Inactive)
ROOT
ATOM      1  C   UNL d   1      -3.109  -0.218  -0.182  0.00  0.00    -0.002 A 
ATOM      2  C1  UNL d   1      -2.767   0.746   0.757  0.00  0.00     0.010 A 
ATOM      3  C2  UNL d   1      -1.607   0.611   1.522  0.00  0.00     0.041 A 
ATOM      4  C3  UNL d   1      -0.788  -0.519   1.326  0.00  0.00    -0.075 A 
ATOM      5  S   UNL d   1       0.681  -0.894   2.148  0.00  0.00     0.015 SA
ATOM      6  C4  UNL d   1       0.888  -2.341   1.272  0.00  0.00     0.022 A 
ATOM      7  C5  UNL d   1      -0.128  -2.549   0.370  0.00  0.00     0.026 A 
ATOM      8  C6  UNL d   1      -1.111  -1.502   0.386  0.00  0.00    -0.082 A 
ATOM      9  C7  UNL d   1      -2.294  -1.336  -0.374  0.00  0.00     0.045 A 
ENDROOT
TORSDOF 0
ENDMDL
