MODEL 1
REMARK minimizedAffinity 9.0553093
REMARK minimizedRMSD -1
REMARK  0 active torsions:
REMARK  status: ('A' for Active; 'I' for Inactive)
ROOT
ATOM      1  C   UNL d   1      -4.950   0.540   3.829  0.00  0.00    -0.002 A 
ATOM      2  C1  UNL d   1      -5.670   0.412   2.649  0.00  0.00     0.010 A 
ATOM      3  C2  UNL d   1      -5.016   0.152   1.443  0.00  0.00     0.041 A 
ATOM      4  C3  UNL d   1      -3.613   0.020   1.443  0.00  0.00    -0.075 A 
ATOM      5  S   UNL d   1      -2.600  -0.300   0.086  0.00  0.00     0.015 SA
ATOM      6  C4  UNL d   1      -1.188  -0.275   1.040  0.00  0.00     0.022 A 
ATOM      7  C5  UNL d   1      -1.464  -0.030   2.364  0.00  0.00     0.026 A 
ATOM      8  C6  UNL d   1      -2.867   0.143   2.618  0.00  0.00    -0.082 A 
ATOM      9  C7  UNL d   1      -3.559   0.408   3.825  0.00  0.00     0.045 A 
ENDROOT
TORSDOF 0
ENDMDL
