MODEL 1
REMARK minimizedAffinity 3.8429575
REMARK minimizedRMSD -1
REMARK  0 active torsions:
REMARK  status: ('A' for Active; 'I' for Inactive)
ROOT
ATOM      1  C   UNL d   1      -4.783  -2.574  -5.952  0.00  0.00    -0.002 A 
ATOM      2  C1  UNL d   1      -5.581  -3.226  -5.023  0.00  0.00     0.010 A 
ATOM      3  C2  UNL d   1      -6.000  -2.572  -3.863  0.00  0.00     0.041 A 
ATOM      4  C3  UNL d   1      -5.601  -1.237  -3.651  0.00  0.00    -0.075 A 
ATOM      5  S   UNL d   1      -5.994  -0.236  -2.303  0.00  0.00     0.015 SA
ATOM      6  C4  UNL d   1      -5.113   1.081  -2.930  0.00  0.00     0.022 A 
ATOM      7  C5  UNL d   1      -4.527   0.782  -4.137  0.00  0.00     0.026 A 
ATOM      8  C6  UNL d   1      -4.799  -0.559  -4.573  0.00  0.00    -0.082 A 
ATOM      9  C7  UNL d   1      -4.390  -1.250  -5.739  0.00  0.00     0.045 A 
ENDROOT
TORSDOF 0
ENDMDL
