MODEL 1
REMARK minimizedAffinity 6.92542982
REMARK minimizedRMSD -1
REMARK  0 active torsions:
REMARK  status: ('A' for Active; 'I' for Inactive)
ROOT
ATOM      1  C   UNL d   1      -2.276   0.108   0.491  0.00  0.00    -0.002 A 
ATOM      2  C1  UNL d   1      -2.625   0.695   1.699  0.00  0.00     0.010 A 
ATOM      3  C2  UNL d   1      -1.948   0.359   2.873  0.00  0.00     0.041 A 
ATOM      4  C3  UNL d   1      -0.903  -0.584   2.812  0.00  0.00    -0.075 A 
ATOM      5  S   UNL d   1       0.066  -1.148   4.121  0.00  0.00     0.015 SA
ATOM      6  C4  UNL d   1       0.967  -2.181   3.107  0.00  0.00     0.022 A 
ATOM      7  C5  UNL d   1       0.551  -2.110   1.799  0.00  0.00     0.026 A 
ATOM      8  C6  UNL d   1      -0.533  -1.188   1.607  0.00  0.00    -0.082 A 
ATOM      9  C7  UNL d   1      -1.240  -0.827   0.434  0.00  0.00     0.045 A 
ENDROOT
TORSDOF 0
ENDMDL
