MODEL 1
REMARK minimizedAffinity 13.7881298
REMARK minimizedRMSD -1
REMARK  0 active torsions:
REMARK  status: ('A' for Active; 'I' for Inactive)
ROOT
ATOM      1  C   UNL d   1      -2.966   0.145   1.113  0.00  0.00    -0.002 A 
ATOM      2  C1  UNL d   1      -2.975  -1.172   0.676  0.00  0.00     0.010 A 
ATOM      3  C2  UNL d   1      -1.782  -1.883   0.537  0.00  0.00     0.041 A 
ATOM      4  C3  UNL d   1      -0.566  -1.242   0.849  0.00  0.00    -0.075 A 
ATOM      5  S   UNL d   1       1.018  -1.915   0.755  0.00  0.00     0.015 SA
ATOM      6  C4  UNL d   1       1.745  -0.471   1.294  0.00  0.00     0.022 A 
ATOM      7  C5  UNL d   1       0.816   0.511   1.544  0.00  0.00     0.026 A 
ATOM      8  C6  UNL d   1      -0.531   0.083   1.292  0.00  0.00    -0.082 A 
ATOM      9  C7  UNL d   1      -1.758   0.777   1.422  0.00  0.00     0.045 A 
ENDROOT
TORSDOF 0
ENDMDL
