MODEL 1
REMARK minimizedAffinity 6.23946667
REMARK minimizedRMSD -1
REMARK  0 active torsions:
REMARK  status: ('A' for Active; 'I' for Inactive)
ROOT
ATOM      1  C   UNL d   1      -0.298   1.738   0.037  0.00  0.00    -0.002 A 
ATOM      2  C1  UNL d   1      -1.385   1.135   0.655  0.00  0.00     0.010 A 
ATOM      3  C2  UNL d   1      -1.313  -0.193   1.081  0.00  0.00     0.041 A 
ATOM      4  C3  UNL d   1      -0.118  -0.911   0.876  0.00  0.00    -0.075 A 
ATOM      5  S   UNL d   1       0.200  -2.547   1.316  0.00  0.00     0.015 SA
ATOM      6  C4  UNL d   1       1.786  -2.484   0.694  0.00  0.00     0.022 A 
ATOM      7  C5  UNL d   1       2.082  -1.252   0.160  0.00  0.00     0.026 A 
ATOM      8  C6  UNL d   1       0.990  -0.325   0.257  0.00  0.00    -0.082 A 
ATOM      9  C7  UNL d   1       0.885   1.022  -0.165  0.00  0.00     0.045 A 
ENDROOT
TORSDOF 0
ENDMDL
