MODEL 1
REMARK minimizedAffinity -1.3582474
REMARK minimizedRMSD -1
REMARK  0 active torsions:
REMARK  status: ('A' for Active; 'I' for Inactive)
ROOT
ATOM      1  C   UNL d   1       3.024  -6.000  -0.161  0.00  0.00     0.077 C 
ATOM      2  C1  UNL d   1       3.255  -5.280  -1.456  0.00  0.00    -0.074 A 
ATOM      3  C2  UNL d   1       3.737  -3.967  -1.473  0.00  0.00    -0.005 A 
ATOM      4  C3  UNL d   1       3.957  -3.314  -2.686  0.00  0.00     0.006 A 
ATOM      5  C4  UNL d   1       3.696  -3.966  -3.892  0.00  0.00    -0.005 A 
ATOM      6  C5  UNL d   1       3.214  -5.278  -3.895  0.00  0.00    -0.074 A 
ATOM      7  C6  UNL d   1       2.938  -5.997  -5.182  0.00  0.00     0.077 C 
ATOM      8  C7  UNL d   1       3.003  -5.930  -2.672  0.00  0.00    -0.001 A 
ENDROOT
TORSDOF 0
ENDMDL
