MODEL 1
REMARK minimizedAffinity -1.92262542
REMARK minimizedRMSD -1
REMARK  0 active torsions:
REMARK  status: ('A' for Active; 'I' for Inactive)
ROOT
ATOM      1  C   UNL d   1       4.216  -6.000  -1.176  0.00  0.00     0.077 C 
ATOM      2  C1  UNL d   1       4.807  -5.251  -2.333  0.00  0.00    -0.074 A 
ATOM      3  C2  UNL d   1       5.072  -3.881  -2.243  0.00  0.00    -0.005 A 
ATOM      4  C3  UNL d   1       5.631  -3.200  -3.324  0.00  0.00     0.006 A 
ATOM      5  C4  UNL d   1       5.931  -3.881  -4.504  0.00  0.00    -0.005 A 
ATOM      6  C5  UNL d   1       5.674  -5.251  -4.613  0.00  0.00    -0.074 A 
ATOM      7  C6  UNL d   1       6.000  -6.000  -5.871  0.00  0.00     0.077 C 
ATOM      8  C7  UNL d   1       5.119  -5.930  -3.520  0.00  0.00    -0.001 A 
ENDROOT
TORSDOF 0
ENDMDL
