MODEL 1
REMARK minimizedAffinity 1.24927294
REMARK minimizedRMSD -1
REMARK  0 active torsions:
REMARK  status: ('A' for Active; 'I' for Inactive)
ROOT
ATOM      1  C   UNL d   1       4.137  -5.999  -1.805  0.00  0.00     0.077 C 
ATOM      2  C1  UNL d   1       3.823  -5.853  -3.264  0.00  0.00    -0.074 A 
ATOM      3  C2  UNL d   1       4.837  -5.605  -4.196  0.00  0.00    -0.005 A 
ATOM      4  C3  UNL d   1       4.531  -5.481  -5.551  0.00  0.00     0.006 A 
ATOM      5  C4  UNL d   1       3.212  -5.604  -5.988  0.00  0.00    -0.005 A 
ATOM      6  C5  UNL d   1       2.185  -5.854  -5.071  0.00  0.00    -0.074 A 
ATOM      7  C6  UNL d   1       0.763  -5.999  -5.525  0.00  0.00     0.077 C 
ATOM      8  C7  UNL d   1       2.501  -5.983  -3.712  0.00  0.00    -0.001 A 
ENDROOT
TORSDOF 0
ENDMDL
