MODEL 1
REMARK minimizedAffinity -0.0291927811
REMARK minimizedRMSD -1
REMARK  0 active torsions:
REMARK  status: ('A' for Active; 'I' for Inactive)
ROOT
ATOM      1  C   UNL d   1       3.572  -5.990  -1.577  0.00  0.00     0.077 C 
ATOM      2  C1  UNL d   1       3.617  -5.985  -3.076  0.00  0.00    -0.074 A 
ATOM      3  C2  UNL d   1       4.837  -5.995  -3.759  0.00  0.00    -0.005 A 
ATOM      4  C3  UNL d   1       4.863  -6.000  -5.154  0.00  0.00     0.006 A 
ATOM      5  C4  UNL d   1       3.671  -5.996  -5.879  0.00  0.00    -0.005 A 
ATOM      6  C5  UNL d   1       2.441  -5.987  -5.213  0.00  0.00    -0.074 A 
ATOM      7  C6  UNL d   1       1.150  -5.993  -5.977  0.00  0.00     0.077 C 
ATOM      8  C7  UNL d   1       2.423  -5.989  -3.812  0.00  0.00    -0.001 A 
ENDROOT
TORSDOF 0
ENDMDL
