MODEL 1
REMARK minimizedAffinity 7.98127937
REMARK minimizedRMSD -1
REMARK  0 active torsions:
REMARK  status: ('A' for Active; 'I' for Inactive)
ROOT
ATOM      1  C   UNL d   1      -3.888   5.810   4.182  0.00  0.00     0.077 C 
ATOM      2  C1  UNL d   1      -3.745   4.914   2.989  0.00  0.00    -0.074 A 
ATOM      3  C2  UNL d   1      -2.494   4.414   2.611  0.00  0.00    -0.005 A 
ATOM      4  C3  UNL d   1      -2.378   3.573   1.504  0.00  0.00     0.006 A 
ATOM      5  C4  UNL d   1      -3.509   3.224   0.765  0.00  0.00    -0.005 A 
ATOM      6  C5  UNL d   1      -4.768   3.713   1.128  0.00  0.00    -0.074 A 
ATOM      7  C6  UNL d   1      -5.995   3.340   0.351  0.00  0.00     0.077 C 
ATOM      8  C7  UNL d   1      -4.878   4.552   2.246  0.00  0.00    -0.001 A 
ENDROOT
TORSDOF 0
ENDMDL
