MODEL 1
REMARK minimizedAffinity -1.63708949
REMARK minimizedRMSD -1
REMARK  0 active torsions:
REMARK  status: ('A' for Active; 'I' for Inactive)
ROOT
ATOM      1  C   UNL d   1       3.011  -5.986  -1.613  0.00  0.00     0.077 C 
ATOM      2  C1  UNL d   1       3.021  -5.997  -3.113  0.00  0.00    -0.074 A 
ATOM      3  C2  UNL d   1       1.826  -5.998  -3.839  0.00  0.00    -0.005 A 
ATOM      4  C3  UNL d   1       1.851  -6.000  -5.234  0.00  0.00     0.006 A 
ATOM      5  C4  UNL d   1       3.069  -6.000  -5.915  0.00  0.00    -0.005 A 
ATOM      6  C5  UNL d   1       4.274  -5.998  -5.205  0.00  0.00    -0.074 A 
ATOM      7  C6  UNL d   1       5.591  -5.988  -5.921  0.00  0.00     0.077 C 
ATOM      8  C7  UNL d   1       4.240  -5.990  -3.804  0.00  0.00    -0.001 A 
ENDROOT
TORSDOF 0
ENDMDL
