MODEL 1
REMARK minimizedAffinity -0.646019995
REMARK minimizedRMSD -1
REMARK  0 active torsions:
REMARK  status: ('A' for Active; 'I' for Inactive)
ROOT
ATOM      1  C   UNL d   1       3.694  -1.347  -2.617  0.00  0.00     0.077 C 
ATOM      2  C1  UNL d   1       4.050  -0.493  -3.796  0.00  0.00    -0.074 A 
ATOM      3  C2  UNL d   1       4.783  -1.014  -4.867  0.00  0.00    -0.005 A 
ATOM      4  C3  UNL d   1       5.098  -0.210  -5.962  0.00  0.00     0.006 A 
ATOM      5  C4  UNL d   1       4.685   1.123  -5.997  0.00  0.00    -0.005 A 
ATOM      6  C5  UNL d   1       3.950   1.661  -4.936  0.00  0.00    -0.074 A 
ATOM      7  C6  UNL d   1       3.489   3.088  -4.963  0.00  0.00     0.077 C 
ATOM      8  C7  UNL d   1       3.631   0.845  -3.843  0.00  0.00    -0.001 A 
ENDROOT
TORSDOF 0
ENDMDL
