MODEL 1
REMARK minimizedAffinity 2.75054789
REMARK minimizedRMSD -1
REMARK  0 active torsions:
REMARK  status: ('A' for Active; 'I' for Inactive)
ROOT
ATOM      1  C   UNL d   1       4.894  -5.958  -1.545  0.00  0.00     0.077 C 
ATOM      2  C1  UNL d   1       4.562  -5.958  -3.007  0.00  0.00    -0.074 A 
ATOM      3  C2  UNL d   1       5.572  -5.964  -3.974  0.00  0.00    -0.005 A 
ATOM      4  C3  UNL d   1       5.248  -5.974  -5.331  0.00  0.00     0.006 A 
ATOM      5  C4  UNL d   1       3.912  -5.977  -5.734  0.00  0.00    -0.005 A 
ATOM      6  C5  UNL d   1       2.888  -5.972  -4.782  0.00  0.00    -0.074 A 
ATOM      7  C6  UNL d   1       1.447  -5.985  -5.198  0.00  0.00     0.077 C 
ATOM      8  C7  UNL d   1       3.222  -5.969  -3.420  0.00  0.00    -0.001 A 
ENDROOT
TORSDOF 0
ENDMDL
