MODEL 1
REMARK minimizedAffinity 11.8123636
REMARK minimizedRMSD -1
REMARK  0 active torsions:
REMARK  status: ('A' for Active; 'I' for Inactive)
ROOT
ATOM      1  C   UNL d   1      -6.000   5.897  -0.788  0.00  0.00     0.077 C 
ATOM      2  C1  UNL d   1      -5.984   4.500  -0.241  0.00  0.00    -0.074 A 
ATOM      3  C2  UNL d   1      -5.973   4.268   1.138  0.00  0.00    -0.005 A 
ATOM      4  C3  UNL d   1      -5.967   2.963   1.631  0.00  0.00     0.006 A 
ATOM      5  C4  UNL d   1      -5.973   1.880   0.753  0.00  0.00    -0.005 A 
ATOM      6  C5  UNL d   1      -5.984   2.092  -0.630  0.00  0.00    -0.074 A 
ATOM      7  C6  UNL d   1      -6.000   0.938  -1.588  0.00  0.00     0.077 C 
ATOM      8  C7  UNL d   1      -5.997   3.406  -1.118  0.00  0.00    -0.001 A 
ENDROOT
TORSDOF 0
ENDMDL
