MODEL 1
REMARK minimizedAffinity 1.8438158
REMARK minimizedRMSD -1
REMARK  0 active torsions:
REMARK  status: ('A' for Active; 'I' for Inactive)
ROOT
ATOM      1  C   UNL d   1       1.494  -0.632   2.997  0.00  0.00     0.077 C 
ATOM      2  C1  UNL d   1       1.706  -2.070   3.368  0.00  0.00    -0.074 A 
ATOM      3  C2  UNL d   1       2.595  -2.874   2.648  0.00  0.00    -0.005 A 
ATOM      4  C3  UNL d   1       2.789  -4.207   3.011  0.00  0.00     0.006 A 
ATOM      5  C4  UNL d   1       2.097  -4.748   4.095  0.00  0.00    -0.005 A 
ATOM      6  C5  UNL d   1       1.204  -3.959   4.826  0.00  0.00    -0.074 A 
ATOM      7  C6  UNL d   1       0.459  -4.522   6.000  0.00  0.00     0.077 C 
ATOM      8  C7  UNL d   1       1.019  -2.619   4.460  0.00  0.00    -0.001 A 
ENDROOT
TORSDOF 0
ENDMDL
