MODEL 1
REMARK minimizedAffinity 1.25191462
REMARK minimizedRMSD -1
REMARK  1 active torsions:
REMARK  status: ('A' for Active; 'I' for Inactive)
REMARK    1  A    between atoms: C1_2  and  C2_3 
ROOT
ATOM      1  C2  UNL d   1      -0.380   3.895  -5.297  0.00  0.00    -0.076 A 
ATOM      2  C3  UNL d   1      -1.358   4.620  -6.000  0.00  0.00     0.004 A 
ATOM      3  C4  UNL d   1      -2.053   5.663  -5.391  0.00  0.00    -0.003 A 
ATOM      4  C5  UNL d   1      -1.781   6.000  -4.070  0.00  0.00     0.000 A 
ATOM      5  C6  UNL d   1      -0.801   5.303  -3.363  0.00  0.00     0.000 A 
ATOM      6  C7  UNL d   1      -0.080   4.259  -3.966  0.00  0.00    -0.073 A 
ATOM      7  C8  UNL d   1       0.961   3.537  -3.155  0.00  0.00     0.078 C 
ENDROOT
BRANCH   1   8
ATOM      8  C1  UNL d   1       0.322   2.755  -6.000  0.00  0.00     0.053 C 
ATOM      9  C   UNL d   1       1.836   2.892  -5.963  0.00  0.00     0.018 C 
ENDBRANCH   1   8
TORSDOF 1
ENDMDL
