MODEL 1
REMARK minimizedAffinity 0.216704816
REMARK minimizedRMSD -1
REMARK  1 active torsions:
REMARK  status: ('A' for Active; 'I' for Inactive)
REMARK    1  A    between atoms: C1_2  and  C2_3 
ROOT
ATOM      1  C2  UNL d   1       3.481   3.751  -5.969  0.00  0.00    -0.076 A 
ATOM      2  C3  UNL d   1       2.219   3.132  -5.989  0.00  0.00     0.004 A 
ATOM      3  C4  UNL d   1       1.049   3.890  -6.000  0.00  0.00    -0.003 A 
ATOM      4  C5  UNL d   1       1.122   5.279  -5.992  0.00  0.00     0.000 A 
ATOM      5  C6  UNL d   1       2.366   5.909  -5.990  0.00  0.00     0.000 A 
ATOM      6  C7  UNL d   1       3.556   5.160  -5.996  0.00  0.00    -0.073 A 
ATOM      7  C8  UNL d   1       4.870   5.891  -5.988  0.00  0.00     0.078 C 
ENDROOT
BRANCH   1   8
ATOM      8  C1  UNL d   1       4.715   2.877  -5.931  0.00  0.00     0.053 C 
ATOM      9  C   UNL d   1       5.476   3.001  -4.620  0.00  0.00     0.018 C 
ENDBRANCH   1   8
TORSDOF 1
ENDMDL
