MODEL 1
REMARK minimizedAffinity 3.70730472
REMARK minimizedRMSD -1
REMARK  1 active torsions:
REMARK  status: ('A' for Active; 'I' for Inactive)
REMARK    1  A    between atoms: C1_2  and  C2_3 
ROOT
ATOM      1  C2  UNL d   1      -0.631   3.506  -5.981  0.00  0.00    -0.076 A 
ATOM      2  C3  UNL d   1       0.393   2.543  -5.975  0.00  0.00     0.004 A 
ATOM      3  C4  UNL d   1       1.734   2.921  -5.985  0.00  0.00    -0.003 A 
ATOM      4  C5  UNL d   1       2.073   4.270  -5.999  0.00  0.00     0.000 A 
ATOM      5  C6  UNL d   1       1.071   5.239  -5.987  0.00  0.00     0.000 A 
ATOM      6  C7  UNL d   1      -0.286   4.874  -5.961  0.00  0.00    -0.073 A 
ATOM      7  C8  UNL d   1      -1.326   5.961  -5.955  0.00  0.00     0.078 C 
ENDROOT
BRANCH   1   8
ATOM      8  C1  UNL d   1      -2.068   3.035  -5.997  0.00  0.00     0.053 C 
ATOM      9  C   UNL d   1      -2.695   3.028  -4.611  0.00  0.00     0.018 C 
ENDBRANCH   1   8
TORSDOF 1
ENDMDL
