MODEL 1
REMARK minimizedAffinity 2.75173903
REMARK minimizedRMSD -1
REMARK  1 active torsions:
REMARK  status: ('A' for Active; 'I' for Inactive)
REMARK    1  A    between atoms: C1_2  and  C2_3 
ROOT
ATOM      1  C2  UNL d   1      -0.712   3.566  -5.958  0.00  0.00    -0.076 A 
ATOM      2  C3  UNL d   1      -0.080   4.821  -5.917  0.00  0.00     0.004 A 
ATOM      3  C4  UNL d   1      -0.824   6.000  -5.920  0.00  0.00    -0.003 A 
ATOM      4  C5  UNL d   1      -2.213   5.942  -5.963  0.00  0.00     0.000 A 
ATOM      5  C6  UNL d   1      -2.857   4.706  -5.986  0.00  0.00     0.000 A 
ATOM      6  C7  UNL d   1      -2.123   3.508  -5.967  0.00  0.00    -0.073 A 
ATOM      7  C8  UNL d   1      -2.869   2.203  -6.000  0.00  0.00     0.078 C 
ENDROOT
BRANCH   1   8
ATOM      8  C1  UNL d   1       0.147   2.322  -5.980  0.00  0.00     0.053 C 
ATOM      9  C   UNL d   1       1.634   2.642  -6.000  0.00  0.00     0.018 C 
ENDBRANCH   1   8
TORSDOF 1
ENDMDL
