MODEL 1
REMARK minimizedAffinity 1.26241863
REMARK minimizedRMSD -1
REMARK  1 active torsions:
REMARK  status: ('A' for Active; 'I' for Inactive)
REMARK    1  A    between atoms: C1_2  and  C2_3 
ROOT
ATOM      1  C2  UNL d   1       0.079   3.306  -5.980  0.00  0.00    -0.076 A 
ATOM      2  C3  UNL d   1      -1.106   2.550  -5.998  0.00  0.00     0.004 A 
ATOM      3  C4  UNL d   1      -2.354   3.172  -6.000  0.00  0.00    -0.003 A 
ATOM      4  C5  UNL d   1      -2.436   4.560  -5.984  0.00  0.00     0.000 A 
ATOM      5  C6  UNL d   1      -1.270   5.326  -5.983  0.00  0.00     0.000 A 
ATOM      6  C7  UNL d   1      -0.005   4.714  -5.998  0.00  0.00    -0.073 A 
ATOM      7  C8  UNL d   1       1.219   5.588  -5.991  0.00  0.00     0.078 C 
ENDROOT
BRANCH   1   8
ATOM      8  C1  UNL d   1       1.403   2.576  -5.951  0.00  0.00     0.053 C 
ATOM      9  C   UNL d   1       1.845   2.226  -4.539  0.00  0.00     0.018 C 
ENDBRANCH   1   8
TORSDOF 1
ENDMDL
