MODEL 1
REMARK minimizedAffinity 0.396872014
REMARK minimizedRMSD -1
REMARK  1 active torsions:
REMARK  status: ('A' for Active; 'I' for Inactive)
REMARK    1  A    between atoms: C1_2  and  C2_3 
ROOT
ATOM      1  C2  UNL d   1      -0.847   4.708  -5.856  0.00  0.00    -0.076 A 
ATOM      2  C3  UNL d   1       0.528   4.993  -5.912  0.00  0.00     0.004 A 
ATOM      3  C4  UNL d   1       1.471   3.968  -5.978  0.00  0.00    -0.003 A 
ATOM      4  C5  UNL d   1       1.054   2.642  -5.990  0.00  0.00     0.000 A 
ATOM      5  C6  UNL d   1      -0.307   2.341  -5.953  0.00  0.00     0.000 A 
ATOM      6  C7  UNL d   1      -1.272   3.362  -5.903  0.00  0.00    -0.073 A 
ATOM      7  C8  UNL d   1      -2.726   2.981  -5.859  0.00  0.00     0.078 C 
ENDROOT
BRANCH   1   8
ATOM      8  C1  UNL d   1      -1.822   5.859  -5.759  0.00  0.00     0.053 C 
ATOM      9  C   UNL d   1      -2.453   5.973  -4.380  0.00  0.00     0.018 C 
ENDBRANCH   1   8
TORSDOF 1
ENDMDL
