MODEL 1
REMARK minimizedAffinity 10.6977148
REMARK minimizedRMSD -1
REMARK  1 active torsions:
REMARK  status: ('A' for Active; 'I' for Inactive)
REMARK    1  A    between atoms: C1_2  and  C2_3 
ROOT
ATOM      1  C2  UNL d   1      -1.021  -2.939  -0.977  0.00  0.00    -0.076 A 
ATOM      2  C3  UNL d   1      -1.095  -1.798  -0.160  0.00  0.00     0.004 A 
ATOM      3  C4  UNL d   1       0.058  -1.116   0.226  0.00  0.00    -0.003 A 
ATOM      4  C5  UNL d   1       1.304  -1.565  -0.200  0.00  0.00     0.000 A 
ATOM      5  C6  UNL d   1       1.394  -2.685  -1.025  0.00  0.00     0.000 A 
ATOM      6  C7  UNL d   1       0.240  -3.374  -1.437  0.00  0.00    -0.073 A 
ATOM      7  C8  UNL d   1       0.397  -4.580  -2.322  0.00  0.00     0.078 C 
ENDROOT
BRANCH   1   8
ATOM      8  C1  UNL d   1      -2.303  -3.653  -1.342  0.00  0.00     0.053 C 
ATOM      9  C   UNL d   1      -2.655  -4.758  -0.357  0.00  0.00     0.018 C 
ENDBRANCH   1   8
TORSDOF 1
ENDMDL
