MODEL 1
REMARK minimizedAffinity 5.82255125
REMARK minimizedRMSD -1
REMARK  1 active torsions:
REMARK  status: ('A' for Active; 'I' for Inactive)
REMARK    1  A    between atoms: C1_2  and  C2_3 
ROOT
ATOM      1  C2  UNL d   1       0.208   3.648  -4.362  0.00  0.00    -0.076 A 
ATOM      2  C3  UNL d   1      -1.114   3.519  -3.902  0.00  0.00     0.004 A 
ATOM      3  C4  UNL d   1      -2.148   4.256  -4.475  0.00  0.00    -0.003 A 
ATOM      4  C5  UNL d   1      -1.877   5.134  -5.519  0.00  0.00     0.000 A 
ATOM      5  C6  UNL d   1      -0.575   5.262  -5.999  0.00  0.00     0.000 A 
ATOM      6  C7  UNL d   1       0.477   4.514  -5.443  0.00  0.00    -0.073 A 
ATOM      7  C8  UNL d   1       1.864   4.696  -5.997  0.00  0.00     0.078 C 
ENDROOT
BRANCH   1   8
ATOM      8  C1  UNL d   1       1.293   2.842  -3.683  0.00  0.00     0.053 C 
ATOM      9  C   UNL d   1       0.756   1.976  -2.554  0.00  0.00     0.018 C 
ENDBRANCH   1   8
TORSDOF 1
ENDMDL
