MODEL 1
REMARK minimizedAffinity 2.34254193
REMARK minimizedRMSD -1
REMARK  1 active torsions:
REMARK  status: ('A' for Active; 'I' for Inactive)
REMARK    1  A    between atoms: C1_2  and  C2_3 
ROOT
ATOM      1  C2  UNL d   1      -0.273   1.788   0.308  0.00  0.00    -0.076 A 
ATOM      2  C3  UNL d   1      -1.609   2.226   0.321  0.00  0.00     0.004 A 
ATOM      3  C4  UNL d   1      -2.638   1.378   0.727  0.00  0.00    -0.003 A 
ATOM      4  C5  UNL d   1      -2.348   0.079   1.129  0.00  0.00     0.000 A 
ATOM      5  C6  UNL d   1      -1.026  -0.367   1.140  0.00  0.00     0.000 A 
ATOM      6  C7  UNL d   1       0.025   0.480   0.748  0.00  0.00    -0.073 A 
ATOM      7  C8  UNL d   1       1.431  -0.054   0.774  0.00  0.00     0.078 C 
ENDROOT
BRANCH   1   8
ATOM      8  C1  UNL d   1       0.798   2.743  -0.168  0.00  0.00     0.053 C 
ATOM      9  C   UNL d   1       1.164   2.526  -1.628  0.00  0.00     0.018 C 
ENDBRANCH   1   8
TORSDOF 1
ENDMDL
