MODEL 1
REMARK minimizedAffinity 2.06002545
REMARK minimizedRMSD -1
REMARK  1 active torsions:
REMARK  status: ('A' for Active; 'I' for Inactive)
REMARK    1  A    between atoms: C1_2  and  C2_3 
ROOT
ATOM      1  C2  UNL d   1       0.563   3.001  -5.986  0.00  0.00    -0.076 A 
ATOM      2  C3  UNL d   1      -0.654   2.298  -5.999  0.00  0.00     0.004 A 
ATOM      3  C4  UNL d   1      -1.873   2.974  -5.993  0.00  0.00    -0.003 A 
ATOM      4  C5  UNL d   1      -1.894   4.364  -5.972  0.00  0.00     0.000 A 
ATOM      5  C6  UNL d   1      -0.696   5.078  -5.976  0.00  0.00     0.000 A 
ATOM      6  C7  UNL d   1       0.541   4.412  -6.000  0.00  0.00    -0.073 A 
ATOM      7  C8  UNL d   1       1.803   5.231  -5.997  0.00  0.00     0.078 C 
ENDROOT
BRANCH   1   8
ATOM      8  C1  UNL d   1       1.854   2.213  -5.967  0.00  0.00     0.053 C 
ATOM      9  C   UNL d   1       2.326   1.902  -4.555  0.00  0.00     0.018 C 
ENDBRANCH   1   8
TORSDOF 1
ENDMDL
