MODEL 1
REMARK minimizedAffinity -1.96852314
REMARK minimizedRMSD -1
REMARK  1 active torsions:
REMARK  status: ('A' for Active; 'I' for Inactive)
REMARK    1  A    between atoms: C1_2  and  C2_3 
ROOT
ATOM      1  C2  UNL d   1      -1.335   3.325  -5.982  0.00  0.00    -0.076 A 
ATOM      2  C3  UNL d   1      -0.416   2.261  -5.983  0.00  0.00     0.004 A 
ATOM      3  C4  UNL d   1       0.958   2.499  -5.992  0.00  0.00    -0.003 A 
ATOM      4  C5  UNL d   1       1.434   3.806  -6.000  0.00  0.00     0.000 A 
ATOM      5  C6  UNL d   1       0.537   4.873  -5.981  0.00  0.00     0.000 A 
ATOM      6  C7  UNL d   1      -0.850   4.650  -5.955  0.00  0.00    -0.073 A 
ATOM      7  C8  UNL d   1      -1.772   5.839  -5.942  0.00  0.00     0.078 C 
ENDROOT
BRANCH   1   8
ATOM      8  C1  UNL d   1      -2.812   3.006  -6.000  0.00  0.00     0.053 C 
ATOM      9  C   UNL d   1      -3.503   3.370  -4.694  0.00  0.00     0.018 C 
ENDBRANCH   1   8
TORSDOF 1
ENDMDL
