MODEL 1
REMARK minimizedAffinity -0.126424685
REMARK minimizedRMSD -1
REMARK  1 active torsions:
REMARK  status: ('A' for Active; 'I' for Inactive)
REMARK    1  A    between atoms: C1_2  and  C2_3 
ROOT
ATOM      1  C2  UNL d   1      -0.294   3.489  -5.858  0.00  0.00    -0.076 A 
ATOM      2  C3  UNL d   1       0.005   2.116  -5.890  0.00  0.00     0.004 A 
ATOM      3  C4  UNL d   1       1.324   1.670  -5.959  0.00  0.00    -0.003 A 
ATOM      4  C5  UNL d   1       2.366   2.591  -5.997  0.00  0.00     0.000 A 
ATOM      5  C6  UNL d   1       2.088   3.957  -5.949  0.00  0.00     0.000 A 
ATOM      6  C7  UNL d   1       0.765   4.422  -5.863  0.00  0.00    -0.073 A 
ATOM      7  C8  UNL d   1       0.523   5.906  -5.819  0.00  0.00     0.078 C 
ENDROOT
BRANCH   1   8
ATOM      8  C1  UNL d   1      -1.744   3.913  -5.811  0.00  0.00     0.053 C 
ATOM      9  C   UNL d   1      -2.697   2.728  -5.760  0.00  0.00     0.018 C 
ENDBRANCH   1   8
TORSDOF 1
ENDMDL
