MODEL 1
REMARK minimizedAffinity -1.19887912
REMARK minimizedRMSD -1
REMARK  0 active torsions:
REMARK  status: ('A' for Active; 'I' for Inactive)
ROOT
ATOM      1  C   UNL d   1       1.031   0.559   0.978  0.00  0.00     0.077 C 
ATOM      2  C1  UNL d   1       1.042   1.563  -0.136  0.00  0.00    -0.074 A 
ATOM      3  C2  UNL d   1       0.716   1.189  -1.444  0.00  0.00    -0.005 A 
ATOM      4  C3  UNL d   1       0.721   2.135  -2.468  0.00  0.00     0.006 A 
ATOM      5  C4  UNL d   1       1.052   3.463  -2.196  0.00  0.00    -0.005 A 
ATOM      6  C5  UNL d   1       1.381   3.856  -0.894  0.00  0.00    -0.074 A 
ATOM      7  C6  UNL d   1       1.729   5.281  -0.583  0.00  0.00     0.077 C 
ATOM      8  C7  UNL d   1       1.366   2.900   0.131  0.00  0.00    -0.001 A 
ENDROOT
TORSDOF 0
ENDMDL
