MODEL 1
REMARK minimizedAffinity -5.44705391
REMARK minimizedRMSD -1
REMARK  0 active torsions:
REMARK  status: ('A' for Active; 'I' for Inactive)
ROOT
ATOM      1  C   UNL d   1       1.490  -0.606  -1.213  0.00  0.00     0.077 C 
ATOM      2  C1  UNL d   1       1.323   0.768  -0.634  0.00  0.00    -0.074 A 
ATOM      3  C2  UNL d   1       0.933   0.944   0.698  0.00  0.00    -0.005 A 
ATOM      4  C3  UNL d   1       0.791   2.227   1.225  0.00  0.00     0.006 A 
ATOM      5  C4  UNL d   1       1.038   3.346   0.428  0.00  0.00    -0.005 A 
ATOM      6  C5  UNL d   1       1.430   3.189  -0.905  0.00  0.00    -0.074 A 
ATOM      7  C6  UNL d   1       1.709   4.381  -1.772  0.00  0.00     0.077 C 
ATOM      8  C7  UNL d   1       1.577   1.896  -1.426  0.00  0.00    -0.001 A 
ENDROOT
TORSDOF 0
ENDMDL
