MODEL 1
REMARK minimizedAffinity -0.113850564
REMARK minimizedRMSD -1
REMARK  0 active torsions:
REMARK  status: ('A' for Active; 'I' for Inactive)
ROOT
ATOM      1  C   UNL d   1       0.668  -1.342  -0.751  0.00  0.00     0.077 C 
ATOM      2  C1  UNL d   1       0.822   0.108  -0.399  0.00  0.00    -0.074 A 
ATOM      3  C2  UNL d   1       0.662   0.548   0.918  0.00  0.00    -0.005 A 
ATOM      4  C3  UNL d   1       0.817   1.898   1.232  0.00  0.00     0.006 A 
ATOM      5  C4  UNL d   1       1.134   2.820   0.234  0.00  0.00    -0.005 A 
ATOM      6  C5  UNL d   1       1.298   2.398  -1.089  0.00  0.00    -0.074 A 
ATOM      7  C6  UNL d   1       1.648   3.374  -2.173  0.00  0.00     0.077 C 
ATOM      8  C7  UNL d   1       1.147   1.039  -1.396  0.00  0.00    -0.001 A 
ENDROOT
TORSDOF 0
ENDMDL
