MODEL 1
REMARK minimizedAffinity 1.85162103
REMARK minimizedRMSD -1
REMARK  0 active torsions:
REMARK  status: ('A' for Active; 'I' for Inactive)
ROOT
ATOM      1  C   UNL d   1       1.453  -0.038  -3.303  0.00  0.00     0.077 C 
ATOM      2  C1  UNL d   1       1.777   0.324  -1.884  0.00  0.00    -0.074 A 
ATOM      3  C2  UNL d   1       2.642  -0.466  -1.119  0.00  0.00    -0.005 A 
ATOM      4  C3  UNL d   1       2.941  -0.111   0.196  0.00  0.00     0.006 A 
ATOM      5  C4  UNL d   1       2.380   1.035   0.760  0.00  0.00    -0.005 A 
ATOM      6  C5  UNL d   1       1.514   1.838   0.011  0.00  0.00    -0.074 A 
ATOM      7  C6  UNL d   1       0.909   3.079   0.598  0.00  0.00     0.077 C 
ATOM      8  C7  UNL d   1       1.223   1.479  -1.313  0.00  0.00    -0.001 A 
ENDROOT
TORSDOF 0
ENDMDL
