MODEL 1
REMARK minimizedAffinity -2.87952089
REMARK minimizedRMSD -1
REMARK  0 active torsions:
REMARK  status: ('A' for Active; 'I' for Inactive)
ROOT
ATOM      1  C   UNL d   1       1.114  -1.904  -0.401  0.00  0.00     0.077 C 
ATOM      2  C1  UNL d   1       1.141  -0.448  -0.760  0.00  0.00    -0.074 A 
ATOM      3  C2  UNL d   1       1.206  -0.039  -2.096  0.00  0.00    -0.005 A 
ATOM      4  C3  UNL d   1       1.221   1.319  -2.416  0.00  0.00     0.006 A 
ATOM      5  C4  UNL d   1       1.171   2.279  -1.405  0.00  0.00    -0.005 A 
ATOM      6  C5  UNL d   1       1.104   1.889  -0.063  0.00  0.00    -0.074 A 
ATOM      7  C6  UNL d   1       1.040   2.908   1.035  0.00  0.00     0.077 C 
ATOM      8  C7  UNL d   1       1.083   0.523   0.249  0.00  0.00    -0.001 A 
ENDROOT
TORSDOF 0
ENDMDL
