MODEL 1
REMARK minimizedAffinity -3.7761333
REMARK minimizedRMSD -1
REMARK  0 active torsions:
REMARK  status: ('A' for Active; 'I' for Inactive)
ROOT
ATOM      1  C   UNL d   1       1.882   2.953   0.369  0.00  0.00     0.077 C 
ATOM      2  C1  UNL d   1       1.798   1.757  -0.532  0.00  0.00    -0.074 A 
ATOM      3  C2  UNL d   1       1.620   1.907  -1.911  0.00  0.00    -0.005 A 
ATOM      4  C3  UNL d   1       1.554   0.786  -2.738  0.00  0.00     0.006 A 
ATOM      5  C4  UNL d   1       1.664  -0.495  -2.195  0.00  0.00    -0.005 A 
ATOM      6  C5  UNL d   1       1.843  -0.664  -0.818  0.00  0.00    -0.074 A 
ATOM      7  C6  UNL d   1       1.974  -2.033  -0.220  0.00  0.00     0.077 C 
ATOM      8  C7  UNL d   1       1.916   0.468   0.005  0.00  0.00    -0.001 A 
ENDROOT
TORSDOF 0
ENDMDL
