MODEL 1
REMARK minimizedAffinity -2.04795241
REMARK minimizedRMSD -1
REMARK  0 active torsions:
REMARK  status: ('A' for Active; 'I' for Inactive)
ROOT
ATOM      1  C   UNL d   1       1.174   2.600   0.809  0.00  0.00     0.077 C 
ATOM      2  C1  UNL d   1       0.810   1.363   0.044  0.00  0.00    -0.074 A 
ATOM      3  C2  UNL d   1      -0.114   1.412  -1.005  0.00  0.00    -0.005 A 
ATOM      4  C3  UNL d   1      -0.435   0.254  -1.714  0.00  0.00     0.006 A 
ATOM      5  C4  UNL d   1       0.164  -0.962  -1.383  0.00  0.00    -0.005 A 
ATOM      6  C5  UNL d   1       1.092  -1.030  -0.338  0.00  0.00    -0.074 A 
ATOM      7  C6  UNL d   1       1.752  -2.327   0.024  0.00  0.00     0.077 C 
ATOM      8  C7  UNL d   1       1.414   0.139   0.365  0.00  0.00    -0.001 A 
ENDROOT
TORSDOF 0
ENDMDL
