MODEL 1
REMARK minimizedAffinity 2.42955542
REMARK minimizedRMSD -1
REMARK  0 active torsions:
REMARK  status: ('A' for Active; 'I' for Inactive)
ROOT
ATOM      1  C   UNL d   1      -0.047  -2.934  -1.308  0.00  0.00     0.077 C 
ATOM      2  C1  UNL d   1       0.616  -1.730  -0.708  0.00  0.00    -0.074 A 
ATOM      3  C2  UNL d   1       1.460  -1.851   0.400  0.00  0.00    -0.005 A 
ATOM      4  C3  UNL d   1       2.077  -0.723   0.941  0.00  0.00     0.006 A 
ATOM      5  C4  UNL d   1       1.856   0.535   0.381  0.00  0.00    -0.005 A 
ATOM      6  C5  UNL d   1       1.016   0.676  -0.728  0.00  0.00    -0.074 A 
ATOM      7  C6  UNL d   1       0.775   2.020  -1.349  0.00  0.00     0.077 C 
ATOM      8  C7  UNL d   1       0.405  -0.463  -1.270  0.00  0.00    -0.001 A 
ENDROOT
TORSDOF 0
ENDMDL
