MODEL 1
REMARK minimizedAffinity -3.89898992
REMARK minimizedRMSD -1
REMARK  0 active torsions:
REMARK  status: ('A' for Active; 'I' for Inactive)
ROOT
ATOM      1  C   UNL d   1       1.310   0.128  -2.144  0.00  0.00     0.077 C 
ATOM      2  C1  UNL d   1       1.432   1.197  -1.099  0.00  0.00    -0.074 A 
ATOM      3  C2  UNL d   1       1.472   0.872   0.261  0.00  0.00    -0.005 A 
ATOM      4  C3  UNL d   1       1.595   1.877   1.221  0.00  0.00     0.006 A 
ATOM      5  C4  UNL d   1       1.679   3.214   0.832  0.00  0.00    -0.005 A 
ATOM      6  C5  UNL d   1       1.641   3.558  -0.523  0.00  0.00    -0.074 A 
ATOM      7  C6  UNL d   1       1.740   4.990  -0.959  0.00  0.00     0.077 C 
ATOM      8  C7  UNL d   1       1.524   2.542  -1.482  0.00  0.00    -0.001 A 
ENDROOT
TORSDOF 0
ENDMDL
