MODEL 1
REMARK minimizedAffinity -0.579333067
REMARK minimizedRMSD -1
REMARK  0 active torsions:
REMARK  status: ('A' for Active; 'I' for Inactive)
ROOT
ATOM      1  C   UNL d   1       1.837   5.221  -0.948  0.00  0.00     0.077 C 
ATOM      2  C1  UNL d   1       1.531   3.760  -1.097  0.00  0.00    -0.074 A 
ATOM      3  C2  UNL d   1       1.221   3.214  -2.346  0.00  0.00    -0.005 A 
ATOM      4  C3  UNL d   1       0.948   1.852  -2.471  0.00  0.00     0.006 A 
ATOM      5  C4  UNL d   1       0.981   1.024  -1.348  0.00  0.00    -0.005 A 
ATOM      6  C5  UNL d   1       1.290   1.552  -0.091  0.00  0.00    -0.074 A 
ATOM      7  C6  UNL d   1       1.341   0.673   1.124  0.00  0.00     0.077 C 
ATOM      8  C7  UNL d   1       1.571   2.920   0.025  0.00  0.00    -0.001 A 
ENDROOT
TORSDOF 0
ENDMDL
