MODEL 1
REMARK minimizedAffinity -2.33324575
REMARK minimizedRMSD -1
REMARK  0 active torsions:
REMARK  status: ('A' for Active; 'I' for Inactive)
ROOT
ATOM      1  C   UNL d   1       1.755   5.403  -0.899  0.00  0.00     0.077 C 
ATOM      2  C1  UNL d   1       1.503   3.925  -0.928  0.00  0.00    -0.074 A 
ATOM      3  C2  UNL d   1       1.234   3.265  -2.131  0.00  0.00    -0.005 A 
ATOM      4  C3  UNL d   1       1.011   1.888  -2.143  0.00  0.00     0.006 A 
ATOM      5  C4  UNL d   1       1.054   1.159  -0.955  0.00  0.00    -0.005 A 
ATOM      6  C5  UNL d   1       1.323   1.802   0.258  0.00  0.00    -0.074 A 
ATOM      7  C6  UNL d   1       1.383   1.031   1.543  0.00  0.00     0.077 C 
ATOM      8  C7  UNL d   1       1.553   3.184   0.261  0.00  0.00    -0.001 A 
ENDROOT
TORSDOF 0
ENDMDL
