MODEL 1
REMARK minimizedAffinity 0.733027875
REMARK minimizedRMSD -1
REMARK  0 active torsions:
REMARK  status: ('A' for Active; 'I' for Inactive)
ROOT
ATOM      1  C   UNL d   1       1.229   4.029   0.037  0.00  0.00     0.077 C 
ATOM      2  C1  UNL d   1       1.370   2.628  -0.480  0.00  0.00    -0.074 A 
ATOM      3  C2  UNL d   1       2.005   2.372  -1.699  0.00  0.00    -0.005 A 
ATOM      4  C3  UNL d   1       2.137   1.063  -2.163  0.00  0.00     0.006 A 
ATOM      5  C4  UNL d   1       1.636  -0.002  -1.413  0.00  0.00    -0.005 A 
ATOM      6  C5  UNL d   1       0.998   0.235  -0.191  0.00  0.00    -0.074 A 
ATOM      7  C6  UNL d   1       0.462  -0.899   0.632  0.00  0.00     0.077 C 
ATOM      8  C7  UNL d   1       0.875   1.552   0.271  0.00  0.00    -0.001 A 
ENDROOT
TORSDOF 0
ENDMDL
