MODEL 1
REMARK minimizedAffinity -2.1188314
REMARK minimizedRMSD -1
REMARK  0 active torsions:
REMARK  status: ('A' for Active; 'I' for Inactive)
ROOT
ATOM      1  C   UNL d   1       1.888   5.172  -0.797  0.00  0.00     0.077 C 
ATOM      2  C1  UNL d   1       1.565   3.709  -0.884  0.00  0.00    -0.074 A 
ATOM      3  C2  UNL d   1       1.487   3.063  -2.122  0.00  0.00    -0.005 A 
ATOM      4  C3  UNL d   1       1.195   1.701  -2.187  0.00  0.00     0.006 A 
ATOM      5  C4  UNL d   1       0.979   0.972  -1.017  0.00  0.00    -0.005 A 
ATOM      6  C5  UNL d   1       1.053   1.601   0.230  0.00  0.00    -0.074 A 
ATOM      7  C6  UNL d   1       0.833   0.830   1.498  0.00  0.00     0.077 C 
ATOM      8  C7  UNL d   1       1.354   2.969   0.288  0.00  0.00    -0.001 A 
ENDROOT
TORSDOF 0
ENDMDL
