MODEL 1
REMARK minimizedAffinity -5.01232862
REMARK minimizedRMSD -1
REMARK  0 active torsions:
REMARK  status: ('A' for Active; 'I' for Inactive)
ROOT
ATOM      1  C   UNL d   1       1.907   4.601  -1.509  0.00  0.00     0.077 C 
ATOM      2  C1  UNL d   1       1.385   3.203  -1.355  0.00  0.00    -0.074 A 
ATOM      3  C2  UNL d   1       0.668   2.586  -2.385  0.00  0.00    -0.005 A 
ATOM      4  C3  UNL d   1       0.197   1.282  -2.231  0.00  0.00     0.006 A 
ATOM      5  C4  UNL d   1       0.438   0.583  -1.047  0.00  0.00    -0.005 A 
ATOM      6  C5  UNL d   1       1.154   1.183  -0.007  0.00  0.00    -0.074 A 
ATOM      7  C6  UNL d   1       1.431   0.443   1.268  0.00  0.00     0.077 C 
ATOM      8  C7  UNL d   1       1.630   2.491  -0.172  0.00  0.00    -0.001 A 
ENDROOT
TORSDOF 0
ENDMDL
