MODEL 1
REMARK minimizedAffinity 1.3718133
REMARK minimizedRMSD -1
REMARK  0 active torsions:
REMARK  status: ('A' for Active; 'I' for Inactive)
ROOT
ATOM      1  C   UNL d   1       1.866   4.112  -1.852  0.00  0.00     0.077 C 
ATOM      2  C1  UNL d   1       1.541   2.701  -1.464  0.00  0.00    -0.074 A 
ATOM      3  C2  UNL d   1       1.117   1.772  -2.419  0.00  0.00    -0.005 A 
ATOM      4  C3  UNL d   1       0.828   0.460  -2.044  0.00  0.00     0.006 A 
ATOM      5  C4  UNL d   1       0.960   0.064  -0.712  0.00  0.00    -0.005 A 
ATOM      6  C5  UNL d   1       1.384   0.979   0.257  0.00  0.00    -0.074 A 
ATOM      7  C6  UNL d   1       1.540   0.568   1.691  0.00  0.00     0.077 C 
ATOM      8  C7  UNL d   1       1.679   2.294  -0.129  0.00  0.00    -0.001 A 
ENDROOT
TORSDOF 0
ENDMDL
