MODEL 1
REMARK minimizedAffinity 1.0742147
REMARK minimizedRMSD -1
REMARK  0 active torsions:
REMARK  status: ('A' for Active; 'I' for Inactive)
ROOT
ATOM      1  C   UNL d   1       2.148   4.917  -1.156  0.00  0.00     0.077 C 
ATOM      2  C1  UNL d   1       1.691   3.488  -1.191  0.00  0.00    -0.074 A 
ATOM      3  C2  UNL d   1       1.149   2.935  -2.356  0.00  0.00    -0.005 A 
ATOM      4  C3  UNL d   1       0.737   1.603  -2.376  0.00  0.00     0.006 A 
ATOM      5  C4  UNL d   1       0.863   0.811  -1.233  0.00  0.00    -0.005 A 
ATOM      6  C5  UNL d   1       1.404   1.347  -0.060  0.00  0.00    -0.074 A 
ATOM      7  C6  UNL d   1       1.555   0.507   1.173  0.00  0.00     0.077 C 
ATOM      8  C7  UNL d   1       1.822   2.685  -0.050  0.00  0.00    -0.001 A 
ENDROOT
TORSDOF 0
ENDMDL
