MODEL 1
REMARK minimizedAffinity -3.86967826
REMARK minimizedRMSD -1
REMARK  0 active torsions:
REMARK  status: ('A' for Active; 'I' for Inactive)
ROOT
ATOM      1  C   UNL d   1       1.250  -0.286  -2.201  0.00  0.00     0.077 C 
ATOM      2  C1  UNL d   1       1.150   0.846  -1.222  0.00  0.00    -0.074 A 
ATOM      3  C2  UNL d   1       0.818   0.612   0.116  0.00  0.00    -0.005 A 
ATOM      4  C3  UNL d   1       0.738   1.674   1.016  0.00  0.00     0.006 A 
ATOM      5  C4  UNL d   1       0.990   2.978   0.589  0.00  0.00    -0.005 A 
ATOM      6  C5  UNL d   1       1.325   3.231  -0.745  0.00  0.00    -0.074 A 
ATOM      7  C6  UNL d   1       1.608   4.626  -1.219  0.00  0.00     0.077 C 
ATOM      8  C7  UNL d   1       1.409   2.158  -1.643  0.00  0.00    -0.001 A 
ENDROOT
TORSDOF 0
ENDMDL
