MODEL 1
REMARK minimizedAffinity -4.49035835
REMARK minimizedRMSD -1
REMARK  0 active torsions:
REMARK  status: ('A' for Active; 'I' for Inactive)
ROOT
ATOM      1  C1  BNZ d   1      -3.468  -1.871   0.357  0.00  0.00     0.000 A 
ATOM      2  C2  BNZ d   1      -3.235  -0.694  -0.304  0.00  0.00     0.000 A 
ATOM      3  C3  BNZ d   1      -1.978  -0.162  -0.364  0.00  0.00     0.000 A 
ATOM      4  C4  BNZ d   1      -0.964  -0.783   0.271  0.00  0.00     0.000 A 
ATOM      5  C5  BNZ d   1      -1.184  -1.965   0.951  0.00  0.00     0.000 A 
ATOM      6  C6  BNZ d   1      -2.443  -2.519   0.975  0.00  0.00     0.000 A 
ENDROOT
TORSDOF 0
ENDMDL
