MODEL 1
REMARK minimizedAffinity -3.53143191
REMARK minimizedRMSD -1
REMARK  0 active torsions:
REMARK  status: ('A' for Active; 'I' for Inactive)
ROOT
ATOM      1  C1  BNZ d   1      -0.781   0.129  -0.856  0.00  0.00     0.000 A 
ATOM      2  C2  BNZ d   1      -2.085  -0.261  -0.711  0.00  0.00     0.000 A 
ATOM      3  C3  BNZ d   1      -2.528  -0.803   0.463  0.00  0.00     0.000 A 
ATOM      4  C4  BNZ d   1      -1.658  -0.991   1.476  0.00  0.00     0.000 A 
ATOM      5  C5  BNZ d   1      -0.337  -0.611   1.342  0.00  0.00     0.000 A 
ATOM      6  C6  BNZ d   1       0.096  -0.030   0.173  0.00  0.00     0.000 A 
ENDROOT
TORSDOF 0
ENDMDL
