MODEL 1
REMARK minimizedAffinity -3.23435974
REMARK minimizedRMSD -1
REMARK  0 active torsions:
REMARK  status: ('A' for Active; 'I' for Inactive)
ROOT
ATOM      1  C1  BNZ d   1       0.860   2.967   0.560  0.00  0.00     0.000 A 
ATOM      2  C2  BNZ d   1       0.031   1.976   0.108  0.00  0.00     0.000 A 
ATOM      3  C3  BNZ d   1       0.496   0.703  -0.074  0.00  0.00     0.000 A 
ATOM      4  C4  BNZ d   1       1.797   0.433   0.159  0.00  0.00     0.000 A 
ATOM      5  C5  BNZ d   1       2.647   1.425   0.606  0.00  0.00     0.000 A 
ATOM      6  C6  BNZ d   1       2.167   2.695   0.825  0.00  0.00     0.000 A 
ENDROOT
TORSDOF 0
ENDMDL
