MODEL 1
REMARK minimizedAffinity -2.85164309
REMARK minimizedRMSD -1
REMARK  0 active torsions:
REMARK  status: ('A' for Active; 'I' for Inactive)
ROOT
ATOM      1  C1  BNZ d   1      -0.189  -0.432   0.462  0.00  0.00     0.000 A 
ATOM      2  C2  BNZ d   1      -1.441  -0.847   0.830  0.00  0.00     0.000 A 
ATOM      3  C3  BNZ d   1      -2.510  -0.672  -0.003  0.00  0.00     0.000 A 
ATOM      4  C4  BNZ d   1      -2.334  -0.048  -1.186  0.00  0.00     0.000 A 
ATOM      5  C5  BNZ d   1      -1.080   0.385  -1.568  0.00  0.00     0.000 A 
ATOM      6  C6  BNZ d   1       0.001   0.172  -0.743  0.00  0.00     0.000 A 
ENDROOT
TORSDOF 0
ENDMDL
