MODEL 1
REMARK minimizedAffinity -4.87443876
REMARK minimizedRMSD -1
REMARK  0 active torsions:
REMARK  status: ('A' for Active; 'I' for Inactive)
ROOT
ATOM      1  C1  BNZ d   1      -1.147  -0.154  -0.608  0.00  0.00     0.000 A 
ATOM      2  C2  BNZ d   1      -2.475  -0.463  -0.733  0.00  0.00     0.000 A 
ATOM      3  C3  BNZ d   1      -3.049  -1.418   0.058  0.00  0.00     0.000 A 
ATOM      4  C4  BNZ d   1      -2.288  -2.090   0.945  0.00  0.00     0.000 A 
ATOM      5  C5  BNZ d   1      -0.945  -1.796   1.077  0.00  0.00     0.000 A 
ATOM      6  C6  BNZ d   1      -0.379  -0.807   0.306  0.00  0.00     0.000 A 
ENDROOT
TORSDOF 0
ENDMDL
