MODEL 1
REMARK minimizedAffinity -4.66170692
REMARK minimizedRMSD -1
REMARK  0 active torsions:
REMARK  status: ('A' for Active; 'I' for Inactive)
ROOT
ATOM      1  C1  BNZ d   1      -1.813  -0.164  -0.182  0.00  0.00     0.000 A 
ATOM      2  C2  BNZ d   1      -0.988  -0.756   0.737  0.00  0.00     0.000 A 
ATOM      3  C3  BNZ d   1      -1.332  -1.941   1.325  0.00  0.00     0.000 A 
ATOM      4  C4  BNZ d   1      -2.516  -2.512   1.024  0.00  0.00     0.000 A 
ATOM      5  C5  BNZ d   1      -3.363  -1.922   0.107  0.00  0.00     0.000 A 
ATOM      6  C6  BNZ d   1      -2.996  -0.750  -0.512  0.00  0.00     0.000 A 
ENDROOT
TORSDOF 0
ENDMDL
