MODEL 1
REMARK minimizedAffinity -3.58212972
REMARK minimizedRMSD -1
REMARK  0 active torsions:
REMARK  status: ('A' for Active; 'I' for Inactive)
ROOT
ATOM      1  C1  BNZ d   1      -2.836  -1.701  -0.700  0.00  0.00     0.000 A 
ATOM      2  C2  BNZ d   1      -2.602  -2.781   0.109  0.00  0.00     0.000 A 
ATOM      3  C3  BNZ d   1      -1.734  -2.693   1.161  0.00  0.00     0.000 A 
ATOM      4  C4  BNZ d   1      -1.072  -1.539   1.379  0.00  0.00     0.000 A 
ATOM      5  C5  BNZ d   1      -1.289  -0.444   0.567  0.00  0.00     0.000 A 
ATOM      6  C6  BNZ d   1      -2.193  -0.524  -0.468  0.00  0.00     0.000 A 
ENDROOT
TORSDOF 0
ENDMDL
