MODEL 1
REMARK minimizedAffinity -3.34737802
REMARK minimizedRMSD -1
REMARK  0 active torsions:
REMARK  status: ('A' for Active; 'I' for Inactive)
ROOT
ATOM      1  C1  BNZ d   1      -2.622  -0.904  -1.114  0.00  0.00     0.000 A 
ATOM      2  C2  BNZ d   1      -1.570  -0.031  -1.200  0.00  0.00     0.000 A 
ATOM      3  C3  BNZ d   1      -0.515  -0.119  -0.336  0.00  0.00     0.000 A 
ATOM      4  C4  BNZ d   1      -0.531  -1.053   0.637  0.00  0.00     0.000 A 
ATOM      5  C5  BNZ d   1      -1.589  -1.934   0.743  0.00  0.00     0.000 A 
ATOM      6  C6  BNZ d   1      -2.631  -1.867  -0.153  0.00  0.00     0.000 A 
ENDROOT
TORSDOF 0
ENDMDL
