MODEL 1
REMARK minimizedAffinity -3.75374079
REMARK minimizedRMSD -1
REMARK  0 active torsions:
REMARK  status: ('A' for Active; 'I' for Inactive)
ROOT
ATOM      1  C1  BNZ d   1      -0.634  -1.779   1.493  0.00  0.00     0.000 A 
ATOM      2  C2  BNZ d   1      -0.390  -0.712   0.671  0.00  0.00     0.000 A 
ATOM      3  C3  BNZ d   1      -1.295  -0.341  -0.283  0.00  0.00     0.000 A 
ATOM      4  C4  BNZ d   1      -2.425  -1.061  -0.441  0.00  0.00     0.000 A 
ATOM      5  C5  BNZ d   1      -2.682  -2.145   0.374  0.00  0.00     0.000 A 
ATOM      6  C6  BNZ d   1      -1.786  -2.492   1.359  0.00  0.00     0.000 A 
ENDROOT
TORSDOF 0
ENDMDL
