MODEL 1
REMARK minimizedAffinity -3.04923058
REMARK minimizedRMSD -1
REMARK  0 active torsions:
REMARK  status: ('A' for Active; 'I' for Inactive)
ROOT
ATOM      1  C1  BNZ d   1      -0.445   0.266  -1.831  0.00  0.00     0.000 A 
ATOM      2  C2  BNZ d   1       0.534   0.153  -0.880  0.00  0.00     0.000 A 
ATOM      3  C3  BNZ d   1       0.236  -0.279   0.382  0.00  0.00     0.000 A 
ATOM      4  C4  BNZ d   1      -1.043  -0.559   0.703  0.00  0.00     0.000 A 
ATOM      5  C5  BNZ d   1      -2.042  -0.442  -0.243  0.00  0.00     0.000 A 
ATOM      6  C6  BNZ d   1      -1.733  -0.043  -1.523  0.00  0.00     0.000 A 
ENDROOT
TORSDOF 0
ENDMDL
