MODEL 1
REMARK minimizedAffinity 8.59078789
REMARK minimizedRMSD -1
REMARK  0 active torsions:
REMARK  status: ('A' for Active; 'I' for Inactive)
ROOT
ATOM      1  C   UNL d   1       0.757  -2.516   3.098  0.00  0.00     0.020 A 
ATOM      2  C1  UNL d   1       0.885  -1.448   3.985  0.00  0.00     0.020 A 
ATOM      3  C2  UNL d   1      -0.184  -0.571   4.181  0.00  0.00     0.034 A 
ATOM      4  C3  UNL d   1      -1.386  -0.761   3.490  0.00  0.00     0.017 A 
ATOM      5  C4  UNL d   1      -1.514  -1.834   2.600  0.00  0.00     0.017 A 
ATOM      6  C5  UNL d   1      -0.440  -2.708   2.407  0.00  0.00     0.034 A 
ATOM      7 Cl   UNL d   1      -2.966  -2.133   1.711  0.00  0.00    -0.070 Cl
ATOM      8 Cl1  UNL d   1      -2.667   0.361   3.782  0.00  0.00    -0.070 Cl
ENDROOT
TORSDOF 0
ENDMDL
