MODEL 1
REMARK minimizedAffinity 7.43943548
REMARK minimizedRMSD -1
REMARK  0 active torsions:
REMARK  status: ('A' for Active; 'I' for Inactive)
ROOT
ATOM      1  C   UNL d   1       2.203  -1.200   1.365  0.00  0.00     0.020 A 
ATOM      2  C1  UNL d   1       1.033  -1.874   1.713  0.00  0.00     0.020 A 
ATOM      3  C2  UNL d   1      -0.050  -1.895   0.832  0.00  0.00     0.034 A 
ATOM      4  C3  UNL d   1       0.035  -1.240  -0.402  0.00  0.00     0.017 A 
ATOM      5  C4  UNL d   1       1.209  -0.563  -0.751  0.00  0.00     0.017 A 
ATOM      6  C5  UNL d   1       2.290  -0.546   0.135  0.00  0.00     0.034 A 
ATOM      7 Cl   UNL d   1       1.388   0.268  -2.256  0.00  0.00    -0.070 Cl
ATOM      8 Cl1  UNL d   1      -1.343  -1.307  -1.443  0.00  0.00    -0.070 Cl
ENDROOT
TORSDOF 0
ENDMDL
