MODEL 1
REMARK minimizedAffinity 11.3253775
REMARK minimizedRMSD -1
REMARK  0 active torsions:
REMARK  status: ('A' for Active; 'I' for Inactive)
ROOT
ATOM      1  C   UNL d   1       0.536   1.526  -1.415  0.00  0.00     0.020 A 
ATOM      2  C1  UNL d   1      -0.171   0.331  -1.534  0.00  0.00     0.020 A 
ATOM      3  C2  UNL d   1       0.107  -0.734  -0.674  0.00  0.00     0.034 A 
ATOM      4  C3  UNL d   1       1.095  -0.605   0.308  0.00  0.00     0.017 A 
ATOM      5  C4  UNL d   1       1.805   0.595   0.427  0.00  0.00     0.017 A 
ATOM      6  C5  UNL d   1       1.522   1.658  -0.437  0.00  0.00     0.034 A 
ATOM      7 Cl   UNL d   1       3.039   0.829   1.615  0.00  0.00    -0.070 Cl
ATOM      8 Cl1  UNL d   1       1.386  -1.962   1.338  0.00  0.00    -0.070 Cl
ENDROOT
TORSDOF 0
ENDMDL
