MODEL 1
REMARK minimizedAffinity 16.6512966
REMARK minimizedRMSD -1
REMARK  0 active torsions:
REMARK  status: ('A' for Active; 'I' for Inactive)
ROOT
ATOM      1  C   UNL d   1       2.389   1.121   0.146  0.00  0.00     0.020 A 
ATOM      2  C1  UNL d   1       1.702   1.281  -1.056  0.00  0.00     0.020 A 
ATOM      3  C2  UNL d   1       0.714   0.365  -1.423  0.00  0.00     0.034 A 
ATOM      4  C3  UNL d   1       0.410  -0.716  -0.586  0.00  0.00     0.017 A 
ATOM      5  C4  UNL d   1       1.101  -0.875   0.620  0.00  0.00     0.017 A 
ATOM      6  C5  UNL d   1       2.089   0.045   0.983  0.00  0.00     0.034 A 
ATOM      7 Cl   UNL d   1       0.782  -2.183   1.705  0.00  0.00    -0.070 Cl
ATOM      8 Cl1  UNL d   1      -0.824  -1.810  -1.103  0.00  0.00    -0.070 Cl
ENDROOT
TORSDOF 0
ENDMDL
