MODEL 1
REMARK minimizedAffinity 12.7219591
REMARK minimizedRMSD -1
REMARK  0 active torsions:
REMARK  status: ('A' for Active; 'I' for Inactive)
ROOT
ATOM      1  C   UNL d   1      -4.724  -2.195  -4.038  0.00  0.00     0.020 A 
ATOM      2  C1  UNL d   1      -5.487  -1.030  -3.971  0.00  0.00     0.020 A 
ATOM      3  C2  UNL d   1      -5.205  -0.065  -3.002  0.00  0.00     0.034 A 
ATOM      4  C3  UNL d   1      -4.157  -0.263  -2.095  0.00  0.00     0.017 A 
ATOM      5  C4  UNL d   1      -3.391  -1.432  -2.163  0.00  0.00     0.017 A 
ATOM      6  C5  UNL d   1      -3.678  -2.395  -3.136  0.00  0.00     0.034 A 
ATOM      7 Cl   UNL d   1      -2.082  -1.747  -1.080  0.00  0.00    -0.070 Cl
ATOM      8 Cl1  UNL d   1      -3.865   0.973  -0.923  0.00  0.00    -0.070 Cl
ENDROOT
TORSDOF 0
ENDMDL
