MODEL 1
REMARK minimizedAffinity 10.7458248
REMARK minimizedRMSD -1
REMARK  0 active torsions:
REMARK  status: ('A' for Active; 'I' for Inactive)
ROOT
ATOM      1  C   UNL d   1       0.376   0.206  -1.965  0.00  0.00     0.020 A 
ATOM      2  C1  UNL d   1      -0.292  -0.948  -1.559  0.00  0.00     0.020 A 
ATOM      3  C2  UNL d   1       0.127  -1.631  -0.415  0.00  0.00     0.034 A 
ATOM      4  C3  UNL d   1       1.217  -1.161   0.326  0.00  0.00     0.017 A 
ATOM      5  C4  UNL d   1       1.887  -0.001  -0.082  0.00  0.00     0.017 A 
ATOM      6  C5  UNL d   1       1.463   0.679  -1.228  0.00  0.00     0.034 A 
ATOM      7 Cl   UNL d   1       3.239   0.641   0.781  0.00  0.00    -0.070 Cl
ATOM      8 Cl1  UNL d   1       1.681  -2.055   1.730  0.00  0.00    -0.070 Cl
ENDROOT
TORSDOF 0
ENDMDL
