MODEL 1
REMARK minimizedAffinity 11.3709764
REMARK minimizedRMSD -1
REMARK  0 active torsions:
REMARK  status: ('A' for Active; 'I' for Inactive)
ROOT
ATOM      1  C   UNL d   1       1.904  -3.426   1.644  0.00  0.00     0.020 A 
ATOM      2  C1  UNL d   1       0.854  -2.547   1.383  0.00  0.00     0.020 A 
ATOM      3  C2  UNL d   1       1.124  -1.233   0.995  0.00  0.00     0.034 A 
ATOM      4  C3  UNL d   1       2.447  -0.794   0.867  0.00  0.00     0.017 A 
ATOM      5  C4  UNL d   1       3.500  -1.677   1.129  0.00  0.00     0.017 A 
ATOM      6  C5  UNL d   1       3.225  -2.992   1.518  0.00  0.00     0.034 A 
ATOM      7 Cl   UNL d   1       5.158  -1.208   0.993  0.00  0.00    -0.070 Cl
ATOM      8 Cl1  UNL d   1       2.706   0.844   0.382  0.00  0.00    -0.070 Cl
ENDROOT
TORSDOF 0
ENDMDL
