MODEL 1
REMARK minimizedAffinity 6.66455507
REMARK minimizedRMSD -1
REMARK  0 active torsions:
REMARK  status: ('A' for Active; 'I' for Inactive)
ROOT
ATOM      1  C   UNL d   1       1.549   3.286   3.089  0.00  0.00     0.020 A 
ATOM      2  C1  UNL d   1       2.941   3.261   3.162  0.00  0.00     0.020 A 
ATOM      3  C2  UNL d   1       3.608   4.089   4.067  0.00  0.00     0.034 A 
ATOM      4  C3  UNL d   1       2.883   4.945   4.904  0.00  0.00     0.017 A 
ATOM      5  C4  UNL d   1       1.485   4.970   4.830  0.00  0.00     0.017 A 
ATOM      6  C5  UNL d   1       0.823   4.139   3.921  0.00  0.00     0.034 A 
ATOM      7 Cl   UNL d   1       0.522   6.000   5.829  0.00  0.00    -0.070 Cl
ATOM      8 Cl1  UNL d   1       3.772   5.941   6.000  0.00  0.00    -0.070 Cl
ENDROOT
TORSDOF 0
ENDMDL
