MODEL 1
REMARK minimizedAffinity 16.4122696
REMARK minimizedRMSD -1
REMARK  0 active torsions:
REMARK  status: ('A' for Active; 'I' for Inactive)
ROOT
ATOM      1  C2' OXE d   1      -1.051  -4.867  -2.422  0.00  0.00     0.078 C 
ATOM      2  C1' OXE d   1       0.375  -5.698  -4.692  0.00  0.00     0.078 C 
ATOM      3  C1  OXE d   1      -1.130  -5.655  -4.784  0.00  0.00    -0.078 A 
ATOM      4  C2  OXE d   1      -1.821  -5.292  -3.653  0.00  0.00    -0.078 A 
ATOM      5  C3  OXE d   1      -3.208  -5.183  -3.699  0.00  0.00     0.003 A 
ATOM      6  C4  OXE d   1      -3.914  -5.587  -4.839  0.00  0.00    -0.002 A 
ATOM      7  C5  OXE d   1      -3.230  -5.998  -5.988  0.00  0.00    -0.002 A 
ATOM      8  C6  OXE d   1      -1.840  -5.997  -5.991  0.00  0.00     0.003 A 
ENDROOT
TORSDOF 0
ENDMDL
