MODEL 1
REMARK minimizedAffinity 11.5713177
REMARK minimizedRMSD -1
REMARK  0 active torsions:
REMARK  status: ('A' for Active; 'I' for Inactive)
ROOT
ATOM      1  C2' OXE d   1       1.227   4.788  -3.038  0.00  0.00     0.078 C 
ATOM      2  C1' OXE d   1      -1.569   5.033  -3.008  0.00  0.00     0.078 C 
ATOM      3  C1  OXE d   1      -0.915   4.297  -1.865  0.00  0.00    -0.078 A 
ATOM      4  C2  OXE d   1       0.449   4.141  -1.912  0.00  0.00    -0.078 A 
ATOM      5  C3  OXE d   1       1.109   3.518  -0.856  0.00  0.00     0.003 A 
ATOM      6  C4  OXE d   1       0.381   2.915   0.176  0.00  0.00    -0.002 A 
ATOM      7  C5  OXE d   1      -1.012   3.027   0.223  0.00  0.00    -0.002 A 
ATOM      8  C6  OXE d   1      -1.671   3.750  -0.765  0.00  0.00     0.003 A 
ENDROOT
TORSDOF 0
ENDMDL
