MODEL 1
REMARK minimizedAffinity 8.11296463
REMARK minimizedRMSD -1
REMARK  0 active torsions:
REMARK  status: ('A' for Active; 'I' for Inactive)
ROOT
ATOM      1  C2' OXE d   1       1.478  -4.090  -1.435  0.00  0.00     0.078 C 
ATOM      2  C1' OXE d   1       2.998  -1.993  -0.353  0.00  0.00     0.078 C 
ATOM      3  C1  OXE d   1       3.684  -3.317  -0.575  0.00  0.00    -0.078 A 
ATOM      4  C2  OXE d   1       2.921  -4.351  -1.061  0.00  0.00    -0.078 A 
ATOM      5  C3  OXE d   1       3.517  -5.579  -1.336  0.00  0.00     0.003 A 
ATOM      6  C4  OXE d   1       4.850  -5.815  -0.978  0.00  0.00    -0.002 A 
ATOM      7  C5  OXE d   1       5.635  -4.787  -0.444  0.00  0.00    -0.002 A 
ATOM      8  C6  OXE d   1       5.080  -3.523  -0.277  0.00  0.00     0.003 A 
ENDROOT
TORSDOF 0
ENDMDL
