MODEL 1
REMARK minimizedAffinity 15.7109756
REMARK minimizedRMSD -1
REMARK  0 active torsions:
REMARK  status: ('A' for Active; 'I' for Inactive)
ROOT
ATOM      1  C2' OXE d   1      -4.853   0.317  -1.834  0.00  0.00     0.078 C 
ATOM      2  C1' OXE d   1      -4.639  -0.612  -4.474  0.00  0.00     0.078 C 
ATOM      3  C1  OXE d   1      -4.273   0.826  -4.203  0.00  0.00    -0.078 A 
ATOM      4  C2  OXE d   1      -4.425   1.285  -2.916  0.00  0.00    -0.078 A 
ATOM      5  C3  OXE d   1      -4.050   2.587  -2.600  0.00  0.00     0.003 A 
ATOM      6  C4  OXE d   1      -3.664   3.479  -3.609  0.00  0.00    -0.002 A 
ATOM      7  C5  OXE d   1      -3.541   3.043  -4.932  0.00  0.00    -0.002 A 
ATOM      8  C6  OXE d   1      -3.800   1.711  -5.238  0.00  0.00     0.003 A 
ENDROOT
TORSDOF 0
ENDMDL
