MODEL 1
REMARK minimizedAffinity 3.52353692
REMARK minimizedRMSD -1
REMARK  0 active torsions:
REMARK  status: ('A' for Active; 'I' for Inactive)
ROOT
ATOM      1  C2' OXE d   1      -3.237  -1.968  -5.661  0.00  0.00     0.078 C 
ATOM      2  C1' OXE d   1      -5.999  -2.338  -6.000  0.00  0.00     0.078 C 
ATOM      3  C1  OXE d   1      -5.128  -3.567  -5.926  0.00  0.00    -0.078 A 
ATOM      4  C2  OXE d   1      -3.773  -3.376  -5.807  0.00  0.00    -0.078 A 
ATOM      5  C3  OXE d   1      -2.930  -4.476  -5.681  0.00  0.00     0.003 A 
ATOM      6  C4  OXE d   1      -3.432  -5.775  -5.828  0.00  0.00    -0.002 A 
ATOM      7  C5  OXE d   1      -4.805  -5.991  -5.989  0.00  0.00    -0.002 A 
ATOM      8  C6  OXE d   1      -5.670  -4.902  -5.998  0.00  0.00     0.003 A 
ENDROOT
TORSDOF 0
ENDMDL
