MODEL 1
REMARK minimizedAffinity 14.2137136
REMARK minimizedRMSD -1
REMARK  0 active torsions:
REMARK  status: ('A' for Active; 'I' for Inactive)
ROOT
ATOM      1  C2' OXE d   1       0.304   5.999  -2.166  0.00  0.00     0.078 C 
ATOM      2  C1' OXE d   1      -2.425   5.412  -1.872  0.00  0.00     0.078 C 
ATOM      3  C1  OXE d   1      -1.432   4.323  -1.550  0.00  0.00    -0.078 A 
ATOM      4  C2  OXE d   1      -0.101   4.604  -1.742  0.00  0.00    -0.078 A 
ATOM      5  C3  OXE d   1       0.860   3.654  -1.408  0.00  0.00     0.003 A 
ATOM      6  C4  OXE d   1       0.476   2.363  -1.026  0.00  0.00    -0.002 A 
ATOM      7  C5  OXE d   1      -0.876   2.043  -0.862  0.00  0.00    -0.002 A 
ATOM      8  C6  OXE d   1      -1.839   3.022  -1.079  0.00  0.00     0.003 A 
ENDROOT
TORSDOF 0
ENDMDL
