MODEL 1
REMARK minimizedAffinity 9.03933048
REMARK minimizedRMSD -1
REMARK  0 active torsions:
REMARK  status: ('A' for Active; 'I' for Inactive)
ROOT
ATOM      1  C2' OXE d   1      -0.740   2.626   0.805  0.00  0.00     0.078 C 
ATOM      2  C1' OXE d   1      -2.391   4.881   1.070  0.00  0.00     0.078 C 
ATOM      3  C1  OXE d   1      -1.355   4.893  -0.026  0.00  0.00    -0.078 A 
ATOM      4  C2  OXE d   1      -0.520   3.805  -0.118  0.00  0.00    -0.078 A 
ATOM      5  C3  OXE d   1       0.418   3.741  -1.145  0.00  0.00     0.003 A 
ATOM      6  C4  OXE d   1       0.622   4.840  -1.988  0.00  0.00    -0.002 A 
ATOM      7  C5  OXE d   1      -0.191   5.974  -1.886  0.00  0.00    -0.002 A 
ATOM      8  C6  OXE d   1      -1.210   5.999  -0.939  0.00  0.00     0.003 A 
ENDROOT
TORSDOF 0
ENDMDL
