MODEL 1
REMARK minimizedAffinity 11.7785301
REMARK minimizedRMSD -1
REMARK  0 active torsions:
REMARK  status: ('A' for Active; 'I' for Inactive)
ROOT
ATOM      1  C2' OXE d   1       5.998  -2.934  -0.796  0.00  0.00     0.078 C 
ATOM      2  C1' OXE d   1       3.790  -4.424   0.090  0.00  0.00     0.078 C 
ATOM      3  C1  OXE d   1       4.355  -4.745  -1.272  0.00  0.00    -0.078 A 
ATOM      4  C2  OXE d   1       5.406  -3.979  -1.716  0.00  0.00    -0.078 A 
ATOM      5  C3  OXE d   1       6.000  -4.269  -2.942  0.00  0.00     0.003 A 
ATOM      6  C4  OXE d   1       5.440  -5.231  -3.791  0.00  0.00    -0.002 A 
ATOM      7  C5  OXE d   1       4.345  -5.995  -3.374  0.00  0.00    -0.002 A 
ATOM      8  C6  OXE d   1       3.818  -5.794  -2.102  0.00  0.00     0.003 A 
ENDROOT
TORSDOF 0
ENDMDL
