MODEL 1
REMARK minimizedAffinity 8.73073864
REMARK minimizedRMSD -1
REMARK  0 active torsions:
REMARK  status: ('A' for Active; 'I' for Inactive)
ROOT
ATOM      1  C2' OXE d   1       0.353  -2.796  -0.685  0.00  0.00     0.078 C 
ATOM      2  C1' OXE d   1       2.695  -1.295  -0.306  0.00  0.00     0.078 C 
ATOM      3  C1  OXE d   1       1.374  -0.571  -0.221  0.00  0.00    -0.078 A 
ATOM      4  C2  OXE d   1       0.236  -1.304  -0.455  0.00  0.00    -0.078 A 
ATOM      5  C3  OXE d   1      -1.011  -0.698  -0.335  0.00  0.00     0.003 A 
ATOM      6  C4  OXE d   1      -1.111   0.684  -0.132  0.00  0.00    -0.002 A 
ATOM      7  C5  OXE d   1       0.038   1.457   0.069  0.00  0.00    -0.002 A 
ATOM      8  C6  OXE d   1       1.283   0.838   0.069  0.00  0.00     0.003 A 
ENDROOT
TORSDOF 0
ENDMDL
