MODEL 1
REMARK minimizedAffinity 6.8922019
REMARK minimizedRMSD -1
REMARK  0 active torsions:
REMARK  status: ('A' for Active; 'I' for Inactive)
ROOT
ATOM      1  C2' OXE d   1       1.814   0.567  -0.460  0.00  0.00     0.078 C 
ATOM      2  C1' OXE d   1       1.621   1.823   2.043  0.00  0.00     0.078 C 
ATOM      3  C1  OXE d   1       0.667   2.261   0.960  0.00  0.00    -0.078 A 
ATOM      4  C2  OXE d   1       0.800   1.675  -0.275  0.00  0.00    -0.078 A 
ATOM      5  C3  OXE d   1      -0.090   2.004  -1.294  0.00  0.00     0.003 A 
ATOM      6  C4  OXE d   1      -1.019   3.036  -1.117  0.00  0.00    -0.002 A 
ATOM      7  C5  OXE d   1      -1.145   3.674   0.121  0.00  0.00    -0.002 A 
ATOM      8  C6  OXE d   1      -0.340   3.270   1.181  0.00  0.00     0.003 A 
ENDROOT
TORSDOF 0
ENDMDL
