MODEL 1
REMARK minimizedAffinity 8.03682327
REMARK minimizedRMSD -1
REMARK  0 active torsions:
REMARK  status: ('A' for Active; 'I' for Inactive)
ROOT
ATOM      1  C2' OXE d   1      -1.923   4.464  -1.136  0.00  0.00     0.078 C 
ATOM      2  C1' OXE d   1       0.871   4.523  -1.403  0.00  0.00     0.078 C 
ATOM      3  C1  OXE d   1       0.274   3.493  -0.476  0.00  0.00    -0.078 A 
ATOM      4  C2  OXE d   1      -1.090   3.502  -0.316  0.00  0.00    -0.078 A 
ATOM      5  C3  OXE d   1      -1.697   2.538   0.484  0.00  0.00     0.003 A 
ATOM      6  C4  OXE d   1      -0.919   1.658   1.247  0.00  0.00    -0.002 A 
ATOM      7  C5  OXE d   1       0.475   1.658   1.129  0.00  0.00    -0.002 A 
ATOM      8  C6  OXE d   1       1.083   2.539   0.241  0.00  0.00     0.003 A 
ENDROOT
TORSDOF 0
ENDMDL
