MODEL 1
REMARK minimizedAffinity 12.660058
REMARK minimizedRMSD -1
REMARK  0 active torsions:
REMARK  status: ('A' for Active; 'I' for Inactive)
ROOT
ATOM      1  C1  DEN d   1      -3.214   4.627  -2.061  0.00  0.00     0.130 A 
ATOM      2  C2  DEN d   1      -4.505   5.291  -1.897  0.00  0.00    -0.031 A 
ATOM      3  C3  DEN d   1      -4.846   5.948  -3.174  0.00  0.00     0.027 A 
ATOM      4  C4  DEN d   1      -3.510   6.000  -5.380  0.00  0.00     0.027 A 
ATOM      5  C5  DEN d   1      -2.350   5.590  -6.000  0.00  0.00    -0.003 A 
ATOM      6  C6  DEN d   1      -1.390   4.865  -5.346  0.00  0.00     0.001 A 
ATOM      7  C7  DEN d   1      -1.592   4.489  -4.044  0.00  0.00     0.017 A 
ATOM      8  C8  DEN d   1      -2.755   4.905  -3.410  0.00  0.00    -0.094 A 
ATOM      9  C9  DEN d   1      -3.720   5.627  -4.092  0.00  0.00    -0.072 A 
ENDROOT
TORSDOF 0
ENDMDL
