MODEL 1
REMARK minimizedAffinity 8.65822983
REMARK minimizedRMSD -1
REMARK  0 active torsions:
REMARK  status: ('A' for Active; 'I' for Inactive)
ROOT
ATOM      1  C1  DEN d   1      -2.109  -4.236   0.300  0.00  0.00     0.130 A 
ATOM      2  C2  DEN d   1      -3.398  -3.725  -0.157  0.00  0.00    -0.031 A 
ATOM      3  C3  DEN d   1      -3.491  -2.304   0.236  0.00  0.00     0.027 A 
ATOM      4  C4  DEN d   1      -1.770  -0.853   1.496  0.00  0.00     0.027 A 
ATOM      5  C5  DEN d   1      -0.532  -0.850   2.099  0.00  0.00    -0.003 A 
ATOM      6  C6  DEN d   1       0.246  -1.975   2.175  0.00  0.00     0.001 A 
ATOM      7  C7  DEN d   1      -0.186  -3.139   1.598  0.00  0.00     0.017 A 
ATOM      8  C8  DEN d   1      -1.436  -3.152   0.994  0.00  0.00    -0.094 A 
ATOM      9  C9  DEN d   1      -2.203  -2.002   0.917  0.00  0.00    -0.072 A 
ENDROOT
TORSDOF 0
ENDMDL
