MODEL 1
REMARK minimizedAffinity 2.06788516
REMARK minimizedRMSD -1
REMARK  0 active torsions:
REMARK  status: ('A' for Active; 'I' for Inactive)
ROOT
ATOM      1  C1  DEN d   1      -4.979  -2.872   4.298  0.00  0.00     0.130 A 
ATOM      2  C2  DEN d   1      -5.399  -2.386   5.609  0.00  0.00    -0.031 A 
ATOM      3  C3  DEN d   1      -4.694  -1.116   5.873  0.00  0.00     0.027 A 
ATOM      4  C4  DEN d   1      -3.003   0.141   4.384  0.00  0.00     0.027 A 
ATOM      5  C5  DEN d   1      -2.324   0.112   3.186  0.00  0.00    -0.003 A 
ATOM      6  C6  DEN d   1      -2.455  -0.922   2.297  0.00  0.00     0.001 A 
ATOM      7  C7  DEN d   1      -3.320  -1.948   2.572  0.00  0.00     0.017 A 
ATOM      8  C8  DEN d   1      -4.002  -1.930   3.782  0.00  0.00    -0.094 A 
ATOM      9  C9  DEN d   1      -3.865  -0.870   4.662  0.00  0.00    -0.072 A 
ENDROOT
TORSDOF 0
ENDMDL
