MODEL 1
REMARK minimizedAffinity 9.87168503
REMARK minimizedRMSD -1
REMARK  0 active torsions:
REMARK  status: ('A' for Active; 'I' for Inactive)
ROOT
ATOM      1  C1  DEN d   1      -2.755   1.400   2.006  0.00  0.00     0.130 A 
ATOM      2  C2  DEN d   1      -1.694   0.420   2.219  0.00  0.00    -0.031 A 
ATOM      3  C3  DEN d   1      -1.728   0.011   3.638  0.00  0.00     0.027 A 
ATOM      4  C4  DEN d   1      -3.316   0.794   5.514  0.00  0.00     0.027 A 
ATOM      5  C5  DEN d   1      -4.372   1.625   5.817  0.00  0.00    -0.003 A 
ATOM      6  C6  DEN d   1      -4.936   2.457   4.887  0.00  0.00     0.001 A 
ATOM      7  C7  DEN d   1      -4.476   2.444   3.596  0.00  0.00     0.017 A 
ATOM      8  C8  DEN d   1      -3.407   1.614   3.285  0.00  0.00    -0.094 A 
ATOM      9  C9  DEN d   1      -2.858   0.771   4.236  0.00  0.00    -0.072 A 
ENDROOT
TORSDOF 0
ENDMDL
