MODEL 1
REMARK minimizedAffinity 11.8897209
REMARK minimizedRMSD -1
REMARK  0 active torsions:
REMARK  status: ('A' for Active; 'I' for Inactive)
ROOT
ATOM      1  C1  DEN d   1      -4.671  -2.626   2.432  0.00  0.00     0.130 A 
ATOM      2  C2  DEN d   1      -5.194  -2.868   3.774  0.00  0.00    -0.031 A 
ATOM      3  C3  DEN d   1      -4.611  -1.858   4.680  0.00  0.00     0.027 A 
ATOM      4  C4  DEN d   1      -2.961   0.050   4.137  0.00  0.00     0.027 A 
ATOM      5  C5  DEN d   1      -2.225   0.646   3.138  0.00  0.00    -0.003 A 
ATOM      6  C6  DEN d   1      -2.225   0.178   1.851  0.00  0.00     0.001 A 
ATOM      7  C7  DEN d   1      -3.013  -0.893   1.519  0.00  0.00     0.017 A 
ATOM      8  C8  DEN d   1      -3.753  -1.505   2.523  0.00  0.00    -0.094 A 
ATOM      9  C9  DEN d   1      -3.748  -1.008   3.815  0.00  0.00    -0.072 A 
ENDROOT
TORSDOF 0
ENDMDL
