MODEL 1
REMARK minimizedAffinity 9.9886198
REMARK minimizedRMSD -1
REMARK  0 active torsions:
REMARK  status: ('A' for Active; 'I' for Inactive)
ROOT
ATOM      1  C1  DEN d   1       3.248   1.590  -0.621  0.00  0.00     0.130 A 
ATOM      2  C2  DEN d   1       2.300   1.675   0.487  0.00  0.00    -0.031 A 
ATOM      3  C3  DEN d   1       1.241   2.632   0.108  0.00  0.00     0.027 A 
ATOM      4  C4  DEN d   1       0.975   3.979  -2.075  0.00  0.00     0.027 A 
ATOM      5  C5  DEN d   1       1.538   4.247  -3.304  0.00  0.00    -0.003 A 
ATOM      6  C6  DEN d   1       2.717   3.680  -3.707  0.00  0.00     0.001 A 
ATOM      7  C7  DEN d   1       3.350   2.779  -2.892  0.00  0.00     0.017 A 
ATOM      8  C8  DEN d   1       2.794   2.509  -1.649  0.00  0.00    -0.094 A 
ATOM      9  C9  DEN d   1       1.594   3.083  -1.265  0.00  0.00    -0.072 A 
ENDROOT
TORSDOF 0
ENDMDL
