MODEL 1
REMARK minimizedAffinity -0.898469031
REMARK minimizedRMSD -1
REMARK  0 active torsions:
REMARK  status: ('A' for Active; 'I' for Inactive)
ROOT
ATOM      1  C1  DEN d   1      -4.690   0.969   0.577  0.00  0.00     0.130 A 
ATOM      2  C2  DEN d   1      -4.383   0.398  -0.732  0.00  0.00    -0.031 A 
ATOM      3  C3  DEN d   1      -3.095  -0.317  -0.627  0.00  0.00     0.027 A 
ATOM      4  C4  DEN d   1      -1.557  -0.598   1.425  0.00  0.00     0.027 A 
ATOM      5  C5  DEN d   1      -1.391  -0.281   2.755  0.00  0.00    -0.003 A 
ATOM      6  C6  DEN d   1      -2.288   0.496   3.438  0.00  0.00     0.001 A 
ATOM      7  C7  DEN d   1      -3.417   0.946   2.804  0.00  0.00     0.017 A 
ATOM      8  C8  DEN d   1      -3.587   0.637   1.461  0.00  0.00    -0.094 A 
ATOM      9  C9  DEN d   1      -2.675  -0.160   0.792  0.00  0.00    -0.072 A 
ENDROOT
TORSDOF 0
ENDMDL
