MODEL 1
REMARK minimizedAffinity 1.52489316
REMARK minimizedRMSD -1
REMARK  0 active torsions:
REMARK  status: ('A' for Active; 'I' for Inactive)
ROOT
ATOM      1  C1  DEN d   1      -5.490  -1.541   4.688  0.00  0.00     0.130 A 
ATOM      2  C2  DEN d   1      -5.419  -0.893   5.995  0.00  0.00    -0.031 A 
ATOM      3  C3  DEN d   1      -4.243   0.001   5.998  0.00  0.00     0.027 A 
ATOM      4  C4  DEN d   1      -2.538   0.445   4.115  0.00  0.00     0.027 A 
ATOM      5  C5  DEN d   1      -2.178   0.118   2.826  0.00  0.00    -0.003 A 
ATOM      6  C6  DEN d   1      -2.871  -0.803   2.086  0.00  0.00     0.001 A 
ATOM      7  C7  DEN d   1      -3.988  -1.396   2.613  0.00  0.00     0.017 A 
ATOM      8  C8  DEN d   1      -4.353  -1.076   3.914  0.00  0.00    -0.094 A 
ATOM      9  C9  DEN d   1      -3.646  -0.134   4.642  0.00  0.00    -0.072 A 
ENDROOT
TORSDOF 0
ENDMDL
