MODEL 1
REMARK minimizedAffinity 14.354002
REMARK minimizedRMSD -1
REMARK  0 active torsions:
REMARK  status: ('A' for Active; 'I' for Inactive)
ROOT
ATOM      1  C1  DEN d   1       3.637   1.856  -2.874  0.00  0.00     0.130 A 
ATOM      2  C2  DEN d   1       2.233   2.163  -2.613  0.00  0.00    -0.031 A 
ATOM      3  C3  DEN d   1       1.870   3.352  -3.411  0.00  0.00     0.027 A 
ATOM      4  C4  DEN d   1       3.336   4.736  -5.020  0.00  0.00     0.027 A 
ATOM      5  C5  DEN d   1       4.597   4.867  -5.558  0.00  0.00    -0.003 A 
ATOM      6  C6  DEN d   1       5.627   4.031  -5.216  0.00  0.00     0.001 A 
ATOM      7  C7  DEN d   1       5.402   2.998  -4.345  0.00  0.00     0.017 A 
ATOM      8  C8  DEN d   1       4.135   2.864  -3.793  0.00  0.00    -0.094 A 
ATOM      9  C9  DEN d   1       3.104   3.712  -4.160  0.00  0.00    -0.072 A 
ENDROOT
TORSDOF 0
ENDMDL
