MODEL 1
REMARK minimizedAffinity 1.89418995
REMARK minimizedRMSD -1
REMARK  0 active torsions:
REMARK  status: ('A' for Active; 'I' for Inactive)
ROOT
ATOM      1  C1  DEN d   1      -0.645  -2.619   1.947  0.00  0.00     0.130 A 
ATOM      2  C2  DEN d   1       0.417  -2.621   2.949  0.00  0.00    -0.031 A 
ATOM      3  C3  DEN d   1       0.211  -1.456   3.834  0.00  0.00     0.027 A 
ATOM      4  C4  DEN d   1      -1.642   0.336   3.753  0.00  0.00     0.027 A 
ATOM      5  C5  DEN d   1      -2.761   0.764   3.074  0.00  0.00    -0.003 A 
ATOM      6  C6  DEN d   1      -3.230   0.119   1.960  0.00  0.00     0.001 A 
ATOM      7  C7  DEN d   1      -2.603  -1.017   1.519  0.00  0.00     0.017 A 
ATOM      8  C8  DEN d   1      -1.469  -1.450   2.194  0.00  0.00    -0.094 A 
ATOM      9  C9  DEN d   1      -1.018  -0.791   3.325  0.00  0.00    -0.072 A 
ENDROOT
TORSDOF 0
ENDMDL
