MODEL 1
REMARK minimizedAffinity 21.4408188
REMARK minimizedRMSD -1
REMARK  0 active torsions:
REMARK  status: ('A' for Active; 'I' for Inactive)
ROOT
ATOM      1  C1  DEN d   1      -3.622  -2.756   3.891  0.00  0.00     0.130 A 
ATOM      2  C2  DEN d   1      -3.218  -3.183   2.554  0.00  0.00    -0.031 A 
ATOM      3  C3  DEN d   1      -3.816  -4.508   2.297  0.00  0.00     0.027 A 
ATOM      4  C4  DEN d   1      -5.326  -5.931   3.830  0.00  0.00     0.027 A 
ATOM      5  C5  DEN d   1      -5.933  -5.992   5.064  0.00  0.00    -0.003 A 
ATOM      6  C6  DEN d   1      -5.787  -5.002   6.000  0.00  0.00     0.001 A 
ATOM      7  C7  DEN d   1      -5.050  -3.887   5.698  0.00  0.00     0.017 A 
ATOM      8  C8  DEN d   1      -4.429  -3.822   4.458  0.00  0.00    -0.094 A 
ATOM      9  C9  DEN d   1      -4.599  -4.827   3.521  0.00  0.00    -0.072 A 
ENDROOT
TORSDOF 0
ENDMDL
