MODEL 1
REMARK minimizedAffinity 13.0609331
REMARK minimizedRMSD -1
REMARK  0 active torsions:
REMARK  status: ('A' for Active; 'I' for Inactive)
ROOT
ATOM      1  C1  DEN d   1      -0.248  -1.522   2.650  0.00  0.00     0.130 A 
ATOM      2  C2  DEN d   1      -0.378  -2.735   1.848  0.00  0.00    -0.031 A 
ATOM      3  C3  DEN d   1      -1.666  -2.671   1.129  0.00  0.00     0.027 A 
ATOM      4  C4  DEN d   1      -3.460  -0.818   1.177  0.00  0.00     0.027 A 
ATOM      5  C5  DEN d   1      -3.801   0.401   1.720  0.00  0.00    -0.003 A 
ATOM      6  C6  DEN d   1      -3.004   1.043   2.630  0.00  0.00     0.001 A 
ATOM      7  C7  DEN d   1      -1.803   0.490   2.991  0.00  0.00     0.017 A 
ATOM      8  C8  DEN d   1      -1.456  -0.742   2.452  0.00  0.00    -0.094 A 
ATOM      9  C9  DEN d   1      -2.270  -1.370   1.524  0.00  0.00    -0.072 A 
ENDROOT
TORSDOF 0
ENDMDL
