MODEL 1
REMARK minimizedAffinity 16.9163189
REMARK minimizedRMSD -1
REMARK  0 active torsions:
REMARK  status: ('A' for Active; 'I' for Inactive)
ROOT
ATOM      1  C1  DEN d   1      -3.603  -2.889   3.387  0.00  0.00     0.130 A 
ATOM      2  C2  DEN d   1      -3.512  -3.372   2.012  0.00  0.00    -0.031 A 
ATOM      3  C3  DEN d   1      -4.191  -4.682   1.942  0.00  0.00     0.027 A 
ATOM      4  C4  DEN d   1      -5.372  -5.999   3.819  0.00  0.00     0.027 A 
ATOM      5  C5  DEN d   1      -5.697  -5.998   5.157  0.00  0.00    -0.003 A 
ATOM      6  C6  DEN d   1      -5.321  -4.986   6.000  0.00  0.00     0.001 A 
ATOM      7  C7  DEN d   1      -4.636  -3.909   5.503  0.00  0.00     0.017 A 
ATOM      8  C8  DEN d   1      -4.297  -3.906   4.156  0.00  0.00    -0.094 A 
ATOM      9  C9  DEN d   1      -4.697  -4.933   3.318  0.00  0.00    -0.072 A 
ENDROOT
TORSDOF 0
ENDMDL
