MODEL 1
REMARK minimizedAffinity 6.78175306
REMARK minimizedRMSD -1
REMARK  0 active torsions:
REMARK  status: ('A' for Active; 'I' for Inactive)
ROOT
ATOM      1  C1  DEN d   1      -5.980  -5.998   4.756  0.00  0.00     0.130 A 
ATOM      2  C2  DEN d   1      -5.792  -5.149   5.929  0.00  0.00    -0.031 A 
ATOM      3  C3  DEN d   1      -4.779  -4.128   5.596  0.00  0.00     0.027 A 
ATOM      4  C4  DEN d   1      -3.494  -3.777   3.387  0.00  0.00     0.027 A 
ATOM      5  C5  DEN d   1      -3.307  -4.256   2.109  0.00  0.00    -0.003 A 
ATOM      6  C6  DEN d   1      -3.967  -5.360   1.639  0.00  0.00     0.001 A 
ATOM      7  C7  DEN d   1      -4.880  -5.996   2.438  0.00  0.00     0.017 A 
ATOM      8  C8  DEN d   1      -5.069  -5.524   3.730  0.00  0.00    -0.094 A 
ATOM      9  C9  DEN d   1      -4.401  -4.399   4.182  0.00  0.00    -0.072 A 
ENDROOT
TORSDOF 0
ENDMDL
