MODEL 1
REMARK minimizedAffinity -2.10987115
REMARK minimizedRMSD -1
REMARK  3 active torsions:
REMARK  status: ('A' for Active; 'I' for Inactive)
REMARK    1  A    between atoms: C3'_2  and  C2'_3 
REMARK    2  A    between atoms: C2'_3  and  C1'_4 
REMARK    3  A    between atoms: C1'_4  and  C1_5 
ROOT
ATOM      1  C1  N4B d   1      -5.392  -4.216  -5.002  0.00  0.00    -0.075 A 
ATOM      2  C2  N4B d   1      -5.416  -3.789  -3.656  0.00  0.00     0.002 A 
ATOM      3  C3  N4B d   1      -5.728  -2.486  -3.354  0.00  0.00     0.002 A 
ATOM      4  C4  N4B d   1      -5.999  -1.591  -4.377  0.00  0.00    -0.004 A 
ATOM      5  C5  N4B d   1      -5.999  -2.017  -5.673  0.00  0.00     0.002 A 
ATOM      6  C6  N4B d   1      -5.691  -3.325  -5.991  0.00  0.00     0.002 A 
ENDROOT
BRANCH   1   7
ATOM      7  C1' N4B d   1      -4.973  -5.608  -5.387  0.00  0.00     0.057 C 
BRANCH   7   8
ATOM      8  C2' N4B d   1      -3.526  -5.580  -5.871  0.00  0.00     0.009 C 
BRANCH   8   9
ATOM      9  C3' N4B d   1      -2.542  -5.513  -4.717  0.00  0.00     0.004 C 
ATOM     10  C4' N4B d   1      -1.192  -5.009  -5.133  0.00  0.00     0.003 C 
ENDBRANCH   8   9
ENDBRANCH   7   8
ENDBRANCH   1   7
TORSDOF 3
ENDMDL
