MODEL 1
REMARK minimizedAffinity -3.88612437
REMARK minimizedRMSD -1
REMARK  3 active torsions:
REMARK  status: ('A' for Active; 'I' for Inactive)
REMARK    1  A    between atoms: C3'_2  and  C2'_3 
REMARK    2  A    between atoms: C2'_3  and  C1'_4 
REMARK    3  A    between atoms: C1'_4  and  C1_5 
ROOT
ATOM      1  C1  N4B d   1      -3.991  -4.432  -5.427  0.00  0.00    -0.075 A 
ATOM      2  C2  N4B d   1      -3.970  -3.081  -5.838  0.00  0.00     0.002 A 
ATOM      3  C3  N4B d   1      -4.967  -2.226  -5.436  0.00  0.00     0.002 A 
ATOM      4  C4  N4B d   1      -6.000  -2.701  -4.642  0.00  0.00    -0.004 A 
ATOM      5  C5  N4B d   1      -5.999  -4.001  -4.229  0.00  0.00     0.002 A 
ATOM      6  C6  N4B d   1      -5.002  -4.871  -4.622  0.00  0.00     0.002 A 
ENDROOT
BRANCH   1   7
ATOM      7  C1' N4B d   1      -2.971  -5.425  -5.912  0.00  0.00     0.057 C 
BRANCH   7   8
ATOM      8  C2' N4B d   1      -1.632  -5.137  -5.239  0.00  0.00     0.009 C 
BRANCH   8   9
ATOM      9  C3' N4B d   1      -1.810  -4.567  -3.842  0.00  0.00     0.004 C 
ATOM     10  C4' N4B d   1      -1.759  -5.619  -2.775  0.00  0.00     0.003 C 
ENDBRANCH   8   9
ENDBRANCH   7   8
ENDBRANCH   1   7
TORSDOF 3
ENDMDL
