MODEL 1
REMARK minimizedAffinity -2.61084509
REMARK minimizedRMSD -1
REMARK  3 active torsions:
REMARK  status: ('A' for Active; 'I' for Inactive)
REMARK    1  A    between atoms: C3'_2  and  C2'_3 
REMARK    2  A    between atoms: C2'_3  and  C1'_4 
REMARK    3  A    between atoms: C1'_4  and  C1_5 
ROOT
ATOM      1  C1  N4B d   1      -3.790  -2.338  -4.951  0.00  0.00    -0.075 A 
ATOM      2  C2  N4B d   1      -4.154  -1.017  -5.291  0.00  0.00     0.002 A 
ATOM      3  C3  N4B d   1      -5.221  -0.416  -4.668  0.00  0.00     0.002 A 
ATOM      4  C4  N4B d   1      -5.947  -1.121  -3.721  0.00  0.00    -0.004 A 
ATOM      5  C5  N4B d   1      -5.574  -2.389  -3.380  0.00  0.00     0.002 A 
ATOM      6  C6  N4B d   1      -4.502  -3.003  -3.995  0.00  0.00     0.002 A 
ENDROOT
BRANCH   1   7
ATOM      7  C1' N4B d   1      -2.685  -3.067  -5.666  0.00  0.00     0.057 C 
BRANCH   7   8
ATOM      8  C2' N4B d   1      -2.270  -4.281  -4.841  0.00  0.00     0.009 C 
BRANCH   8   9
ATOM      9  C3' N4B d   1      -2.310  -5.562  -5.656  0.00  0.00     0.004 C 
ATOM     10  C4' N4B d   1      -3.706  -5.989  -6.000  0.00  0.00     0.003 C 
ENDBRANCH   8   9
ENDBRANCH   7   8
ENDBRANCH   1   7
TORSDOF 3
ENDMDL
