MODEL 1
REMARK minimizedAffinity -0.65643841
REMARK minimizedRMSD -1
REMARK  3 active torsions:
REMARK  status: ('A' for Active; 'I' for Inactive)
REMARK    1  A    between atoms: C3'_2  and  C2'_3 
REMARK    2  A    between atoms: C2'_3  and  C1'_4 
REMARK    3  A    between atoms: C1'_4  and  C1_5 
ROOT
ATOM      1  C1  N4B d   1      -3.589  -4.521  -5.928  0.00  0.00    -0.075 A 
ATOM      2  C2  N4B d   1      -4.806  -5.234  -6.000  0.00  0.00     0.002 A 
ATOM      3  C3  N4B d   1      -5.999  -4.571  -5.852  0.00  0.00     0.002 A 
ATOM      4  C4  N4B d   1      -6.000  -3.205  -5.614  0.00  0.00    -0.004 A 
ATOM      5  C5  N4B d   1      -4.821  -2.519  -5.571  0.00  0.00     0.002 A 
ATOM      6  C6  N4B d   1      -3.614  -3.172  -5.722  0.00  0.00     0.002 A 
ENDROOT
BRANCH   1   7
ATOM      7  C1' N4B d   1      -2.256  -5.216  -5.998  0.00  0.00     0.057 C 
BRANCH   7   8
ATOM      8  C2' N4B d   1      -1.716  -5.406  -4.584  0.00  0.00     0.009 C 
BRANCH   8   9
ATOM      9  C3' N4B d   1      -2.759  -5.998  -3.652  0.00  0.00     0.004 C 
ATOM     10  C4' N4B d   1      -3.432  -4.964  -2.800  0.00  0.00     0.003 C 
ENDBRANCH   8   9
ENDBRANCH   7   8
ENDBRANCH   1   7
TORSDOF 3
ENDMDL
