MODEL 1
REMARK minimizedAffinity -1.12857437
REMARK minimizedRMSD -1
REMARK  3 active torsions:
REMARK  status: ('A' for Active; 'I' for Inactive)
REMARK    1  A    between atoms: C3'_2  and  C2'_3 
REMARK    2  A    between atoms: C2'_3  and  C1'_4 
REMARK    3  A    between atoms: C1'_4  and  C1_5 
ROOT
ATOM      1  C1  N4B d   1      -3.674  -4.511  -5.071  0.00  0.00    -0.075 A 
ATOM      2  C2  N4B d   1      -2.612  -4.450  -6.000  0.00  0.00     0.002 A 
ATOM      3  C3  N4B d   1      -1.460  -5.163  -5.773  0.00  0.00     0.002 A 
ATOM      4  C4  N4B d   1      -1.341  -5.926  -4.621  0.00  0.00    -0.004 A 
ATOM      5  C5  N4B d   1      -2.381  -5.999  -3.742  0.00  0.00     0.002 A 
ATOM      6  C6  N4B d   1      -3.546  -5.291  -3.959  0.00  0.00     0.002 A 
ENDROOT
BRANCH   1   7
ATOM      7  C1' N4B d   1      -4.918  -3.682  -5.233  0.00  0.00     0.057 C 
BRANCH   7   8
ATOM      8  C2' N4B d   1      -5.074  -2.770  -4.019  0.00  0.00     0.009 C 
BRANCH   8   9
ATOM      9  C3' N4B d   1      -5.999  -1.599  -4.302  0.00  0.00     0.004 C 
ATOM     10  C4' N4B d   1      -5.265  -0.299  -4.442  0.00  0.00     0.003 C 
ENDBRANCH   8   9
ENDBRANCH   7   8
ENDBRANCH   1   7
TORSDOF 3
ENDMDL
