MODEL 1
REMARK minimizedAffinity -1.7724992
REMARK minimizedRMSD -1
REMARK  3 active torsions:
REMARK  status: ('A' for Active; 'I' for Inactive)
REMARK    1  A    between atoms: C3'_2  and  C2'_3 
REMARK    2  A    between atoms: C2'_3  and  C1'_4 
REMARK    3  A    between atoms: C1'_4  and  C1_5 
ROOT
ATOM      1  C1  N4B d   1      -4.396  -4.900  -4.729  0.00  0.00    -0.075 A 
ATOM      2  C2  N4B d   1      -3.985  -5.880  -5.659  0.00  0.00     0.002 A 
ATOM      3  C3  N4B d   1      -2.659  -5.990  -5.998  0.00  0.00     0.002 A 
ATOM      4  C4  N4B d   1      -1.733  -5.123  -5.438  0.00  0.00    -0.004 A 
ATOM      5  C5  N4B d   1      -2.135  -4.196  -4.522  0.00  0.00     0.002 A 
ATOM      6  C6  N4B d   1      -3.463  -4.076  -4.168  0.00  0.00     0.002 A 
ENDROOT
BRANCH   1   7
ATOM      7  C1' N4B d   1      -5.846  -4.684  -4.391  0.00  0.00     0.057 C 
BRANCH   7   8
ATOM      8  C2' N4B d   1      -6.000  -3.347  -3.673  0.00  0.00     0.009 C 
BRANCH   8   9
ATOM      9  C3' N4B d   1      -5.987  -2.177  -4.641  0.00  0.00     0.004 C 
ATOM     10  C4' N4B d   1      -5.872  -0.852  -3.949  0.00  0.00     0.003 C 
ENDBRANCH   8   9
ENDBRANCH   7   8
ENDBRANCH   1   7
TORSDOF 3
ENDMDL
