MODEL 1
REMARK minimizedAffinity -2.18529606
REMARK minimizedRMSD -1
REMARK  3 active torsions:
REMARK  status: ('A' for Active; 'I' for Inactive)
REMARK    1  A    between atoms: C3'_2  and  C2'_3 
REMARK    2  A    between atoms: C2'_3  and  C1'_4 
REMARK    3  A    between atoms: C1'_4  and  C1_5 
ROOT
ATOM      1  C1  N4B d   1      -4.376  -4.040  -4.736  0.00  0.00    -0.075 A 
ATOM      2  C2  N4B d   1      -3.679  -4.160  -5.958  0.00  0.00     0.002 A 
ATOM      3  C3  N4B d   1      -2.463  -4.799  -5.995  0.00  0.00     0.002 A 
ATOM      4  C4  N4B d   1      -1.919  -5.306  -4.824  0.00  0.00    -0.004 A 
ATOM      5  C5  N4B d   1      -2.611  -5.208  -3.652  0.00  0.00     0.002 A 
ATOM      6  C6  N4B d   1      -3.836  -4.573  -3.602  0.00  0.00     0.002 A 
ENDROOT
BRANCH   1   7
ATOM      7  C1' N4B d   1      -5.668  -3.276  -4.631  0.00  0.00     0.057 C 
BRANCH   7   8
ATOM      8  C2' N4B d   1      -5.921  -2.538  -5.942  0.00  0.00     0.009 C 
BRANCH   8   9
ATOM      9  C3' N4B d   1      -5.998  -1.034  -5.743  0.00  0.00     0.004 C 
ATOM     10  C4' N4B d   1      -5.963  -0.638  -4.297  0.00  0.00     0.003 C 
ENDBRANCH   8   9
ENDBRANCH   7   8
ENDBRANCH   1   7
TORSDOF 3
ENDMDL
