MODEL 1
REMARK minimizedAffinity -1.8679353
REMARK minimizedRMSD -1
REMARK  3 active torsions:
REMARK  status: ('A' for Active; 'I' for Inactive)
REMARK    1  A    between atoms: C3'_2  and  C2'_3 
REMARK    2  A    between atoms: C2'_3  and  C1'_4 
REMARK    3  A    between atoms: C1'_4  and  C1_5 
ROOT
ATOM      1  C1  N4B d   1      -3.581  -4.904  -5.884  0.00  0.00    -0.075 A 
ATOM      2  C2  N4B d   1      -4.795  -5.626  -5.907  0.00  0.00     0.002 A 
ATOM      3  C3  N4B d   1      -5.991  -4.955  -5.973  0.00  0.00     0.002 A 
ATOM      4  C4  N4B d   1      -6.000  -3.568  -5.997  0.00  0.00    -0.004 A 
ATOM      5  C5  N4B d   1      -4.822  -2.879  -6.000  0.00  0.00     0.002 A 
ATOM      6  C6  N4B d   1      -3.612  -3.541  -5.938  0.00  0.00     0.002 A 
ENDROOT
BRANCH   1   7
ATOM      7  C1' N4B d   1      -2.252  -5.590  -5.726  0.00  0.00     0.057 C 
BRANCH   7   8
ATOM      8  C2' N4B d   1      -1.835  -5.544  -4.259  0.00  0.00     0.009 C 
BRANCH   8   9
ATOM      9  C3' N4B d   1      -2.970  -5.948  -3.333  0.00  0.00     0.004 C 
ATOM     10  C4' N4B d   1      -3.581  -4.780  -2.618  0.00  0.00     0.003 C 
ENDBRANCH   8   9
ENDBRANCH   7   8
ENDBRANCH   1   7
TORSDOF 3
ENDMDL
