MODEL 1
REMARK minimizedAffinity -2.09816313
REMARK minimizedRMSD -1
REMARK  3 active torsions:
REMARK  status: ('A' for Active; 'I' for Inactive)
REMARK    1  A    between atoms: C3'_2  and  C2'_3 
REMARK    2  A    between atoms: C2'_3  and  C1'_4 
REMARK    3  A    between atoms: C1'_4  and  C1_5 
ROOT
ATOM      1  C1  N4B d   1      -3.964  -5.232  -4.949  0.00  0.00    -0.075 A 
ATOM      2  C2  N4B d   1      -3.293  -5.975  -5.945  0.00  0.00     0.002 A 
ATOM      3  C3  N4B d   1      -1.921  -5.968  -5.999  0.00  0.00     0.002 A 
ATOM      4  C4  N4B d   1      -1.202  -5.215  -5.083  0.00  0.00    -0.004 A 
ATOM      5  C5  N4B d   1      -1.857  -4.521  -4.108  0.00  0.00     0.002 A 
ATOM      6  C6  N4B d   1      -3.236  -4.522  -4.039  0.00  0.00     0.002 A 
ENDROOT
BRANCH   1   7
ATOM      7  C1' N4B d   1      -5.465  -5.140  -4.903  0.00  0.00     0.057 C 
BRANCH   7   8
ATOM      8  C2' N4B d   1      -5.909  -3.858  -5.601  0.00  0.00     0.009 C 
BRANCH   8   9
ATOM      9  C3' N4B d   1      -6.000  -2.688  -4.636  0.00  0.00     0.004 C 
ATOM     10  C4' N4B d   1      -5.981  -1.360  -5.332  0.00  0.00     0.003 C 
ENDBRANCH   8   9
ENDBRANCH   7   8
ENDBRANCH   1   7
TORSDOF 3
ENDMDL
