MODEL 1
REMARK minimizedAffinity -2.81660557
REMARK minimizedRMSD -1
REMARK  3 active torsions:
REMARK  status: ('A' for Active; 'I' for Inactive)
REMARK    1  A    between atoms: C3'_2  and  C2'_3 
REMARK    2  A    between atoms: C2'_3  and  C1'_4 
REMARK    3  A    between atoms: C1'_4  and  C1_5 
ROOT
ATOM      1  C1  N4B d   1      -4.386  -4.599  -4.266  0.00  0.00    -0.075 A 
ATOM      2  C2  N4B d   1      -4.504  -5.679  -5.169  0.00  0.00     0.002 A 
ATOM      3  C3  N4B d   1      -3.456  -6.000  -5.996  0.00  0.00     0.002 A 
ATOM      4  C4  N4B d   1      -2.292  -5.247  -5.952  0.00  0.00    -0.004 A 
ATOM      5  C5  N4B d   1      -2.177  -4.221  -5.060  0.00  0.00     0.002 A 
ATOM      6  C6  N4B d   1      -3.221  -3.890  -4.220  0.00  0.00     0.002 A 
ENDROOT
BRANCH   1   7
ATOM      7  C1' N4B d   1      -5.536  -4.157  -3.403  0.00  0.00     0.057 C 
BRANCH   7   8
ATOM      8  C2' N4B d   1      -5.384  -2.672  -3.088  0.00  0.00     0.009 C 
BRANCH   8   9
ATOM      9  C3' N4B d   1      -6.000  -1.797  -4.166  0.00  0.00     0.004 C 
ATOM     10  C4' N4B d   1      -5.975  -2.440  -5.521  0.00  0.00     0.003 C 
ENDBRANCH   8   9
ENDBRANCH   7   8
ENDBRANCH   1   7
TORSDOF 3
ENDMDL
