MODEL 1
REMARK minimizedAffinity -2.19970655
REMARK minimizedRMSD -1
REMARK  3 active torsions:
REMARK  status: ('A' for Active; 'I' for Inactive)
REMARK    1  A    between atoms: C3'_2  and  C2'_3 
REMARK    2  A    between atoms: C2'_3  and  C1'_4 
REMARK    3  A    between atoms: C1'_4  and  C1_5 
ROOT
ATOM      1  C1  N4B d   1      -3.855  -4.043  -4.485  0.00  0.00    -0.075 A 
ATOM      2  C2  N4B d   1      -4.586  -4.957  -5.275  0.00  0.00     0.002 A 
ATOM      3  C3  N4B d   1      -3.926  -5.919  -6.000  0.00  0.00     0.002 A 
ATOM      4  C4  N4B d   1      -2.541  -5.973  -5.966  0.00  0.00    -0.004 A 
ATOM      5  C5  N4B d   1      -1.843  -5.102  -5.180  0.00  0.00     0.002 A 
ATOM      6  C6  N4B d   1      -2.494  -4.133  -4.443  0.00  0.00     0.002 A 
ENDROOT
BRANCH   1   7
ATOM      7  C1' N4B d   1      -4.527  -2.920  -3.743  0.00  0.00     0.057 C 
BRANCH   7   8
ATOM      8  C2' N4B d   1      -5.817  -2.543  -4.466  0.00  0.00     0.009 C 
BRANCH   8   9
ATOM      9  C3' N4B d   1      -6.000  -1.037  -4.553  0.00  0.00     0.004 C 
ATOM     10  C4' N4B d   1      -4.799  -0.337  -5.115  0.00  0.00     0.003 C 
ENDBRANCH   8   9
ENDBRANCH   7   8
ENDBRANCH   1   7
TORSDOF 3
ENDMDL
