MODEL 1
REMARK minimizedAffinity -3.57726932
REMARK minimizedRMSD -1
REMARK  3 active torsions:
REMARK  status: ('A' for Active; 'I' for Inactive)
REMARK    1  A    between atoms: C3'_2  and  C2'_3 
REMARK    2  A    between atoms: C2'_3  and  C1'_4 
REMARK    3  A    between atoms: C1'_4  and  C1_5 
ROOT
ATOM      1  C1  N4B d   1      -4.361  -4.484  -4.576  0.00  0.00    -0.075 A 
ATOM      2  C2  N4B d   1      -4.335  -5.504  -5.553  0.00  0.00     0.002 A 
ATOM      3  C3  N4B d   1      -3.133  -5.996  -6.000  0.00  0.00     0.002 A 
ATOM      4  C4  N4B d   1      -1.950  -5.473  -5.500  0.00  0.00    -0.004 A 
ATOM      5  C5  N4B d   1      -1.984  -4.507  -4.538  0.00  0.00     0.002 A 
ATOM      6  C6  N4B d   1      -3.184  -4.006  -4.077  0.00  0.00     0.002 A 
ENDROOT
BRANCH   1   7
ATOM      7  C1' N4B d   1      -5.649  -3.855  -4.120  0.00  0.00     0.057 C 
BRANCH   7   8
ATOM      8  C2' N4B d   1      -5.996  -2.694  -5.048  0.00  0.00     0.009 C 
BRANCH   8   9
ATOM      9  C3' N4B d   1      -6.000  -1.363  -4.316  0.00  0.00     0.004 C 
ATOM     10  C4' N4B d   1      -4.975  -0.406  -4.847  0.00  0.00     0.003 C 
ENDBRANCH   8   9
ENDBRANCH   7   8
ENDBRANCH   1   7
TORSDOF 3
ENDMDL
