MODEL 1
REMARK minimizedAffinity -2.81003761
REMARK minimizedRMSD -1
REMARK  3 active torsions:
REMARK  status: ('A' for Active; 'I' for Inactive)
REMARK    1  A    between atoms: C3'_2  and  C2'_3 
REMARK    2  A    between atoms: C2'_3  and  C1'_4 
REMARK    3  A    between atoms: C1'_4  and  C1_5 
ROOT
ATOM      1  C1  N4B d   1      -3.929  -4.108  -4.448  0.00  0.00    -0.075 A 
ATOM      2  C2  N4B d   1      -4.674  -5.020  -5.226  0.00  0.00     0.002 A 
ATOM      3  C3  N4B d   1      -4.027  -5.962  -5.987  0.00  0.00     0.002 A 
ATOM      4  C4  N4B d   1      -2.640  -5.999  -6.000  0.00  0.00    -0.004 A 
ATOM      5  C5  N4B d   1      -1.928  -5.131  -5.225  0.00  0.00     0.002 A 
ATOM      6  C6  N4B d   1      -2.566  -4.181  -4.452  0.00  0.00     0.002 A 
ENDROOT
BRANCH   1   7
ATOM      7  C1' N4B d   1      -4.590  -3.005  -3.667  0.00  0.00     0.057 C 
BRANCH   7   8
ATOM      8  C2' N4B d   1      -5.985  -2.758  -4.233  0.00  0.00     0.009 C 
BRANCH   8   9
ATOM      9  C3' N4B d   1      -5.969  -1.742  -5.362  0.00  0.00     0.004 C 
ATOM     10  C4' N4B d   1      -4.828  -0.774  -5.256  0.00  0.00     0.003 C 
ENDBRANCH   8   9
ENDBRANCH   7   8
ENDBRANCH   1   7
TORSDOF 3
ENDMDL
