MODEL 1
REMARK minimizedAffinity -2.61397004
REMARK minimizedRMSD -1
REMARK  3 active torsions:
REMARK  status: ('A' for Active; 'I' for Inactive)
REMARK    1  A    between atoms: C3'_2  and  C2'_3 
REMARK    2  A    between atoms: C2'_3  and  C1'_4 
REMARK    3  A    between atoms: C1'_4  and  C1_5 
ROOT
ATOM      1  C1  N4B d   1      -5.395  -3.929  -5.299  0.00  0.00    -0.075 A 
ATOM      2  C2  N4B d   1      -5.382  -2.703  -6.000  0.00  0.00     0.002 A 
ATOM      3  C3  N4B d   1      -5.673  -1.533  -5.343  0.00  0.00     0.002 A 
ATOM      4  C4  N4B d   1      -5.999  -1.566  -3.995  0.00  0.00    -0.004 A 
ATOM      5  C5  N4B d   1      -5.985  -2.751  -3.319  0.00  0.00     0.002 A 
ATOM      6  C6  N4B d   1      -5.690  -3.934  -3.966  0.00  0.00     0.002 A 
ENDROOT
BRANCH   1   7
ATOM      7  C1' N4B d   1      -5.167  -5.244  -5.993  0.00  0.00     0.057 C 
BRANCH   7   8
ATOM      8  C2' N4B d   1      -4.039  -5.992  -5.289  0.00  0.00     0.009 C 
BRANCH   8   9
ATOM      9  C3' N4B d   1      -2.741  -5.203  -5.298  0.00  0.00     0.004 C 
ATOM     10  C4' N4B d   1      -1.628  -5.924  -5.999  0.00  0.00     0.003 C 
ENDBRANCH   8   9
ENDBRANCH   7   8
ENDBRANCH   1   7
TORSDOF 3
ENDMDL
