MODEL 1
REMARK minimizedAffinity 19.6305351
REMARK minimizedRMSD -1
REMARK  0 active torsions:
REMARK  status: ('A' for Active; 'I' for Inactive)
ROOT
ATOM      1  C2' OXE d   1       5.919  -1.588   5.268  0.00  0.00     0.078 C 
ATOM      2  C1' OXE d   1       5.880  -2.434   2.592  0.00  0.00     0.078 C 
ATOM      3  C1  OXE d   1       5.904  -3.494   3.664  0.00  0.00    -0.078 A 
ATOM      4  C2  OXE d   1       5.971  -3.071   4.970  0.00  0.00    -0.078 A 
ATOM      5  C3  OXE d   1       5.941  -4.007   6.000  0.00  0.00     0.003 A 
ATOM      6  C4  OXE d   1       5.998  -5.376   5.715  0.00  0.00    -0.002 A 
ATOM      7  C5  OXE d   1       5.972  -5.828   4.392  0.00  0.00    -0.002 A 
ATOM      8  C6  OXE d   1       5.882  -4.903   3.358  0.00  0.00     0.003 A 
ENDROOT
TORSDOF 0
ENDMDL
