MODEL 1
REMARK minimizedAffinity 12.5141678
REMARK minimizedRMSD -1
REMARK  0 active torsions:
REMARK  status: ('A' for Active; 'I' for Inactive)
ROOT
ATOM      1  C2' OXE d   1      -1.197  -1.278   1.706  0.00  0.00     0.078 C 
ATOM      2  C1' OXE d   1      -3.961  -1.084   1.259  0.00  0.00     0.078 C 
ATOM      3  C1  OXE d   1      -3.205   0.188   1.551  0.00  0.00    -0.078 A 
ATOM      4  C2  OXE d   1      -1.861   0.078   1.815  0.00  0.00    -0.078 A 
ATOM      5  C3  OXE d   1      -1.105   1.226   2.036  0.00  0.00     0.003 A 
ATOM      6  C4  OXE d   1      -1.729   2.475   2.145  0.00  0.00    -0.002 A 
ATOM      7  C5  OXE d   1      -3.103   2.604   1.919  0.00  0.00    -0.002 A 
ATOM      8  C6  OXE d   1      -3.847   1.479   1.580  0.00  0.00     0.003 A 
ENDROOT
TORSDOF 0
ENDMDL
