MODEL 1
REMARK minimizedAffinity 4.8588686
REMARK minimizedRMSD -1
REMARK  0 active torsions:
REMARK  status: ('A' for Active; 'I' for Inactive)
ROOT
ATOM      1  C2' OXE d   1      -3.414   2.027   1.505  0.00  0.00     0.078 C 
ATOM      2  C1' OXE d   1      -0.683   1.377   1.474  0.00  0.00     0.078 C 
ATOM      3  C1  OXE d   1      -1.677   0.245   1.391  0.00  0.00    -0.078 A 
ATOM      4  C2  OXE d   1      -3.011   0.569   1.454  0.00  0.00    -0.078 A 
ATOM      5  C3  OXE d   1      -3.970  -0.432   1.326  0.00  0.00     0.003 A 
ATOM      6  C4  OXE d   1      -3.589  -1.778   1.289  0.00  0.00    -0.002 A 
ATOM      7  C5  OXE d   1      -2.236  -2.133   1.265  0.00  0.00    -0.002 A 
ATOM      8  C6  OXE d   1      -1.269  -1.133   1.272  0.00  0.00     0.003 A 
ENDROOT
TORSDOF 0
ENDMDL
