MODEL 1
REMARK minimizedAffinity 6.80960703
REMARK minimizedRMSD -1
REMARK  0 active torsions:
REMARK  status: ('A' for Active; 'I' for Inactive)
ROOT
ATOM      1  C2' OXE d   1      -5.985  -2.655   1.862  0.00  0.00     0.078 C 
ATOM      2  C1' OXE d   1      -6.000  -5.157   3.134  0.00  0.00     0.078 C 
ATOM      3  C1  OXE d   1      -5.055  -4.963   1.974  0.00  0.00    -0.078 A 
ATOM      4  C2  OXE d   1      -5.088  -3.751   1.328  0.00  0.00    -0.078 A 
ATOM      5  C3  OXE d   1      -4.198  -3.500   0.288  0.00  0.00     0.003 A 
ATOM      6  C4  OXE d   1      -3.379  -4.522  -0.206  0.00  0.00    -0.002 A 
ATOM      7  C5  OXE d   1      -3.358  -5.777   0.412  0.00  0.00    -0.002 A 
ATOM      8  C6  OXE d   1      -4.158  -6.000   1.527  0.00  0.00     0.003 A 
ENDROOT
TORSDOF 0
ENDMDL
