MODEL 1
REMARK minimizedAffinity 16.50284
REMARK minimizedRMSD -1
REMARK  0 active torsions:
REMARK  status: ('A' for Active; 'I' for Inactive)
ROOT
ATOM      1  C2' OXE d   1       2.238   3.436  -1.572  0.00  0.00     0.078 C 
ATOM      2  C1' OXE d   1       3.735   3.398  -3.946  0.00  0.00     0.078 C 
ATOM      3  C1  OXE d   1       2.859   2.208  -3.649  0.00  0.00    -0.078 A 
ATOM      4  C2  OXE d   1       2.165   2.214  -2.462  0.00  0.00    -0.078 A 
ATOM      5  C3  OXE d   1       1.300   1.165  -2.164  0.00  0.00     0.003 A 
ATOM      6  C4  OXE d   1       1.246   0.034  -2.988  0.00  0.00    -0.002 A 
ATOM      7  C5  OXE d   1       1.974  -0.010  -4.182  0.00  0.00    -0.002 A 
ATOM      8  C6  OXE d   1       2.751   1.084  -4.547  0.00  0.00     0.003 A 
ENDROOT
TORSDOF 0
ENDMDL
