MODEL 1
REMARK minimizedAffinity 9.92528534
REMARK minimizedRMSD -1
REMARK  0 active torsions:
REMARK  status: ('A' for Active; 'I' for Inactive)
ROOT
ATOM      1  C2' OXE d   1      -2.072  -2.591  -5.593  0.00  0.00     0.078 C 
ATOM      2  C1' OXE d   1      -4.306  -1.267  -4.528  0.00  0.00     0.078 C 
ATOM      3  C1  OXE d   1      -4.494  -2.680  -5.018  0.00  0.00    -0.078 A 
ATOM      4  C2  OXE d   1      -3.407  -3.305  -5.581  0.00  0.00    -0.078 A 
ATOM      5  C3  OXE d   1      -3.512  -4.628  -6.000  0.00  0.00     0.003 A 
ATOM      6  C4  OXE d   1      -4.752  -5.277  -5.994  0.00  0.00    -0.002 A 
ATOM      7  C5  OXE d   1      -5.881  -4.645  -5.462  0.00  0.00    -0.002 A 
ATOM      8  C6  OXE d   1      -5.760  -3.365  -4.932  0.00  0.00     0.003 A 
ENDROOT
TORSDOF 0
ENDMDL
