MODEL 1
REMARK minimizedAffinity 9.15755653
REMARK minimizedRMSD -1
REMARK  0 active torsions:
REMARK  status: ('A' for Active; 'I' for Inactive)
ROOT
ATOM      1  C2' OXE d   1      -1.811   0.352   2.354  0.00  0.00     0.078 C 
ATOM      2  C1' OXE d   1      -4.454  -0.566   2.119  0.00  0.00     0.078 C 
ATOM      3  C1  OXE d   1      -4.214   0.921   2.026  0.00  0.00    -0.078 A 
ATOM      4  C2  OXE d   1      -2.923   1.364   2.189  0.00  0.00    -0.078 A 
ATOM      5  C3  OXE d   1      -2.639   2.721   2.058  0.00  0.00     0.003 A 
ATOM      6  C4  OXE d   1      -3.675   3.652   1.916  0.00  0.00    -0.002 A 
ATOM      7  C5  OXE d   1      -5.001   3.224   1.788  0.00  0.00    -0.002 A 
ATOM      8  C6  OXE d   1      -5.282   1.862   1.798  0.00  0.00     0.003 A 
ENDROOT
TORSDOF 0
ENDMDL
