MODEL 1
REMARK minimizedAffinity 13.2951498
REMARK minimizedRMSD -1
REMARK  0 active torsions:
REMARK  status: ('A' for Active; 'I' for Inactive)
ROOT
ATOM      1  C2' OXE d   1       6.000   3.748  -4.148  0.00  0.00     0.078 C 
ATOM      2  C1' OXE d   1       4.474   2.291  -5.999  0.00  0.00     0.078 C 
ATOM      3  C1  OXE d   1       3.879   3.560  -5.441  0.00  0.00    -0.078 A 
ATOM      4  C2  OXE d   1       4.613   4.242  -4.501  0.00  0.00    -0.078 A 
ATOM      5  C3  OXE d   1       4.136   5.447  -3.994  0.00  0.00     0.003 A 
ATOM      6  C4  OXE d   1       2.848   5.891  -4.318  0.00  0.00    -0.002 A 
ATOM      7  C5  OXE d   1       2.067   5.191  -5.244  0.00  0.00    -0.002 A 
ATOM      8  C6  OXE d   1       2.584   4.049  -5.845  0.00  0.00     0.003 A 
ENDROOT
TORSDOF 0
ENDMDL
