MODEL 1
REMARK minimizedAffinity 11.1229019
REMARK minimizedRMSD -1
REMARK  0 active torsions:
REMARK  status: ('A' for Active; 'I' for Inactive)
ROOT
ATOM      1  C2' OXE d   1      -2.973  -1.049   3.908  0.00  0.00     0.078 C 
ATOM      2  C1' OXE d   1      -0.380  -1.427   2.902  0.00  0.00     0.078 C 
ATOM      3  C1  OXE d   1      -1.241  -0.373   2.251  0.00  0.00    -0.078 A 
ATOM      4  C2  OXE d   1      -2.524  -0.227   2.719  0.00  0.00    -0.078 A 
ATOM      5  C3  OXE d   1      -3.342   0.767   2.191  0.00  0.00     0.003 A 
ATOM      6  C4  OXE d   1      -2.923   1.517   1.085  0.00  0.00    -0.002 A 
ATOM      7  C5  OXE d   1      -1.633   1.357   0.567  0.00  0.00    -0.002 A 
ATOM      8  C6  OXE d   1      -0.767   0.448   1.164  0.00  0.00     0.003 A 
ENDROOT
TORSDOF 0
ENDMDL
