MODEL 1
REMARK minimizedAffinity 15.7656431
REMARK minimizedRMSD -1
REMARK  0 active torsions:
REMARK  status: ('A' for Active; 'I' for Inactive)
ROOT
ATOM      1  C2' OXE d   1      -1.969  -2.085   1.138  0.00  0.00     0.078 C 
ATOM      2  C1' OXE d   1      -4.406  -1.294   2.284  0.00  0.00     0.078 C 
ATOM      3  C1  OXE d   1      -3.302  -0.270   2.203  0.00  0.00    -0.078 A 
ATOM      4  C2  OXE d   1      -2.097  -0.679   1.684  0.00  0.00    -0.078 A 
ATOM      5  C3  OXE d   1      -1.062   0.240   1.537  0.00  0.00     0.003 A 
ATOM      6  C4  OXE d   1      -1.185   1.535   2.053  0.00  0.00    -0.002 A 
ATOM      7  C5  OXE d   1      -2.391   1.961   2.622  0.00  0.00    -0.002 A 
ATOM      8  C6  OXE d   1      -3.470   1.085   2.666  0.00  0.00     0.003 A 
ENDROOT
TORSDOF 0
ENDMDL
