MODEL 1
REMARK minimizedAffinity 7.45580959
REMARK minimizedRMSD -1
REMARK  0 active torsions:
REMARK  status: ('A' for Active; 'I' for Inactive)
ROOT
ATOM      1  C2' OXE d   1       1.707  -0.144   3.476  0.00  0.00     0.078 C 
ATOM      2  C1' OXE d   1       1.595   2.115   1.814  0.00  0.00     0.078 C 
ATOM      3  C1  OXE d   1       0.302   1.399   2.116  0.00  0.00    -0.078 A 
ATOM      4  C2  OXE d   1       0.373   0.267   2.892  0.00  0.00    -0.078 A 
ATOM      5  C3  OXE d   1      -0.796  -0.401   3.246  0.00  0.00     0.003 A 
ATOM      6  C4  OXE d   1      -2.025  -0.020   2.693  0.00  0.00    -0.002 A 
ATOM      7  C5  OXE d   1      -2.113   1.107   1.869  0.00  0.00    -0.002 A 
ATOM      8  C6  OXE d   1      -0.968   1.851   1.605  0.00  0.00     0.003 A 
ENDROOT
TORSDOF 0
ENDMDL
