MODEL 1
REMARK minimizedAffinity 11.0477533
REMARK minimizedRMSD -1
REMARK  0 active torsions:
REMARK  status: ('A' for Active; 'I' for Inactive)
ROOT
ATOM      1  C2' OXE d   1       1.883  -1.275  -3.013  0.00  0.00     0.078 C 
ATOM      2  C1' OXE d   1       1.768   1.528  -3.104  0.00  0.00     0.078 C 
ATOM      3  C1  OXE d   1       2.635   0.826  -4.119  0.00  0.00    -0.078 A 
ATOM      4  C2  OXE d   1       2.723  -0.543  -4.037  0.00  0.00    -0.078 A 
ATOM      5  C3  OXE d   1       3.466  -1.244  -4.983  0.00  0.00     0.003 A 
ATOM      6  C4  OXE d   1       4.247  -0.558  -5.921  0.00  0.00    -0.002 A 
ATOM      7  C5  OXE d   1       4.204   0.839  -5.996  0.00  0.00    -0.002 A 
ATOM      8  C6  OXE d   1       3.372   1.542  -5.131  0.00  0.00     0.003 A 
ENDROOT
TORSDOF 0
ENDMDL
