MODEL 1
REMARK minimizedAffinity 6.94544554
REMARK minimizedRMSD -1
REMARK  0 active torsions:
REMARK  status: ('A' for Active; 'I' for Inactive)
ROOT
ATOM      1  C2' OXE d   1       2.587   1.228  -3.073  0.00  0.00     0.078 C 
ATOM      2  C1' OXE d   1       1.489   3.272  -1.494  0.00  0.00     0.078 C 
ATOM      3  C1  OXE d   1       2.246   3.672  -2.735  0.00  0.00    -0.078 A 
ATOM      4  C2  OXE d   1       2.820   2.668  -3.477  0.00  0.00    -0.078 A 
ATOM      5  C3  OXE d   1       3.482   2.978  -4.661  0.00  0.00     0.003 A 
ATOM      6  C4  OXE d   1       3.702   4.313  -5.022  0.00  0.00    -0.002 A 
ATOM      7  C5  OXE d   1       3.160   5.353  -4.259  0.00  0.00    -0.002 A 
ATOM      8  C6  OXE d   1       2.395   5.049  -3.139  0.00  0.00     0.003 A 
ENDROOT
TORSDOF 0
ENDMDL
