MODEL 1
REMARK minimizedAffinity 13.6088657
REMARK minimizedRMSD -1
REMARK  0 active torsions:
REMARK  status: ('A' for Active; 'I' for Inactive)
ROOT
ATOM      1  C2' OXE d   1       0.936   1.724   2.315  0.00  0.00     0.078 C 
ATOM      2  C1' OXE d   1      -0.005  -0.826   1.614  0.00  0.00     0.078 C 
ATOM      3  C1  OXE d   1      -1.008   0.298   1.687  0.00  0.00    -0.078 A 
ATOM      4  C2  OXE d   1      -0.546   1.533   2.077  0.00  0.00    -0.078 A 
ATOM      5  C3  OXE d   1      -1.419   2.616   2.108  0.00  0.00     0.003 A 
ATOM      6  C4  OXE d   1      -2.790   2.429   1.895  0.00  0.00    -0.002 A 
ATOM      7  C5  OXE d   1      -3.288   1.171   1.536  0.00  0.00    -0.002 A 
ATOM      8  C6  OXE d   1      -2.405   0.107   1.386  0.00  0.00     0.003 A 
ENDROOT
TORSDOF 0
ENDMDL
