MODEL 1
REMARK minimizedAffinity 10.9533215
REMARK minimizedRMSD -1
REMARK  0 active torsions:
REMARK  status: ('A' for Active; 'I' for Inactive)
ROOT
ATOM      1  C2' OXE d   1      -3.343  -3.063  -0.257  0.00  0.00     0.078 C 
ATOM      2  C1' OXE d   1      -0.702  -3.018   0.693  0.00  0.00     0.078 C 
ATOM      3  C1  OXE d   1      -1.536  -1.775   0.876  0.00  0.00    -0.078 A 
ATOM      4  C2  OXE d   1      -2.812  -1.790   0.366  0.00  0.00    -0.078 A 
ATOM      5  C3  OXE d   1      -3.643  -0.689   0.556  0.00  0.00     0.003 A 
ATOM      6  C4  OXE d   1      -3.141   0.488   1.124  0.00  0.00    -0.002 A 
ATOM      7  C5  OXE d   1      -1.832   0.538   1.614  0.00  0.00    -0.002 A 
ATOM      8  C6  OXE d   1      -1.031  -0.597   1.536  0.00  0.00     0.003 A 
ENDROOT
TORSDOF 0
ENDMDL
