MODEL 1
REMARK minimizedAffinity 4.75902128
REMARK minimizedRMSD -1
REMARK  0 active torsions:
REMARK  status: ('A' for Active; 'I' for Inactive)
ROOT
ATOM      1  C2' OXE d   1       3.946   3.195  -4.998  0.00  0.00     0.078 C 
ATOM      2  C1' OXE d   1       2.592   1.986  -2.857  0.00  0.00     0.078 C 
ATOM      3  C1  OXE d   1       3.156   1.088  -3.929  0.00  0.00    -0.078 A 
ATOM      4  C2  OXE d   1       3.777   1.691  -4.997  0.00  0.00    -0.078 A 
ATOM      5  C3  OXE d   1       4.363   0.907  -5.986  0.00  0.00     0.003 A 
ATOM      6  C4  OXE d   1       4.193  -0.483  -5.982  0.00  0.00    -0.002 A 
ATOM      7  C5  OXE d   1       3.530  -1.114  -4.925  0.00  0.00    -0.002 A 
ATOM      8  C6  OXE d   1       3.044  -0.349  -3.871  0.00  0.00     0.003 A 
ENDROOT
TORSDOF 0
ENDMDL
