MODEL 1
REMARK minimizedAffinity 4.56819296
REMARK minimizedRMSD -1
REMARK  0 active torsions:
REMARK  status: ('A' for Active; 'I' for Inactive)
ROOT
ATOM      1  C   UNL d   1      -2.857   0.446  -4.568  0.00  0.00     0.020 A 
ATOM      2  C1  UNL d   1      -1.867   1.167  -5.235  0.00  0.00     0.020 A 
ATOM      3  C2  UNL d   1      -0.841   1.777  -4.510  0.00  0.00     0.034 A 
ATOM      4  C3  UNL d   1      -0.803   1.668  -3.115  0.00  0.00     0.017 A 
ATOM      5  C4  UNL d   1      -1.797   0.944  -2.448  0.00  0.00     0.017 A 
ATOM      6  C5  UNL d   1      -2.822   0.335  -3.178  0.00  0.00     0.034 A 
ATOM      7 Cl   UNL d   1      -1.817   0.765  -0.729  0.00  0.00    -0.070 Cl
ATOM      8 Cl1  UNL d   1       0.496   2.448  -2.284  0.00  0.00    -0.070 Cl
ENDROOT
TORSDOF 0
ENDMDL
