MODEL 1
REMARK minimizedAffinity 7.3399272
REMARK minimizedRMSD -1
REMARK  0 active torsions:
REMARK  status: ('A' for Active; 'I' for Inactive)
ROOT
ATOM      1  C   UNL d   1      -2.748   1.009  -3.834  0.00  0.00     0.020 A 
ATOM      2  C1  UNL d   1      -1.912   1.949  -3.231  0.00  0.00     0.020 A 
ATOM      3  C2  UNL d   1      -1.492   1.765  -1.912  0.00  0.00     0.034 A 
ATOM      4  C3  UNL d   1      -1.907   0.639  -1.192  0.00  0.00     0.017 A 
ATOM      5  C4  UNL d   1      -2.745  -0.304  -1.798  0.00  0.00     0.017 A 
ATOM      6  C5  UNL d   1      -3.163  -0.115  -3.119  0.00  0.00     0.034 A 
ATOM      7 Cl   UNL d   1      -3.298  -1.718  -0.973  0.00  0.00    -0.070 Cl
ATOM      8 Cl1  UNL d   1      -1.348   0.475   0.435  0.00  0.00    -0.070 Cl
ENDROOT
TORSDOF 0
ENDMDL
