MODEL 1
REMARK minimizedAffinity 0.359790355
REMARK minimizedRMSD -1
REMARK  0 active torsions:
REMARK  status: ('A' for Active; 'I' for Inactive)
ROOT
ATOM      1  C   UNL d   1       3.396  -1.644  -3.119  0.00  0.00     0.020 A 
ATOM      2  C1  UNL d   1       2.505  -1.416  -2.071  0.00  0.00     0.020 A 
ATOM      3  C2  UNL d   1       1.865  -0.180  -1.955  0.00  0.00     0.034 A 
ATOM      4  C3  UNL d   1       2.116   0.833  -2.887  0.00  0.00     0.017 A 
ATOM      5  C4  UNL d   1       3.012   0.604  -3.938  0.00  0.00     0.017 A 
ATOM      6  C5  UNL d   1       3.649  -0.636  -4.050  0.00  0.00     0.034 A 
ATOM      7 Cl   UNL d   1       3.372   1.805  -5.127  0.00  0.00    -0.070 Cl
ATOM      8 Cl1  UNL d   1       1.290   2.337  -2.682  0.00  0.00    -0.070 Cl
ENDROOT
TORSDOF 0
ENDMDL
