MODEL 1
REMARK minimizedAffinity 5.5041604
REMARK minimizedRMSD -1
REMARK  0 active torsions:
REMARK  status: ('A' for Active; 'I' for Inactive)
ROOT
ATOM      1  C   UNL d   1      -2.473   2.007   1.185  0.00  0.00     0.020 A 
ATOM      2  C1  UNL d   1      -1.672   1.200   0.377  0.00  0.00     0.020 A 
ATOM      3  C2  UNL d   1      -2.200   0.039  -0.191  0.00  0.00     0.034 A 
ATOM      4  C3  UNL d   1      -3.532  -0.320   0.049  0.00  0.00     0.017 A 
ATOM      5  C4  UNL d   1      -4.334   0.491   0.860  0.00  0.00     0.017 A 
ATOM      6  C5  UNL d   1      -3.801   1.653   1.426  0.00  0.00     0.034 A 
ATOM      7 Cl   UNL d   1      -5.986   0.114   1.201  0.00  0.00    -0.070 Cl
ATOM      8 Cl1  UNL d   1      -4.118  -1.769  -0.686  0.00  0.00    -0.070 Cl
ENDROOT
TORSDOF 0
ENDMDL
