MODEL 1
REMARK minimizedAffinity 10.756711
REMARK minimizedRMSD -1
REMARK  0 active torsions:
REMARK  status: ('A' for Active; 'I' for Inactive)
ROOT
ATOM      1  C   UNL d   1      -5.758  -0.641   4.776  0.00  0.00     0.020 A 
ATOM      2  C1  UNL d   1      -6.000   0.078   5.946  0.00  0.00     0.020 A 
ATOM      3  C2  UNL d   1      -5.784   1.458   5.974  0.00  0.00     0.034 A 
ATOM      4  C3  UNL d   1      -5.324   2.122   4.832  0.00  0.00     0.017 A 
ATOM      5  C4  UNL d   1      -5.081   1.399   3.658  0.00  0.00     0.017 A 
ATOM      6  C5  UNL d   1      -5.299   0.018   3.635  0.00  0.00     0.034 A 
ATOM      7 Cl   UNL d   1      -4.513   2.149   2.208  0.00  0.00    -0.070 Cl
ATOM      8 Cl1  UNL d   1      -5.079   3.829   4.939  0.00  0.00    -0.070 Cl
ENDROOT
TORSDOF 0
ENDMDL
