MODEL 1
REMARK minimizedAffinity 6.77901173
REMARK minimizedRMSD -1
REMARK  0 active torsions:
REMARK  status: ('A' for Active; 'I' for Inactive)
ROOT
ATOM      1  C   UNL d   1       1.141   2.444  -2.011  0.00  0.00     0.020 A 
ATOM      2  C1  UNL d   1       2.385   1.849  -1.804  0.00  0.00     0.020 A 
ATOM      3  C2  UNL d   1       2.583   0.509  -2.143  0.00  0.00     0.034 A 
ATOM      4  C3  UNL d   1       1.535  -0.241  -2.690  0.00  0.00     0.017 A 
ATOM      5  C4  UNL d   1       0.287   0.357  -2.897  0.00  0.00     0.017 A 
ATOM      6  C5  UNL d   1       0.094   1.700  -2.556  0.00  0.00     0.034 A 
ATOM      7 Cl   UNL d   1      -1.053  -0.504  -3.568  0.00  0.00    -0.070 Cl
ATOM      8 Cl1  UNL d   1       1.851  -1.893  -3.086  0.00  0.00    -0.070 Cl
ENDROOT
TORSDOF 0
ENDMDL
