MODEL 1
REMARK minimizedAffinity 13.780076
REMARK minimizedRMSD -1
REMARK  0 active torsions:
REMARK  status: ('A' for Active; 'I' for Inactive)
ROOT
ATOM      1  C   UNL d   1      -1.211  -5.998   0.718  0.00  0.00     0.020 A 
ATOM      2  C1  UNL d   1      -1.091  -5.997   2.107  0.00  0.00     0.020 A 
ATOM      3  C2  UNL d   1       0.173  -5.994   2.700  0.00  0.00     0.034 A 
ATOM      4  C3  UNL d   1       1.324  -5.992   1.903  0.00  0.00     0.017 A 
ATOM      5  C4  UNL d   1       1.203  -5.993   0.508  0.00  0.00     0.017 A 
ATOM      6  C5  UNL d   1      -0.066  -5.995  -0.080  0.00  0.00     0.034 A 
ATOM      7 Cl   UNL d   1       2.577  -5.990  -0.541  0.00  0.00    -0.070 Cl
ATOM      8 Cl1  UNL d   1       2.855  -5.988   2.703  0.00  0.00    -0.070 Cl
ENDROOT
TORSDOF 0
ENDMDL
