MODEL 1
REMARK minimizedAffinity 16.5225086
REMARK minimizedRMSD -1
REMARK  0 active torsions:
REMARK  status: ('A' for Active; 'I' for Inactive)
ROOT
ATOM      1  C   UNL d   1      -3.079   1.179  -4.795  0.00  0.00     0.020 A 
ATOM      2  C1  UNL d   1      -2.373   2.272  -4.295  0.00  0.00     0.020 A 
ATOM      3  C2  UNL d   1      -1.873   2.244  -2.992  0.00  0.00     0.034 A 
ATOM      4  C3  UNL d   1      -2.078   1.120  -2.183  0.00  0.00     0.017 A 
ATOM      5  C4  UNL d   1      -2.787   0.023  -2.686  0.00  0.00     0.017 A 
ATOM      6  C5  UNL d   1      -3.286   0.056  -3.992  0.00  0.00     0.034 A 
ATOM      7 Cl   UNL d   1      -3.081  -1.399  -1.748  0.00  0.00    -0.070 Cl
ATOM      8 Cl1  UNL d   1      -1.431   1.153  -0.581  0.00  0.00    -0.070 Cl
ENDROOT
TORSDOF 0
ENDMDL
