MODEL 1
REMARK minimizedAffinity 6.18499231
REMARK minimizedRMSD -1
REMARK  0 active torsions:
REMARK  status: ('A' for Active; 'I' for Inactive)
ROOT
ATOM      1  C   UNL d   1      -5.955   1.914   5.639  0.00  0.00     0.020 A 
ATOM      2  C1  UNL d   1      -5.983   0.561   5.976  0.00  0.00     0.020 A 
ATOM      3  C2  UNL d   1      -5.990  -0.408   4.971  0.00  0.00     0.034 A 
ATOM      4  C3  UNL d   1      -5.968  -0.027   3.625  0.00  0.00     0.017 A 
ATOM      5  C4  UNL d   1      -5.940   1.331   3.288  0.00  0.00     0.017 A 
ATOM      6  C5  UNL d   1      -5.933   2.298   4.298  0.00  0.00     0.034 A 
ATOM      7 Cl   UNL d   1      -5.911   1.879   1.648  0.00  0.00    -0.070 Cl
ATOM      8 Cl1  UNL d   1      -5.978  -1.279   2.434  0.00  0.00    -0.070 Cl
ENDROOT
TORSDOF 0
ENDMDL
