MODEL 1
REMARK minimizedAffinity 4.42629147
REMARK minimizedRMSD -1
REMARK  0 active torsions:
REMARK  status: ('A' for Active; 'I' for Inactive)
ROOT
ATOM      1  C   UNL d   1      -4.997   2.625   5.198  0.00  0.00     0.020 A 
ATOM      2  C1  UNL d   1      -5.933   1.972   5.999  0.00  0.00     0.020 A 
ATOM      3  C2  UNL d   1      -6.000   0.577   6.000  0.00  0.00     0.034 A 
ATOM      4  C3  UNL d   1      -5.129  -0.169   5.198  0.00  0.00     0.017 A 
ATOM      5  C4  UNL d   1      -4.190   0.487   4.394  0.00  0.00     0.017 A 
ATOM      6  C5  UNL d   1      -4.127   1.883   4.397  0.00  0.00     0.034 A 
ATOM      7 Cl   UNL d   1      -3.082  -0.367   3.378  0.00  0.00    -0.070 Cl
ATOM      8 Cl1  UNL d   1      -5.267  -1.891   5.249  0.00  0.00    -0.070 Cl
ENDROOT
TORSDOF 0
ENDMDL
