MODEL 1
REMARK minimizedAffinity 12.4571714
REMARK minimizedRMSD -1
REMARK  0 active torsions:
REMARK  status: ('A' for Active; 'I' for Inactive)
ROOT
ATOM      1  C   UNL d   1       0.489  -5.999   3.636  0.00  0.00     0.020 A 
ATOM      2  C1  UNL d   1       1.861  -5.995   3.389  0.00  0.00     0.020 A 
ATOM      3  C2  UNL d   1       2.333  -5.983   2.074  0.00  0.00     0.034 A 
ATOM      4  C3  UNL d   1       1.432  -5.975   1.003  0.00  0.00     0.017 A 
ATOM      5  C4  UNL d   1       0.055  -5.979   1.253  0.00  0.00     0.017 A 
ATOM      6  C5  UNL d   1      -0.412  -5.991   2.571  0.00  0.00     0.034 A 
ATOM      7 Cl   UNL d   1      -1.117  -5.969  -0.017  0.00  0.00    -0.070 Cl
ATOM      8 Cl1  UNL d   1       2.086  -5.959  -0.596  0.00  0.00    -0.070 Cl
ENDROOT
TORSDOF 0
ENDMDL
