MODEL 1
REMARK minimizedAffinity -2.46471834
REMARK minimizedRMSD -1
REMARK  0 active torsions:
REMARK  status: ('A' for Active; 'I' for Inactive)
ROOT
ATOM      1  C   UNL d   1       2.184  -0.284  -3.117  0.00  0.00     0.020 A 
ATOM      2  C1  UNL d   1       2.288   1.055  -2.744  0.00  0.00     0.020 A 
ATOM      3  C2  UNL d   1       1.199   1.913  -2.913  0.00  0.00     0.034 A 
ATOM      4  C3  UNL d   1       0.002   1.433  -3.456  0.00  0.00     0.017 A 
ATOM      5  C4  UNL d   1      -0.101   0.088  -3.830  0.00  0.00     0.017 A 
ATOM      6  C5  UNL d   1       0.992  -0.767  -3.659  0.00  0.00     0.034 A 
ATOM      7 Cl   UNL d   1      -1.545  -0.577  -4.508  0.00  0.00    -0.070 Cl
ATOM      8 Cl1  UNL d   1      -1.303   2.550  -3.636  0.00  0.00    -0.070 Cl
ENDROOT
TORSDOF 0
ENDMDL
