MODEL 1
REMARK minimizedAffinity 5.55035353
REMARK minimizedRMSD -1
REMARK  0 active torsions:
REMARK  status: ('A' for Active; 'I' for Inactive)
ROOT
ATOM      1  C   UNL d   1      -2.678   0.269  -4.572  0.00  0.00     0.020 A 
ATOM      2  C1  UNL d   1      -2.976   1.523  -4.040  0.00  0.00     0.020 A 
ATOM      3  C2  UNL d   1      -2.035   2.189  -3.252  0.00  0.00     0.034 A 
ATOM      4  C3  UNL d   1      -0.792   1.601  -2.992  0.00  0.00     0.017 A 
ATOM      5  C4  UNL d   1      -0.493   0.342  -3.527  0.00  0.00     0.017 A 
ATOM      6  C5  UNL d   1      -1.439  -0.320  -4.316  0.00  0.00     0.034 A 
ATOM      7 Cl   UNL d   1       1.019  -0.447  -3.251  0.00  0.00    -0.070 Cl
ATOM      8 Cl1  UNL d   1       0.324   2.481  -2.009  0.00  0.00    -0.070 Cl
ENDROOT
TORSDOF 0
ENDMDL
