MODEL 1
REMARK minimizedAffinity 11.7565327
REMARK minimizedRMSD -1
REMARK  0 active torsions:
REMARK  status: ('A' for Active; 'I' for Inactive)
ROOT
ATOM      1  C   UNL d   1      -0.453   3.278  -3.289  0.00  0.00     0.020 A 
ATOM      2  C1  UNL d   1       0.328   2.342  -2.612  0.00  0.00     0.020 A 
ATOM      3  C2  UNL d   1       0.005   0.985  -2.679  0.00  0.00     0.034 A 
ATOM      4  C3  UNL d   1      -1.102   0.560  -3.423  0.00  0.00     0.017 A 
ATOM      5  C4  UNL d   1      -1.885   1.501  -4.102  0.00  0.00     0.017 A 
ATOM      6  C5  UNL d   1      -1.557   2.858  -4.032  0.00  0.00     0.034 A 
ATOM      7 Cl   UNL d   1      -3.265   1.053  -5.041  0.00  0.00    -0.070 Cl
ATOM      8 Cl1  UNL d   1      -1.442  -1.133  -3.462  0.00  0.00    -0.070 Cl
ENDROOT
TORSDOF 0
ENDMDL
