MODEL 1
REMARK minimizedAffinity 11.3795805
REMARK minimizedRMSD -1
REMARK  0 active torsions:
REMARK  status: ('A' for Active; 'I' for Inactive)
ROOT
ATOM      1  C   UNL d   1      -1.719  -4.038   0.545  0.00  0.00     0.020 A 
ATOM      2  C1  UNL d   1      -1.707  -5.417   0.747  0.00  0.00     0.020 A 
ATOM      3  C2  UNL d   1      -0.708  -5.999   1.530  0.00  0.00     0.034 A 
ATOM      4  C3  UNL d   1       0.284  -5.202   2.113  0.00  0.00     0.017 A 
ATOM      5  C4  UNL d   1       0.271  -3.818   1.909  0.00  0.00     0.017 A 
ATOM      6  C5  UNL d   1      -0.732  -3.240   1.125  0.00  0.00     0.034 A 
ATOM      7 Cl   UNL d   1       1.461  -2.769   2.596  0.00  0.00    -0.070 Cl
ATOM      8 Cl1  UNL d   1       1.488  -5.990   3.070  0.00  0.00    -0.070 Cl
ENDROOT
TORSDOF 0
ENDMDL
