MODEL 1
REMARK minimizedAffinity -1.80627096
REMARK minimizedRMSD -1
REMARK  0 active torsions:
REMARK  status: ('A' for Active; 'I' for Inactive)
ROOT
ATOM      1  C   UNL d   1       2.253   0.592  -2.409  0.00  0.00     0.020 A 
ATOM      2  C1  UNL d   1       2.111  -0.690  -2.938  0.00  0.00     0.020 A 
ATOM      3  C2  UNL d   1       0.957  -1.027  -3.650  0.00  0.00     0.034 A 
ATOM      4  C3  UNL d   1      -0.058  -0.082  -3.835  0.00  0.00     0.017 A 
ATOM      5  C4  UNL d   1       0.086   1.205  -3.303  0.00  0.00     0.017 A 
ATOM      6  C5  UNL d   1       1.242   1.537  -2.591  0.00  0.00     0.034 A 
ATOM      7 Cl   UNL d   1      -1.124   2.425  -3.489  0.00  0.00    -0.070 Cl
ATOM      8 Cl1  UNL d   1      -1.456  -0.568  -4.726  0.00  0.00    -0.070 Cl
ENDROOT
TORSDOF 0
ENDMDL
