MODEL 1
REMARK minimizedAffinity 2.60871792
REMARK minimizedRMSD -1
REMARK  0 active torsions:
REMARK  status: ('A' for Active; 'I' for Inactive)
ROOT
ATOM      1  C   UNL d   1      -2.003   0.971  -3.967  0.00  0.00     0.020 A 
ATOM      2  C1  UNL d   1      -1.322   1.985  -3.295  0.00  0.00     0.020 A 
ATOM      3  C2  UNL d   1      -1.163   1.920  -1.909  0.00  0.00     0.034 A 
ATOM      4  C3  UNL d   1      -1.685   0.837  -1.191  0.00  0.00     0.017 A 
ATOM      5  C4  UNL d   1      -2.368  -0.180  -1.867  0.00  0.00     0.017 A 
ATOM      6  C5  UNL d   1      -2.525  -0.109  -3.255  0.00  0.00     0.034 A 
ATOM      7 Cl   UNL d   1      -3.040  -1.547  -1.050  0.00  0.00    -0.070 Cl
ATOM      8 Cl1  UNL d   1      -1.451   0.821   0.520  0.00  0.00    -0.070 Cl
ENDROOT
TORSDOF 0
ENDMDL
