MODEL 1
REMARK minimizedAffinity 8.63130283
REMARK minimizedRMSD -1
REMARK  0 active torsions:
REMARK  status: ('A' for Active; 'I' for Inactive)
ROOT
ATOM      1  C   UNL d   1       1.352   3.999  -3.477  0.00  0.00     0.020 A 
ATOM      2  C1  UNL d   1       2.103   4.024  -4.652  0.00  0.00     0.020 A 
ATOM      3  C2  UNL d   1       3.182   3.152  -4.809  0.00  0.00     0.034 A 
ATOM      4  C3  UNL d   1       3.514   2.251  -3.791  0.00  0.00     0.017 A 
ATOM      5  C4  UNL d   1       2.760   2.226  -2.612  0.00  0.00     0.017 A 
ATOM      6  C5  UNL d   1       1.680   3.102  -2.460  0.00  0.00     0.034 A 
ATOM      7 Cl   UNL d   1       3.108   1.143  -1.311  0.00  0.00    -0.070 Cl
ATOM      8 Cl1  UNL d   1       4.861   1.201  -4.053  0.00  0.00    -0.070 Cl
ENDROOT
TORSDOF 0
ENDMDL
