MODEL 1
REMARK minimizedAffinity -0.365645111
REMARK minimizedRMSD -1
REMARK  0 active torsions:
REMARK  status: ('A' for Active; 'I' for Inactive)
ROOT
ATOM      1  C1  BNZ d   1       0.802  -5.943   4.425  0.00  0.00     0.000 A 
ATOM      2  C2  BNZ d   1       2.099  -5.955   3.986  0.00  0.00     0.000 A 
ATOM      3  C3  BNZ d   1       2.387  -5.963   2.650  0.00  0.00     0.000 A 
ATOM      4  C4  BNZ d   1       1.379  -5.999   1.755  0.00  0.00     0.000 A 
ATOM      5  C5  BNZ d   1       0.065  -5.998   2.181  0.00  0.00     0.000 A 
ATOM      6  C6  BNZ d   1      -0.221  -5.951   3.527  0.00  0.00     0.000 A 
ENDROOT
TORSDOF 0
ENDMDL
