MODEL 1
REMARK minimizedAffinity 1.77349448
REMARK minimizedRMSD -1
REMARK  0 active torsions:
REMARK  status: ('A' for Active; 'I' for Inactive)
ROOT
ATOM      1  C1  BNZ d   1       3.098   0.226  -5.103  0.00  0.00     0.000 A 
ATOM      2  C2  BNZ d   1       2.705  -0.925  -4.475  0.00  0.00     0.000 A 
ATOM      3  C3  BNZ d   1       2.923  -1.102  -3.137  0.00  0.00     0.000 A 
ATOM      4  C4  BNZ d   1       3.568  -0.146  -2.438  0.00  0.00     0.000 A 
ATOM      5  C5  BNZ d   1       3.979   1.017  -3.059  0.00  0.00     0.000 A 
ATOM      6  C6  BNZ d   1       3.724   1.208  -4.398  0.00  0.00     0.000 A 
ENDROOT
TORSDOF 0
ENDMDL
