MODEL 1
REMARK minimizedAffinity 1.30283928
REMARK minimizedRMSD -1
REMARK  0 active torsions:
REMARK  status: ('A' for Active; 'I' for Inactive)
ROOT
ATOM      1  C1  BNZ d   1      -5.904  -0.831   4.551  0.00  0.00     0.000 A 
ATOM      2  C2  BNZ d   1      -5.975   0.016   3.478  0.00  0.00     0.000 A 
ATOM      3  C3  BNZ d   1      -6.000   1.371   3.656  0.00  0.00     0.000 A 
ATOM      4  C4  BNZ d   1      -5.993   1.875   4.907  0.00  0.00     0.000 A 
ATOM      5  C5  BNZ d   1      -5.931   1.033   6.000  0.00  0.00     0.000 A 
ATOM      6  C6  BNZ d   1      -5.867  -0.329   5.815  0.00  0.00     0.000 A 
ENDROOT
TORSDOF 0
ENDMDL
