MODEL 1
REMARK minimizedAffinity 6.09177208
REMARK minimizedRMSD -1
REMARK  0 active torsions:
REMARK  status: ('A' for Active; 'I' for Inactive)
ROOT
ATOM      1  C1  BNZ d   1       0.123  -5.975   3.527  0.00  0.00     0.000 A 
ATOM      2  C2  BNZ d   1      -0.595  -5.970   2.361  0.00  0.00     0.000 A 
ATOM      3  C3  BNZ d   1       0.038  -6.000   1.150  0.00  0.00     0.000 A 
ATOM      4  C4  BNZ d   1       1.386  -5.994   1.105  0.00  0.00     0.000 A 
ATOM      5  C5  BNZ d   1       2.124  -5.990   2.272  0.00  0.00     0.000 A 
ATOM      6  C6  BNZ d   1       1.483  -6.000   3.490  0.00  0.00     0.000 A 
ENDROOT
TORSDOF 0
ENDMDL
