MODEL 1
REMARK minimizedAffinity 1.32881916
REMARK minimizedRMSD -1
REMARK  0 active torsions:
REMARK  status: ('A' for Active; 'I' for Inactive)
ROOT
ATOM      1  C1  BNZ d   1       0.211  -5.991   4.168  0.00  0.00     0.000 A 
ATOM      2  C2  BNZ d   1       1.579  -6.000   4.230  0.00  0.00     0.000 A 
ATOM      3  C3  BNZ d   1       2.331  -5.983   3.088  0.00  0.00     0.000 A 
ATOM      4  C4  BNZ d   1       1.716  -5.997   1.888  0.00  0.00     0.000 A 
ATOM      5  C5  BNZ d   1       0.337  -5.998   1.810  0.00  0.00     0.000 A 
ATOM      6  C6  BNZ d   1      -0.417  -5.976   2.960  0.00  0.00     0.000 A 
ENDROOT
TORSDOF 0
ENDMDL
