MODEL 1
REMARK minimizedAffinity 1.90934861
REMARK minimizedRMSD -1
REMARK  0 active torsions:
REMARK  status: ('A' for Active; 'I' for Inactive)
ROOT
ATOM      1  C1  BNZ d   1      -5.203   1.101   3.669  0.00  0.00     0.000 A 
ATOM      2  C2  BNZ d   1      -4.762  -0.195   3.673  0.00  0.00     0.000 A 
ATOM      3  C3  BNZ d   1      -4.742  -0.924   4.830  0.00  0.00     0.000 A 
ATOM      4  C4  BNZ d   1      -5.123  -0.343   5.986  0.00  0.00     0.000 A 
ATOM      5  C5  BNZ d   1      -5.561   0.966   5.999  0.00  0.00     0.000 A 
ATOM      6  C6  BNZ d   1      -5.617   1.684   4.826  0.00  0.00     0.000 A 
ENDROOT
TORSDOF 0
ENDMDL
