MODEL 1
REMARK minimizedAffinity 1.16758883
REMARK minimizedRMSD -1
REMARK  0 active torsions:
REMARK  status: ('A' for Active; 'I' for Inactive)
ROOT
ATOM      1  C1  BNZ d   1       2.754  -6.000   3.250  0.00  0.00     0.000 A 
ATOM      2  C2  BNZ d   1       2.884  -5.999   4.614  0.00  0.00     0.000 A 
ATOM      3  C3  BNZ d   1       1.796  -5.817   5.420  0.00  0.00     0.000 A 
ATOM      4  C4  BNZ d   1       0.588  -5.595   4.864  0.00  0.00     0.000 A 
ATOM      5  C5  BNZ d   1       0.442  -5.584   3.491  0.00  0.00     0.000 A 
ATOM      6  C6  BNZ d   1       1.533  -5.807   2.682  0.00  0.00     0.000 A 
ENDROOT
TORSDOF 0
ENDMDL
