MODEL 1
REMARK minimizedAffinity -1.91737556
REMARK minimizedRMSD -1
REMARK  0 active torsions:
REMARK  status: ('A' for Active; 'I' for Inactive)
ROOT
ATOM      1  C1  BNZ d   1       1.505  -6.000   2.002  0.00  0.00     0.000 A 
ATOM      2  C2  BNZ d   1       2.285  -5.478   2.999  0.00  0.00     0.000 A 
ATOM      3  C3  BNZ d   1       1.719  -4.933   4.118  0.00  0.00     0.000 A 
ATOM      4  C4  BNZ d   1       0.375  -4.874   4.219  0.00  0.00     0.000 A 
ATOM      5  C5  BNZ d   1      -0.425  -5.388   3.218  0.00  0.00     0.000 A 
ATOM      6  C6  BNZ d   1       0.149  -5.971   2.111  0.00  0.00     0.000 A 
ENDROOT
TORSDOF 0
ENDMDL
