MODEL 1
REMARK minimizedAffinity 0.493256897
REMARK minimizedRMSD -1
REMARK  0 active torsions:
REMARK  status: ('A' for Active; 'I' for Inactive)
ROOT
ATOM      1  C1  BNZ d   1       1.549  -5.269   4.517  0.00  0.00     0.000 A 
ATOM      2  C2  BNZ d   1       0.409  -6.000   4.720  0.00  0.00     0.000 A 
ATOM      3  C3  BNZ d   1      -0.597  -6.000   3.794  0.00  0.00     0.000 A 
ATOM      4  C4  BNZ d   1      -0.478  -5.239   2.687  0.00  0.00     0.000 A 
ATOM      5  C5  BNZ d   1       0.662  -4.490   2.472  0.00  0.00     0.000 A 
ATOM      6  C6  BNZ d   1       1.688  -4.523   3.388  0.00  0.00     0.000 A 
ENDROOT
TORSDOF 0
ENDMDL
