MODEL 1
REMARK minimizedAffinity 3.37740612
REMARK minimizedRMSD -1
REMARK  0 active torsions:
REMARK  status: ('A' for Active; 'I' for Inactive)
ROOT
ATOM      1  C1  BNZ d   1      -0.008  -5.022   4.653  0.00  0.00     0.000 A 
ATOM      2  C2  BNZ d   1      -0.935  -5.493   3.762  0.00  0.00     0.000 A 
ATOM      3  C3  BNZ d   1      -0.549  -6.000   2.553  0.00  0.00     0.000 A 
ATOM      4  C4  BNZ d   1       0.758  -5.998   2.220  0.00  0.00     0.000 A 
ATOM      5  C5  BNZ d   1       1.704  -5.518   3.104  0.00  0.00     0.000 A 
ATOM      6  C6  BNZ d   1       1.315  -5.044   4.336  0.00  0.00     0.000 A 
ENDROOT
TORSDOF 0
ENDMDL
