MODEL 1
REMARK minimizedAffinity 1.4153831
REMARK minimizedRMSD -1
REMARK  0 active torsions:
REMARK  status: ('A' for Active; 'I' for Inactive)
ROOT
ATOM      1  C1  BNZ d   1       0.500  -5.997   4.483  0.00  0.00     0.000 A 
ATOM      2  C2  BNZ d   1       1.709  -5.996   3.839  0.00  0.00     0.000 A 
ATOM      3  C3  BNZ d   1       1.773  -5.967   2.473  0.00  0.00     0.000 A 
ATOM      4  C4  BNZ d   1       0.632  -5.980   1.755  0.00  0.00     0.000 A 
ATOM      5  C5  BNZ d   1      -0.594  -5.990   2.390  0.00  0.00     0.000 A 
ATOM      6  C6  BNZ d   1      -0.655  -5.980   3.765  0.00  0.00     0.000 A 
ENDROOT
TORSDOF 0
ENDMDL
