MODEL 1
REMARK minimizedAffinity 1.39332712
REMARK minimizedRMSD -1
REMARK  0 active torsions:
REMARK  status: ('A' for Active; 'I' for Inactive)
ROOT
ATOM      1  C1  BNZ d   1       0.982  -5.987   1.181  0.00  0.00     0.000 A 
ATOM      2  C2  BNZ d   1       1.889  -5.982   2.207  0.00  0.00     0.000 A 
ATOM      3  C3  BNZ d   1       1.472  -6.000   3.509  0.00  0.00     0.000 A 
ATOM      4  C4  BNZ d   1       0.151  -5.982   3.782  0.00  0.00     0.000 A 
ATOM      5  C5  BNZ d   1      -0.775  -5.978   2.758  0.00  0.00     0.000 A 
ATOM      6  C6  BNZ d   1      -0.352  -6.000   1.449  0.00  0.00     0.000 A 
ENDROOT
TORSDOF 0
ENDMDL
