MODEL 1
REMARK minimizedAffinity 1.29971337
REMARK minimizedRMSD -1
REMARK  0 active torsions:
REMARK  status: ('A' for Active; 'I' for Inactive)
ROOT
ATOM      1  C1  BNZ d   1       0.488  -5.948   4.481  0.00  0.00     0.000 A 
ATOM      2  C2  BNZ d   1      -0.435  -5.935   3.469  0.00  0.00     0.000 A 
ATOM      3  C3  BNZ d   1      -0.039  -5.978   2.162  0.00  0.00     0.000 A 
ATOM      4  C4  BNZ d   1       1.276  -5.992   1.867  0.00  0.00     0.000 A 
ATOM      5  C5  BNZ d   1       2.219  -5.996   2.875  0.00  0.00     0.000 A 
ATOM      6  C6  BNZ d   1       1.817  -5.993   4.191  0.00  0.00     0.000 A 
ENDROOT
TORSDOF 0
ENDMDL
