MODEL 1
REMARK minimizedAffinity 0.45957619
REMARK minimizedRMSD -1
REMARK  0 active torsions:
REMARK  status: ('A' for Active; 'I' for Inactive)
ROOT
ATOM      1  C1  BNZ d   1      -2.358  -5.974   0.723  0.00  0.00     0.000 A 
ATOM      2  C2  BNZ d   1      -2.021  -5.968   2.051  0.00  0.00     0.000 A 
ATOM      3  C3  BNZ d   1      -2.987  -6.000   3.018  0.00  0.00     0.000 A 
ATOM      4  C4  BNZ d   1      -4.286  -5.996   2.657  0.00  0.00     0.000 A 
ATOM      5  C5  BNZ d   1      -4.642  -5.992   1.323  0.00  0.00     0.000 A 
ATOM      6  C6  BNZ d   1      -3.667  -6.000   0.352  0.00  0.00     0.000 A 
ENDROOT
TORSDOF 0
ENDMDL
