MODEL 1
REMARK minimizedAffinity 1.87288272
REMARK minimizedRMSD -1
REMARK  0 active torsions:
REMARK  status: ('A' for Active; 'I' for Inactive)
ROOT
ATOM      1  C1  BNZ d   1      -0.882  -5.996   3.544  0.00  0.00     0.000 A 
ATOM      2  C2  BNZ d   1      -0.629  -5.996   4.890  0.00  0.00     0.000 A 
ATOM      3  C3  BNZ d   1       0.654  -5.971   5.361  0.00  0.00     0.000 A 
ATOM      4  C4  BNZ d   1       1.681  -5.987   4.487  0.00  0.00     0.000 A 
ATOM      5  C5  BNZ d   1       1.443  -5.997   3.127  0.00  0.00     0.000 A 
ATOM      6  C6  BNZ d   1       0.150  -5.982   2.657  0.00  0.00     0.000 A 
ENDROOT
TORSDOF 0
ENDMDL
