MODEL 1
REMARK minimizedAffinity 7.19286203
REMARK minimizedRMSD -1
REMARK  0 active torsions:
REMARK  status: ('A' for Active; 'I' for Inactive)
ROOT
ATOM      1  C1  BNZ d   1      -1.143  -1.170   2.034  0.00  0.00     0.000 A 
ATOM      2  C2  BNZ d   1      -0.748   0.028   2.567  0.00  0.00     0.000 A 
ATOM      3  C3  BNZ d   1       0.098   0.854   1.881  0.00  0.00     0.000 A 
ATOM      4  C4  BNZ d   1       0.579   0.464   0.682  0.00  0.00     0.000 A 
ATOM      5  C5  BNZ d   1       0.197  -0.746   0.136  0.00  0.00     0.000 A 
ATOM      6  C6  BNZ d   1      -0.685  -1.557   0.812  0.00  0.00     0.000 A 
ENDROOT
TORSDOF 0
ENDMDL
