MODEL 1
REMARK minimizedAffinity -4.84404373
REMARK minimizedRMSD -1
REMARK  0 active torsions:
REMARK  status: ('A' for Active; 'I' for Inactive)
ROOT
ATOM      1  C1  DEN d   1       1.767  -0.387   1.433  0.00  0.00     0.130 A 
ATOM      2  C2  DEN d   1       1.995  -0.482  -0.007  0.00  0.00    -0.031 A 
ATOM      3  C3  DEN d   1       0.720  -0.187  -0.691  0.00  0.00     0.027 A 
ATOM      4  C4  DEN d   1      -1.570   0.413   0.333  0.00  0.00     0.027 A 
ATOM      5  C5  DEN d   1      -2.258   0.604   1.511  0.00  0.00    -0.003 A 
ATOM      6  C6  DEN d   1      -1.665   0.446   2.736  0.00  0.00     0.001 A 
ATOM      7  C7  DEN d   1      -0.334   0.131   2.811  0.00  0.00     0.017 A 
ATOM      8  C8  DEN d   1       0.364  -0.071   1.627  0.00  0.00    -0.094 A 
ATOM      9  C9  DEN d   1      -0.250   0.105   0.399  0.00  0.00    -0.072 A 
ENDROOT
TORSDOF 0
ENDMDL
