MODEL 1
REMARK minimizedAffinity 6.22118616
REMARK minimizedRMSD -1
REMARK  0 active torsions:
REMARK  status: ('A' for Active; 'I' for Inactive)
ROOT
ATOM      1  C1  DEN d   1      -1.255   0.236  -0.202  0.00  0.00     0.130 A 
ATOM      2  C2  DEN d   1      -2.712   0.337  -0.206  0.00  0.00    -0.031 A 
ATOM      3  C3  DEN d   1      -3.196   0.005   1.150  0.00  0.00     0.027 A 
ATOM      4  C4  DEN d   1      -1.838  -0.647   3.243  0.00  0.00     0.027 A 
ATOM      5  C5  DEN d   1      -0.571  -0.877   3.732  0.00  0.00    -0.003 A 
ATOM      6  C6  DEN d   1       0.545  -0.787   2.943  0.00  0.00     0.001 A 
ATOM      7  C7  DEN d   1       0.419  -0.413   1.631  0.00  0.00     0.017 A 
ATOM      8  C8  DEN d   1      -0.855  -0.186   1.128  0.00  0.00    -0.094 A 
ATOM      9  C9  DEN d   1      -1.970  -0.271   1.946  0.00  0.00    -0.072 A 
ENDROOT
TORSDOF 0
ENDMDL
