MODEL 1
REMARK minimizedAffinity 6.93091631
REMARK minimizedRMSD -1
REMARK  0 active torsions:
REMARK  status: ('A' for Active; 'I' for Inactive)
ROOT
ATOM      1  C1  DEN d   1       0.923  -1.240   3.471  0.00  0.00     0.130 A 
ATOM      2  C2  DEN d   1       0.532  -0.678   4.761  0.00  0.00    -0.031 A 
ATOM      3  C3  DEN d   1      -0.672   0.150   4.552  0.00  0.00     0.027 A 
ATOM      4  C4  DEN d   1      -1.966   0.612   2.369  0.00  0.00     0.027 A 
ATOM      5  C5  DEN d   1      -2.007   0.364   1.015  0.00  0.00    -0.003 A 
ATOM      6  C6  DEN d   1      -1.063  -0.402   0.384  0.00  0.00     0.001 A 
ATOM      7  C7  DEN d   1      -0.062  -0.985   1.115  0.00  0.00     0.017 A 
ATOM      8  C8  DEN d   1      -0.009  -0.733   2.480  0.00  0.00    -0.094 A 
ATOM      9  C9  DEN d   1      -0.980   0.034   3.101  0.00  0.00    -0.072 A 
ENDROOT
TORSDOF 0
ENDMDL
