MODEL 1
REMARK minimizedAffinity -0.448483646
REMARK minimizedRMSD -1
REMARK  0 active torsions:
REMARK  status: ('A' for Active; 'I' for Inactive)
ROOT
ATOM      1  C1  DEN d   1      -2.541   0.044   0.162  0.00  0.00     0.130 A 
ATOM      2  C2  DEN d   1      -2.441   0.644   1.490  0.00  0.00    -0.031 A 
ATOM      3  C3  DEN d   1      -1.063   0.439   1.981  0.00  0.00     0.027 A 
ATOM      4  C4  DEN d   1       0.915  -0.740   0.819  0.00  0.00     0.027 A 
ATOM      5  C5  DEN d   1       1.309  -1.418  -0.313  0.00  0.00    -0.003 A 
ATOM      6  C6  DEN d   1       0.446  -1.684  -1.343  0.00  0.00     0.001 A 
ATOM      7  C7  DEN d   1      -0.845  -1.230  -1.281  0.00  0.00     0.017 A 
ATOM      8  C8  DEN d   1      -1.252  -0.552  -0.140  0.00  0.00    -0.094 A 
ATOM      9  C9  DEN d   1      -0.361  -0.283   0.885  0.00  0.00    -0.072 A 
ENDROOT
TORSDOF 0
ENDMDL
