MODEL 1
REMARK minimizedAffinity 2.71132994
REMARK minimizedRMSD -1
REMARK  0 active torsions:
REMARK  status: ('A' for Active; 'I' for Inactive)
ROOT
ATOM      1  C1  DEN d   1      -3.300  -0.198   1.550  0.00  0.00     0.130 A 
ATOM      2  C2  DEN d   1      -2.583   0.145   2.776  0.00  0.00    -0.031 A 
ATOM      3  C3  DEN d   1      -1.137   0.142   2.475  0.00  0.00     0.027 A 
ATOM      4  C4  DEN d   1       0.054  -0.351   0.241  0.00  0.00     0.027 A 
ATOM      5  C5  DEN d   1      -0.133  -0.701  -1.078  0.00  0.00    -0.003 A 
ATOM      6  C6  DEN d   1      -1.376  -0.939  -1.600  0.00  0.00     0.001 A 
ATOM      7  C7  DEN d   1      -2.485  -0.786  -0.811  0.00  0.00     0.017 A 
ATOM      8  C8  DEN d   1      -2.304  -0.441   0.522  0.00  0.00    -0.094 A 
ATOM      9  C9  DEN d   1      -1.039  -0.192   1.028  0.00  0.00    -0.072 A 
ENDROOT
TORSDOF 0
ENDMDL
