MODEL 1
REMARK minimizedAffinity 1.80758631
REMARK minimizedRMSD -1
REMARK  0 active torsions:
REMARK  status: ('A' for Active; 'I' for Inactive)
ROOT
ATOM      1  C1  DEN d   1       0.303  -0.621   0.502  0.00  0.00     0.130 A 
ATOM      2  C2  DEN d   1      -0.774  -0.284  -0.426  0.00  0.00    -0.031 A 
ATOM      3  C3  DEN d   1      -2.026  -0.174   0.349  0.00  0.00     0.027 A 
ATOM      4  C4  DEN d   1      -2.400  -0.487   2.882  0.00  0.00     0.027 A 
ATOM      5  C5  DEN d   1      -1.789  -0.792   4.077  0.00  0.00    -0.003 A 
ATOM      6  C6  DEN d   1      -0.455  -1.092   4.160  0.00  0.00     0.001 A 
ATOM      7  C7  DEN d   1       0.321  -1.050   3.032  0.00  0.00     0.017 A 
ATOM      8  C8  DEN d   1      -0.290  -0.751   1.821  0.00  0.00    -0.094 A 
ATOM      9  C9  DEN d   1      -1.637  -0.438   1.761  0.00  0.00    -0.072 A 
ENDROOT
TORSDOF 0
ENDMDL
