MODEL 1
REMARK minimizedAffinity 0.0914564207
REMARK minimizedRMSD -1
REMARK  0 active torsions:
REMARK  status: ('A' for Active; 'I' for Inactive)
ROOT
ATOM      1  C1  DEN d   1      -0.516  -2.218   5.665  0.00  0.00     0.130 A 
ATOM      2  C2  DEN d   1       0.808  -1.797   5.214  0.00  0.00    -0.031 A 
ATOM      3  C3  DEN d   1       0.663  -1.195   3.874  0.00  0.00     0.027 A 
ATOM      4  C4  DEN d   1      -1.471  -0.871   2.462  0.00  0.00     0.027 A 
ATOM      5  C5  DEN d   1      -2.831  -1.079   2.420  0.00  0.00    -0.003 A 
ATOM      6  C6  DEN d   1      -3.505  -1.708   3.434  0.00  0.00     0.001 A 
ATOM      7  C7  DEN d   1      -2.826  -2.109   4.553  0.00  0.00     0.017 A 
ATOM      8  C8  DEN d   1      -1.453  -1.909   4.600  0.00  0.00    -0.094 A 
ATOM      9  C9  DEN d   1      -0.792  -1.261   3.570  0.00  0.00    -0.072 A 
ENDROOT
TORSDOF 0
ENDMDL
