MODEL 1
REMARK minimizedAffinity 0.386649966
REMARK minimizedRMSD -1
REMARK  0 active torsions:
REMARK  status: ('A' for Active; 'I' for Inactive)
ROOT
ATOM      1  C1  DEN d   1      -2.367  -0.378  -0.970  0.00  0.00     0.130 A 
ATOM      2  C2  DEN d   1      -3.749  -0.647  -0.581  0.00  0.00    -0.031 A 
ATOM      3  C3  DEN d   1      -3.824  -0.610   0.893  0.00  0.00     0.027 A 
ATOM      4  C4  DEN d   1      -1.946  -0.159   2.603  0.00  0.00     0.027 A 
ATOM      5  C5  DEN d   1      -0.604   0.111   2.750  0.00  0.00    -0.003 A 
ATOM      6  C6  DEN d   1       0.245   0.202   1.679  0.00  0.00     0.001 A 
ATOM      7  C7  DEN d   1      -0.249   0.067   0.408  0.00  0.00     0.017 A 
ATOM      8  C8  DEN d   1      -1.601  -0.212   0.252  0.00  0.00    -0.094 A 
ATOM      9  C9  DEN d   1      -2.444  -0.289   1.347  0.00  0.00    -0.072 A 
ENDROOT
TORSDOF 0
ENDMDL
