MODEL 1
REMARK minimizedAffinity -1.69047701
REMARK minimizedRMSD -1
REMARK  0 active torsions:
REMARK  status: ('A' for Active; 'I' for Inactive)
ROOT
ATOM      1  C1  DEN d   1      -0.367  -1.616  -0.687  0.00  0.00     0.130 A 
ATOM      2  C2  DEN d   1      -1.754  -1.444  -1.108  0.00  0.00    -0.031 A 
ATOM      3  C3  DEN d   1      -2.491  -0.800  -0.003  0.00  0.00     0.027 A 
ATOM      4  C4  DEN d   1      -1.621  -0.050   2.307  0.00  0.00     0.027 A 
ATOM      5  C5  DEN d   1      -0.515   0.003   3.127  0.00  0.00    -0.003 A 
ATOM      6  C6  DEN d   1       0.699  -0.507   2.750  0.00  0.00     0.001 A 
ATOM      7  C7  DEN d   1       0.848  -1.051   1.502  0.00  0.00     0.017 A 
ATOM      8  C8  DEN d   1      -0.264  -1.115   0.672  0.00  0.00    -0.094 A 
ATOM      9  C9  DEN d   1      -1.480  -0.583   1.067  0.00  0.00    -0.072 A 
ENDROOT
TORSDOF 0
ENDMDL
