MODEL 1
REMARK minimizedAffinity 3.07688642
REMARK minimizedRMSD -1
REMARK  1 active torsions:
REMARK  status: ('A' for Active; 'I' for Inactive)
REMARK    1  A    between atoms: C1_2  and  C2_3 
ROOT
ATOM      1  C2  UNL d   1       0.273  -3.036   2.516  0.00  0.00    -0.077 A 
ATOM      2  C3  UNL d   1       1.144  -2.014   2.113  0.00  0.00     0.002 A 
ATOM      3  C4  UNL d   1       2.265  -2.309   1.334  0.00  0.00     0.002 A 
ATOM      4  C5  UNL d   1       2.523  -3.623   0.950  0.00  0.00    -0.004 A 
ATOM      5  C6  UNL d   1       1.663  -4.646   1.348  0.00  0.00     0.002 A 
ATOM      6  C7  UNL d   1       0.543  -4.354   2.127  0.00  0.00     0.002 A 
ENDROOT
BRANCH   1   7
ATOM      7  C1  UNL d   1      -0.963  -2.714   3.315  0.00  0.00     0.055 C 
ATOM      8  C   UNL d   1      -1.780  -3.966   3.599  0.00  0.00     0.019 C 
ENDBRANCH   1   7
TORSDOF 1
ENDMDL
