MODEL 1
REMARK minimizedAffinity 6.12551308
REMARK minimizedRMSD -1
REMARK  1 active torsions:
REMARK  status: ('A' for Active; 'I' for Inactive)
REMARK    1  A    between atoms: C1_2  and  C2_3 
ROOT
ATOM      1  C2  UNL d   1       3.157   4.896   5.212  0.00  0.00    -0.077 A 
ATOM      2  C3  UNL d   1       3.824   5.933   5.879  0.00  0.00     0.002 A 
ATOM      3  C4  UNL d   1       5.219   5.998   5.867  0.00  0.00     0.002 A 
ATOM      4  C5  UNL d   1       5.957   5.032   5.187  0.00  0.00    -0.004 A 
ATOM      5  C6  UNL d   1       5.303   3.995   4.523  0.00  0.00     0.002 A 
ATOM      6  C7  UNL d   1       3.909   3.928   4.534  0.00  0.00     0.002 A 
ENDROOT
BRANCH   1   7
ATOM      7  C1  UNL d   1       1.651   4.852   5.182  0.00  0.00     0.055 C 
ATOM      8  C   UNL d   1       1.147   3.895   4.112  0.00  0.00     0.019 C 
ENDBRANCH   1   7
TORSDOF 1
ENDMDL
