MODEL 1
REMARK minimizedAffinity -1.03614986
REMARK minimizedRMSD -1
REMARK  1 active torsions:
REMARK  status: ('A' for Active; 'I' for Inactive)
REMARK    1  A    between atoms: C1_2  and  C2_3 
ROOT
ATOM      1  C2  UNL d   1       0.126  -1.192   2.920  0.00  0.00    -0.077 A 
ATOM      2  C3  UNL d   1       1.457  -1.349   3.332  0.00  0.00     0.002 A 
ATOM      3  C4  UNL d   1       2.306  -2.228   2.658  0.00  0.00     0.002 A 
ATOM      4  C5  UNL d   1       1.835  -2.954   1.565  0.00  0.00    -0.004 A 
ATOM      5  C6  UNL d   1       0.513  -2.806   1.149  0.00  0.00     0.002 A 
ATOM      6  C7  UNL d   1      -0.338  -1.929   1.823  0.00  0.00     0.002 A 
ENDROOT
BRANCH   1   7
ATOM      7  C1  UNL d   1      -0.778  -0.208   3.616  0.00  0.00     0.055 C 
ATOM      8  C   UNL d   1      -2.074  -0.005   2.845  0.00  0.00     0.019 C 
ENDBRANCH   1   7
TORSDOF 1
ENDMDL
