MODEL 1
REMARK minimizedAffinity 2.24458241
REMARK minimizedRMSD -1
REMARK  1 active torsions:
REMARK  status: ('A' for Active; 'I' for Inactive)
REMARK    1  A    between atoms: C1_2  and  C2_3 
ROOT
ATOM      1  C2  UNL d   1      -1.118  -0.927   2.796  0.00  0.00    -0.077 A 
ATOM      2  C3  UNL d   1      -1.633  -0.178   3.864  0.00  0.00     0.002 A 
ATOM      3  C4  UNL d   1      -2.776   0.604   3.691  0.00  0.00     0.002 A 
ATOM      4  C5  UNL d   1      -3.416   0.642   2.454  0.00  0.00    -0.004 A 
ATOM      5  C6  UNL d   1      -2.910  -0.097   1.385  0.00  0.00     0.002 A 
ATOM      6  C7  UNL d   1      -1.767  -0.879   1.556  0.00  0.00     0.002 A 
ENDROOT
BRANCH   1   7
ATOM      7  C1  UNL d   1       0.087  -1.810   2.994  0.00  0.00     0.055 C 
ATOM      8  C   UNL d   1       0.757  -2.137   1.667  0.00  0.00     0.019 C 
ENDBRANCH   1   7
TORSDOF 1
ENDMDL
