MODEL 1
REMARK minimizedAffinity 7.67387009
REMARK minimizedRMSD -1
REMARK  1 active torsions:
REMARK  status: ('A' for Active; 'I' for Inactive)
REMARK    1  A    between atoms: C1_2  and  C2_3 
ROOT
ATOM      1  C2  UNL d   1       0.557  -1.602   2.565  0.00  0.00    -0.077 A 
ATOM      2  C3  UNL d   1       0.589  -3.003   2.558  0.00  0.00     0.002 A 
ATOM      3  C4  UNL d   1       1.194  -3.691   1.504  0.00  0.00     0.002 A 
ATOM      4  C5  UNL d   1       1.776  -2.985   0.453  0.00  0.00    -0.004 A 
ATOM      5  C6  UNL d   1       1.748  -1.591   0.450  0.00  0.00     0.002 A 
ATOM      6  C7  UNL d   1       1.142  -0.902   1.502  0.00  0.00     0.002 A 
ENDROOT
BRANCH   1   7
ATOM      7  C1  UNL d   1      -0.051  -0.858   3.725  0.00  0.00     0.055 C 
ATOM      8  C   UNL d   1      -1.520  -0.546   3.474  0.00  0.00     0.019 C 
ENDBRANCH   1   7
TORSDOF 1
ENDMDL
