MODEL 1
REMARK minimizedAffinity -3.06644702
REMARK minimizedRMSD -1
REMARK  1 active torsions:
REMARK  status: ('A' for Active; 'I' for Inactive)
REMARK    1  A    between atoms: C1_2  and  C2_3 
ROOT
ATOM      1  C2  UNL d   1      -1.149   0.375  -0.433  0.00  0.00    -0.077 A 
ATOM      2  C3  UNL d   1      -0.057   1.245  -0.314  0.00  0.00     0.002 A 
ATOM      3  C4  UNL d   1       1.108   0.832   0.336  0.00  0.00     0.002 A 
ATOM      4  C5  UNL d   1       1.192  -0.453   0.869  0.00  0.00    -0.004 A 
ATOM      5  C6  UNL d   1       0.109  -1.325   0.758  0.00  0.00     0.002 A 
ATOM      6  C7  UNL d   1      -1.056  -0.913   0.109  0.00  0.00     0.002 A 
ENDROOT
BRANCH   1   7
ATOM      7  C1  UNL d   1      -2.388   0.801  -1.177  0.00  0.00     0.055 C 
ATOM      8  C   UNL d   1      -2.636  -0.082  -2.392  0.00  0.00     0.019 C 
ENDBRANCH   1   7
TORSDOF 1
ENDMDL
