MODEL 1
REMARK minimizedAffinity -3.96856356
REMARK minimizedRMSD -1
REMARK  1 active torsions:
REMARK  status: ('A' for Active; 'I' for Inactive)
REMARK    1  A    between atoms: C1_2  and  C2_3 
ROOT
ATOM      1  C2  UNL d   1      -0.286  -0.216   0.049  0.00  0.00    -0.077 A 
ATOM      2  C3  UNL d   1       0.687  -1.225   0.082  0.00  0.00     0.002 A 
ATOM      3  C4  UNL d   1       2.029  -0.905   0.291  0.00  0.00     0.002 A 
ATOM      4  C5  UNL d   1       2.411   0.422   0.474  0.00  0.00    -0.004 A 
ATOM      5  C6  UNL d   1       1.452   1.433   0.441  0.00  0.00     0.002 A 
ATOM      6  C7  UNL d   1       0.109   1.116   0.230  0.00  0.00     0.002 A 
ENDROOT
BRANCH   1   7
ATOM      7  C1  UNL d   1      -1.741  -0.563  -0.127  0.00  0.00     0.055 C 
ATOM      8  C   UNL d   1      -2.246  -0.148  -1.501  0.00  0.00     0.019 C 
ENDBRANCH   1   7
TORSDOF 1
ENDMDL
