MODEL 1
REMARK minimizedAffinity -3.44004083
REMARK minimizedRMSD -1
REMARK  1 active torsions:
REMARK  status: ('A' for Active; 'I' for Inactive)
REMARK    1  A    between atoms: C1_2  and  C2_3 
ROOT
ATOM      1  C2  UNL d   1       1.906   0.493   0.150  0.00  0.00    -0.077 A 
ATOM      2  C3  UNL d   1       1.788   1.887   0.236  0.00  0.00     0.002 A 
ATOM      3  C4  UNL d   1       0.530   2.483   0.346  0.00  0.00     0.002 A 
ATOM      4  C5  UNL d   1      -0.617   1.694   0.374  0.00  0.00    -0.004 A 
ATOM      5  C6  UNL d   1      -0.510   0.306   0.287  0.00  0.00     0.002 A 
ATOM      6  C7  UNL d   1       0.746  -0.292   0.176  0.00  0.00     0.002 A 
ENDROOT
BRANCH   1   7
ATOM      7  C1  UNL d   1       3.264  -0.155   0.081  0.00  0.00     0.055 C 
ATOM      8  C   UNL d   1       3.459  -1.155   1.212  0.00  0.00     0.019 C 
ENDBRANCH   1   7
TORSDOF 1
ENDMDL
