MODEL 1
REMARK minimizedAffinity -0.888225138
REMARK minimizedRMSD -1
REMARK  1 active torsions:
REMARK  status: ('A' for Active; 'I' for Inactive)
REMARK    1  A    between atoms: C1_2  and  C2_3 
ROOT
ATOM      1  C2  UNL d   1      -0.265  -0.214   0.649  0.00  0.00    -0.077 A 
ATOM      2  C3  UNL d   1      -0.263   0.314  -0.649  0.00  0.00     0.002 A 
ATOM      3  C4  UNL d   1       0.763   1.166  -1.063  0.00  0.00     0.002 A 
ATOM      4  C5  UNL d   1       1.796   1.493  -0.188  0.00  0.00    -0.004 A 
ATOM      5  C6  UNL d   1       1.802   0.974   1.106  0.00  0.00     0.002 A 
ATOM      6  C7  UNL d   1       0.777   0.123   1.523  0.00  0.00     0.002 A 
ENDROOT
BRANCH   1   7
ATOM      7  C1  UNL d   1      -1.344  -1.172   1.082  0.00  0.00     0.055 C 
ATOM      8  C   UNL d   1      -0.753  -2.415   1.732  0.00  0.00     0.019 C 
ENDBRANCH   1   7
TORSDOF 1
ENDMDL
