MODEL 1
REMARK minimizedAffinity 1.23761737
REMARK minimizedRMSD -1
REMARK  0 active torsions:
REMARK  status: ('A' for Active; 'I' for Inactive)
ROOT
ATOM      1  C   UNL d   1      -2.923   5.966  -5.982  0.00  0.00     0.077 C 
ATOM      2  C1  UNL d   1      -2.175   4.666  -5.978  0.00  0.00    -0.074 A 
ATOM      3  C2  UNL d   1      -2.857   3.444  -5.993  0.00  0.00    -0.005 A 
ATOM      4  C3  UNL d   1      -2.148   2.243  -5.999  0.00  0.00     0.006 A 
ATOM      5  C4  UNL d   1      -0.752   2.251  -5.989  0.00  0.00    -0.005 A 
ATOM      6  C5  UNL d   1      -0.054   3.463  -5.974  0.00  0.00    -0.074 A 
ATOM      7  C6  UNL d   1       1.446   3.489  -5.973  0.00  0.00     0.077 C 
ATOM      8  C7  UNL d   1      -0.773   4.665  -5.976  0.00  0.00    -0.001 A 
ENDROOT
TORSDOF 0
ENDMDL
