MODEL 1
REMARK minimizedAffinity 0.24225609
REMARK minimizedRMSD -1
REMARK  0 active torsions:
REMARK  status: ('A' for Active; 'I' for Inactive)
ROOT
ATOM      1  C   UNL d   1       0.621   2.603  -5.998  0.00  0.00     0.077 C 
ATOM      2  C1  UNL d   1      -0.106   3.722  -5.313  0.00  0.00    -0.074 A 
ATOM      3  C2  UNL d   1       0.312   4.193  -4.064  0.00  0.00    -0.005 A 
ATOM      4  C3  UNL d   1      -0.368   5.241  -3.444  0.00  0.00     0.006 A 
ATOM      5  C4  UNL d   1      -1.471   5.827  -4.065  0.00  0.00    -0.005 A 
ATOM      6  C5  UNL d   1      -1.903   5.371  -5.314  0.00  0.00    -0.074 A 
ATOM      7  C6  UNL d   1      -3.081   5.997  -6.000  0.00  0.00     0.077 C 
ATOM      8  C7  UNL d   1      -1.211   4.322  -5.934  0.00  0.00    -0.001 A 
ENDROOT
TORSDOF 0
ENDMDL
