MODEL 1
REMARK minimizedAffinity -1.91266847
REMARK minimizedRMSD -1
REMARK  0 active torsions:
REMARK  status: ('A' for Active; 'I' for Inactive)
ROOT
ATOM      1  C   UNL d   1      -2.808   2.900  -5.977  0.00  0.00     0.077 C 
ATOM      2  C1  UNL d   1      -1.602   3.791  -5.986  0.00  0.00    -0.074 A 
ATOM      3  C2  UNL d   1      -1.737   5.183  -5.972  0.00  0.00    -0.005 A 
ATOM      4  C3  UNL d   1      -0.606   6.000  -5.971  0.00  0.00     0.006 A 
ATOM      5  C4  UNL d   1       0.669   5.433  -5.984  0.00  0.00    -0.005 A 
ATOM      6  C5  UNL d   1       0.824   4.043  -5.996  0.00  0.00    -0.074 A 
ATOM      7  C6  UNL d   1       2.187   3.418  -6.000  0.00  0.00     0.077 C 
ATOM      8  C7  UNL d   1      -0.318   3.230  -5.990  0.00  0.00    -0.001 A 
ENDROOT
TORSDOF 0
ENDMDL
