MODEL 1
REMARK minimizedAffinity 2.43228006
REMARK minimizedRMSD -1
REMARK  0 active torsions:
REMARK  status: ('A' for Active; 'I' for Inactive)
ROOT
ATOM      1  C   UNL d   1      -2.753   2.833  -5.987  0.00  0.00     0.077 C 
ATOM      2  C1  UNL d   1      -1.413   3.507  -5.997  0.00  0.00    -0.074 A 
ATOM      3  C2  UNL d   1      -1.310   4.902  -5.993  0.00  0.00    -0.005 A 
ATOM      4  C3  UNL d   1      -0.057   5.514  -5.992  0.00  0.00     0.006 A 
ATOM      5  C4  UNL d   1       1.104   4.740  -5.995  0.00  0.00    -0.005 A 
ATOM      6  C5  UNL d   1       1.021   3.344  -5.998  0.00  0.00    -0.074 A 
ATOM      7  C6  UNL d   1       2.258   2.497  -5.991  0.00  0.00     0.077 C 
ATOM      8  C7  UNL d   1      -0.242   2.736  -5.991  0.00  0.00    -0.001 A 
ENDROOT
TORSDOF 0
ENDMDL
