MODEL 1
REMARK minimizedAffinity -1.29564643
REMARK minimizedRMSD -1
REMARK  0 active torsions:
REMARK  status: ('A' for Active; 'I' for Inactive)
ROOT
ATOM      1  C   UNL d   1       1.910   2.542  -5.999  0.00  0.00     0.077 C 
ATOM      2  C1  UNL d   1       0.692   3.418  -5.991  0.00  0.00    -0.074 A 
ATOM      3  C2  UNL d   1       0.809   4.812  -5.997  0.00  0.00    -0.005 A 
ATOM      4  C3  UNL d   1      -0.332   5.613  -6.000  0.00  0.00     0.006 A 
ATOM      5  C4  UNL d   1      -1.600   5.031  -5.997  0.00  0.00    -0.005 A 
ATOM      6  C5  UNL d   1      -1.737   3.639  -5.993  0.00  0.00    -0.074 A 
ATOM      7  C6  UNL d   1      -3.092   2.997  -6.000  0.00  0.00     0.077 C 
ATOM      8  C7  UNL d   1      -0.585   2.840  -5.997  0.00  0.00    -0.001 A 
ENDROOT
TORSDOF 0
ENDMDL
