MODEL 1
REMARK minimizedAffinity 5.02224255
REMARK minimizedRMSD -1
REMARK  0 active torsions:
REMARK  status: ('A' for Active; 'I' for Inactive)
ROOT
ATOM      1  C   UNL d   1      -2.148   5.503  -4.854  0.00  0.00     0.077 C 
ATOM      2  C1  UNL d   1      -0.829   4.789  -4.894  0.00  0.00    -0.074 A 
ATOM      3  C2  UNL d   1       0.038   4.942  -5.981  0.00  0.00    -0.005 A 
ATOM      4  C3  UNL d   1       1.265   4.280  -6.000  0.00  0.00     0.006 A 
ATOM      5  C4  UNL d   1       1.638   3.460  -4.934  0.00  0.00    -0.005 A 
ATOM      6  C5  UNL d   1       0.784   3.295  -3.839  0.00  0.00    -0.074 A 
ATOM      7  C6  UNL d   1       1.173   2.425  -2.680  0.00  0.00     0.077 C 
ATOM      8  C7  UNL d   1      -0.445   3.970  -3.824  0.00  0.00    -0.001 A 
ENDROOT
TORSDOF 0
ENDMDL
