MODEL 1
REMARK minimizedAffinity -0.143617988
REMARK minimizedRMSD -1
REMARK  0 active torsions:
REMARK  status: ('A' for Active; 'I' for Inactive)
ROOT
ATOM      1  C   UNL d   1      -3.712   1.464   0.753  0.00  0.00     0.077 C 
ATOM      2  C1  UNL d   1      -2.234   1.208   0.731  0.00  0.00    -0.074 A 
ATOM      3  C2  UNL d   1      -1.704   0.013   1.227  0.00  0.00    -0.005 A 
ATOM      4  C3  UNL d   1      -0.328  -0.215   1.191  0.00  0.00     0.006 A 
ATOM      5  C4  UNL d   1       0.530   0.748   0.658  0.00  0.00    -0.005 A 
ATOM      6  C5  UNL d   1       0.018   1.949   0.156  0.00  0.00    -0.074 A 
ATOM      7  C6  UNL d   1       0.925   2.990  -0.429  0.00  0.00     0.077 C 
ATOM      8  C7  UNL d   1      -1.366   2.167   0.190  0.00  0.00    -0.001 A 
ENDROOT
TORSDOF 0
ENDMDL
