MODEL 1
REMARK minimizedAffinity 2.3508842
REMARK minimizedRMSD -1
REMARK  0 active torsions:
REMARK  status: ('A' for Active; 'I' for Inactive)
ROOT
ATOM      1  C   UNL d   1       1.223   2.144  -5.988  0.00  0.00     0.077 C 
ATOM      2  C1  UNL d   1       0.174   3.216  -5.985  0.00  0.00    -0.074 A 
ATOM      3  C2  UNL d   1       0.529   4.569  -5.993  0.00  0.00    -0.005 A 
ATOM      4  C3  UNL d   1      -0.457   5.555  -5.999  0.00  0.00     0.006 A 
ATOM      5  C4  UNL d   1      -1.806   5.199  -5.998  0.00  0.00    -0.005 A 
ATOM      6  C5  UNL d   1      -2.181   3.852  -5.991  0.00  0.00    -0.074 A 
ATOM      7  C6  UNL d   1      -3.626   3.452  -5.999  0.00  0.00     0.077 C 
ATOM      8  C7  UNL d   1      -1.184   2.867  -5.991  0.00  0.00    -0.001 A 
ENDROOT
TORSDOF 0
ENDMDL
