MODEL 1
REMARK minimizedAffinity -1.71063364
REMARK minimizedRMSD -1
REMARK  0 active torsions:
REMARK  status: ('A' for Active; 'I' for Inactive)
ROOT
ATOM      1  C   UNL d   1      -4.224   4.145  -5.989  0.00  0.00     0.077 C 
ATOM      2  C1  UNL d   1      -2.742   3.911  -5.985  0.00  0.00    -0.074 A 
ATOM      3  C2  UNL d   1      -2.219   2.614  -5.991  0.00  0.00    -0.005 A 
ATOM      4  C3  UNL d   1      -0.839   2.412  -5.997  0.00  0.00     0.006 A 
ATOM      5  C4  UNL d   1       0.030   3.503  -5.996  0.00  0.00    -0.005 A 
ATOM      6  C5  UNL d   1      -0.474   4.807  -5.990  0.00  0.00    -0.074 A 
ATOM      7  C6  UNL d   1       0.447   5.991  -5.999  0.00  0.00     0.077 C 
ATOM      8  C7  UNL d   1      -1.862   5.002  -5.992  0.00  0.00    -0.001 A 
ENDROOT
TORSDOF 0
ENDMDL
