MODEL 1
REMARK minimizedAffinity 1.65428507
REMARK minimizedRMSD -1
REMARK  0 active torsions:
REMARK  status: ('A' for Active; 'I' for Inactive)
ROOT
ATOM      1  C   UNL d   1      -5.174   3.736  -5.988  0.00  0.00     0.077 C 
ATOM      2  C1  UNL d   1      -3.705   4.039  -5.995  0.00  0.00    -0.074 A 
ATOM      3  C2  UNL d   1      -3.243   5.359  -5.982  0.00  0.00    -0.005 A 
ATOM      4  C3  UNL d   1      -1.874   5.625  -5.979  0.00  0.00     0.006 A 
ATOM      5  C4  UNL d   1      -0.954   4.576  -5.988  0.00  0.00    -0.005 A 
ATOM      6  C5  UNL d   1      -1.397   3.249  -6.000  0.00  0.00    -0.074 A 
ATOM      7  C6  UNL d   1      -0.422   2.110  -6.000  0.00  0.00     0.077 C 
ATOM      8  C7  UNL d   1      -2.775   2.990  -5.996  0.00  0.00    -0.001 A 
ENDROOT
TORSDOF 0
ENDMDL
