MODEL 1
REMARK minimizedAffinity -1.56772923
REMARK minimizedRMSD -1
REMARK  0 active torsions:
REMARK  status: ('A' for Active; 'I' for Inactive)
ROOT
ATOM      1  C   UNL d   1      -4.587   3.733  -5.992  0.00  0.00     0.077 C 
ATOM      2  C1  UNL d   1      -3.163   4.205  -5.991  0.00  0.00    -0.074 A 
ATOM      3  C2  UNL d   1      -2.859   5.570  -5.968  0.00  0.00    -0.005 A 
ATOM      4  C3  UNL d   1      -1.531   5.994  -5.957  0.00  0.00     0.006 A 
ATOM      5  C4  UNL d   1      -0.494   5.060  -5.970  0.00  0.00    -0.005 A 
ATOM      6  C5  UNL d   1      -0.779   3.691  -5.993  0.00  0.00    -0.074 A 
ATOM      7  C6  UNL d   1       0.322   2.673  -5.997  0.00  0.00     0.077 C 
ATOM      8  C7  UNL d   1      -2.117   3.272  -5.996  0.00  0.00    -0.001 A 
ENDROOT
TORSDOF 0
ENDMDL
