MODEL 1
REMARK minimizedAffinity -3.56239295
REMARK minimizedRMSD -1
REMARK  0 active torsions:
REMARK  status: ('A' for Active; 'I' for Inactive)
ROOT
ATOM      1  C   UNL d   1       4.277   4.901  -5.999  0.00  0.00     0.077 C 
ATOM      2  C1  UNL d   1       2.987   4.137  -5.997  0.00  0.00    -0.074 A 
ATOM      3  C2  UNL d   1       2.979   2.738  -5.976  0.00  0.00    -0.005 A 
ATOM      4  C3  UNL d   1       1.771   2.042  -5.966  0.00  0.00     0.006 A 
ATOM      5  C4  UNL d   1       0.560   2.735  -5.976  0.00  0.00    -0.005 A 
ATOM      6  C5  UNL d   1       0.548   4.133  -5.996  0.00  0.00    -0.074 A 
ATOM      7  C6  UNL d   1      -0.745   4.894  -5.998  0.00  0.00     0.077 C 
ATOM      8  C7  UNL d   1       1.766   4.826  -6.000  0.00  0.00    -0.001 A 
ENDROOT
TORSDOF 0
ENDMDL
