MODEL 1
REMARK minimizedAffinity 6.36063814
REMARK minimizedRMSD -1
REMARK  0 active torsions:
REMARK  status: ('A' for Active; 'I' for Inactive)
ROOT
ATOM      1  C   UNL d   1       2.106   2.895  -5.978  0.00  0.00     0.077 C 
ATOM      2  C1  UNL d   1       0.619   3.093  -5.980  0.00  0.00    -0.074 A 
ATOM      3  C2  UNL d   1      -0.252   1.999  -5.961  0.00  0.00    -0.005 A 
ATOM      4  C3  UNL d   1      -1.632   2.199  -5.953  0.00  0.00     0.006 A 
ATOM      5  C4  UNL d   1      -2.155   3.493  -5.964  0.00  0.00    -0.005 A 
ATOM      6  C5  UNL d   1      -1.300   4.599  -5.982  0.00  0.00    -0.074 A 
ATOM      7  C6  UNL d   1      -1.845   5.996  -5.984  0.00  0.00     0.077 C 
ATOM      8  C7  UNL d   1       0.086   4.390  -5.983  0.00  0.00    -0.001 A 
ENDROOT
TORSDOF 0
ENDMDL
