MODEL 1
REMARK minimizedAffinity -1.34422421
REMARK minimizedRMSD -1
REMARK  0 active torsions:
REMARK  status: ('A' for Active; 'I' for Inactive)
ROOT
ATOM      1  C   UNL d   1      -4.538   4.102  -5.991  0.00  0.00     0.077 C 
ATOM      2  C1  UNL d   1      -3.062   4.371  -5.998  0.00  0.00    -0.074 A 
ATOM      3  C2  UNL d   1      -2.570   5.680  -5.991  0.00  0.00    -0.005 A 
ATOM      4  C3  UNL d   1      -1.195   5.914  -5.988  0.00  0.00     0.006 A 
ATOM      5  C4  UNL d   1      -0.300   4.844  -5.993  0.00  0.00    -0.005 A 
ATOM      6  C5  UNL d   1      -0.774   3.528  -5.999  0.00  0.00    -0.074 A 
ATOM      7  C6  UNL d   1       0.175   2.366  -5.994  0.00  0.00     0.077 C 
ATOM      8  C7  UNL d   1      -2.157   3.301  -5.995  0.00  0.00    -0.001 A 
ENDROOT
TORSDOF 0
ENDMDL
