MODEL 1
REMARK minimizedAffinity 1.39992058
REMARK minimizedRMSD -1
REMARK  0 active torsions:
REMARK  status: ('A' for Active; 'I' for Inactive)
ROOT
ATOM      1  C   UNL d   1      -1.330   5.998  -6.000  0.00  0.00     0.077 C 
ATOM      2  C1  UNL d   1      -0.797   4.596  -5.992  0.00  0.00    -0.074 A 
ATOM      3  C2  UNL d   1      -1.663   3.498  -5.997  0.00  0.00    -0.005 A 
ATOM      4  C3  UNL d   1      -1.152   2.200  -5.999  0.00  0.00     0.006 A 
ATOM      5  C4  UNL d   1       0.227   1.987  -5.996  0.00  0.00    -0.005 A 
ATOM      6  C5  UNL d   1       1.108   3.074  -5.992  0.00  0.00    -0.074 A 
ATOM      7  C6  UNL d   1       2.593   2.863  -5.999  0.00  0.00     0.077 C 
ATOM      8  C7  UNL d   1       0.587   4.375  -5.997  0.00  0.00    -0.001 A 
ENDROOT
TORSDOF 0
ENDMDL
