MODEL 1
REMARK minimizedAffinity -3.2265234
REMARK minimizedRMSD -1
REMARK  0 active torsions:
REMARK  status: ('A' for Active; 'I' for Inactive)
ROOT
ATOM      1  C   UNL d   1      -3.753   3.381  -5.981  0.00  0.00     0.077 C 
ATOM      2  C1  UNL d   1      -2.306   3.777  -5.994  0.00  0.00    -0.074 A 
ATOM      3  C2  UNL d   1      -1.930   5.124  -5.991  0.00  0.00    -0.005 A 
ATOM      4  C3  UNL d   1      -0.581   5.477  -5.993  0.00  0.00     0.006 A 
ATOM      5  C4  UNL d   1       0.404   4.489  -5.997  0.00  0.00    -0.005 A 
ATOM      6  C5  UNL d   1       0.047   3.137  -6.000  0.00  0.00    -0.074 A 
ATOM      7  C6  UNL d   1       1.093   2.062  -5.995  0.00  0.00     0.077 C 
ATOM      8  C7  UNL d   1      -1.311   2.790  -5.990  0.00  0.00    -0.001 A 
ENDROOT
TORSDOF 0
ENDMDL
