MODEL 1
REMARK minimizedAffinity -2.27678227
REMARK minimizedRMSD -1
REMARK  0 active torsions:
REMARK  status: ('A' for Active; 'I' for Inactive)
ROOT
ATOM      1  C   UNL d   1      -2.610   3.113  -5.983  0.00  0.00     0.077 C 
ATOM      2  C1  UNL d   1      -1.250   3.745  -5.995  0.00  0.00    -0.074 A 
ATOM      3  C2  UNL d   1      -1.104   5.136  -5.994  0.00  0.00    -0.005 A 
ATOM      4  C3  UNL d   1       0.167   5.710  -5.996  0.00  0.00     0.006 A 
ATOM      5  C4  UNL d   1       1.303   4.900  -6.000  0.00  0.00    -0.005 A 
ATOM      6  C5  UNL d   1       1.177   3.507  -6.000  0.00  0.00    -0.074 A 
ATOM      7  C6  UNL d   1       2.388   2.622  -5.993  0.00  0.00     0.077 C 
ATOM      8  C7  UNL d   1      -0.104   2.938  -5.991  0.00  0.00    -0.001 A 
ENDROOT
TORSDOF 0
ENDMDL
