MODEL 1
REMARK minimizedAffinity 0.646539092
REMARK minimizedRMSD -1
REMARK  0 active torsions:
REMARK  status: ('A' for Active; 'I' for Inactive)
ROOT
ATOM      1  C   UNL d   1      -2.453   5.977  -6.000  0.00  0.00     0.077 C 
ATOM      2  C1  UNL d   1      -1.809   4.623  -5.992  0.00  0.00    -0.074 A 
ATOM      3  C2  UNL d   1      -2.583   3.458  -5.997  0.00  0.00    -0.005 A 
ATOM      4  C3  UNL d   1      -1.969   2.206  -5.999  0.00  0.00     0.006 A 
ATOM      5  C4  UNL d   1      -0.578   2.105  -5.997  0.00  0.00    -0.005 A 
ATOM      6  C5  UNL d   1       0.213   3.259  -5.993  0.00  0.00    -0.074 A 
ATOM      7  C6  UNL d   1       1.710   3.168  -6.000  0.00  0.00     0.077 C 
ATOM      8  C7  UNL d   1      -0.411   4.514  -5.998  0.00  0.00    -0.001 A 
ENDROOT
TORSDOF 0
ENDMDL
