MODEL 1
REMARK minimizedAffinity 9.29612446
REMARK minimizedRMSD -1
REMARK  0 active torsions:
REMARK  status: ('A' for Active; 'I' for Inactive)
ROOT
ATOM      1  C   UNL d   1       1.644  -0.993  -5.281  0.00  0.00     0.020 A 
ATOM      2  C1  UNL d   1       1.055  -0.041  -4.450  0.00  0.00     0.020 A 
ATOM      3  C2  UNL d   1      -0.243  -0.238  -3.972  0.00  0.00     0.034 A 
ATOM      4  C3  UNL d   1      -0.956  -1.389  -4.326  0.00  0.00     0.017 A 
ATOM      5  C4  UNL d   1      -0.363  -2.344  -5.160  0.00  0.00     0.017 A 
ATOM      6  C5  UNL d   1       0.936  -2.142  -5.635  0.00  0.00     0.034 A 
ATOM      7 Cl   UNL d   1      -1.180  -3.790  -5.639  0.00  0.00    -0.070 Cl
ATOM      8 Cl1  UNL d   1      -2.556  -1.568  -3.698  0.00  0.00    -0.070 Cl
ENDROOT
TORSDOF 0
ENDMDL
