MODEL 1
REMARK minimizedAffinity 5.17584133
REMARK minimizedRMSD -1
REMARK  0 active torsions:
REMARK  status: ('A' for Active; 'I' for Inactive)
ROOT
ATOM      1  C   UNL d   1       4.896   6.000   2.612  0.00  0.00     0.020 A 
ATOM      2  C1  UNL d   1       5.695   5.863   3.746  0.00  0.00     0.020 A 
ATOM      3  C2  UNL d   1       5.957   4.594   4.267  0.00  0.00     0.034 A 
ATOM      4  C3  UNL d   1       5.419   3.457   3.653  0.00  0.00     0.017 A 
ATOM      5  C4  UNL d   1       4.617   3.595   2.515  0.00  0.00     0.017 A 
ATOM      6  C5  UNL d   1       4.357   4.868   1.998  0.00  0.00     0.034 A 
ATOM      7 Cl   UNL d   1       3.917   2.239   1.704  0.00  0.00    -0.070 Cl
ATOM      8 Cl1  UNL d   1       5.785   1.919   4.351  0.00  0.00    -0.070 Cl
ENDROOT
TORSDOF 0
ENDMDL
