MODEL 1
REMARK minimizedAffinity 16.460207
REMARK minimizedRMSD -1
REMARK  0 active torsions:
REMARK  status: ('A' for Active; 'I' for Inactive)
ROOT
ATOM      1  C   UNL d   1       1.235  -0.369   1.448  0.00  0.00     0.020 A 
ATOM      2  C1  UNL d   1       0.569   0.194   2.536  0.00  0.00     0.020 A 
ATOM      3  C2  UNL d   1      -0.825   0.140   2.606  0.00  0.00     0.034 A 
ATOM      4  C3  UNL d   1      -1.557  -0.477   1.585  0.00  0.00     0.017 A 
ATOM      5  C4  UNL d   1      -0.888  -1.042   0.493  0.00  0.00     0.017 A 
ATOM      6  C5  UNL d   1       0.508  -0.985   0.429  0.00  0.00     0.034 A 
ATOM      7 Cl   UNL d   1      -1.723  -1.821  -0.804  0.00  0.00    -0.070 Cl
ATOM      8 Cl1  UNL d   1      -3.278  -0.508   1.736  0.00  0.00    -0.070 Cl
ENDROOT
TORSDOF 0
ENDMDL
