MODEL 1
REMARK minimizedAffinity 5.0819602
REMARK minimizedRMSD -1
REMARK  0 active torsions:
REMARK  status: ('A' for Active; 'I' for Inactive)
ROOT
ATOM      1  C   UNL d   1       4.101   5.586   1.286  0.00  0.00     0.020 A 
ATOM      2  C1  UNL d   1       5.020   5.999   2.249  0.00  0.00     0.020 A 
ATOM      3  C2  UNL d   1       5.594   5.065   3.114  0.00  0.00     0.034 A 
ATOM      4  C3  UNL d   1       5.251   3.711   3.015  0.00  0.00     0.017 A 
ATOM      5  C4  UNL d   1       4.329   3.297   2.048  0.00  0.00     0.017 A 
ATOM      6  C5  UNL d   1       3.757   4.237   1.185  0.00  0.00     0.034 A 
ATOM      7 Cl   UNL d   1       3.855   1.645   1.866  0.00  0.00    -0.070 Cl
ATOM      8 Cl1  UNL d   1       6.000   2.611   4.116  0.00  0.00    -0.070 Cl
ENDROOT
TORSDOF 0
ENDMDL
