MODEL 1
REMARK minimizedAffinity 18.9940987
REMARK minimizedRMSD -1
REMARK  0 active torsions:
REMARK  status: ('A' for Active; 'I' for Inactive)
ROOT
ATOM      1  C   UNL d   1      -1.495  -1.497  -2.169  0.00  0.00     0.020 A 
ATOM      2  C1  UNL d   1      -1.807  -2.852  -2.270  0.00  0.00     0.020 A 
ATOM      3  C2  UNL d   1      -1.563  -3.538  -3.461  0.00  0.00     0.034 A 
ATOM      4  C3  UNL d   1      -1.006  -2.869  -4.557  0.00  0.00     0.017 A 
ATOM      5  C4  UNL d   1      -0.693  -1.508  -4.455  0.00  0.00     0.017 A 
ATOM      6  C5  UNL d   1      -0.939  -0.826  -3.259  0.00  0.00     0.034 A 
ATOM      7 Cl   UNL d   1      -0.002  -0.615  -5.764  0.00  0.00    -0.070 Cl
ATOM      8 Cl1  UNL d   1      -0.731  -3.779  -6.000  0.00  0.00    -0.070 Cl
ENDROOT
TORSDOF 0
ENDMDL
