MODEL 1
REMARK minimizedAffinity 15.8871355
REMARK minimizedRMSD -1
REMARK  0 active torsions:
REMARK  status: ('A' for Active; 'I' for Inactive)
ROOT
ATOM      1  C   UNL d   1       6.000   1.941  -5.748  0.00  0.00     0.020 A 
ATOM      2  C1  UNL d   1       4.881   2.550  -5.180  0.00  0.00     0.020 A 
ATOM      3  C2  UNL d   1       3.759   1.786  -4.854  0.00  0.00     0.034 A 
ATOM      4  C3  UNL d   1       3.753   0.407  -5.096  0.00  0.00     0.017 A 
ATOM      5  C4  UNL d   1       4.876  -0.204  -5.666  0.00  0.00     0.017 A 
ATOM      6  C5  UNL d   1       5.997   0.567  -5.990  0.00  0.00     0.034 A 
ATOM      7 Cl   UNL d   1       4.943  -1.900  -5.993  0.00  0.00    -0.070 Cl
ATOM      8 Cl1  UNL d   1       2.332  -0.477  -4.668  0.00  0.00    -0.070 Cl
ENDROOT
TORSDOF 0
ENDMDL
