MODEL 1
REMARK minimizedAffinity 13.4265633
REMARK minimizedRMSD -1
REMARK  0 active torsions:
REMARK  status: ('A' for Active; 'I' for Inactive)
ROOT
ATOM      1  C   UNL d   1       0.797  -0.276   3.148  0.00  0.00     0.020 A 
ATOM      2  C1  UNL d   1       1.168  -0.312   4.491  0.00  0.00     0.020 A 
ATOM      3  C2  UNL d   1       0.852   0.757   5.332  0.00  0.00     0.034 A 
ATOM      4  C3  UNL d   1       0.162   1.867   4.830  0.00  0.00     0.017 A 
ATOM      5  C4  UNL d   1      -0.210   1.902   3.482  0.00  0.00     0.017 A 
ATOM      6  C5  UNL d   1       0.109   0.829   2.644  0.00  0.00     0.034 A 
ATOM      7 Cl   UNL d   1      -1.064   3.237   2.790  0.00  0.00    -0.070 Cl
ATOM      8 Cl1  UNL d   1      -0.196   3.153   5.927  0.00  0.00    -0.070 Cl
ENDROOT
TORSDOF 0
ENDMDL
