MODEL 1
REMARK minimizedAffinity 8.64493847
REMARK minimizedRMSD -1
REMARK  0 active torsions:
REMARK  status: ('A' for Active; 'I' for Inactive)
ROOT
ATOM      1  C   UNL d   1      -0.590   0.403   1.849  0.00  0.00     0.020 A 
ATOM      2  C1  UNL d   1       0.577   0.810   2.496  0.00  0.00     0.020 A 
ATOM      3  C2  UNL d   1       1.133   0.013   3.499  0.00  0.00     0.034 A 
ATOM      4  C3  UNL d   1       0.522  -1.194   3.858  0.00  0.00     0.017 A 
ATOM      5  C4  UNL d   1      -0.648  -1.601   3.208  0.00  0.00     0.017 A 
ATOM      6  C5  UNL d   1      -1.201  -0.800   2.204  0.00  0.00     0.034 A 
ATOM      7 Cl   UNL d   1      -1.458  -3.078   3.596  0.00  0.00    -0.070 Cl
ATOM      8 Cl1  UNL d   1       1.265  -2.129   5.107  0.00  0.00    -0.070 Cl
ENDROOT
TORSDOF 0
ENDMDL
