MODEL 1
REMARK minimizedAffinity 14.8579569
REMARK minimizedRMSD -1
REMARK  0 active torsions:
REMARK  status: ('A' for Active; 'I' for Inactive)
ROOT
ATOM      1  C   UNL d   1       0.316  -0.293   2.019  0.00  0.00     0.020 A 
ATOM      2  C1  UNL d   1      -0.131   0.977   2.382  0.00  0.00     0.020 A 
ATOM      3  C2  UNL d   1      -1.417   1.391   2.031  0.00  0.00     0.034 A 
ATOM      4  C3  UNL d   1      -2.262   0.535   1.315  0.00  0.00     0.017 A 
ATOM      5  C4  UNL d   1      -1.813  -0.740   0.951  0.00  0.00     0.017 A 
ATOM      6  C5  UNL d   1      -0.524  -1.149   1.305  0.00  0.00     0.034 A 
ATOM      7 Cl   UNL d   1      -2.797  -1.852   0.067  0.00  0.00    -0.070 Cl
ATOM      8 Cl1  UNL d   1      -3.840   1.113   0.915  0.00  0.00    -0.070 Cl
ENDROOT
TORSDOF 0
ENDMDL
