MODEL 1
REMARK minimizedAffinity 9.48163128
REMARK minimizedRMSD -1
REMARK  0 active torsions:
REMARK  status: ('A' for Active; 'I' for Inactive)
ROOT
ATOM      1  C   UNL d   1       1.005  -0.770   3.919  0.00  0.00     0.020 A 
ATOM      2  C1  UNL d   1       0.296  -0.712   2.719  0.00  0.00     0.020 A 
ATOM      3  C2  UNL d   1      -0.397   0.450   2.373  0.00  0.00     0.034 A 
ATOM      4  C3  UNL d   1      -0.383   1.558   3.228  0.00  0.00     0.017 A 
ATOM      5  C4  UNL d   1       0.328   1.499   4.432  0.00  0.00     0.017 A 
ATOM      6  C5  UNL d   1       1.021   0.333   4.773  0.00  0.00     0.034 A 
ATOM      7 Cl   UNL d   1       0.391   2.826   5.537  0.00  0.00    -0.070 Cl
ATOM      8 Cl1  UNL d   1      -1.262   2.962   2.737  0.00  0.00    -0.070 Cl
ENDROOT
TORSDOF 0
ENDMDL
