MODEL 1
REMARK minimizedAffinity 0.94567579
REMARK minimizedRMSD -1
REMARK  0 active torsions:
REMARK  status: ('A' for Active; 'I' for Inactive)
ROOT
ATOM      1  C   UNL d   1       0.660  -0.041   2.443  0.00  0.00     0.124 A 
ATOM      2  C1  UNL d   1       1.535   0.295   1.419  0.00  0.00     0.062 A 
ATOM      3  C2  UNL d   1       1.049   0.560   0.142  0.00  0.00     0.162 A 
ATOM      4  C3  UNL d   1      -0.319   0.490  -0.120  0.00  0.00    -0.034 A 
ATOM      5  C4  UNL d   1      -1.193   0.151   0.915  0.00  0.00     0.162 A 
ATOM      6  C5  UNL d   1      -0.703  -0.113   2.190  0.00  0.00     0.062 A 
ATOM      7  F   UNL d   1      -1.550  -0.437   3.177  0.00  0.00    -0.097 F 
ATOM      8  F1  UNL d   1      -2.514   0.075   0.698  0.00  0.00    -0.096 F 
ATOM      9  I   UNL d   1      -1.049   0.885  -2.028  0.00  0.00    -0.060 I 
ATOM     10  F2  UNL d   1       1.918   0.882  -0.828  0.00  0.00    -0.096 F 
ATOM     11  F3  UNL d   1       2.852   0.364   1.661  0.00  0.00    -0.097 F 
ATOM     12  F4  UNL d   1       1.130  -0.296   3.671  0.00  0.00    -0.092 F 
ENDROOT
TORSDOF 0
ENDMDL
