MODEL 1
REMARK minimizedAffinity -3.22078848
REMARK minimizedRMSD -1
REMARK  0 active torsions:
REMARK  status: ('A' for Active; 'I' for Inactive)
ROOT
ATOM      1  C   UNL d   1      -1.418  -0.158   2.665  0.00  0.00     0.124 A 
ATOM      2  C1  UNL d   1      -2.278   0.111   1.610  0.00  0.00     0.062 A 
ATOM      3  C2  UNL d   1      -1.780   0.233   0.315  0.00  0.00     0.162 A 
ATOM      4  C3  UNL d   1      -0.415   0.085   0.069  0.00  0.00    -0.034 A 
ATOM      5  C4  UNL d   1       0.443  -0.185   1.136  0.00  0.00     0.162 A 
ATOM      6  C5  UNL d   1      -0.059  -0.306   2.428  0.00  0.00     0.062 A 
ATOM      7  F   UNL d   1       0.774  -0.566   3.447  0.00  0.00    -0.097 F 
ATOM      8  F1  UNL d   1       1.761  -0.334   0.935  0.00  0.00    -0.096 F 
ATOM      9  I   UNL d   1       0.332   0.266  -1.865  0.00  0.00    -0.060 I 
ATOM     10  F2  UNL d   1      -2.634   0.494  -0.686  0.00  0.00    -0.096 F 
ATOM     11  F3  UNL d   1      -3.591   0.256   1.837  0.00  0.00    -0.097 F 
ATOM     12  F4  UNL d   1      -1.899  -0.274   3.910  0.00  0.00    -0.092 F 
ENDROOT
TORSDOF 0
ENDMDL
