MODEL 1
REMARK minimizedAffinity -1.58522856
REMARK minimizedRMSD -1
REMARK  0 active torsions:
REMARK  status: ('A' for Active; 'I' for Inactive)
ROOT
ATOM      1  C   UNL d   1      -2.096  -0.707   1.142  0.00  0.00     0.124 A 
ATOM      2  C1  UNL d   1      -2.464   0.166   0.128  0.00  0.00     0.062 A 
ATOM      3  C2  UNL d   1      -1.565   0.480  -0.887  0.00  0.00     0.162 A 
ATOM      4  C3  UNL d   1      -0.288  -0.080  -0.894  0.00  0.00    -0.034 A 
ATOM      5  C4  UNL d   1       0.076  -0.957   0.130  0.00  0.00     0.162 A 
ATOM      6  C5  UNL d   1      -0.826  -1.267   1.142  0.00  0.00     0.062 A 
ATOM      7  F   UNL d   1      -0.468  -2.111   2.121  0.00  0.00    -0.097 F 
ATOM      8  F1  UNL d   1       1.296  -1.514   0.154  0.00  0.00    -0.096 F 
ATOM      9  I   UNL d   1       1.060   0.386  -2.410  0.00  0.00    -0.060 I 
ATOM     10  F2  UNL d   1      -1.948   1.327  -1.854  0.00  0.00    -0.096 F 
ATOM     11  F3  UNL d   1      -3.690   0.710   0.126  0.00  0.00    -0.097 F 
ATOM     12  F4  UNL d   1      -2.963  -1.006   2.118  0.00  0.00    -0.092 F 
ENDROOT
TORSDOF 0
ENDMDL
