MODEL 1
REMARK minimizedAffinity -2.124681
REMARK minimizedRMSD -1
REMARK  0 active torsions:
REMARK  status: ('A' for Active; 'I' for Inactive)
ROOT
ATOM      1  C   UNL d   1       0.712   0.362  -0.396  0.00  0.00     0.124 A 
ATOM      2  C1  UNL d   1       1.450   0.225   0.772  0.00  0.00     0.062 A 
ATOM      3  C2  UNL d   1       0.814  -0.095   1.968  0.00  0.00     0.162 A 
ATOM      4  C3  UNL d   1      -0.568  -0.281   2.002  0.00  0.00    -0.034 A 
ATOM      5  C4  UNL d   1      -1.303  -0.141   0.824  0.00  0.00     0.162 A 
ATOM      6  C5  UNL d   1      -0.663   0.179  -0.369  0.00  0.00     0.062 A 
ATOM      7  F   UNL d   1      -1.377   0.311  -1.496  0.00  0.00    -0.097 F 
ATOM      8  F1  UNL d   1      -2.633  -0.313   0.821  0.00  0.00    -0.096 F 
ATOM      9  I   UNL d   1      -1.523  -0.760   3.788  0.00  0.00    -0.060 I 
ATOM     10  F2  UNL d   1       1.552  -0.221   3.081  0.00  0.00    -0.096 F 
ATOM     11  F3  UNL d   1       2.779   0.403   0.748  0.00  0.00    -0.097 F 
ATOM     12  F4  UNL d   1       1.326   0.671  -1.545  0.00  0.00    -0.092 F 
ENDROOT
TORSDOF 0
ENDMDL
