MODEL 1
REMARK minimizedAffinity -2.75761867
REMARK minimizedRMSD -1
REMARK  0 active torsions:
REMARK  status: ('A' for Active; 'I' for Inactive)
ROOT
ATOM      1  C   UNL d   1       0.473   0.648  -1.109  0.00  0.00     0.124 A 
ATOM      2  C1  UNL d   1       1.336   0.606  -0.022  0.00  0.00     0.062 A 
ATOM      3  C2  UNL d   1       0.881   0.161   1.216  0.00  0.00     0.162 A 
ATOM      4  C3  UNL d   1      -0.443  -0.248   1.374  0.00  0.00    -0.034 A 
ATOM      5  C4  UNL d   1      -1.305  -0.202   0.277  0.00  0.00     0.162 A 
ATOM      6  C5  UNL d   1      -0.846   0.244  -0.958  0.00  0.00     0.062 A 
ATOM      7  F   UNL d   1      -1.681   0.284  -2.007  0.00  0.00    -0.097 F 
ATOM      8  F1  UNL d   1      -2.584  -0.587   0.393  0.00  0.00    -0.096 F 
ATOM      9  I   UNL d   1      -1.127  -0.915   3.223  0.00  0.00    -0.060 I 
ATOM     10  F2  UNL d   1       1.737   0.131   2.249  0.00  0.00    -0.096 F 
ATOM     11  F3  UNL d   1       2.611   0.997  -0.164  0.00  0.00    -0.097 F 
ATOM     12  F4  UNL d   1       0.913   1.078  -2.298  0.00  0.00    -0.092 F 
ENDROOT
TORSDOF 0
ENDMDL
