MODEL 1
REMARK minimizedAffinity 2.60932016
REMARK minimizedRMSD -1
REMARK  0 active torsions:
REMARK  status: ('A' for Active; 'I' for Inactive)
ROOT
ATOM      1  C   UNL d   1      -0.408   0.171   2.533  0.00  0.00     0.124 A 
ATOM      2  C1  UNL d   1      -0.917  -0.758   1.635  0.00  0.00     0.062 A 
ATOM      3  C2  UNL d   1      -0.449  -0.794   0.325  0.00  0.00     0.162 A 
ATOM      4  C3  UNL d   1       0.535   0.101  -0.096  0.00  0.00    -0.034 A 
ATOM      5  C4  UNL d   1       1.041   1.033   0.812  0.00  0.00     0.162 A 
ATOM      6  C5  UNL d   1       0.570   1.065   2.121  0.00  0.00     0.062 A 
ATOM      7  F   UNL d   1       1.063   1.963   2.987  0.00  0.00    -0.097 F 
ATOM      8  F1  UNL d   1       1.987   1.908   0.441  0.00  0.00    -0.096 F 
ATOM      9  I   UNL d   1       1.237   0.051  -2.054  0.00  0.00    -0.060 I 
ATOM     10  F2  UNL d   1      -0.958  -1.702  -0.521  0.00  0.00    -0.096 F 
ATOM     11  F3  UNL d   1      -1.863  -1.622   2.031  0.00  0.00    -0.097 F 
ATOM     12  F4  UNL d   1      -0.861   0.204   3.793  0.00  0.00    -0.092 F 
ENDROOT
TORSDOF 0
ENDMDL
