MODEL 1
REMARK minimizedAffinity -3.91163826
REMARK minimizedRMSD -1
REMARK  0 active torsions:
REMARK  status: ('A' for Active; 'I' for Inactive)
ROOT
ATOM      1  C   UNL d   1       0.471   0.470  -0.596  0.00  0.00     0.124 A 
ATOM      2  C1  UNL d   1      -0.786  -0.119  -0.587  0.00  0.00     0.062 A 
ATOM      3  C2  UNL d   1      -1.318  -0.614   0.600  0.00  0.00     0.162 A 
ATOM      4  C3  UNL d   1      -0.594  -0.521   1.788  0.00  0.00    -0.034 A 
ATOM      5  C4  UNL d   1       0.669   0.072   1.771  0.00  0.00     0.162 A 
ATOM      6  C5  UNL d   1       1.197   0.565   0.582  0.00  0.00     0.062 A 
ATOM      7  F   UNL d   1       2.411   1.134   0.575  0.00  0.00    -0.097 F 
ATOM      8  F1  UNL d   1       1.392   0.178   2.896  0.00  0.00    -0.096 F 
ATOM      9  I   UNL d   1      -1.387  -1.260   3.565  0.00  0.00    -0.060 I 
ATOM     10  F2  UNL d   1      -2.535  -1.179   0.579  0.00  0.00    -0.096 F 
ATOM     11  F3  UNL d   1      -1.489  -0.213  -1.725  0.00  0.00    -0.097 F 
ATOM     12  F4  UNL d   1       0.981   0.945  -1.740  0.00  0.00    -0.092 F 
ENDROOT
TORSDOF 0
ENDMDL
