MODEL 1
REMARK minimizedAffinity 2.52204442
REMARK minimizedRMSD -1
REMARK  0 active torsions:
REMARK  status: ('A' for Active; 'I' for Inactive)
ROOT
ATOM      1  C   UNL d   1      -0.480   0.783   1.248  0.00  0.00     0.124 A 
ATOM      2  C1  UNL d   1       0.753   0.145   1.254  0.00  0.00     0.062 A 
ATOM      3  C2  UNL d   1       1.255  -0.419   0.084  0.00  0.00     0.162 A 
ATOM      4  C3  UNL d   1       0.524  -0.346  -1.102  0.00  0.00    -0.034 A 
ATOM      5  C4  UNL d   1      -0.715   0.296  -1.100  0.00  0.00     0.162 A 
ATOM      6  C5  UNL d   1      -1.212   0.858   0.072  0.00  0.00     0.062 A 
ATOM      7  F   UNL d   1      -2.404   1.474   0.064  0.00  0.00    -0.097 F 
ATOM      8  F1  UNL d   1      -1.444   0.384  -2.222  0.00  0.00    -0.096 F 
ATOM      9  I   UNL d   1       1.271  -1.188  -2.852  0.00  0.00    -0.060 I 
ATOM     10  F2  UNL d   1       2.449  -1.029   0.119  0.00  0.00    -0.096 F 
ATOM     11  F3  UNL d   1       1.463   0.071   2.389  0.00  0.00    -0.097 F 
ATOM     12  F4  UNL d   1      -0.961   1.324   2.375  0.00  0.00    -0.092 F 
ENDROOT
TORSDOF 0
ENDMDL
