MODEL 1
REMARK minimizedAffinity -0.231790587
REMARK minimizedRMSD -1
REMARK  0 active torsions:
REMARK  status: ('A' for Active; 'I' for Inactive)
ROOT
ATOM      1  C   UNL d   1      -0.620  -0.377   2.431  0.00  0.00     0.124 A 
ATOM      2  C1  UNL d   1       0.599   0.254   2.223  0.00  0.00     0.062 A 
ATOM      3  C2  UNL d   1       1.005   0.586   0.934  0.00  0.00     0.162 A 
ATOM      4  C3  UNL d   1       0.189   0.290  -0.159  0.00  0.00    -0.034 A 
ATOM      5  C4  UNL d   1      -1.035  -0.345   0.058  0.00  0.00     0.162 A 
ATOM      6  C5  UNL d   1      -1.435  -0.675   1.348  0.00  0.00     0.062 A 
ATOM      7  F   UNL d   1      -2.614  -1.284   1.547  0.00  0.00    -0.097 F 
ATOM      8  F1  UNL d   1      -1.843  -0.644  -0.970  0.00  0.00    -0.096 F 
ATOM      9  I   UNL d   1       0.792   0.786  -2.088  0.00  0.00    -0.060 I 
ATOM     10  F2  UNL d   1       2.188   1.195   0.762  0.00  0.00    -0.096 F 
ATOM     11  F3  UNL d   1       1.390   0.542   3.267  0.00  0.00    -0.097 F 
ATOM     12  F4  UNL d   1      -1.007  -0.697   3.672  0.00  0.00    -0.092 F 
ENDROOT
TORSDOF 0
ENDMDL
