MODEL 1
REMARK minimizedAffinity 0.101439647
REMARK minimizedRMSD -1
REMARK  0 active torsions:
REMARK  status: ('A' for Active; 'I' for Inactive)
ROOT
ATOM      1  C   UNL d   1      -0.691  -0.237   1.778  0.00  0.00     0.124 A 
ATOM      2  C1  UNL d   1      -1.390  -0.600   0.636  0.00  0.00     0.062 A 
ATOM      3  C2  UNL d   1      -0.832  -0.392  -0.622  0.00  0.00     0.162 A 
ATOM      4  C3  UNL d   1       0.433   0.182  -0.744  0.00  0.00    -0.034 A 
ATOM      5  C4  UNL d   1       1.130   0.547   0.410  0.00  0.00     0.162 A 
ATOM      6  C5  UNL d   1       0.567   0.336   1.664  0.00  0.00     0.062 A 
ATOM      7  F   UNL d   1       1.244   0.688   2.767  0.00  0.00    -0.097 F 
ATOM      8  F1  UNL d   1       2.348   1.101   0.328  0.00  0.00    -0.096 F 
ATOM      9  I   UNL d   1       1.272   0.495  -2.623  0.00  0.00    -0.060 I 
ATOM     10  F2  UNL d   1      -1.530  -0.753  -1.709  0.00  0.00    -0.096 F 
ATOM     11  F3  UNL d   1      -2.607  -1.153   0.743  0.00  0.00    -0.097 F 
ATOM     12  F4  UNL d   1      -1.231  -0.437   2.987  0.00  0.00    -0.092 F 
ENDROOT
TORSDOF 0
ENDMDL
