MODEL 1
REMARK minimizedAffinity 3.5439136
REMARK minimizedRMSD -1
REMARK  0 active torsions:
REMARK  status: ('A' for Active; 'I' for Inactive)
ROOT
ATOM      1  C   UNL d   1      -1.315   0.062   1.865  0.00  0.00     0.124 A 
ATOM      2  C1  UNL d   1       0.039   0.360   1.939  0.00  0.00     0.062 A 
ATOM      3  C2  UNL d   1       0.790   0.498   0.775  0.00  0.00     0.162 A 
ATOM      4  C3  UNL d   1       0.189   0.338  -0.474  0.00  0.00    -0.034 A 
ATOM      5  C4  UNL d   1      -1.173   0.037  -0.540  0.00  0.00     0.162 A 
ATOM      6  C5  UNL d   1      -1.919  -0.100   0.626  0.00  0.00     0.062 A 
ATOM      7  F   UNL d   1      -3.227  -0.389   0.553  0.00  0.00    -0.097 F 
ATOM      8  F1  UNL d   1      -1.782  -0.124  -1.724  0.00  0.00    -0.096 F 
ATOM      9  I   UNL d   1       1.308   0.543  -2.216  0.00  0.00    -0.060 I 
ATOM     10  F2  UNL d   1       2.096   0.787   0.877  0.00  0.00    -0.096 F 
ATOM     11  F3  UNL d   1       0.625   0.516   3.134  0.00  0.00    -0.097 F 
ATOM     12  F4  UNL d   1      -2.035  -0.071   2.986  0.00  0.00    -0.092 F 
ENDROOT
TORSDOF 0
ENDMDL
