MODEL 1
REMARK minimizedAffinity -3.04407549
REMARK minimizedRMSD -1
REMARK  0 active torsions:
REMARK  status: ('A' for Active; 'I' for Inactive)
ROOT
ATOM      1  C   UNL d   1      -0.348  -0.195   2.563  0.00  0.00     0.124 A 
ATOM      2  C1  UNL d   1       0.878   0.332   2.180  0.00  0.00     0.062 A 
ATOM      3  C2  UNL d   1       1.259   0.315   0.841  0.00  0.00     0.162 A 
ATOM      4  C3  UNL d   1       0.413  -0.230  -0.125  0.00  0.00    -0.034 A 
ATOM      5  C4  UNL d   1      -0.817  -0.759   0.269  0.00  0.00     0.162 A 
ATOM      6  C5  UNL d   1      -1.194  -0.739   1.608  0.00  0.00     0.062 A 
ATOM      7  F   UNL d   1      -2.378  -1.249   1.976  0.00  0.00    -0.097 F 
ATOM      8  F1  UNL d   1      -1.655  -1.290  -0.634  0.00  0.00    -0.096 F 
ATOM      9  I   UNL d   1       0.980  -0.257  -2.127  0.00  0.00    -0.060 I 
ATOM     10  F2  UNL d   1       2.449   0.831   0.500  0.00  0.00    -0.096 F 
ATOM     11  F3  UNL d   1       1.698   0.858   3.101  0.00  0.00    -0.097 F 
ATOM     12  F4  UNL d   1      -0.712  -0.178   3.852  0.00  0.00    -0.092 F 
ENDROOT
TORSDOF 0
ENDMDL
