MODEL 1
REMARK minimizedAffinity 5.43580484
REMARK minimizedRMSD -1
REMARK  0 active torsions:
REMARK  status: ('A' for Active; 'I' for Inactive)
ROOT
ATOM      1  C   UNL d   1      -0.601  -3.317  -1.056  0.00  0.00     0.078 C 
ATOM      2  C1  UNL d   1       0.660  -2.562  -0.756  0.00  0.00    -0.077 A 
ATOM      3  C2  UNL d   1       1.217  -1.686  -1.696  0.00  0.00    -0.001 A 
ATOM      4  C3  UNL d   1       2.396  -0.997  -1.406  0.00  0.00     0.003 A 
ATOM      5  C4  UNL d   1       3.028  -1.177  -0.177  0.00  0.00    -0.005 A 
ATOM      6  C5  UNL d   1       2.482  -2.048   0.763  0.00  0.00     0.003 A 
ATOM      7  C6  UNL d   1       1.303  -2.738   0.476  0.00  0.00    -0.001 A 
ENDROOT
TORSDOF 0
ENDMDL
