MODEL 1
REMARK minimizedAffinity 8.01988411
REMARK minimizedRMSD -1
REMARK  0 active torsions:
REMARK  status: ('A' for Active; 'I' for Inactive)
ROOT
ATOM      1  C   UNL d   1       0.474   1.510   0.126  0.00  0.00     0.078 C 
ATOM      2  C1  UNL d   1       1.415   0.345   0.201  0.00  0.00    -0.077 A 
ATOM      3  C2  UNL d   1       1.256  -0.765  -0.638  0.00  0.00    -0.001 A 
ATOM      4  C3  UNL d   1       2.134  -1.846  -0.551  0.00  0.00     0.003 A 
ATOM      5  C4  UNL d   1       3.176  -1.830   0.375  0.00  0.00    -0.005 A 
ATOM      6  C5  UNL d   1       3.340  -0.731   1.215  0.00  0.00     0.003 A 
ATOM      7  C6  UNL d   1       2.463   0.352   1.130  0.00  0.00    -0.001 A 
ENDROOT
TORSDOF 0
ENDMDL
