MODEL 1
REMARK minimizedAffinity 5.82324839
REMARK minimizedRMSD -1
REMARK  0 active torsions:
REMARK  status: ('A' for Active; 'I' for Inactive)
ROOT
ATOM      1  C   UNL d   1       2.392  -5.328   5.999  0.00  0.00     0.078 C 
ATOM      2  C1  UNL d   1       1.422  -4.384   5.354  0.00  0.00    -0.077 A 
ATOM      3  C2  UNL d   1       0.043  -4.516   5.560  0.00  0.00    -0.001 A 
ATOM      4  C3  UNL d   1      -0.850  -3.636   4.945  0.00  0.00     0.003 A 
ATOM      5  C4  UNL d   1      -0.374  -2.620   4.119  0.00  0.00    -0.005 A 
ATOM      6  C5  UNL d   1       0.997  -2.482   3.907  0.00  0.00     0.003 A 
ATOM      7  C6  UNL d   1       1.891  -3.361   4.521  0.00  0.00    -0.001 A 
ENDROOT
TORSDOF 0
ENDMDL
