MODEL 1
REMARK minimizedAffinity 0.233037099
REMARK minimizedRMSD -1
REMARK  0 active torsions:
REMARK  status: ('A' for Active; 'I' for Inactive)
ROOT
ATOM      1  C   UNL d   1       0.180  -4.164   0.142  0.00  0.00     0.078 C 
ATOM      2  C1  UNL d   1       1.263  -3.147   0.345  0.00  0.00    -0.077 A 
ATOM      3  C2  UNL d   1       2.246  -3.326   1.326  0.00  0.00    -0.001 A 
ATOM      4  C3  UNL d   1       3.242  -2.366   1.511  0.00  0.00     0.003 A 
ATOM      5  C4  UNL d   1       3.265  -1.220   0.718  0.00  0.00    -0.005 A 
ATOM      6  C5  UNL d   1       2.291  -1.032  -0.260  0.00  0.00     0.003 A 
ATOM      7  C6  UNL d   1       1.293  -1.991  -0.446  0.00  0.00    -0.001 A 
ENDROOT
TORSDOF 0
ENDMDL
