MODEL 1
REMARK minimizedAffinity 3.46879458
REMARK minimizedRMSD -1
REMARK  0 active torsions:
REMARK  status: ('A' for Active; 'I' for Inactive)
ROOT
ATOM      1  C   UNL d   1      -0.605  -4.106  -0.499  0.00  0.00     0.078 C 
ATOM      2  C1  UNL d   1       0.327  -2.932  -0.449  0.00  0.00    -0.077 A 
ATOM      3  C2  UNL d   1       0.061  -1.768  -1.180  0.00  0.00    -0.001 A 
ATOM      4  C3  UNL d   1       0.943  -0.687  -1.132  0.00  0.00     0.003 A 
ATOM      5  C4  UNL d   1       2.097  -0.760  -0.354  0.00  0.00    -0.005 A 
ATOM      6  C5  UNL d   1       2.371  -1.915   0.375  0.00  0.00     0.003 A 
ATOM      7  C6  UNL d   1       1.490  -2.997   0.328  0.00  0.00    -0.001 A 
ENDROOT
TORSDOF 0
ENDMDL
