MODEL 1
REMARK minimizedAffinity 3.04137349
REMARK minimizedRMSD -1
REMARK  0 active torsions:
REMARK  status: ('A' for Active; 'I' for Inactive)
ROOT
ATOM      1  C   UNL d   1       1.440   1.704   0.089  0.00  0.00     0.078 C 
ATOM      2  C1  UNL d   1       2.144   0.397   0.303  0.00  0.00    -0.077 A 
ATOM      3  C2  UNL d   1       2.658   0.052   1.559  0.00  0.00    -0.001 A 
ATOM      4  C3  UNL d   1       3.319  -1.163   1.741  0.00  0.00     0.003 A 
ATOM      5  C4  UNL d   1       3.474  -2.043   0.672  0.00  0.00    -0.005 A 
ATOM      6  C5  UNL d   1       2.969  -1.707  -0.582  0.00  0.00     0.003 A 
ATOM      7  C6  UNL d   1       2.307  -0.492  -0.767  0.00  0.00    -0.001 A 
ENDROOT
TORSDOF 0
ENDMDL
