MODEL 1
REMARK minimizedAffinity 2.75986505
REMARK minimizedRMSD -1
REMARK  0 active torsions:
REMARK  status: ('A' for Active; 'I' for Inactive)
ROOT
ATOM      1  C   UNL d   1      -1.470  -0.031  -3.265  0.00  0.00     0.078 C 
ATOM      2  C1  UNL d   1      -2.869  -0.110  -3.798  0.00  0.00    -0.077 A 
ATOM      3  C2  UNL d   1      -3.789  -1.027  -3.276  0.00  0.00    -0.001 A 
ATOM      4  C3  UNL d   1      -5.086  -1.096  -3.788  0.00  0.00     0.003 A 
ATOM      5  C4  UNL d   1      -5.474  -0.250  -4.826  0.00  0.00    -0.005 A 
ATOM      6  C5  UNL d   1      -4.565   0.664  -5.353  0.00  0.00     0.003 A 
ATOM      7  C6  UNL d   1      -3.268   0.734  -4.842  0.00  0.00    -0.001 A 
ENDROOT
TORSDOF 0
ENDMDL
