MODEL 1
REMARK minimizedAffinity 0.0129032908
REMARK minimizedRMSD -1
REMARK  0 active torsions:
REMARK  status: ('A' for Active; 'I' for Inactive)
ROOT
ATOM      1  C   UNL d   1       2.483  -1.403   0.319  0.00  0.00     0.078 C 
ATOM      2  C1  UNL d   1       2.660   0.068   0.548  0.00  0.00    -0.077 A 
ATOM      3  C2  UNL d   1       3.937   0.637   0.628  0.00  0.00    -0.001 A 
ATOM      4  C3  UNL d   1       4.087   2.007   0.851  0.00  0.00     0.003 A 
ATOM      5  C4  UNL d   1       2.964   2.819   0.999  0.00  0.00    -0.005 A 
ATOM      6  C5  UNL d   1       1.690   2.261   0.923  0.00  0.00     0.003 A 
ATOM      7  C6  UNL d   1       1.538   0.892   0.700  0.00  0.00    -0.001 A 
ENDROOT
TORSDOF 0
ENDMDL
