MODEL 1
REMARK minimizedAffinity 3.86406112
REMARK minimizedRMSD -1
REMARK  0 active torsions:
REMARK  status: ('A' for Active; 'I' for Inactive)
ROOT
ATOM      1  C   UNL d   1       1.886   1.809   0.032  0.00  0.00     0.078 C 
ATOM      2  C1  UNL d   1       1.883   0.344  -0.285  0.00  0.00    -0.077 A 
ATOM      3  C2  UNL d   1       1.354  -0.133  -1.490  0.00  0.00    -0.001 A 
ATOM      4  C3  UNL d   1       1.349  -1.501  -1.767  0.00  0.00     0.003 A 
ATOM      5  C4  UNL d   1       1.870  -2.404  -0.843  0.00  0.00    -0.005 A 
ATOM      6  C5  UNL d   1       2.397  -1.939   0.361  0.00  0.00     0.003 A 
ATOM      7  C6  UNL d   1       2.403  -0.572   0.639  0.00  0.00    -0.001 A 
ENDROOT
TORSDOF 0
ENDMDL
