MODEL 1
REMARK minimizedAffinity 4.71811104
REMARK minimizedRMSD -1
REMARK  0 active torsions:
REMARK  status: ('A' for Active; 'I' for Inactive)
ROOT
ATOM      1  C   UNL d   1      -0.319  -4.026  -0.368  0.00  0.00     0.078 C 
ATOM      2  C1  UNL d   1       0.609  -2.857  -0.223  0.00  0.00    -0.077 A 
ATOM      3  C2  UNL d   1       0.407  -1.680  -0.954  0.00  0.00    -0.001 A 
ATOM      4  C3  UNL d   1       1.285  -0.604  -0.816  0.00  0.00     0.003 A 
ATOM      5  C4  UNL d   1       2.371  -0.693   0.052  0.00  0.00    -0.005 A 
ATOM      6  C5  UNL d   1       2.581  -1.861   0.783  0.00  0.00     0.003 A 
ATOM      7  C6  UNL d   1       1.705  -2.939   0.646  0.00  0.00    -0.001 A 
ENDROOT
TORSDOF 0
ENDMDL
