MODEL 1
REMARK minimizedAffinity 6.53084087
REMARK minimizedRMSD -1
REMARK  0 active torsions:
REMARK  status: ('A' for Active; 'I' for Inactive)
ROOT
ATOM      1  C   UNL d   1      -0.066   2.052   0.722  0.00  0.00     0.078 C 
ATOM      2  C1  UNL d   1       0.612   1.010  -0.116  0.00  0.00    -0.077 A 
ATOM      3  C2  UNL d   1       0.025   0.542  -1.298  0.00  0.00    -0.001 A 
ATOM      4  C3  UNL d   1       0.663  -0.436  -2.064  0.00  0.00     0.003 A 
ATOM      5  C4  UNL d   1       1.890  -0.955  -1.655  0.00  0.00    -0.005 A 
ATOM      6  C5  UNL d   1       2.480  -0.497  -0.478  0.00  0.00     0.003 A 
ATOM      7  C6  UNL d   1       1.844   0.480   0.288  0.00  0.00    -0.001 A 
ENDROOT
TORSDOF 0
ENDMDL
