MODEL 1
REMARK minimizedAffinity -0.176208332
REMARK minimizedRMSD -1
REMARK  0 active torsions:
REMARK  status: ('A' for Active; 'I' for Inactive)
ROOT
ATOM      1  C   UNL d   1       1.440   2.045   0.222  0.00  0.00     0.078 C 
ATOM      2  C1  UNL d   1       1.569   0.597  -0.148  0.00  0.00    -0.077 A 
ATOM      3  C2  UNL d   1       0.456  -0.142  -0.567  0.00  0.00    -0.001 A 
ATOM      4  C3  UNL d   1       0.588  -1.491  -0.899  0.00  0.00     0.003 A 
ATOM      5  C4  UNL d   1       1.832  -2.114  -0.813  0.00  0.00    -0.005 A 
ATOM      6  C5  UNL d   1       2.945  -1.387  -0.395  0.00  0.00     0.003 A 
ATOM      7  C6  UNL d   1       2.814  -0.038  -0.063  0.00  0.00    -0.001 A 
ENDROOT
TORSDOF 0
ENDMDL
