MODEL 1
REMARK minimizedAffinity -2.20835662
REMARK minimizedRMSD -1
REMARK  0 active torsions:
REMARK  status: ('A' for Active; 'I' for Inactive)
ROOT
ATOM      1  C   UNL d   1      -0.006   1.577   2.699  0.00  0.00    -0.002 A 
ATOM      2  C1  UNL d   1       0.984   2.032   1.839  0.00  0.00     0.010 A 
ATOM      3  C2  UNL d   1       1.200   1.405   0.610  0.00  0.00     0.041 A 
ATOM      4  C3  UNL d   1       0.397   0.303   0.256  0.00  0.00    -0.075 A 
ATOM      5  S   UNL d   1       0.481  -0.620  -1.198  0.00  0.00     0.015 SA
ATOM      6  C4  UNL d   1      -0.796  -1.639  -0.712  0.00  0.00     0.022 A 
ATOM      7  C5  UNL d   1      -1.286  -1.298   0.526  0.00  0.00     0.026 A 
ATOM      8  C6  UNL d   1      -0.607  -0.173   1.105  0.00  0.00    -0.082 A 
ATOM      9  C7  UNL d   1      -0.801   0.484   2.344  0.00  0.00     0.045 A 
ENDROOT
TORSDOF 0
ENDMDL
