MODEL 1
REMARK minimizedAffinity -3.47471285
REMARK minimizedRMSD -1
REMARK  0 active torsions:
REMARK  status: ('A' for Active; 'I' for Inactive)
ROOT
ATOM      1  C   UNL d   1      -0.370  -0.898  -1.603  0.00  0.00    -0.002 A 
ATOM      2  C1  UNL d   1      -0.701  -1.565  -0.432  0.00  0.00     0.010 A 
ATOM      3  C2  UNL d   1      -0.641  -0.909   0.799  0.00  0.00     0.041 A 
ATOM      4  C3  UNL d   1      -0.241   0.441   0.834  0.00  0.00    -0.075 A 
ATOM      5  S   UNL d   1      -0.095   1.447   2.227  0.00  0.00     0.015 SA
ATOM      6  C4  UNL d   1       0.410   2.785   1.299  0.00  0.00     0.022 A 
ATOM      7  C5  UNL d   1       0.471   2.489  -0.042  0.00  0.00     0.026 A 
ATOM      8  C6  UNL d   1       0.097   1.134  -0.332  0.00  0.00    -0.082 A 
ATOM      9  C7  UNL d   1       0.027   0.441  -1.565  0.00  0.00     0.045 A 
ENDROOT
TORSDOF 0
ENDMDL
