MODEL 1
REMARK minimizedAffinity -2.28882241
REMARK minimizedRMSD -1
REMARK  0 active torsions:
REMARK  status: ('A' for Active; 'I' for Inactive)
ROOT
ATOM      1  C   UNL d   1      -0.062   1.361   2.813  0.00  0.00    -0.002 A 
ATOM      2  C1  UNL d   1       0.960   1.968   2.096  0.00  0.00     0.010 A 
ATOM      3  C2  UNL d   1       1.301   1.513   0.821  0.00  0.00     0.041 A 
ATOM      4  C3  UNL d   1       0.589   0.428   0.272  0.00  0.00    -0.075 A 
ATOM      5  S   UNL d   1       0.831  -0.299  -1.273  0.00  0.00     0.015 SA
ATOM      6  C4  UNL d   1      -0.417  -1.431  -1.018  0.00  0.00     0.022 A 
ATOM      7  C5  UNL d   1      -1.014  -1.273   0.210  0.00  0.00     0.026 A 
ATOM      8  C6  UNL d   1      -0.445  -0.199   0.974  0.00  0.00    -0.082 A 
ATOM      9  C7  UNL d   1      -0.766   0.286   2.265  0.00  0.00     0.045 A 
ENDROOT
TORSDOF 0
ENDMDL
