MODEL 1
REMARK minimizedAffinity 0.121823333
REMARK minimizedRMSD -1
REMARK  0 active torsions:
REMARK  status: ('A' for Active; 'I' for Inactive)
ROOT
ATOM      1  C   UNL d   1       0.171   1.776   1.963  0.00  0.00    -0.002 A 
ATOM      2  C1  UNL d   1       1.411   1.843   1.344  0.00  0.00     0.010 A 
ATOM      3  C2  UNL d   1       1.728   0.979   0.294  0.00  0.00     0.041 A 
ATOM      4  C3  UNL d   1       0.767   0.039  -0.129  0.00  0.00    -0.075 A 
ATOM      5  S   UNL d   1       0.933  -1.119  -1.396  0.00  0.00     0.015 SA
ATOM      6  C4  UNL d   1      -0.639  -1.729  -1.145  0.00  0.00     0.022 A 
ATOM      7  C5  UNL d   1      -1.288  -1.077  -0.124  0.00  0.00     0.026 A 
ATOM      8  C6  UNL d   1      -0.489  -0.047   0.478  0.00  0.00    -0.082 A 
ATOM      9  C7  UNL d   1      -0.780   0.842   1.541  0.00  0.00     0.045 A 
ENDROOT
TORSDOF 0
ENDMDL
