MODEL 1
REMARK minimizedAffinity 3.24224734
REMARK minimizedRMSD -1
REMARK  0 active torsions:
REMARK  status: ('A' for Active; 'I' for Inactive)
ROOT
ATOM      1  C   UNL d   1       0.877  -0.241  -0.536  0.00  0.00    -0.002 A 
ATOM      2  C1  UNL d   1      -0.062  -0.626   0.411  0.00  0.00     0.010 A 
ATOM      3  C2  UNL d   1      -1.255  -1.236   0.020  0.00  0.00     0.041 A 
ATOM      4  C3  UNL d   1      -1.491  -1.456  -1.352  0.00  0.00    -0.075 A 
ATOM      5  S   UNL d   1      -2.881  -2.187  -2.063  0.00  0.00     0.015 SA
ATOM      6  C4  UNL d   1      -2.261  -2.006  -3.640  0.00  0.00     0.022 A 
ATOM      7  C5  UNL d   1      -1.025  -1.404  -3.643  0.00  0.00     0.026 A 
ATOM      8  C6  UNL d   1      -0.560  -1.078  -2.323  0.00  0.00    -0.082 A 
ATOM      9  C7  UNL d   1       0.640  -0.461  -1.895  0.00  0.00     0.045 A 
ENDROOT
TORSDOF 0
ENDMDL
