MODEL 1
REMARK minimizedAffinity -2.15847659
REMARK minimizedRMSD -1
REMARK  0 active torsions:
REMARK  status: ('A' for Active; 'I' for Inactive)
ROOT
ATOM      1  C   UNL d   1      -0.752  -1.793  -0.745  0.00  0.00    -0.002 A 
ATOM      2  C1  UNL d   1      -1.198  -2.107   0.531  0.00  0.00     0.010 A 
ATOM      3  C2  UNL d   1      -0.921  -1.261   1.608  0.00  0.00     0.041 A 
ATOM      4  C3  UNL d   1      -0.184  -0.083   1.377  0.00  0.00    -0.075 A 
ATOM      5  S   UNL d   1       0.273   1.102   2.543  0.00  0.00     0.015 SA
ATOM      6  C4  UNL d   1       1.070   2.052   1.374  0.00  0.00     0.022 A 
ATOM      7  C5  UNL d   1       1.000   1.494   0.120  0.00  0.00     0.026 A 
ATOM      8  C6  UNL d   1       0.275   0.254   0.101  0.00  0.00    -0.082 A 
ATOM      9  C7  UNL d   1      -0.021  -0.624  -0.970  0.00  0.00     0.045 A 
ENDROOT
TORSDOF 0
ENDMDL
