MODEL 1
REMARK minimizedAffinity -4.10951138
REMARK minimizedRMSD -1
REMARK  0 active torsions:
REMARK  status: ('A' for Active; 'I' for Inactive)
ROOT
ATOM      1  C   UNL d   1       1.452   2.778   1.349  0.00  0.00    -0.002 A 
ATOM      2  C1  UNL d   1       2.701   2.237   1.083  0.00  0.00     0.010 A 
ATOM      3  C2  UNL d   1       2.819   1.020   0.408  0.00  0.00     0.041 A 
ATOM      4  C3  UNL d   1       1.648   0.352  -0.001  0.00  0.00    -0.075 A 
ATOM      5  S   UNL d   1       1.549  -1.150  -0.843  0.00  0.00     0.015 SA
ATOM      6  C4  UNL d   1      -0.155  -1.107  -0.869  0.00  0.00     0.022 A 
ATOM      7  C5  UNL d   1      -0.652   0.018  -0.255  0.00  0.00     0.026 A 
ATOM      8  C6  UNL d   1       0.379   0.877   0.255  0.00  0.00    -0.082 A 
ATOM      9  C7  UNL d   1       0.293   2.112   0.943  0.00  0.00     0.045 A 
ENDROOT
TORSDOF 0
ENDMDL
