MODEL 1
REMARK minimizedAffinity 2.76763368
REMARK minimizedRMSD -1
REMARK  0 active torsions:
REMARK  status: ('A' for Active; 'I' for Inactive)
ROOT
ATOM      1  C   UNL d   1      -3.656  -1.662  -3.437  0.00  0.00    -0.002 A 
ATOM      2  C1  UNL d   1      -2.675  -1.272  -4.338  0.00  0.00     0.010 A 
ATOM      3  C2  UNL d   1      -1.351  -1.120  -3.924  0.00  0.00     0.041 A 
ATOM      4  C3  UNL d   1      -1.024  -1.371  -2.577  0.00  0.00    -0.075 A 
ATOM      5  S   UNL d   1       0.532  -1.250  -1.844  0.00  0.00     0.015 SA
ATOM      6  C4  UNL d   1      -0.069  -1.714  -0.318  0.00  0.00     0.022 A 
ATOM      7  C5  UNL d   1      -1.421  -1.959  -0.349  0.00  0.00     0.026 A 
ATOM      8  C6  UNL d   1      -1.994  -1.765  -1.651  0.00  0.00    -0.082 A 
ATOM      9  C7  UNL d   1      -3.329  -1.910  -2.101  0.00  0.00     0.045 A 
ENDROOT
TORSDOF 0
ENDMDL
