MODEL 1
REMARK minimizedAffinity -4.03179836
REMARK minimizedRMSD -1
REMARK  0 active torsions:
REMARK  status: ('A' for Active; 'I' for Inactive)
ROOT
ATOM      1  C   UNL d   1       0.257   2.632   1.636  0.00  0.00    -0.002 A 
ATOM      2  C1  UNL d   1       1.519   2.570   1.063  0.00  0.00     0.010 A 
ATOM      3  C2  UNL d   1       1.872   1.501   0.236  0.00  0.00     0.041 A 
ATOM      4  C3  UNL d   1       0.926   0.487  -0.009  0.00  0.00    -0.075 A 
ATOM      5  S   UNL d   1       1.135  -0.916  -0.988  0.00  0.00     0.015 SA
ATOM      6  C4  UNL d   1      -0.446  -1.466  -0.670  0.00  0.00     0.022 A 
ATOM      7  C5  UNL d   1      -1.131  -0.612   0.162  0.00  0.00     0.026 A 
ATOM      8  C6  UNL d   1      -0.352   0.528   0.556  0.00  0.00    -0.082 A 
ATOM      9  C7  UNL d   1      -0.679   1.624   1.391  0.00  0.00     0.045 A 
ENDROOT
TORSDOF 0
ENDMDL
