MODEL 1
REMARK minimizedAffinity -4.31885862
REMARK minimizedRMSD -1
REMARK  0 active torsions:
REMARK  status: ('A' for Active; 'I' for Inactive)
ROOT
ATOM      1  C   UNL d   1       1.311   2.781   1.285  0.00  0.00    -0.002 A 
ATOM      2  C1  UNL d   1      -0.027   2.518   1.538  0.00  0.00     0.010 A 
ATOM      3  C2  UNL d   1      -0.597   1.302   1.154  0.00  0.00     0.041 A 
ATOM      4  C3  UNL d   1       0.210   0.346   0.507  0.00  0.00    -0.075 A 
ATOM      5  S   UNL d   1      -0.271  -1.213  -0.052  0.00  0.00     0.015 SA
ATOM      6  C4  UNL d   1       1.290  -1.565  -0.639  0.00  0.00     0.022 A 
ATOM      7  C5  UNL d   1       2.168  -0.531  -0.423  0.00  0.00     0.026 A 
ATOM      8  C6  UNL d   1       1.561   0.588   0.242  0.00  0.00    -0.082 A 
ATOM      9  C7  UNL d   1       2.109   1.830   0.643  0.00  0.00     0.045 A 
ENDROOT
TORSDOF 0
ENDMDL
