MODEL 1
REMARK minimizedAffinity -2.49570632
REMARK minimizedRMSD -1
REMARK  0 active torsions:
REMARK  status: ('A' for Active; 'I' for Inactive)
ROOT
ATOM      1  C   UNL d   1       1.037   2.771   1.425  0.00  0.00    -0.002 A 
ATOM      2  C1  UNL d   1       1.823   2.634   0.290  0.00  0.00     0.010 A 
ATOM      3  C2  UNL d   1       1.643   1.550  -0.572  0.00  0.00     0.041 A 
ATOM      4  C3  UNL d   1       0.649   0.598  -0.272  0.00  0.00    -0.075 A 
ATOM      5  S   UNL d   1       0.249  -0.809  -1.184  0.00  0.00     0.015 SA
ATOM      6  C4  UNL d   1      -0.975  -1.262  -0.088  0.00  0.00     0.022 A 
ATOM      7  C5  UNL d   1      -1.089  -0.372   0.954  0.00  0.00     0.026 A 
ATOM      8  C6  UNL d   1      -0.156   0.715   0.865  0.00  0.00    -0.082 A 
ATOM      9  C7  UNL d   1       0.052   1.824   1.720  0.00  0.00     0.045 A 
ENDROOT
TORSDOF 0
ENDMDL
