MODEL 1
REMARK minimizedAffinity -3.10106158
REMARK minimizedRMSD -1
REMARK  0 active torsions:
REMARK  status: ('A' for Active; 'I' for Inactive)
ROOT
ATOM      1  C   UNL d   1       1.178   2.656   1.574  0.00  0.00    -0.002 A 
ATOM      2  C1  UNL d   1       2.212   2.394   0.687  0.00  0.00     0.010 A 
ATOM      3  C2  UNL d   1       2.164   1.277  -0.151  0.00  0.00     0.041 A 
ATOM      4  C3  UNL d   1       1.046   0.423  -0.083  0.00  0.00    -0.075 A 
ATOM      5  S   UNL d   1       0.769  -1.003  -1.012  0.00  0.00     0.015 SA
ATOM      6  C4  UNL d   1      -0.729  -1.296  -0.255  0.00  0.00     0.022 A 
ATOM      7  C5  UNL d   1      -1.026  -0.340   0.687  0.00  0.00     0.026 A 
ATOM      8  C6  UNL d   1      -0.009   0.667   0.802  0.00  0.00    -0.082 A 
ATOM      9  C7  UNL d   1       0.071   1.806   1.638  0.00  0.00     0.045 A 
ENDROOT
TORSDOF 0
ENDMDL
