MODEL 1
REMARK minimizedAffinity 2.68772936
REMARK minimizedRMSD -1
REMARK  1 active torsions:
REMARK  status: ('A' for Active; 'I' for Inactive)
REMARK    1  A    between atoms: C1_2  and  C2_3 
ROOT
ATOM      1  C2  UNL d   1      -0.563   2.428   0.428  0.00  0.00    -0.076 A 
ATOM      2  C3  UNL d   1      -1.082   3.692   0.756  0.00  0.00     0.004 A 
ATOM      3  C4  UNL d   1      -0.801   4.809  -0.029  0.00  0.00    -0.003 A 
ATOM      4  C5  UNL d   1       0.003   4.680  -1.156  0.00  0.00     0.000 A 
ATOM      5  C6  UNL d   1       0.512   3.430  -1.506  0.00  0.00     0.000 A 
ATOM      6  C7  UNL d   1       0.226   2.291  -0.735  0.00  0.00    -0.073 A 
ATOM      7  C8  UNL d   1       0.806   0.969  -1.156  0.00  0.00     0.078 C 
ENDROOT
BRANCH   1   8
ATOM      8  C1  UNL d   1      -0.879   1.258   1.332  0.00  0.00     0.053 C 
ATOM      9  C   UNL d   1      -2.320   1.268   1.816  0.00  0.00     0.018 C 
ENDBRANCH   1   8
TORSDOF 1
ENDMDL
