MODEL 1
REMARK minimizedAffinity 7.51275253
REMARK minimizedRMSD -1
REMARK  1 active torsions:
REMARK  status: ('A' for Active; 'I' for Inactive)
REMARK    1  A    between atoms: C1_2  and  C2_3 
ROOT
ATOM      1  C2  UNL d   1      -0.247   2.108   0.439  0.00  0.00    -0.076 A 
ATOM      2  C3  UNL d   1      -0.128   0.851  -0.180  0.00  0.00     0.004 A 
ATOM      3  C4  UNL d   1       0.256   0.742  -1.515  0.00  0.00    -0.003 A 
ATOM      4  C5  UNL d   1       0.527   1.888  -2.254  0.00  0.00     0.000 A 
ATOM      5  C6  UNL d   1       0.431   3.142  -1.652  0.00  0.00     0.000 A 
ATOM      6  C7  UNL d   1       0.061   3.269  -0.302  0.00  0.00    -0.073 A 
ATOM      7  C8  UNL d   1      -0.032   4.646   0.294  0.00  0.00     0.078 C 
ENDROOT
BRANCH   1   8
ATOM      8  C1  UNL d   1      -0.694   2.166   1.882  0.00  0.00     0.053 C 
ATOM      9  C   UNL d   1      -2.114   1.656   2.074  0.00  0.00     0.018 C 
ENDBRANCH   1   8
TORSDOF 1
ENDMDL
