MODEL 1
REMARK minimizedAffinity 9.30484009
REMARK minimizedRMSD -1
REMARK  1 active torsions:
REMARK  status: ('A' for Active; 'I' for Inactive)
REMARK    1  A    between atoms: C1_2  and  C2_3 
ROOT
ATOM      1  C2  UNL d   1      -1.140   2.194   0.542  0.00  0.00    -0.076 A 
ATOM      2  C3  UNL d   1      -0.135   1.414  -0.056  0.00  0.00     0.004 A 
ATOM      3  C4  UNL d   1       0.725   1.959  -1.008  0.00  0.00    -0.003 A 
ATOM      4  C5  UNL d   1       0.595   3.294  -1.376  0.00  0.00     0.000 A 
ATOM      5  C6  UNL d   1      -0.385   4.087  -0.781  0.00  0.00     0.000 A 
ATOM      6  C7  UNL d   1      -1.250   3.557   0.192  0.00  0.00    -0.073 A 
ATOM      7  C8  UNL d   1      -2.293   4.457   0.797  0.00  0.00     0.078 C 
ENDROOT
BRANCH   1   8
ATOM      8  C1  UNL d   1      -2.061   1.542   1.547  0.00  0.00     0.053 C 
ATOM      9  C   UNL d   1      -1.371   1.260   2.873  0.00  0.00     0.018 C 
ENDBRANCH   1   8
TORSDOF 1
ENDMDL
