MODEL 1
REMARK minimizedAffinity 4.32306337
REMARK minimizedRMSD -1
REMARK  1 active torsions:
REMARK  status: ('A' for Active; 'I' for Inactive)
REMARK    1  A    between atoms: C1_2  and  C2_3 
ROOT
ATOM      1  C2  UNL d   1      -1.492   2.301   0.649  0.00  0.00    -0.076 A 
ATOM      2  C3  UNL d   1      -0.601   1.375   0.081  0.00  0.00     0.004 A 
ATOM      3  C4  UNL d   1       0.311   1.764  -0.899  0.00  0.00    -0.003 A 
ATOM      4  C5  UNL d   1       0.346   3.087  -1.327  0.00  0.00     0.000 A 
ATOM      5  C6  UNL d   1      -0.519   4.023  -0.762  0.00  0.00     0.000 A 
ATOM      6  C7  UNL d   1      -1.433   3.651   0.239  0.00  0.00    -0.073 A 
ATOM      7  C8  UNL d   1      -2.347   4.700   0.809  0.00  0.00     0.078 C 
ENDROOT
BRANCH   1   8
ATOM      8  C1  UNL d   1      -2.477   1.815   1.688  0.00  0.00     0.053 C 
ATOM      9  C   UNL d   1      -1.909   0.701   2.553  0.00  0.00     0.018 C 
ENDBRANCH   1   8
TORSDOF 1
ENDMDL
