MODEL 1
REMARK minimizedAffinity 3.43718958
REMARK minimizedRMSD -1
REMARK  1 active torsions:
REMARK  status: ('A' for Active; 'I' for Inactive)
REMARK    1  A    between atoms: C1_2  and  C2_3 
ROOT
ATOM      1  C2  UNL d   1      -3.671  -3.109   3.795  0.00  0.00    -0.076 A 
ATOM      2  C3  UNL d   1      -4.776  -3.637   3.105  0.00  0.00     0.004 A 
ATOM      3  C4  UNL d   1      -5.931  -4.020   3.785  0.00  0.00    -0.003 A 
ATOM      4  C5  UNL d   1      -6.000  -3.880   5.167  0.00  0.00     0.000 A 
ATOM      5  C6  UNL d   1      -4.920  -3.341   5.866  0.00  0.00     0.000 A 
ATOM      6  C7  UNL d   1      -3.755  -2.935   5.193  0.00  0.00    -0.073 A 
ATOM      7  C8  UNL d   1      -2.618  -2.365   5.998  0.00  0.00     0.078 C 
ENDROOT
BRANCH   1   8
ATOM      8  C1  UNL d   1      -2.436  -2.736   3.007  0.00  0.00     0.053 C 
ATOM      9  C   UNL d   1      -1.178  -3.400   3.547  0.00  0.00     0.018 C 
ENDBRANCH   1   8
TORSDOF 1
ENDMDL
