MODEL 1
REMARK minimizedAffinity 6.46817636
REMARK minimizedRMSD -1
REMARK  1 active torsions:
REMARK  status: ('A' for Active; 'I' for Inactive)
REMARK    1  A    between atoms: C1_2  and  C2_3 
ROOT
ATOM      1  C2  UNL d   1      -0.852  -0.069   2.229  0.00  0.00    -0.076 A 
ATOM      2  C3  UNL d   1      -2.063   0.632   2.369  0.00  0.00     0.004 A 
ATOM      3  C4  UNL d   1      -2.259   1.858   1.737  0.00  0.00    -0.003 A 
ATOM      4  C5  UNL d   1      -1.248   2.404   0.954  0.00  0.00     0.000 A 
ATOM      5  C6  UNL d   1      -0.047   1.715   0.790  0.00  0.00     0.000 A 
ATOM      6  C7  UNL d   1       0.161   0.470   1.407  0.00  0.00    -0.073 A 
ATOM      7  C8  UNL d   1       1.478  -0.227   1.201  0.00  0.00     0.078 C 
ENDROOT
BRANCH   1   8
ATOM      8  C1  UNL d   1      -0.687  -1.382   2.960  0.00  0.00     0.053 C 
ATOM      9  C   UNL d   1      -1.966  -1.831   3.648  0.00  0.00     0.018 C 
ENDBRANCH   1   8
TORSDOF 1
ENDMDL
