MODEL 1
REMARK minimizedAffinity 6.24536991
REMARK minimizedRMSD -1
REMARK  1 active torsions:
REMARK  status: ('A' for Active; 'I' for Inactive)
REMARK    1  A    between atoms: C1_2  and  C2_3 
ROOT
ATOM      1  C2  UNL d   1      -0.142   1.376  -0.432  0.00  0.00    -0.076 A 
ATOM      2  C3  UNL d   1       0.399   2.239  -1.401  0.00  0.00     0.004 A 
ATOM      3  C4  UNL d   1       0.182   3.614  -1.338  0.00  0.00    -0.003 A 
ATOM      4  C5  UNL d   1      -0.579   4.149  -0.304  0.00  0.00     0.000 A 
ATOM      5  C6  UNL d   1      -1.108   3.310   0.676  0.00  0.00     0.000 A 
ATOM      6  C7  UNL d   1      -0.885   1.922   0.636  0.00  0.00    -0.073 A 
ATOM      7  C8  UNL d   1      -1.485   1.064   1.715  0.00  0.00     0.078 C 
ENDROOT
BRANCH   1   8
ATOM      8  C1  UNL d   1       0.104  -0.110  -0.567  0.00  0.00     0.053 C 
ATOM      9  C   UNL d   1      -0.488  -0.685  -1.845  0.00  0.00     0.018 C 
ENDBRANCH   1   8
TORSDOF 1
ENDMDL
