MODEL 1
REMARK minimizedAffinity 3.3625617
REMARK minimizedRMSD -1
REMARK  1 active torsions:
REMARK  status: ('A' for Active; 'I' for Inactive)
REMARK    1  A    between atoms: C1_2  and  C2_3 
ROOT
ATOM      1  C2  UNL d   1      -0.675  -0.895   2.426  0.00  0.00    -0.076 A 
ATOM      2  C3  UNL d   1      -1.945  -0.292   2.466  0.00  0.00     0.004 A 
ATOM      3  C4  UNL d   1      -2.139   1.003   1.989  0.00  0.00    -0.003 A 
ATOM      4  C5  UNL d   1      -1.068   1.716   1.462  0.00  0.00     0.000 A 
ATOM      5  C6  UNL d   1       0.194   1.127   1.398  0.00  0.00     0.000 A 
ATOM      6  C7  UNL d   1       0.404  -0.183   1.860  0.00  0.00    -0.073 A 
ATOM      7  C8  UNL d   1       1.788  -0.767   1.773  0.00  0.00     0.078 C 
ENDROOT
BRANCH   1   8
ATOM      8  C1  UNL d   1      -0.519  -2.292   2.983  0.00  0.00     0.053 C 
ATOM      9  C   UNL d   1      -1.490  -2.579   4.118  0.00  0.00     0.018 C 
ENDBRANCH   1   8
TORSDOF 1
ENDMDL
