MODEL 1
REMARK minimizedAffinity 9.47177601
REMARK minimizedRMSD -1
REMARK  1 active torsions:
REMARK  status: ('A' for Active; 'I' for Inactive)
REMARK    1  A    between atoms: C1_2  and  C2_3 
ROOT
ATOM      1  C2  UNL d   1      -0.850   0.461  -1.572  0.00  0.00    -0.076 A 
ATOM      2  C3  UNL d   1      -2.081   0.717  -0.944  0.00  0.00     0.004 A 
ATOM      3  C4  UNL d   1      -3.220  -0.017  -1.272  0.00  0.00    -0.003 A 
ATOM      4  C5  UNL d   1      -3.145  -1.020  -2.233  0.00  0.00     0.000 A 
ATOM      5  C6  UNL d   1      -1.928  -1.299  -2.853  0.00  0.00     0.000 A 
ATOM      6  C7  UNL d   1      -0.767  -0.579  -2.523  0.00  0.00    -0.073 A 
ATOM      7  C8  UNL d   1       0.518  -0.918  -3.228  0.00  0.00     0.078 C 
ENDROOT
BRANCH   1   8
ATOM      8  C1  UNL d   1       0.345   1.308  -1.196  0.00  0.00     0.053 C 
ATOM      9  C   UNL d   1      -0.055   2.647  -0.598  0.00  0.00     0.018 C 
ENDBRANCH   1   8
TORSDOF 1
ENDMDL
