MODEL 1
REMARK minimizedAffinity 12.6222925
REMARK minimizedRMSD -1
REMARK  1 active torsions:
REMARK  status: ('A' for Active; 'I' for Inactive)
REMARK    1  A    between atoms: C1_2  and  C2_3 
ROOT
ATOM      1  C2  UNL d   1      -1.825   1.297  -2.968  0.00  0.00    -0.076 A 
ATOM      2  C3  UNL d   1      -2.287  -0.007  -3.215  0.00  0.00     0.004 A 
ATOM      3  C4  UNL d   1      -1.528  -1.118  -2.850  0.00  0.00    -0.003 A 
ATOM      4  C5  UNL d   1      -0.296  -0.943  -2.230  0.00  0.00     0.000 A 
ATOM      5  C6  UNL d   1       0.170   0.344  -1.961  0.00  0.00     0.000 A 
ATOM      6  C7  UNL d   1      -0.590   1.474  -2.308  0.00  0.00    -0.073 A 
ATOM      7  C8  UNL d   1      -0.037   2.839  -2.000  0.00  0.00     0.078 C 
ENDROOT
BRANCH   1   8
ATOM      8  C1  UNL d   1      -2.678   2.464  -3.412  0.00  0.00     0.053 C 
ATOM      9  C   UNL d   1      -4.077   2.037  -3.829  0.00  0.00     0.018 C 
ENDBRANCH   1   8
TORSDOF 1
ENDMDL
