MODEL 1
REMARK minimizedAffinity 7.4581356
REMARK minimizedRMSD -1
REMARK  1 active torsions:
REMARK  status: ('A' for Active; 'I' for Inactive)
REMARK    1  A    between atoms: C1_2  and  C2_3 
ROOT
ATOM      1  C2  UNL d   1      -0.370   1.570  -2.267  0.00  0.00    -0.076 A 
ATOM      2  C3  UNL d   1       0.527   0.517  -2.013  0.00  0.00     0.004 A 
ATOM      3  C4  UNL d   1       0.257  -0.777  -2.453  0.00  0.00    -0.003 A 
ATOM      4  C5  UNL d   1      -0.914  -1.040  -3.156  0.00  0.00     0.000 A 
ATOM      5  C6  UNL d   1      -1.806  -0.004  -3.432  0.00  0.00     0.000 A 
ATOM      6  C7  UNL d   1      -1.541   1.309  -3.009  0.00  0.00    -0.073 A 
ATOM      7  C8  UNL d   1      -2.541   2.387  -3.329  0.00  0.00     0.078 C 
ENDROOT
BRANCH   1   8
ATOM      8  C1  UNL d   1      -0.037   2.948  -1.740  0.00  0.00     0.053 C 
ATOM      9  C   UNL d   1      -0.147   3.035  -0.226  0.00  0.00     0.018 C 
ENDBRANCH   1   8
TORSDOF 1
ENDMDL
