MODEL 1
REMARK minimizedAffinity 8.64674377
REMARK minimizedRMSD -1
REMARK  1 active torsions:
REMARK  status: ('A' for Active; 'I' for Inactive)
REMARK    1  A    between atoms: C1_2  and  C2_3 
ROOT
ATOM      1  C2  UNL d   1      -1.027   1.528  -0.799  0.00  0.00    -0.076 A 
ATOM      2  C3  UNL d   1       0.181   2.204  -1.041  0.00  0.00     0.004 A 
ATOM      3  C4  UNL d   1       0.948   1.921  -2.170  0.00  0.00    -0.003 A 
ATOM      4  C5  UNL d   1       0.518   0.958  -3.076  0.00  0.00     0.000 A 
ATOM      5  C6  UNL d   1      -0.687   0.291  -2.862  0.00  0.00     0.000 A 
ATOM      6  C7  UNL d   1      -1.480   0.576  -1.737  0.00  0.00    -0.073 A 
ATOM      7  C8  UNL d   1      -2.768  -0.179  -1.552  0.00  0.00     0.078 C 
ENDROOT
BRANCH   1   8
ATOM      8  C1  UNL d   1      -1.803   1.858   0.456  0.00  0.00     0.053 C 
ATOM      9  C   UNL d   1      -0.968   1.694   1.717  0.00  0.00     0.018 C 
ENDBRANCH   1   8
TORSDOF 1
ENDMDL
