MODEL 1
REMARK minimizedAffinity 5.07160187
REMARK minimizedRMSD -1
REMARK  1 active torsions:
REMARK  status: ('A' for Active; 'I' for Inactive)
REMARK    1  A    between atoms: C1_2  and  C2_3 
ROOT
ATOM      1  C2  UNL d   1       0.137   1.809  -1.463  0.00  0.00    -0.076 A 
ATOM      2  C3  UNL d   1       0.415   2.600  -2.591  0.00  0.00     0.004 A 
ATOM      3  C4  UNL d   1       0.316   3.990  -2.535  0.00  0.00    -0.003 A 
ATOM      4  C5  UNL d   1      -0.063   4.610  -1.350  0.00  0.00     0.000 A 
ATOM      5  C6  UNL d   1      -0.325   3.842  -0.216  0.00  0.00     0.000 A 
ATOM      6  C7  UNL d   1      -0.214   2.441  -0.251  0.00  0.00    -0.073 A 
ATOM      7  C8  UNL d   1      -0.515   1.662   1.000  0.00  0.00     0.078 C 
ENDROOT
BRANCH   1   8
ATOM      8  C1  UNL d   1       0.235   0.306  -1.591  0.00  0.00     0.053 C 
ATOM      9  C   UNL d   1      -0.306  -0.203  -2.919  0.00  0.00     0.018 C 
ENDBRANCH   1   8
TORSDOF 1
ENDMDL
