MODEL 1
REMARK minimizedAffinity 7.31044102
REMARK minimizedRMSD -1
REMARK  1 active torsions:
REMARK  status: ('A' for Active; 'I' for Inactive)
REMARK    1  A    between atoms: C1_2  and  C2_3 
ROOT
ATOM      1  C2  UNL d   1      -0.716   2.594   0.573  0.00  0.00    -0.076 A 
ATOM      2  C3  UNL d   1      -0.130   1.503  -0.092  0.00  0.00     0.004 A 
ATOM      3  C4  UNL d   1       0.414   1.649  -1.367  0.00  0.00    -0.003 A 
ATOM      4  C5  UNL d   1       0.382   2.888  -1.997  0.00  0.00     0.000 A 
ATOM      5  C6  UNL d   1      -0.179   3.985  -1.344  0.00  0.00     0.000 A 
ATOM      6  C7  UNL d   1      -0.718   3.859  -0.053  0.00  0.00    -0.073 A 
ATOM      7  C8  UNL d   1      -1.317   5.074   0.602  0.00  0.00     0.078 C 
ENDROOT
BRANCH   1   8
ATOM      8  C1  UNL d   1      -1.315   2.370   1.943  0.00  0.00     0.053 C 
ATOM      9  C   UNL d   1      -1.811   0.945   2.137  0.00  0.00     0.018 C 
ENDBRANCH   1   8
TORSDOF 1
ENDMDL
