MODEL 1
REMARK minimizedAffinity 0.57364291
REMARK minimizedRMSD -1
REMARK  0 active torsions:
REMARK  status: ('A' for Active; 'I' for Inactive)
ROOT
ATOM      1  O1  BZF d   1       1.140   6.000   3.975  0.00  0.00    -0.204 OA
ATOM      2  C2  BZF d   1       0.381   5.596   5.056  0.00  0.00     0.174 A 
ATOM      3  C3  BZF d   1       1.156   5.014   5.994  0.00  0.00    -0.012 A 
ATOM      4  C3A BZF d   1       2.495   5.139   5.506  0.00  0.00    -0.107 A 
ATOM      5  C4  BZF d   1       3.713   4.767   6.000  0.00  0.00     0.055 A 
ATOM      6  C5  BZF d   1       4.823   4.969   5.242  0.00  0.00    -0.016 A 
ATOM      7  C6  BZF d   1       4.751   5.536   3.986  0.00  0.00     0.022 A 
ATOM      8  C7  BZF d   1       3.566   5.926   3.456  0.00  0.00     0.029 A 
ATOM      9  C7A BZF d   1       2.447   5.753   4.233  0.00  0.00     0.058 A 
ENDROOT
TORSDOF 0
ENDMDL
