MODEL 1
REMARK minimizedAffinity 12.7943192
REMARK minimizedRMSD -1
REMARK  0 active torsions:
REMARK  status: ('A' for Active; 'I' for Inactive)
ROOT
ATOM      1  O1  BZF d   1       0.787   2.632  -0.769  0.00  0.00    -0.204 OA
ATOM      2  C2  BZF d   1      -0.324   2.428   0.026  0.00  0.00     0.174 A 
ATOM      3  C3  BZF d   1      -0.214   1.273   0.714  0.00  0.00    -0.012 A 
ATOM      4  C3A BZF d   1       1.085   0.766   0.393  0.00  0.00    -0.107 A 
ATOM      5  C4  BZF d   1       1.781  -0.344   0.779  0.00  0.00     0.055 A 
ATOM      6  C5  BZF d   1       2.998  -0.585   0.226  0.00  0.00    -0.016 A 
ATOM      7  C6  BZF d   1       3.547   0.258  -0.718  0.00  0.00     0.022 A 
ATOM      8  C7  BZF d   1       2.896   1.374  -1.128  0.00  0.00     0.029 A 
ATOM      9  C7A BZF d   1       1.680   1.638  -0.547  0.00  0.00     0.058 A 
ENDROOT
TORSDOF 0
ENDMDL
