MODEL 1
REMARK minimizedAffinity -3.9562335
REMARK minimizedRMSD -1
REMARK  0 active torsions:
REMARK  status: ('A' for Active; 'I' for Inactive)
ROOT
ATOM      1  O1  BZF d   1       0.952   4.917   3.417  0.00  0.00    -0.204 OA
ATOM      2  C2  BZF d   1       0.374   5.860   4.245  0.00  0.00     0.174 A 
ATOM      3  C3  BZF d   1       1.086   6.000   5.382  0.00  0.00    -0.012 A 
ATOM      4  C3A BZF d   1       2.228   5.154   5.217  0.00  0.00    -0.107 A 
ATOM      5  C4  BZF d   1       3.312   4.877   6.000  0.00  0.00     0.055 A 
ATOM      6  C5  BZF d   1       4.211   3.949   5.578  0.00  0.00    -0.016 A 
ATOM      7  C6  BZF d   1       4.056   3.278   4.383  0.00  0.00     0.022 A 
ATOM      8  C7  BZF d   1       2.999   3.523   3.570  0.00  0.00     0.029 A 
ATOM      9  C7A BZF d   1       2.106   4.483   3.978  0.00  0.00     0.058 A 
ENDROOT
TORSDOF 0
ENDMDL
