MODEL 1
REMARK minimizedAffinity -4.87260103
REMARK minimizedRMSD -1
REMARK  0 active torsions:
REMARK  status: ('A' for Active; 'I' for Inactive)
ROOT
ATOM      1  O1  BZF d   1       1.966   3.104   6.000  0.00  0.00    -0.204 OA
ATOM      2  C2  BZF d   1       3.258   3.001   5.523  0.00  0.00     0.174 A 
ATOM      3  C3  BZF d   1       3.451   3.833   4.479  0.00  0.00    -0.012 A 
ATOM      4  C3A BZF d   1       2.228   4.564   4.350  0.00  0.00    -0.107 A 
ATOM      5  C4  BZF d   1       1.808   5.550   3.503  0.00  0.00     0.055 A 
ATOM      6  C5  BZF d   1       0.529   6.000   3.595  0.00  0.00    -0.016 A 
ATOM      7  C6  BZF d   1      -0.358   5.483   4.517  0.00  0.00     0.022 A 
ATOM      8  C7  BZF d   1       0.014   4.508   5.382  0.00  0.00     0.029 A 
ATOM      9  C7A BZF d   1       1.316   4.075   5.313  0.00  0.00     0.058 A 
ENDROOT
TORSDOF 0
ENDMDL
