MODEL 1
REMARK minimizedAffinity 6.84246874
REMARK minimizedRMSD -1
REMARK  0 active torsions:
REMARK  status: ('A' for Active; 'I' for Inactive)
ROOT
ATOM      1  O1  BZF d   1       4.265   2.454  -1.029  0.00  0.00    -0.204 OA
ATOM      2  C2  BZF d   1       5.043   2.216  -2.146  0.00  0.00     0.174 A 
ATOM      3  C3  BZF d   1       4.945   0.928  -2.532  0.00  0.00    -0.012 A 
ATOM      4  C3A BZF d   1       3.979   0.344  -1.653  0.00  0.00    -0.107 A 
ATOM      5  C4  BZF d   1       3.442  -0.907  -1.546  0.00  0.00     0.055 A 
ATOM      6  C5  BZF d   1       2.576  -1.169  -0.532  0.00  0.00    -0.016 A 
ATOM      7  C6  BZF d   1       2.228  -0.207   0.394  0.00  0.00     0.022 A 
ATOM      8  C7  BZF d   1       2.731   1.050   0.325  0.00  0.00     0.029 A 
ATOM      9  C7A BZF d   1       3.581   1.327  -0.717  0.00  0.00     0.058 A 
ENDROOT
TORSDOF 0
ENDMDL
