MODEL 1
REMARK minimizedAffinity -5.06320763
REMARK minimizedRMSD -1
REMARK  0 active torsions:
REMARK  status: ('A' for Active; 'I' for Inactive)
ROOT
ATOM      1  O1  BZF d   1       0.229   4.877   5.477  0.00  0.00    -0.204 OA
ATOM      2  C2  BZF d   1       0.421   5.994   4.687  0.00  0.00     0.174 A 
ATOM      3  C3  BZF d   1       1.641   5.969   4.112  0.00  0.00    -0.012 A 
ATOM      4  C3A BZF d   1       2.214   4.716   4.498  0.00  0.00    -0.107 A 
ATOM      5  C4  BZF d   1       3.405   4.105   4.229  0.00  0.00     0.055 A 
ATOM      6  C5  BZF d   1       3.685   2.914   4.820  0.00  0.00    -0.016 A 
ATOM      7  C6  BZF d   1       2.802   2.309   5.690  0.00  0.00     0.022 A 
ATOM      8  C7  BZF d   1       1.605   2.874   5.984  0.00  0.00     0.029 A 
ATOM      9  C7A BZF d   1       1.305   4.062   5.362  0.00  0.00     0.058 A 
ENDROOT
TORSDOF 0
ENDMDL
