MODEL 1
REMARK minimizedAffinity 1.76266932
REMARK minimizedRMSD -1
REMARK  0 active torsions:
REMARK  status: ('A' for Active; 'I' for Inactive)
ROOT
ATOM      1  O1  BZF d   1       3.301  -1.946  -0.648  0.00  0.00    -0.204 OA
ATOM      2  C2  BZF d   1       2.003  -2.222  -0.263  0.00  0.00     0.174 A 
ATOM      3  C3  BZF d   1       1.355  -1.090   0.080  0.00  0.00    -0.012 A 
ATOM      4  C3A BZF d   1       2.279  -0.031  -0.189  0.00  0.00    -0.107 A 
ATOM      5  C4  BZF d   1       2.212   1.328  -0.067  0.00  0.00     0.055 A 
ATOM      6  C5  BZF d   1       3.315   2.071  -0.346  0.00  0.00    -0.016 A 
ATOM      7  C6  BZF d   1       4.501   1.489  -0.744  0.00  0.00     0.022 A 
ATOM      8  C7  BZF d   1       4.615   0.146  -0.884  0.00  0.00     0.029 A 
ATOM      9  C7A BZF d   1       3.492  -0.605  -0.635  0.00  0.00     0.058 A 
ENDROOT
TORSDOF 0
ENDMDL
