MODEL 1
REMARK minimizedAffinity 1.20131624
REMARK minimizedRMSD -1
REMARK  0 active torsions:
REMARK  status: ('A' for Active; 'I' for Inactive)
ROOT
ATOM      1  O1  BZF d   1       2.941   2.635   5.999  0.00  0.00    -0.204 OA
ATOM      2  C2  BZF d   1       2.558   1.756   5.004  0.00  0.00     0.174 A 
ATOM      3  C3  BZF d   1       2.622   2.347   3.793  0.00  0.00    -0.012 A 
ATOM      4  C3A BZF d   1       3.161   3.650   4.038  0.00  0.00    -0.107 A 
ATOM      5  C4  BZF d   1       3.475   4.704   3.228  0.00  0.00     0.055 A 
ATOM      6  C5  BZF d   1       3.914   5.860   3.790  0.00  0.00    -0.016 A 
ATOM      7  C6  BZF d   1       4.046   6.000   5.156  0.00  0.00     0.022 A 
ATOM      8  C7  BZF d   1       3.752   4.981   6.000  0.00  0.00     0.029 A 
ATOM      9  C7A BZF d   1       3.339   3.800   5.433  0.00  0.00     0.058 A 
ENDROOT
TORSDOF 0
ENDMDL
