MODEL 1
REMARK minimizedAffinity -2.53242731
REMARK minimizedRMSD -1
REMARK  1 active torsions:
REMARK  status: ('A' for Active; 'I' for Inactive)
REMARK    1  A    between atoms: N_2  and  C1_3 
ROOT
ATOM      1  C1  UNL d   1      -0.733  -1.408   0.017  0.00  0.00     0.143 A 
ATOM      2  C2  UNL d   1      -0.013  -1.213  -1.167  0.00  0.00    -0.057 A 
ATOM      3  C3  UNL d   1       0.386   0.067  -1.571  0.00  0.00     0.033 A 
ATOM      4  C4  UNL d   1       0.047   1.181  -0.811  0.00  0.00    -0.042 A 
ATOM      5  C5  UNL d   1      -0.690   1.014   0.356  0.00  0.00     0.033 A 
ATOM      6  C6  UNL d   1      -1.080  -0.267   0.758  0.00  0.00    -0.057 A 
ENDROOT
BRANCH   1   7
ATOM      7  N   UNL d   1      -1.244  -2.643   0.422  0.00  0.00    -0.732 N 
ATOM      8  C   UNL d   1      -0.417  -3.830   0.386  0.00  0.00     0.284 C 
ATOM      9  H3  UNL d   1      -1.828  -2.568   1.252  0.00  0.00     0.395 HD
ENDBRANCH   1   7
TORSDOF 1
ENDMDL
