MODEL 1
REMARK minimizedAffinity -4.68405437
REMARK minimizedRMSD -1
REMARK  1 active torsions:
REMARK  status: ('A' for Active; 'I' for Inactive)
REMARK    1  A    between atoms: N_2  and  C1_3 
ROOT
ATOM      1  C1  UNL d   1       0.089  -0.276  -0.334  0.00  0.00     0.143 A 
ATOM      2  C2  UNL d   1       0.551  -1.414  -1.004  0.00  0.00    -0.057 A 
ATOM      3  C3  UNL d   1       0.299  -2.699  -0.510  0.00  0.00     0.033 A 
ATOM      4  C4  UNL d   1      -0.397  -2.869   0.682  0.00  0.00    -0.042 A 
ATOM      5  C5  UNL d   1      -0.844  -1.751   1.378  0.00  0.00     0.033 A 
ATOM      6  C6  UNL d   1      -0.595  -0.470   0.876  0.00  0.00    -0.057 A 
ENDROOT
BRANCH   1   7
ATOM      7  N   UNL d   1       0.392   1.032  -0.722  0.00  0.00    -0.732 N 
ATOM      8  C   UNL d   1       1.020   1.949   0.204  0.00  0.00     0.284 C 
ATOM      9  H3  UNL d   1       0.760   1.080  -1.670  0.00  0.00     0.395 HD
ENDBRANCH   1   7
TORSDOF 1
ENDMDL
