MODEL 1
REMARK minimizedAffinity -4.84032917
REMARK minimizedRMSD -1
REMARK  1 active torsions:
REMARK  status: ('A' for Active; 'I' for Inactive)
REMARK    1  A    between atoms: N_2  and  C1_3 
ROOT
ATOM      1  C1  UNL d   1       0.682  -1.311  -0.192  0.00  0.00     0.143 A 
ATOM      2  C2  UNL d   1       0.760  -1.262  -1.588  0.00  0.00    -0.057 A 
ATOM      3  C3  UNL d   1       0.267  -0.166  -2.305  0.00  0.00     0.033 A 
ATOM      4  C4  UNL d   1      -0.342   0.892  -1.638  0.00  0.00    -0.042 A 
ATOM      5  C5  UNL d   1      -0.454   0.854  -0.252  0.00  0.00     0.033 A 
ATOM      6  C6  UNL d   1       0.047  -0.241   0.459  0.00  0.00    -0.057 A 
ENDROOT
BRANCH   1   7
ATOM      7  N   UNL d   1       1.065  -2.417   0.571  0.00  0.00    -0.732 N 
ATOM      8  C   UNL d   1       0.232  -3.599   0.625  0.00  0.00     0.284 C 
ATOM      9  H3  UNL d   1       2.061  -2.614   0.497  0.00  0.00     0.395 HD
ENDBRANCH   1   7
TORSDOF 1
ENDMDL
