MODEL 1
REMARK minimizedAffinity -4.77423954
REMARK minimizedRMSD -1
REMARK  1 active torsions:
REMARK  status: ('A' for Active; 'I' for Inactive)
REMARK    1  A    between atoms: N_2  and  C1_3 
ROOT
ATOM      1  C1  UNL d   1      -0.561  -0.150  -0.430  0.00  0.00     0.143 A 
ATOM      2  C2  UNL d   1      -0.035  -0.663  -1.620  0.00  0.00    -0.057 A 
ATOM      3  C3  UNL d   1      -0.062  -2.036  -1.894  0.00  0.00     0.033 A 
ATOM      4  C4  UNL d   1      -0.593  -2.926  -0.967  0.00  0.00    -0.042 A 
ATOM      5  C5  UNL d   1      -1.100  -2.441   0.234  0.00  0.00     0.033 A 
ATOM      6  C6  UNL d   1      -1.075  -1.069   0.499  0.00  0.00    -0.057 A 
ENDROOT
BRANCH   1   7
ATOM      7  N   UNL d   1      -0.474   1.193  -0.056  0.00  0.00    -0.732 N 
ATOM      8  C   UNL d   1       0.815   1.829   0.112  0.00  0.00     0.284 C 
ATOM      9  H3  UNL d   1      -1.166   1.773  -0.525  0.00  0.00     0.395 HD
ENDBRANCH   1   7
TORSDOF 1
ENDMDL
