MODEL 1
REMARK minimizedAffinity -3.90010524
REMARK minimizedRMSD -1
REMARK  1 active torsions:
REMARK  status: ('A' for Active; 'I' for Inactive)
REMARK    1  A    between atoms: N_2  and  C1_3 
ROOT
ATOM      1  C1  UNL d   1      -1.242  -0.149   0.426  0.00  0.00     0.143 A 
ATOM      2  C2  UNL d   1      -1.002   0.493  -0.793  0.00  0.00    -0.057 A 
ATOM      3  C3  UNL d   1      -0.285  -0.137  -1.817  0.00  0.00     0.033 A 
ATOM      4  C4  UNL d   1       0.231  -1.415  -1.629  0.00  0.00    -0.042 A 
ATOM      5  C5  UNL d   1       0.025  -2.063  -0.416  0.00  0.00     0.033 A 
ATOM      6  C6  UNL d   1      -0.697  -1.431   0.601  0.00  0.00    -0.057 A 
ENDROOT
BRANCH   1   7
ATOM      7  N   UNL d   1      -1.863   0.462   1.518  0.00  0.00    -0.732 N 
ATOM      8  C   UNL d   1      -1.957  -0.221   2.790  0.00  0.00     0.284 C 
ATOM      9  H3  UNL d   1      -1.632   1.450   1.593  0.00  0.00     0.395 HD
ENDBRANCH   1   7
TORSDOF 1
ENDMDL
