MODEL 1
REMARK minimizedAffinity -3.94335389
REMARK minimizedRMSD -1
REMARK  1 active torsions:
REMARK  status: ('A' for Active; 'I' for Inactive)
REMARK    1  A    between atoms: N_2  and  C1_3 
ROOT
ATOM      1  C1  UNL d   1      -0.383   0.097   0.094  0.00  0.00     0.143 A 
ATOM      2  C2  UNL d   1      -1.349  -0.266   1.038  0.00  0.00    -0.057 A 
ATOM      3  C3  UNL d   1      -1.508  -1.597   1.440  0.00  0.00     0.033 A 
ATOM      4  C4  UNL d   1      -0.720  -2.598   0.881  0.00  0.00    -0.042 A 
ATOM      5  C5  UNL d   1       0.230  -2.264  -0.078  0.00  0.00     0.033 A 
ATOM      6  C6  UNL d   1       0.388  -0.931  -0.471  0.00  0.00    -0.057 A 
ENDROOT
BRANCH   1   7
ATOM      7  N   UNL d   1      -0.243   1.389  -0.419  0.00  0.00    -0.732 N 
ATOM      8  C   UNL d   1       0.621   2.350   0.230  0.00  0.00     0.284 C 
ATOM      9  H3  UNL d   1      -0.187   1.399  -1.435  0.00  0.00     0.395 HD
ENDBRANCH   1   7
TORSDOF 1
ENDMDL
