MODEL 1
REMARK minimizedAffinity -4.26379871
REMARK minimizedRMSD -1
REMARK  1 active torsions:
REMARK  status: ('A' for Active; 'I' for Inactive)
REMARK    1  A    between atoms: N_2  and  C1_3 
ROOT
ATOM      1  C1  UNL d   1      -0.328  -0.191   0.512  0.00  0.00     0.143 A 
ATOM      2  C2  UNL d   1       0.179  -0.739  -0.671  0.00  0.00    -0.057 A 
ATOM      3  C3  UNL d   1       0.457  -2.108  -0.777  0.00  0.00     0.033 A 
ATOM      4  C4  UNL d   1       0.258  -2.950   0.312  0.00  0.00    -0.042 A 
ATOM      5  C5  UNL d   1      -0.222  -2.423   1.506  0.00  0.00     0.033 A 
ATOM      6  C6  UNL d   1      -0.503  -1.056   1.603  0.00  0.00    -0.057 A 
ENDROOT
BRANCH   1   7
ATOM      7  N   UNL d   1      -0.530   1.177   0.711  0.00  0.00    -0.732 N 
ATOM      8  C   UNL d   1       0.516   2.129   0.406  0.00  0.00     0.284 C 
ATOM      9  H3  UNL d   1      -1.461   1.477   0.430  0.00  0.00     0.395 HD
ENDBRANCH   1   7
TORSDOF 1
ENDMDL
