MODEL 1
REMARK minimizedAffinity -3.25444412
REMARK minimizedRMSD -1
REMARK  1 active torsions:
REMARK  status: ('A' for Active; 'I' for Inactive)
REMARK    1  A    between atoms: N_2  and  C1_3 
ROOT
ATOM      1  C1  UNL d   1      -0.018   0.630   0.132  0.00  0.00     0.143 A 
ATOM      2  C2  UNL d   1       0.386  -0.306  -0.825  0.00  0.00    -0.057 A 
ATOM      3  C3  UNL d   1       0.035  -1.657  -0.713  0.00  0.00     0.033 A 
ATOM      4  C4  UNL d   1      -0.703  -2.102   0.379  0.00  0.00    -0.042 A 
ATOM      5  C5  UNL d   1      -1.094  -1.193   1.356  0.00  0.00     0.033 A 
ATOM      6  C6  UNL d   1      -0.747   0.156   1.234  0.00  0.00    -0.057 A 
ENDROOT
BRANCH   1   7
ATOM      7  N   UNL d   1       0.382   1.969   0.128  0.00  0.00    -0.732 N 
ATOM      8  C   UNL d   1       1.786   2.319   0.139  0.00  0.00     0.284 C 
ATOM      9  H3  UNL d   1      -0.185   2.541  -0.494  0.00  0.00     0.395 HD
ENDBRANCH   1   7
TORSDOF 1
ENDMDL
