MODEL 1
REMARK minimizedAffinity -3.60581613
REMARK minimizedRMSD -1
REMARK  1 active torsions:
REMARK  status: ('A' for Active; 'I' for Inactive)
REMARK    1  A    between atoms: N_2  and  C1_3 
ROOT
ATOM      1  C1  UNL d   1      -0.193   0.011  -0.150  0.00  0.00     0.143 A 
ATOM      2  C2  UNL d   1      -1.197  -0.499   0.680  0.00  0.00    -0.057 A 
ATOM      3  C3  UNL d   1      -1.267  -1.865   0.981  0.00  0.00     0.033 A 
ATOM      4  C4  UNL d   1      -0.347  -2.752   0.431  0.00  0.00    -0.042 A 
ATOM      5  C5  UNL d   1       0.645  -2.271  -0.416  0.00  0.00     0.033 A 
ATOM      6  C6  UNL d   1       0.713  -0.905  -0.708  0.00  0.00    -0.057 A 
ENDROOT
BRANCH   1   7
ATOM      7  N   UNL d   1      -0.129   1.343  -0.566  0.00  0.00    -0.732 N 
ATOM      8  C   UNL d   1       0.632   2.315   0.189  0.00  0.00     0.284 C 
ATOM      9  H3  UNL d   1      -0.031   1.431  -1.575  0.00  0.00     0.395 HD
ENDBRANCH   1   7
TORSDOF 1
ENDMDL
