MODEL 1
REMARK minimizedAffinity -4.36514997
REMARK minimizedRMSD -1
REMARK  1 active torsions:
REMARK  status: ('A' for Active; 'I' for Inactive)
REMARK    1  A    between atoms: N_2  and  C1_3 
ROOT
ATOM      1  C1  UNL d   1      -0.262  -0.224   0.259  0.00  0.00     0.143 A 
ATOM      2  C2  UNL d   1      -1.244  -0.881   1.008  0.00  0.00    -0.057 A 
ATOM      3  C3  UNL d   1      -1.244  -2.275   1.139  0.00  0.00     0.033 A 
ATOM      4  C4  UNL d   1      -0.276  -3.041   0.498  0.00  0.00    -0.042 A 
ATOM      5  C5  UNL d   1       0.695  -2.411  -0.272  0.00  0.00     0.033 A 
ATOM      6  C6  UNL d   1       0.694  -1.018  -0.394  0.00  0.00    -0.057 A 
ENDROOT
BRANCH   1   7
ATOM      7  N   UNL d   1      -0.264   1.151   0.009  0.00  0.00    -0.732 N 
ATOM      8  C   UNL d   1       0.957   1.921   0.112  0.00  0.00     0.284 C 
ATOM      9  H3  UNL d   1      -0.847   1.400  -0.786  0.00  0.00     0.395 HD
ENDBRANCH   1   7
TORSDOF 1
ENDMDL
