MODEL 1
REMARK minimizedAffinity -3.33300233
REMARK minimizedRMSD -1
REMARK  1 active torsions:
REMARK  status: ('A' for Active; 'I' for Inactive)
REMARK    1  A    between atoms: N_2  and  C1_3 
ROOT
ATOM      1  C1  UNL d   1       0.408  -1.087  -0.713  0.00  0.00     0.143 A 
ATOM      2  C2  UNL d   1       1.595  -1.774  -0.439  0.00  0.00    -0.057 A 
ATOM      3  C3  UNL d   1       1.580  -3.047   0.145  0.00  0.00     0.033 A 
ATOM      4  C4  UNL d   1       0.373  -3.644   0.493  0.00  0.00    -0.042 A 
ATOM      5  C5  UNL d   1      -0.818  -2.969   0.254  0.00  0.00     0.033 A 
ATOM      6  C6  UNL d   1      -0.797  -1.702  -0.336  0.00  0.00    -0.057 A 
ENDROOT
BRANCH   1   7
ATOM      7  N   UNL d   1       0.361   0.221  -1.201  0.00  0.00    -0.732 N 
ATOM      8  C   UNL d   1      -0.215   1.284  -0.406  0.00  0.00     0.284 C 
ATOM      9  H3  UNL d   1       1.212   0.483  -1.692  0.00  0.00     0.395 HD
ENDBRANCH   1   7
TORSDOF 1
ENDMDL
