MODEL 1
REMARK minimizedAffinity 5.94960594
REMARK minimizedRMSD -1
REMARK  1 active torsions:
REMARK  status: ('A' for Active; 'I' for Inactive)
REMARK    1  A    between atoms: C1_2  and  C2_3 
ROOT
ATOM      1  C2  UNL d   1       4.618   1.208   0.948  0.00  0.00    -0.077 A 
ATOM      2  C3  UNL d   1       3.586   1.406   0.019  0.00  0.00     0.002 A 
ATOM      3  C4  UNL d   1       2.622   0.418  -0.187  0.00  0.00     0.002 A 
ATOM      4  C5  UNL d   1       2.677  -0.773   0.534  0.00  0.00    -0.004 A 
ATOM      5  C6  UNL d   1       3.700  -0.981   1.458  0.00  0.00     0.002 A 
ATOM      6  C7  UNL d   1       4.666   0.006   1.665  0.00  0.00     0.002 A 
ENDROOT
BRANCH   1   7
ATOM      7  C1  UNL d   1       5.630   2.293   1.208  0.00  0.00     0.055 C 
ATOM      8  C   UNL d   1       5.582   2.760   2.655  0.00  0.00     0.019 C 
ENDBRANCH   1   7
TORSDOF 1
ENDMDL
