MODEL 1
REMARK minimizedAffinity 5.81164026
REMARK minimizedRMSD -1
REMARK  1 active torsions:
REMARK  status: ('A' for Active; 'I' for Inactive)
REMARK    1  A    between atoms: C1_2  and  C2_3 
ROOT
ATOM      1  C2  UNL d   1       1.310   3.042   0.236  0.00  0.00    -0.077 A 
ATOM      2  C3  UNL d   1       1.667   3.754   1.390  0.00  0.00     0.002 A 
ATOM      3  C4  UNL d   1       0.922   4.864   1.793  0.00  0.00     0.002 A 
ATOM      4  C5  UNL d   1      -0.186   5.268   1.052  0.00  0.00    -0.004 A 
ATOM      5  C6  UNL d   1      -0.548   4.568  -0.098  0.00  0.00     0.002 A 
ATOM      6  C7  UNL d   1       0.196   3.459  -0.503  0.00  0.00     0.002 A 
ENDROOT
BRANCH   1   7
ATOM      7  C1  UNL d   1       2.083   1.815  -0.173  0.00  0.00     0.055 C 
ATOM      8  C   UNL d   1       2.081   0.766   0.929  0.00  0.00     0.019 C 
ENDBRANCH   1   7
TORSDOF 1
ENDMDL
