MODEL 1
REMARK minimizedAffinity 1.883443
REMARK minimizedRMSD -1
REMARK  1 active torsions:
REMARK  status: ('A' for Active; 'I' for Inactive)
REMARK    1  A    between atoms: C1_2  and  C2_3 
ROOT
ATOM      1  C2  UNL d   1      -2.075   4.912   1.187  0.00  0.00    -0.077 A 
ATOM      2  C3  UNL d   1      -2.903   4.539   0.119  0.00  0.00     0.002 A 
ATOM      3  C4  UNL d   1      -4.280   4.763   0.180  0.00  0.00     0.002 A 
ATOM      4  C5  UNL d   1      -4.840   5.364   1.306  0.00  0.00    -0.004 A 
ATOM      5  C6  UNL d   1      -4.026   5.736   2.375  0.00  0.00     0.002 A 
ATOM      6  C7  UNL d   1      -2.650   5.512   2.315  0.00  0.00     0.002 A 
ENDROOT
BRANCH   1   7
ATOM      7  C1  UNL d   1      -0.584   4.717   1.103  0.00  0.00     0.055 C 
ATOM      8  C   UNL d   1      -0.219   3.700   0.030  0.00  0.00     0.019 C 
ENDBRANCH   1   7
TORSDOF 1
ENDMDL
