MODEL 1
REMARK minimizedAffinity 10.5006628
REMARK minimizedRMSD -1
REMARK  1 active torsions:
REMARK  status: ('A' for Active; 'I' for Inactive)
REMARK    1  A    between atoms: C1_2  and  C2_3 
ROOT
ATOM      1  C2  UNL d   1       4.702  -0.018   0.828  0.00  0.00    -0.077 A 
ATOM      2  C3  UNL d   1       4.427   1.336   0.591  0.00  0.00     0.002 A 
ATOM      3  C4  UNL d   1       3.208   1.721   0.030  0.00  0.00     0.002 A 
ATOM      4  C5  UNL d   1       2.253   0.760  -0.293  0.00  0.00    -0.004 A 
ATOM      5  C6  UNL d   1       2.518  -0.590  -0.063  0.00  0.00     0.002 A 
ATOM      6  C7  UNL d   1       3.737  -0.977   0.496  0.00  0.00     0.002 A 
ENDROOT
BRANCH   1   7
ATOM      7  C1  UNL d   1       5.997  -0.432   1.478  0.00  0.00     0.055 C 
ATOM      8  C   UNL d   1       5.984  -1.908   1.846  0.00  0.00     0.019 C 
ENDBRANCH   1   7
TORSDOF 1
ENDMDL
