MODEL 1
REMARK minimizedAffinity 0.294235051
REMARK minimizedRMSD -1
REMARK  1 active torsions:
REMARK  status: ('A' for Active; 'I' for Inactive)
REMARK    1  A    between atoms: C1_2  and  C2_3 
ROOT
ATOM      1  C2  UNL d   1      -4.875   4.662   3.483  0.00  0.00    -0.077 A 
ATOM      2  C3  UNL d   1      -3.744   5.366   3.917  0.00  0.00     0.002 A 
ATOM      3  C4  UNL d   1      -3.740   5.998   5.162  0.00  0.00     0.002 A 
ATOM      4  C5  UNL d   1      -4.863   5.929   5.984  0.00  0.00    -0.004 A 
ATOM      5  C6  UNL d   1      -5.994   5.233   5.560  0.00  0.00     0.002 A 
ATOM      6  C7  UNL d   1      -6.000   4.602   4.316  0.00  0.00     0.002 A 
ENDROOT
BRANCH   1   7
ATOM      7  C1  UNL d   1      -4.864   3.938   2.162  0.00  0.00     0.055 C 
ATOM      8  C   UNL d   1      -4.570   4.890   1.012  0.00  0.00     0.019 C 
ENDBRANCH   1   7
TORSDOF 1
ENDMDL
