MODEL 1
REMARK minimizedAffinity -5.13310432
REMARK minimizedRMSD -1
REMARK  1 active torsions:
REMARK  status: ('A' for Active; 'I' for Inactive)
REMARK    1  A    between atoms: C1_2  and  C2_3 
ROOT
ATOM      1  C2  UNL d   1       2.999   0.153  -0.695  0.00  0.00    -0.077 A 
ATOM      2  C3  UNL d   1       2.890  -1.244  -0.722  0.00  0.00     0.002 A 
ATOM      3  C4  UNL d   1       1.669  -1.863  -0.447  0.00  0.00     0.002 A 
ATOM      4  C5  UNL d   1       0.547  -1.092  -0.148  0.00  0.00    -0.004 A 
ATOM      5  C6  UNL d   1       0.646   0.298  -0.117  0.00  0.00     0.002 A 
ATOM      6  C7  UNL d   1       1.866   0.918  -0.390  0.00  0.00     0.002 A 
ENDROOT
BRANCH   1   7
ATOM      7  C1  UNL d   1       4.303   0.824  -1.040  0.00  0.00     0.055 C 
ATOM      8  C   UNL d   1       4.212   2.333  -0.864  0.00  0.00     0.019 C 
ENDBRANCH   1   7
TORSDOF 1
ENDMDL
