MODEL 1
REMARK minimizedAffinity 5.85895061
REMARK minimizedRMSD -1
REMARK  0 active torsions:
REMARK  status: ('A' for Active; 'I' for Inactive)
ROOT
ATOM      1  C1  DEN d   1      -2.094  -5.303  -4.176  0.00  0.00     0.130 A 
ATOM      2  C2  DEN d   1      -1.369  -4.278  -4.922  0.00  0.00    -0.031 A 
ATOM      3  C3  DEN d   1      -2.341  -3.559  -5.770  0.00  0.00     0.027 A 
ATOM      4  C4  DEN d   1      -4.883  -3.929  -5.997  0.00  0.00     0.027 A 
ATOM      5  C5  DEN d   1      -5.949  -4.692  -5.573  0.00  0.00    -0.003 A 
ATOM      6  C6  DEN d   1      -5.800  -5.726  -4.687  0.00  0.00     0.001 A 
ATOM      7  C7  DEN d   1      -4.564  -5.996  -4.161  0.00  0.00     0.017 A 
ATOM      8  C8  DEN d   1      -3.484  -5.236  -4.589  0.00  0.00    -0.094 A 
ATOM      9  C9  DEN d   1      -3.657  -4.187  -5.477  0.00  0.00    -0.072 A 
ENDROOT
TORSDOF 0
ENDMDL
