MODEL 1
REMARK minimizedAffinity 13.1408081
REMARK minimizedRMSD -1
REMARK  0 active torsions:
REMARK  status: ('A' for Active; 'I' for Inactive)
ROOT
ATOM      1  C1  DEN d   1       1.319   3.843  -0.813  0.00  0.00     0.130 A 
ATOM      2  C2  DEN d   1       0.620   2.953   0.109  0.00  0.00    -0.031 A 
ATOM      3  C3  DEN d   1      -0.816   2.973  -0.237  0.00  0.00     0.027 A 
ATOM      4  C4  DEN d   1      -2.016   4.287  -2.104  0.00  0.00     0.027 A 
ATOM      5  C5  DEN d   1      -1.843   5.184  -3.135  0.00  0.00    -0.003 A 
ATOM      6  C6  DEN d   1      -0.620   5.719  -3.440  0.00  0.00     0.001 A 
ATOM      7  C7  DEN d   1       0.487   5.327  -2.735  0.00  0.00     0.017 A 
ATOM      8  C8  DEN d   1       0.320   4.428  -1.689  0.00  0.00    -0.094 A 
ATOM      9  C9  DEN d   1      -0.923   3.889  -1.404  0.00  0.00    -0.072 A 
ENDROOT
TORSDOF 0
ENDMDL
