MODEL 1
REMARK minimizedAffinity 4.37440348
REMARK minimizedRMSD -1
REMARK  0 active torsions:
REMARK  status: ('A' for Active; 'I' for Inactive)
ROOT
ATOM      1  C1  DEN d   1      -2.413  -4.456  -5.857  0.00  0.00     0.130 A 
ATOM      2  C2  DEN d   1      -3.032  -5.778  -5.865  0.00  0.00    -0.031 A 
ATOM      3  C3  DEN d   1      -4.496  -5.597  -5.911  0.00  0.00     0.027 A 
ATOM      4  C4  DEN d   1      -5.859  -3.408  -5.977  0.00  0.00     0.027 A 
ATOM      5  C5  DEN d   1      -5.775  -2.033  -5.975  0.00  0.00    -0.003 A 
ATOM      6  C6  DEN d   1      -4.576  -1.374  -5.900  0.00  0.00     0.001 A 
ATOM      7  C7  DEN d   1      -3.409  -2.091  -5.869  0.00  0.00     0.017 A 
ATOM      8  C8  DEN d   1      -3.486  -3.478  -5.863  0.00  0.00    -0.094 A 
ATOM      9  C9  DEN d   1      -4.707  -4.124  -5.952  0.00  0.00    -0.072 A 
ENDROOT
TORSDOF 0
ENDMDL
