MODEL 1
REMARK minimizedAffinity 7.44791365
REMARK minimizedRMSD -1
REMARK  0 active torsions:
REMARK  status: ('A' for Active; 'I' for Inactive)
ROOT
ATOM      1  C1  DEN d   1       0.703   3.983  -0.321  0.00  0.00     0.130 A 
ATOM      2  C2  DEN d   1       0.084   3.638  -1.598  0.00  0.00    -0.031 A 
ATOM      3  C3  DEN d   1      -0.717   2.414  -1.401  0.00  0.00     0.027 A 
ATOM      4  C4  DEN d   1      -1.062   1.028   0.747  0.00  0.00     0.027 A 
ATOM      5  C5  DEN d   1      -0.730   0.922   2.080  0.00  0.00    -0.003 A 
ATOM      6  C6  DEN d   1       0.122   1.802   2.692  0.00  0.00     0.001 A 
ATOM      7  C7  DEN d   1       0.637   2.854   1.982  0.00  0.00     0.017 A 
ATOM      8  C8  DEN d   1       0.313   2.964   0.636  0.00  0.00    -0.094 A 
ATOM      9  C9  DEN d   1      -0.560   2.071   0.038  0.00  0.00    -0.072 A 
ENDROOT
TORSDOF 0
ENDMDL
