MODEL 1
REMARK minimizedAffinity 4.33133793
REMARK minimizedRMSD -1
REMARK  0 active torsions:
REMARK  status: ('A' for Active; 'I' for Inactive)
ROOT
ATOM      1  C1  DEN d   1      -4.281   5.979  -0.199  0.00  0.00     0.130 A 
ATOM      2  C2  DEN d   1      -4.324   5.996   1.260  0.00  0.00    -0.031 A 
ATOM      3  C3  DEN d   1      -2.935   5.960   1.759  0.00  0.00     0.027 A 
ATOM      4  C4  DEN d   1      -0.732   5.884   0.419  0.00  0.00     0.027 A 
ATOM      5  C5  DEN d   1      -0.188   5.843  -0.846  0.00  0.00    -0.003 A 
ATOM      6  C6  DEN d   1      -0.964   5.811  -1.974  0.00  0.00     0.001 A 
ATOM      7  C7  DEN d   1      -2.329   5.864  -1.860  0.00  0.00     0.017 A 
ATOM      8  C8  DEN d   1      -2.884   5.898  -0.588  0.00  0.00    -0.094 A 
ATOM      9  C9  DEN d   1      -2.082   5.943   0.539  0.00  0.00    -0.072 A 
ENDROOT
TORSDOF 0
ENDMDL
