MODEL 1
REMARK minimizedAffinity 9.47645283
REMARK minimizedRMSD -1
REMARK  0 active torsions:
REMARK  status: ('A' for Active; 'I' for Inactive)
ROOT
ATOM      1  C1  DEN d   1      -1.621   6.000   0.737  0.00  0.00     0.130 A 
ATOM      2  C2  DEN d   1      -2.360   5.404   1.847  0.00  0.00    -0.031 A 
ATOM      3  C3  DEN d   1      -1.961   3.986   1.950  0.00  0.00     0.027 A 
ATOM      4  C4  DEN d   1      -0.279   2.663   0.511  0.00  0.00     0.027 A 
ATOM      5  C5  DEN d   1       0.587   2.739  -0.558  0.00  0.00    -0.003 A 
ATOM      6  C6  DEN d   1       0.751   3.888  -1.285  0.00  0.00     0.001 A 
ATOM      7  C7  DEN d   1       0.072   5.022  -0.924  0.00  0.00     0.017 A 
ATOM      8  C8  DEN d   1      -0.809   4.951   0.147  0.00  0.00    -0.094 A 
ATOM      9  C9  DEN d   1      -0.951   3.784   0.877  0.00  0.00    -0.072 A 
ENDROOT
TORSDOF 0
ENDMDL
