MODEL 1
REMARK minimizedAffinity 7.33003759
REMARK minimizedRMSD -1
REMARK  0 active torsions:
REMARK  status: ('A' for Active; 'I' for Inactive)
ROOT
ATOM      1  C1  DEN d   1      -0.802   3.054   1.618  0.00  0.00     0.130 A 
ATOM      2  C2  DEN d   1       0.131   1.992   1.254  0.00  0.00    -0.031 A 
ATOM      3  C3  DEN d   1       0.749   2.351  -0.038  0.00  0.00     0.027 A 
ATOM      4  C4  DEN d   1       0.358   4.439  -1.500  0.00  0.00     0.027 A 
ATOM      5  C5  DEN d   1      -0.351   5.615  -1.611  0.00  0.00    -0.003 A 
ATOM      6  C6  DEN d   1      -1.277   6.000  -0.678  0.00  0.00     0.001 A 
ATOM      7  C7  DEN d   1      -1.487   5.223   0.431  0.00  0.00     0.017 A 
ATOM      8  C8  DEN d   1      -0.781   4.033   0.546  0.00  0.00    -0.094 A 
ATOM      9  C9  DEN d   1       0.160   3.667  -0.402  0.00  0.00    -0.072 A 
ENDROOT
TORSDOF 0
ENDMDL
