MODEL 1
REMARK minimizedAffinity 10.9457102
REMARK minimizedRMSD -1
REMARK  0 active torsions:
REMARK  status: ('A' for Active; 'I' for Inactive)
ROOT
ATOM      1  C1  DEN d   1      -1.013  -5.628  -4.271  0.00  0.00     0.130 A 
ATOM      2  C2  DEN d   1      -0.289  -4.414  -3.903  0.00  0.00    -0.031 A 
ATOM      3  C3  DEN d   1      -1.115  -3.254  -4.295  0.00  0.00     0.027 A 
ATOM      4  C4  DEN d   1      -3.433  -3.220  -5.425  0.00  0.00     0.027 A 
ATOM      5  C5  DEN d   1      -4.442  -4.004  -5.940  0.00  0.00    -0.003 A 
ATOM      6  C6  DEN d   1      -4.365  -5.371  -5.965  0.00  0.00     0.001 A 
ATOM      7  C7  DEN d   1      -3.274  -5.999  -5.425  0.00  0.00     0.017 A 
ATOM      8  C8  DEN d   1      -2.249  -5.216  -4.911  0.00  0.00    -0.094 A 
ATOM      9  C9  DEN d   1      -2.351  -3.836  -4.883  0.00  0.00    -0.072 A 
ENDROOT
TORSDOF 0
ENDMDL
