MODEL 1
REMARK minimizedAffinity 4.48589945
REMARK minimizedRMSD -1
REMARK  0 active torsions:
REMARK  status: ('A' for Active; 'I' for Inactive)
ROOT
ATOM      1  C   UNL d   1       2.296   0.866   0.762  0.00  0.00     0.078 C 
ATOM      2  C1  UNL d   1       2.324  -0.561   1.222  0.00  0.00    -0.077 A 
ATOM      3  C2  UNL d   1       1.140  -1.247   1.518  0.00  0.00    -0.001 A 
ATOM      4  C3  UNL d   1       1.181  -2.572   1.955  0.00  0.00     0.003 A 
ATOM      5  C4  UNL d   1       2.405  -3.222   2.102  0.00  0.00    -0.005 A 
ATOM      6  C5  UNL d   1       3.589  -2.547   1.812  0.00  0.00     0.003 A 
ATOM      7  C6  UNL d   1       3.549  -1.222   1.375  0.00  0.00    -0.001 A 
ENDROOT
TORSDOF 0
ENDMDL
