MODEL 1
REMARK minimizedAffinity -1.9828825
REMARK minimizedRMSD -1
REMARK  0 active torsions:
REMARK  status: ('A' for Active; 'I' for Inactive)
ROOT
ATOM      1  C   UNL d   1       2.890   0.517   0.674  0.00  0.00     0.078 C 
ATOM      2  C1  UNL d   1       2.573  -0.744   1.421  0.00  0.00    -0.077 A 
ATOM      3  C2  UNL d   1       1.322  -1.361   1.296  0.00  0.00    -0.001 A 
ATOM      4  C3  UNL d   1       1.037  -2.529   2.005  0.00  0.00     0.003 A 
ATOM      5  C4  UNL d   1       1.997  -3.090   2.844  0.00  0.00    -0.005 A 
ATOM      6  C5  UNL d   1       3.244  -2.483   2.977  0.00  0.00     0.003 A 
ATOM      7  C6  UNL d   1       3.531  -1.314   2.269  0.00  0.00    -0.001 A 
ENDROOT
TORSDOF 0
ENDMDL
