MODEL 1
REMARK minimizedAffinity -3.17195415
REMARK minimizedRMSD -1
REMARK  0 active torsions:
REMARK  status: ('A' for Active; 'I' for Inactive)
ROOT
ATOM      1  C   UNL d   1       2.556  -3.697   4.064  0.00  0.00     0.078 C 
ATOM      2  C1  UNL d   1       2.191  -2.731   2.977  0.00  0.00    -0.077 A 
ATOM      3  C2  UNL d   1       0.893  -2.690   2.454  0.00  0.00    -0.001 A 
ATOM      4  C3  UNL d   1       0.570  -1.793   1.435  0.00  0.00     0.003 A 
ATOM      5  C4  UNL d   1       1.540  -0.930   0.929  0.00  0.00    -0.005 A 
ATOM      6  C5  UNL d   1       2.835  -0.965   1.441  0.00  0.00     0.003 A 
ATOM      7  C6  UNL d   1       3.160  -1.862   2.460  0.00  0.00    -0.001 A 
ENDROOT
TORSDOF 0
ENDMDL
