MODEL 1
REMARK minimizedAffinity 6.55394459
REMARK minimizedRMSD -1
REMARK  0 active torsions:
REMARK  status: ('A' for Active; 'I' for Inactive)
ROOT
ATOM      1  C   UNL d   1       0.057  -2.218   1.565  0.00  0.00     0.078 C 
ATOM      2  C1  UNL d   1      -1.158  -2.693   0.826  0.00  0.00    -0.077 A 
ATOM      3  C2  UNL d   1      -1.576  -4.027   0.908  0.00  0.00    -0.001 A 
ATOM      4  C3  UNL d   1      -2.704  -4.458   0.206  0.00  0.00     0.003 A 
ATOM      5  C4  UNL d   1      -3.422  -3.561  -0.582  0.00  0.00    -0.005 A 
ATOM      6  C5  UNL d   1      -3.013  -2.232  -0.671  0.00  0.00     0.003 A 
ATOM      7  C6  UNL d   1      -1.886  -1.800   0.030  0.00  0.00    -0.001 A 
ENDROOT
TORSDOF 0
ENDMDL
