MODEL 1
REMARK minimizedAffinity 2.04116893
REMARK minimizedRMSD -1
REMARK  0 active torsions:
REMARK  status: ('A' for Active; 'I' for Inactive)
ROOT
ATOM      1  C   UNL d   1       2.998  -2.210  -3.553  0.00  0.00     0.078 C 
ATOM      2  C1  UNL d   1       3.854  -1.327  -4.412  0.00  0.00    -0.077 A 
ATOM      3  C2  UNL d   1       5.149  -1.714  -4.779  0.00  0.00    -0.001 A 
ATOM      4  C3  UNL d   1       5.938  -0.877  -5.570  0.00  0.00     0.003 A 
ATOM      5  C4  UNL d   1       5.442   0.352  -6.000  0.00  0.00    -0.005 A 
ATOM      6  C5  UNL d   1       4.155   0.746  -5.638  0.00  0.00     0.003 A 
ATOM      7  C6  UNL d   1       3.365  -0.089  -4.847  0.00  0.00    -0.001 A 
ENDROOT
TORSDOF 0
ENDMDL
