MODEL 1
REMARK minimizedAffinity 2.07238746
REMARK minimizedRMSD -1
REMARK  0 active torsions:
REMARK  status: ('A' for Active; 'I' for Inactive)
ROOT
ATOM      1  C   UNL d   1       4.547  -1.885   1.287  0.00  0.00     0.078 C 
ATOM      2  C1  UNL d   1       3.059  -1.906   1.474  0.00  0.00    -0.077 A 
ATOM      3  C2  UNL d   1       2.482  -1.556   2.701  0.00  0.00    -0.001 A 
ATOM      4  C3  UNL d   1       1.096  -1.590   2.864  0.00  0.00     0.003 A 
ATOM      5  C4  UNL d   1       0.276  -1.975   1.805  0.00  0.00    -0.005 A 
ATOM      6  C5  UNL d   1       0.842  -2.327   0.581  0.00  0.00     0.003 A 
ATOM      7  C6  UNL d   1       2.227  -2.294   0.416  0.00  0.00    -0.001 A 
ENDROOT
TORSDOF 0
ENDMDL
