MODEL 1
REMARK minimizedAffinity 0.353433639
REMARK minimizedRMSD -1
REMARK  0 active torsions:
REMARK  status: ('A' for Active; 'I' for Inactive)
ROOT
ATOM      1  C   UNL d   1       1.142  -2.873   1.889  0.00  0.00     0.078 C 
ATOM      2  C1  UNL d   1       1.294  -1.444   1.458  0.00  0.00    -0.077 A 
ATOM      3  C2  UNL d   1       2.556  -0.903   1.188  0.00  0.00    -0.001 A 
ATOM      4  C3  UNL d   1       2.684   0.431   0.797  0.00  0.00     0.003 A 
ATOM      5  C4  UNL d   1       1.552   1.235   0.672  0.00  0.00    -0.005 A 
ATOM      6  C5  UNL d   1       0.292   0.705   0.940  0.00  0.00     0.003 A 
ATOM      7  C6  UNL d   1       0.162  -0.628   1.332  0.00  0.00    -0.001 A 
ENDROOT
TORSDOF 0
ENDMDL
