MODEL 1
REMARK minimizedAffinity 1.45578814
REMARK minimizedRMSD -1
REMARK  0 active torsions:
REMARK  status: ('A' for Active; 'I' for Inactive)
ROOT
ATOM      1  C   UNL d   1       1.911  -2.253   1.604  0.00  0.00     0.078 C 
ATOM      2  C1  UNL d   1       0.979  -1.954   0.469  0.00  0.00    -0.077 A 
ATOM      3  C2  UNL d   1       1.318  -2.283  -0.849  0.00  0.00    -0.001 A 
ATOM      4  C3  UNL d   1       0.445  -1.990  -1.898  0.00  0.00     0.003 A 
ATOM      5  C4  UNL d   1      -0.773  -1.365  -1.639  0.00  0.00    -0.005 A 
ATOM      6  C5  UNL d   1      -1.119  -1.031  -0.331  0.00  0.00     0.003 A 
ATOM      7  C6  UNL d   1      -0.247  -1.324   0.718  0.00  0.00    -0.001 A 
ENDROOT
TORSDOF 0
ENDMDL
