MODEL 1
REMARK minimizedAffinity 1.55797493
REMARK minimizedRMSD -1
REMARK  0 active torsions:
REMARK  status: ('A' for Active; 'I' for Inactive)
ROOT
ATOM      1  C   UNL d   1       2.713   0.687   1.920  0.00  0.00     0.078 C 
ATOM      2  C1  UNL d   1       1.902  -0.574   1.957  0.00  0.00    -0.077 A 
ATOM      3  C2  UNL d   1       2.517  -1.822   2.119  0.00  0.00    -0.001 A 
ATOM      4  C3  UNL d   1       1.751  -2.988   2.141  0.00  0.00     0.003 A 
ATOM      5  C4  UNL d   1       0.366  -2.919   2.000  0.00  0.00    -0.005 A 
ATOM      6  C5  UNL d   1      -0.254  -1.682   1.836  0.00  0.00     0.003 A 
ATOM      7  C6  UNL d   1       0.510  -0.514   1.814  0.00  0.00    -0.001 A 
ENDROOT
TORSDOF 0
ENDMDL
