MODEL 1
REMARK minimizedAffinity 2.58291578
REMARK minimizedRMSD -1
REMARK  0 active torsions:
REMARK  status: ('A' for Active; 'I' for Inactive)
ROOT
ATOM      1  C   UNL d   1      -0.603  -2.146   1.667  0.00  0.00     0.078 C 
ATOM      2  C1  UNL d   1       0.830  -1.713   1.585  0.00  0.00    -0.077 A 
ATOM      3  C2  UNL d   1       1.840  -2.622   1.247  0.00  0.00    -0.001 A 
ATOM      4  C3  UNL d   1       3.171  -2.207   1.184  0.00  0.00     0.003 A 
ATOM      5  C4  UNL d   1       3.505  -0.883   1.460  0.00  0.00    -0.005 A 
ATOM      6  C5  UNL d   1       2.507   0.029   1.799  0.00  0.00     0.003 A 
ATOM      7  C6  UNL d   1       1.175  -0.385   1.863  0.00  0.00    -0.001 A 
ENDROOT
TORSDOF 0
ENDMDL
