MODEL 1
REMARK minimizedAffinity -1.05770242
REMARK minimizedRMSD -1
REMARK  0 active torsions:
REMARK  status: ('A' for Active; 'I' for Inactive)
ROOT
ATOM      1  C   UNL d   1       2.715  -3.023  -1.912  0.00  0.00     0.078 C 
ATOM      2  C1  UNL d   1       1.602  -2.169  -1.383  0.00  0.00    -0.077 A 
ATOM      3  C2  UNL d   1       0.414  -2.004  -2.105  0.00  0.00    -0.001 A 
ATOM      4  C3  UNL d   1      -0.610  -1.198  -1.605  0.00  0.00     0.003 A 
ATOM      5  C4  UNL d   1      -0.456  -0.551  -0.381  0.00  0.00    -0.005 A 
ATOM      6  C5  UNL d   1       0.723  -0.707   0.344  0.00  0.00     0.003 A 
ATOM      7  C6  UNL d   1       1.749  -1.513  -0.154  0.00  0.00    -0.001 A 
ENDROOT
TORSDOF 0
ENDMDL
