MODEL 1
REMARK minimizedAffinity 5.25129414
REMARK minimizedRMSD -1
REMARK  2 active torsions:
REMARK  status: ('A' for Active; 'I' for Inactive)
REMARK    1  A    between atoms: C1_2  and  C2_3 
REMARK    2  A    between atoms: C2_3  and  C3_4 
ROOT
ATOM      1  C3  UNL d   1       4.581   3.208   5.980  0.00  0.00    -0.075 A 
ATOM      2  C4  UNL d   1       5.855   3.792   5.954  0.00  0.00     0.002 A 
ATOM      3  C5  UNL d   1       5.999   5.180   5.964  0.00  0.00     0.002 A 
ATOM      4  C6  UNL d   1       4.872   5.999   5.990  0.00  0.00    -0.004 A 
ATOM      5  C7  UNL d   1       3.601   5.430   5.999  0.00  0.00     0.002 A 
ATOM      6  C8  UNL d   1       3.455   4.042   5.994  0.00  0.00     0.002 A 
ENDROOT
BRANCH   1   7
ATOM      7  C2  UNL d   1       4.419   1.706   5.999  0.00  0.00     0.056 C 
BRANCH   7   8
ATOM      8  C1  UNL d   1       2.961   1.236   5.996  0.00  0.00     0.007 C 
ATOM      9  C   UNL d   1       2.820  -0.281   5.995  0.00  0.00     0.009 C 
ENDBRANCH   7   8
ENDBRANCH   1   7
TORSDOF 2
ENDMDL
