MODEL 1
REMARK minimizedAffinity 12.242013
REMARK minimizedRMSD -1
REMARK  2 active torsions:
REMARK  status: ('A' for Active; 'I' for Inactive)
REMARK    1  A    between atoms: C1_2  and  C2_3 
REMARK    2  A    between atoms: C2_3  and  C3_4 
ROOT
ATOM      1  C3  UNL d   1      -2.611  -1.090  -1.803  0.00  0.00    -0.075 A 
ATOM      2  C4  UNL d   1      -1.662  -1.160  -0.773  0.00  0.00     0.002 A 
ATOM      3  C5  UNL d   1      -0.969  -2.346  -0.528  0.00  0.00     0.002 A 
ATOM      4  C6  UNL d   1      -1.222  -3.477  -1.302  0.00  0.00    -0.004 A 
ATOM      5  C7  UNL d   1      -2.175  -3.423  -2.317  0.00  0.00     0.002 A 
ATOM      6  C8  UNL d   1      -2.867  -2.237  -2.567  0.00  0.00     0.002 A 
ENDROOT
BRANCH   1   7
ATOM      7  C2  UNL d   1      -3.344   0.199  -2.091  0.00  0.00     0.056 C 
BRANCH   7   8
ATOM      8  C1  UNL d   1      -3.354   0.592  -3.572  0.00  0.00     0.007 C 
ATOM      9  C   UNL d   1      -2.591   1.879  -3.857  0.00  0.00     0.009 C 
ENDBRANCH   7   8
ENDBRANCH   1   7
TORSDOF 2
ENDMDL
