MODEL 1
REMARK minimizedAffinity 5.95866013
REMARK minimizedRMSD -1
REMARK  2 active torsions:
REMARK  status: ('A' for Active; 'I' for Inactive)
REMARK    1  A    between atoms: C1_2  and  C2_3 
REMARK    2  A    between atoms: C2_3  and  C3_4 
ROOT
ATOM      1  C3  UNL d   1       4.785   3.140   5.903  0.00  0.00    -0.075 A 
ATOM      2  C4  UNL d   1       5.994   3.849   5.892  0.00  0.00     0.002 A 
ATOM      3  C5  UNL d   1       5.998   5.243   5.945  0.00  0.00     0.002 A 
ATOM      4  C6  UNL d   1       4.796   5.945   5.999  0.00  0.00    -0.004 A 
ATOM      5  C7  UNL d   1       3.588   5.251   5.995  0.00  0.00     0.002 A 
ATOM      6  C8  UNL d   1       3.581   3.856   5.947  0.00  0.00     0.002 A 
ENDROOT
BRANCH   1   7
ATOM      7  C2  UNL d   1       4.774   1.630   5.876  0.00  0.00     0.056 C 
BRANCH   7   8
ATOM      8  C1  UNL d   1       3.373   1.014   5.961  0.00  0.00     0.007 C 
ATOM      9  C   UNL d   1       3.384  -0.508   5.933  0.00  0.00     0.009 C 
ENDBRANCH   7   8
ENDBRANCH   1   7
TORSDOF 2
ENDMDL
