MODEL 1
REMARK minimizedAffinity 4.75526953
REMARK minimizedRMSD -1
REMARK  2 active torsions:
REMARK  status: ('A' for Active; 'I' for Inactive)
REMARK    1  A    between atoms: C1_2  and  C2_3 
REMARK    2  A    between atoms: C2_3  and  C3_4 
ROOT
ATOM      1  C3  UNL d   1       4.365   3.735   4.463  0.00  0.00    -0.075 A 
ATOM      2  C4  UNL d   1       3.382   4.365   5.239  0.00  0.00     0.002 A 
ATOM      3  C5  UNL d   1       3.694   5.493   5.999  0.00  0.00     0.002 A 
ATOM      4  C6  UNL d   1       4.992   5.999   6.000  0.00  0.00    -0.004 A 
ATOM      5  C7  UNL d   1       5.981   5.372   5.245  0.00  0.00     0.002 A 
ATOM      6  C8  UNL d   1       5.670   4.245   4.481  0.00  0.00     0.002 A 
ENDROOT
BRANCH   1   7
ATOM      7  C2  UNL d   1       4.028   2.532   3.616  0.00  0.00     0.056 C 
BRANCH   7   8
ATOM      8  C1  UNL d   1       4.587   2.595   2.190  0.00  0.00     0.007 C 
ATOM      9  C   UNL d   1       3.547   3.004   1.155  0.00  0.00     0.009 C 
ENDBRANCH   7   8
ENDBRANCH   1   7
TORSDOF 2
ENDMDL
