MODEL 1
REMARK minimizedAffinity 19.8556519
REMARK minimizedRMSD -1
REMARK  2 active torsions:
REMARK  status: ('A' for Active; 'I' for Inactive)
REMARK    1  A    between atoms: C1_2  and  C2_3 
REMARK    2  A    between atoms: C2_3  and  C3_4 
ROOT
ATOM      1  C3  UNL d   1      -2.663  -0.913  -2.614  0.00  0.00    -0.075 A 
ATOM      2  C4  UNL d   1      -2.675  -0.905  -1.212  0.00  0.00     0.002 A 
ATOM      3  C5  UNL d   1      -1.899  -1.814  -0.492  0.00  0.00     0.002 A 
ATOM      4  C6  UNL d   1      -1.111  -2.747  -1.163  0.00  0.00    -0.004 A 
ATOM      5  C7  UNL d   1      -1.104  -2.774  -2.556  0.00  0.00     0.002 A 
ATOM      6  C8  UNL d   1      -1.876  -1.863  -3.279  0.00  0.00     0.002 A 
ENDROOT
BRANCH   1   7
ATOM      7  C2  UNL d   1      -3.478   0.088  -3.399  0.00  0.00     0.056 C 
BRANCH   7   8
ATOM      8  C1  UNL d   1      -2.643   1.183  -4.070  0.00  0.00     0.007 C 
ATOM      9  C   UNL d   1      -3.037   2.589  -3.637  0.00  0.00     0.009 C 
ENDBRANCH   7   8
ENDBRANCH   1   7
TORSDOF 2
ENDMDL
