MODEL 1
REMARK minimizedAffinity 15.0440168
REMARK minimizedRMSD -1
REMARK  2 active torsions:
REMARK  status: ('A' for Active; 'I' for Inactive)
REMARK    1  A    between atoms: C1_2  and  C2_3 
REMARK    2  A    between atoms: C2_3  and  C3_4 
ROOT
ATOM      1  C3  UNL d   1      -2.872  -1.501  -0.303  0.00  0.00    -0.075 A 
ATOM      2  C4  UNL d   1      -1.776  -0.655  -0.078  0.00  0.00     0.002 A 
ATOM      3  C5  UNL d   1      -0.563  -0.878  -0.730  0.00  0.00     0.002 A 
ATOM      4  C6  UNL d   1      -0.427  -1.952  -1.606  0.00  0.00    -0.004 A 
ATOM      5  C7  UNL d   1      -1.504  -2.809  -1.825  0.00  0.00     0.002 A 
ATOM      6  C8  UNL d   1      -2.720  -2.586  -1.177  0.00  0.00     0.002 A 
ENDROOT
BRANCH   1   7
ATOM      7  C2  UNL d   1      -4.196  -1.248   0.377  0.00  0.00     0.056 C 
BRANCH   7   8
ATOM      8  C1  UNL d   1      -4.528  -2.250   1.488  0.00  0.00     0.007 C 
ATOM      9  C   UNL d   1      -6.000  -2.250   1.877  0.00  0.00     0.009 C 
ENDBRANCH   7   8
ENDBRANCH   1   7
TORSDOF 2
ENDMDL
