MODEL 1
REMARK minimizedAffinity 9.49319077
REMARK minimizedRMSD -1
REMARK  2 active torsions:
REMARK  status: ('A' for Active; 'I' for Inactive)
REMARK    1  A    between atoms: C1_2  and  C2_3 
REMARK    2  A    between atoms: C2_3  and  C3_4 
ROOT
ATOM      1  C3  UNL d   1       4.609   3.421   4.747  0.00  0.00    -0.075 A 
ATOM      2  C4  UNL d   1       5.864   4.038   4.855  0.00  0.00     0.002 A 
ATOM      3  C5  UNL d   1       5.994   5.277   5.482  0.00  0.00     0.002 A 
ATOM      4  C6  UNL d   1       4.871   5.920   5.999  0.00  0.00    -0.004 A 
ATOM      5  C7  UNL d   1       3.617   5.325   5.883  0.00  0.00     0.002 A 
ATOM      6  C8  UNL d   1       3.485   4.082   5.260  0.00  0.00     0.002 A 
ENDROOT
BRANCH   1   7
ATOM      7  C2  UNL d   1       4.467   2.066   4.096  0.00  0.00     0.056 C 
BRANCH   7   8
ATOM      8  C1  UNL d   1       5.035   1.995   2.675  0.00  0.00     0.007 C 
ATOM      9  C   UNL d   1       4.000   2.297   1.599  0.00  0.00     0.009 C 
ENDBRANCH   7   8
ENDBRANCH   1   7
TORSDOF 2
ENDMDL
