MODEL 1
REMARK minimizedAffinity 10.7568331
REMARK minimizedRMSD -1
REMARK  2 active torsions:
REMARK  status: ('A' for Active; 'I' for Inactive)
REMARK    1  A    between atoms: C1_2  and  C2_3 
REMARK    2  A    between atoms: C2_3  and  C3_4 
ROOT
ATOM      1  C3  UNL d   1       3.575   4.634   4.949  0.00  0.00    -0.075 A 
ATOM      2  C4  UNL d   1       4.864   5.147   4.743  0.00  0.00     0.002 A 
ATOM      3  C5  UNL d   1       5.986   4.343   4.939  0.00  0.00     0.002 A 
ATOM      4  C6  UNL d   1       5.836   3.021   5.353  0.00  0.00    -0.004 A 
ATOM      5  C7  UNL d   1       4.561   2.505   5.577  0.00  0.00     0.002 A 
ATOM      6  C8  UNL d   1       3.436   3.307   5.377  0.00  0.00     0.002 A 
ENDROOT
BRANCH   1   7
ATOM      7  C2  UNL d   1       2.355   5.490   4.710  0.00  0.00     0.056 C 
BRANCH   7   8
ATOM      8  C1  UNL d   1       1.677   5.983   5.993  0.00  0.00     0.007 C 
ATOM      9  C   UNL d   1       0.156   5.962   5.914  0.00  0.00     0.009 C 
ENDBRANCH   7   8
ENDBRANCH   1   7
TORSDOF 2
ENDMDL
