MODEL 1
REMARK minimizedAffinity 7.19829655
REMARK minimizedRMSD -1
REMARK  2 active torsions:
REMARK  status: ('A' for Active; 'I' for Inactive)
REMARK    1  A    between atoms: C1_2  and  C2_3 
REMARK    2  A    between atoms: C2_3  and  C3_4 
ROOT
ATOM      1  C3  UNL d   1      -1.362  -1.481  -0.235  0.00  0.00    -0.075 A 
ATOM      2  C4  UNL d   1      -0.694  -2.514   0.438  0.00  0.00     0.002 A 
ATOM      3  C5  UNL d   1      -1.332  -3.225   1.455  0.00  0.00     0.002 A 
ATOM      4  C6  UNL d   1      -2.639  -2.907   1.817  0.00  0.00    -0.004 A 
ATOM      5  C7  UNL d   1      -3.307  -1.872   1.166  0.00  0.00     0.002 A 
ATOM      6  C8  UNL d   1      -2.672  -1.161   0.146  0.00  0.00     0.002 A 
ENDROOT
BRANCH   1   7
ATOM      7  C2  UNL d   1      -0.687  -0.726  -1.356  0.00  0.00     0.056 C 
BRANCH   7   8
ATOM      8  C1  UNL d   1      -1.373  -0.887  -2.717  0.00  0.00     0.007 C 
ATOM      9  C   UNL d   1      -0.642  -1.845  -3.648  0.00  0.00     0.009 C 
ENDBRANCH   7   8
ENDBRANCH   1   7
TORSDOF 2
ENDMDL
