MODEL 1
REMARK minimizedAffinity 10.7940121
REMARK minimizedRMSD -1
REMARK  2 active torsions:
REMARK  status: ('A' for Active; 'I' for Inactive)
REMARK    1  A    between atoms: C1_2  and  C2_3 
REMARK    2  A    between atoms: C2_3  and  C3_4 
ROOT
ATOM      1  C3  UNL d   1       4.562   4.090   3.895  0.00  0.00    -0.075 A 
ATOM      2  C4  UNL d   1       3.468   4.493   4.673  0.00  0.00     0.002 A 
ATOM      3  C5  UNL d   1       3.638   5.405   5.716  0.00  0.00     0.002 A 
ATOM      4  C6  UNL d   1       4.902   5.915   6.000  0.00  0.00    -0.004 A 
ATOM      5  C7  UNL d   1       6.000   5.508   5.244  0.00  0.00     0.002 A 
ATOM      6  C8  UNL d   1       5.832   4.600   4.197  0.00  0.00     0.002 A 
ENDROOT
BRANCH   1   7
ATOM      7  C2  UNL d   1       4.380   3.126   2.746  0.00  0.00     0.056 C 
BRANCH   7   8
ATOM      8  C1  UNL d   1       3.526   3.678   1.599  0.00  0.00     0.007 C 
ATOM      9  C   UNL d   1       4.090   3.354   0.222  0.00  0.00     0.009 C 
ENDBRANCH   7   8
ENDBRANCH   1   7
TORSDOF 2
ENDMDL
