MODEL 1
REMARK minimizedAffinity 3.87523174
REMARK minimizedRMSD -1
REMARK  2 active torsions:
REMARK  status: ('A' for Active; 'I' for Inactive)
REMARK    1  A    between atoms: C1_2  and  C2_3 
REMARK    2  A    between atoms: C2_3  and  C3_4 
ROOT
ATOM      1  C3  UNL d   1       4.173   3.746   4.291  0.00  0.00    -0.075 A 
ATOM      2  C4  UNL d   1       3.181   4.473   4.965  0.00  0.00     0.002 A 
ATOM      3  C5  UNL d   1       3.527   5.531   5.806  0.00  0.00     0.002 A 
ATOM      4  C6  UNL d   1       4.866   5.868   5.993  0.00  0.00    -0.004 A 
ATOM      5  C7  UNL d   1       5.860   5.141   5.342  0.00  0.00     0.002 A 
ATOM      6  C8  UNL d   1       5.517   4.085   4.496  0.00  0.00     0.002 A 
ENDROOT
BRANCH   1   7
ATOM      7  C2  UNL d   1       3.804   2.619   3.356  0.00  0.00     0.056 C 
BRANCH   7   8
ATOM      8  C1  UNL d   1       4.537   2.659   2.012  0.00  0.00     0.007 C 
ATOM      9  C   UNL d   1       3.600   2.821   0.822  0.00  0.00     0.009 C 
ENDBRANCH   7   8
ENDBRANCH   1   7
TORSDOF 2
ENDMDL
