MODEL 1
REMARK minimizedAffinity 14.2162704
REMARK minimizedRMSD -1
REMARK  2 active torsions:
REMARK  status: ('A' for Active; 'I' for Inactive)
REMARK    1  A    between atoms: C1_2  and  C2_3 
REMARK    2  A    between atoms: C2_3  and  C3_4 
ROOT
ATOM      1  C3  UNL d   1       3.332   1.731  -1.238  0.00  0.00    -0.075 A 
ATOM      2  C4  UNL d   1       4.655   1.820  -0.779  0.00  0.00     0.002 A 
ATOM      3  C5  UNL d   1       4.959   2.561   0.363  0.00  0.00     0.002 A 
ATOM      4  C6  UNL d   1       3.950   3.229   1.054  0.00  0.00    -0.004 A 
ATOM      5  C7  UNL d   1       2.636   3.161   0.597  0.00  0.00     0.002 A 
ATOM      6  C8  UNL d   1       2.328   2.417  -0.543  0.00  0.00     0.002 A 
ENDROOT
BRANCH   1   7
ATOM      7  C2  UNL d   1       2.992   0.907  -2.457  0.00  0.00     0.056 C 
BRANCH   7   8
ATOM      8  C1  UNL d   1       2.425  -0.479  -2.134  0.00  0.00     0.007 C 
ATOM      9  C   UNL d   1       0.903  -0.523  -2.144  0.00  0.00     0.009 C 
ENDBRANCH   7   8
ENDBRANCH   1   7
TORSDOF 2
ENDMDL
