MODEL 1
REMARK minimizedAffinity 23.109169
REMARK minimizedRMSD -1
REMARK  2 active torsions:
REMARK  status: ('A' for Active; 'I' for Inactive)
REMARK    1  A    between atoms: C1_2  and  C2_3 
REMARK    2  A    between atoms: C2_3  and  C3_4 
ROOT
ATOM      1  C3  UNL d   1       1.133  -0.476  -1.873  0.00  0.00    -0.075 A 
ATOM      2  C4  UNL d   1       0.502  -0.970  -3.024  0.00  0.00     0.002 A 
ATOM      3  C5  UNL d   1      -0.718  -1.642  -2.930  0.00  0.00     0.002 A 
ATOM      4  C6  UNL d   1      -1.316  -1.836  -1.687  0.00  0.00    -0.004 A 
ATOM      5  C7  UNL d   1      -0.690  -1.364  -0.536  0.00  0.00     0.002 A 
ATOM      6  C8  UNL d   1       0.528  -0.688  -0.627  0.00  0.00     0.002 A 
ENDROOT
BRANCH   1   7
ATOM      7  C2  UNL d   1       2.438   0.277  -1.971  0.00  0.00     0.056 C 
BRANCH   7   8
ATOM      8  C1  UNL d   1       3.681  -0.612  -1.856  0.00  0.00     0.007 C 
ATOM      9  C   UNL d   1       4.605  -0.510  -3.062  0.00  0.00     0.009 C 
ENDBRANCH   7   8
ENDBRANCH   1   7
TORSDOF 2
ENDMDL
