MODEL 1
REMARK minimizedAffinity 13.5160818
REMARK minimizedRMSD -1
REMARK  2 active torsions:
REMARK  status: ('A' for Active; 'I' for Inactive)
REMARK    1  A    between atoms: C1_2  and  C2_3 
REMARK    2  A    between atoms: C2_3  and  C3_4 
ROOT
ATOM      1  C3  UNL d   1       5.272   3.685   3.723  0.00  0.00    -0.075 A 
ATOM      2  C4  UNL d   1       4.546   3.313   4.864  0.00  0.00     0.002 A 
ATOM      3  C5  UNL d   1       4.530   4.132   5.992  0.00  0.00     0.002 A 
ATOM      4  C6  UNL d   1       5.246   5.327   6.000  0.00  0.00    -0.004 A 
ATOM      5  C7  UNL d   1       5.984   5.699   4.879  0.00  0.00     0.002 A 
ATOM      6  C8  UNL d   1       5.999   4.883   3.746  0.00  0.00     0.002 A 
ENDROOT
BRANCH   1   7
ATOM      7  C2  UNL d   1       5.270   2.817   2.488  0.00  0.00     0.056 C 
BRANCH   7   8
ATOM      8  C1  UNL d   1       4.474   3.402   1.316  0.00  0.00     0.007 C 
ATOM      9  C   UNL d   1       4.598   2.583   0.038  0.00  0.00     0.009 C 
ENDBRANCH   7   8
ENDBRANCH   1   7
TORSDOF 2
ENDMDL
