MODEL 1
REMARK minimizedAffinity 2.55625582
REMARK minimizedRMSD -1
REMARK  1 active torsions:
REMARK  status: ('A' for Active; 'I' for Inactive)
REMARK    1  A    between atoms: C3_4  and  O_7 
ROOT
ATOM      1  C   UNL d   1       1.160  -3.888   0.656  0.00  0.00    -0.033 A 
ATOM      2  C1  UNL d   1       0.512  -2.654   0.579  0.00  0.00     0.039 A 
ATOM      3  C2  UNL d   1       0.609  -1.745   1.634  0.00  0.00    -0.080 A 
ATOM      4  C3  UNL d   1       1.359  -2.081   2.758  0.00  0.00     0.150 A 
ATOM      5  C4  UNL d   1       2.011  -3.307   2.840  0.00  0.00    -0.007 A 
ATOM      6  C5  UNL d   1       1.911  -4.214   1.785  0.00  0.00     0.039 A 
ENDROOT
BRANCH   4   7
ATOM      7  O   UNL d   1       1.480  -1.229   3.815  0.00  0.00    -0.526 OA
ATOM      8  H5  UNL d   1       0.953  -0.433   3.631  0.00  0.00     0.418 HD
ENDBRANCH   4   7
TORSDOF 1
ENDMDL
