MODEL 1
REMARK minimizedAffinity 0.76884079
REMARK minimizedRMSD -1
REMARK  1 active torsions:
REMARK  status: ('A' for Active; 'I' for Inactive)
REMARK    1  A    between atoms: C3_4  and  O_7 
ROOT
ATOM      1  C   UNL d   1       1.985  -1.921   3.741  0.00  0.00    -0.033 A 
ATOM      2  C1  UNL d   1       2.274  -2.962   4.625  0.00  0.00     0.039 A 
ATOM      3  C2  UNL d   1       3.548  -3.070   5.187  0.00  0.00    -0.080 A 
ATOM      4  C3  UNL d   1       4.522  -2.131   4.858  0.00  0.00     0.150 A 
ATOM      5  C4  UNL d   1       4.239  -1.089   3.981  0.00  0.00    -0.007 A 
ATOM      6  C5  UNL d   1       2.967  -0.983   3.420  0.00  0.00     0.039 A 
ENDROOT
BRANCH   4   7
ATOM      7  O   UNL d   1       5.781  -2.198   5.377  0.00  0.00    -0.526 OA
ATOM      8  H5  UNL d   1       5.839  -2.985   5.943  0.00  0.00     0.418 HD
ENDBRANCH   4   7
TORSDOF 1
ENDMDL
