MODEL 1
REMARK minimizedAffinity 2.14301229
REMARK minimizedRMSD -1
REMARK  1 active torsions:
REMARK  status: ('A' for Active; 'I' for Inactive)
REMARK    1  A    between atoms: C3_4  and  O_7 
ROOT
ATOM      1  C   UNL d   1       1.639  -2.591   4.900  0.00  0.00    -0.033 A 
ATOM      2  C1  UNL d   1       2.418  -2.976   5.993  0.00  0.00     0.039 A 
ATOM      3  C2  UNL d   1       3.790  -2.719   6.000  0.00  0.00    -0.080 A 
ATOM      4  C3  UNL d   1       4.371  -2.077   4.910  0.00  0.00     0.150 A 
ATOM      5  C4  UNL d   1       3.600  -1.688   3.819  0.00  0.00    -0.007 A 
ATOM      6  C5  UNL d   1       2.230  -1.946   3.813  0.00  0.00     0.039 A 
ENDROOT
BRANCH   4   7
ATOM      7  O   UNL d   1       5.707  -1.809   4.869  0.00  0.00    -0.526 OA
ATOM      8  H5  UNL d   1       6.116  -2.161   5.677  0.00  0.00     0.418 HD
ENDBRANCH   4   7
TORSDOF 1
ENDMDL
