MODEL 1
REMARK minimizedAffinity 3.51218963
REMARK minimizedRMSD -1
REMARK  1 active torsions:
REMARK  status: ('A' for Active; 'I' for Inactive)
REMARK    1  A    between atoms: C3_4  and  O_7 
ROOT
ATOM      1  C   UNL d   1       1.706  -1.586   3.590  0.00  0.00    -0.033 A 
ATOM      2  C1  UNL d   1       2.306  -2.491   4.467  0.00  0.00     0.039 A 
ATOM      3  C2  UNL d   1       3.690  -2.676   4.443  0.00  0.00    -0.080 A 
ATOM      4  C3  UNL d   1       4.461  -1.950   3.540  0.00  0.00     0.150 A 
ATOM      5  C4  UNL d   1       3.870  -1.043   2.666  0.00  0.00    -0.007 A 
ATOM      6  C5  UNL d   1       2.488  -0.860   2.690  0.00  0.00     0.039 A 
ENDROOT
BRANCH   4   7
ATOM      7  O   UNL d   1       5.815  -2.099   3.477  0.00  0.00    -0.526 OA
ATOM      8  H5  UNL d   1       6.079  -2.779   4.118  0.00  0.00     0.418 HD
ENDBRANCH   4   7
TORSDOF 1
ENDMDL
