MODEL 1
REMARK minimizedAffinity 4.89592648
REMARK minimizedRMSD -1
REMARK  1 active torsions:
REMARK  status: ('A' for Active; 'I' for Inactive)
REMARK    1  A    between atoms: C3_4  and  O_7 
ROOT
ATOM      1  C   UNL d   1       2.740  -2.950   4.954  0.00  0.00    -0.033 A 
ATOM      2  C1  UNL d   1       1.500  -2.552   4.452  0.00  0.00     0.039 A 
ATOM      3  C2  UNL d   1       1.398  -1.399   3.671  0.00  0.00    -0.080 A 
ATOM      4  C3  UNL d   1       2.543  -0.655   3.399  0.00  0.00     0.150 A 
ATOM      5  C4  UNL d   1       3.783  -1.049   3.893  0.00  0.00    -0.007 A 
ATOM      6  C5  UNL d   1       3.882  -2.200   4.673  0.00  0.00     0.039 A 
ENDROOT
BRANCH   4   7
ATOM      7  O   UNL d   1       2.493   0.480   2.645  0.00  0.00    -0.526 OA
ATOM      8  H5  UNL d   1       1.568   0.644   2.397  0.00  0.00     0.418 HD
ENDBRANCH   4   7
TORSDOF 1
ENDMDL
