MODEL 1
REMARK minimizedAffinity 3.0707202
REMARK minimizedRMSD -1
REMARK  1 active torsions:
REMARK  status: ('A' for Active; 'I' for Inactive)
REMARK    1  A    between atoms: C3_4  and  O_7 
ROOT
ATOM      1  C   UNL d   1       2.112  -0.354   2.347  0.00  0.00    -0.033 A 
ATOM      2  C1  UNL d   1       3.241   0.255   1.796  0.00  0.00     0.039 A 
ATOM      3  C2  UNL d   1       4.513  -0.253   2.067  0.00  0.00    -0.080 A 
ATOM      4  C3  UNL d   1       4.642  -1.369   2.888  0.00  0.00     0.150 A 
ATOM      5  C4  UNL d   1       3.522  -1.984   3.437  0.00  0.00    -0.007 A 
ATOM      6  C5  UNL d   1       2.253  -1.475   3.167  0.00  0.00     0.039 A 
ENDROOT
BRANCH   4   7
ATOM      7  O   UNL d   1       5.863  -1.898   3.184  0.00  0.00    -0.526 OA
ATOM      8  H5  UNL d   1       6.546  -1.353   2.759  0.00  0.00     0.418 HD
ENDBRANCH   4   7
TORSDOF 1
ENDMDL
