MODEL 1
REMARK minimizedAffinity 3.26416707
REMARK minimizedRMSD -1
REMARK  1 active torsions:
REMARK  status: ('A' for Active; 'I' for Inactive)
REMARK    1  A    between atoms: C3_4  and  O_7 
ROOT
ATOM      1  C   UNL d   1      -5.912   2.117  -3.145  0.00  0.00    -0.033 A 
ATOM      2  C1  UNL d   1      -5.774   2.439  -4.497  0.00  0.00     0.039 A 
ATOM      3  C2  UNL d   1      -5.719   1.426  -5.456  0.00  0.00    -0.080 A 
ATOM      4  C3  UNL d   1      -5.804   0.097  -5.051  0.00  0.00     0.150 A 
ATOM      5  C4  UNL d   1      -5.946  -0.231  -3.707  0.00  0.00    -0.007 A 
ATOM      6  C5  UNL d   1      -6.000   0.782  -2.751  0.00  0.00     0.039 A 
ENDROOT
BRANCH   4   7
ATOM      7  O   UNL d   1      -5.750  -0.927  -5.950  0.00  0.00    -0.526 OA
ATOM      8  H5  UNL d   1      -5.621  -0.551  -6.837  0.00  0.00     0.418 HD
ENDBRANCH   4   7
TORSDOF 1
ENDMDL
