MODEL 1
REMARK minimizedAffinity 3.84415913
REMARK minimizedRMSD -1
REMARK  1 active torsions:
REMARK  status: ('A' for Active; 'I' for Inactive)
REMARK    1  A    between atoms: C3_4  and  O_7 
ROOT
ATOM      1  C   UNL d   1       1.766  -2.194   4.132  0.00  0.00    -0.033 A 
ATOM      2  C1  UNL d   1       2.120  -2.864   5.305  0.00  0.00     0.039 A 
ATOM      3  C2  UNL d   1       3.453  -2.897   5.718  0.00  0.00    -0.080 A 
ATOM      4  C3  UNL d   1       4.422  -2.256   4.951  0.00  0.00     0.150 A 
ATOM      5  C4  UNL d   1       4.076  -1.583   3.784  0.00  0.00    -0.007 A 
ATOM      6  C5  UNL d   1       2.745  -1.552   3.373  0.00  0.00     0.039 A 
ENDROOT
BRANCH   4   7
ATOM      7  O   UNL d   1       5.737  -2.265   5.311  0.00  0.00    -0.526 OA
ATOM      8  H5  UNL d   1       5.830  -2.792   6.122  0.00  0.00     0.418 HD
ENDBRANCH   4   7
TORSDOF 1
ENDMDL
