MODEL 1
REMARK minimizedAffinity 1.97250593
REMARK minimizedRMSD -1
REMARK  2 active torsions:
REMARK  status: ('A' for Active; 'I' for Inactive)
REMARK    1  A    between atoms: C2'_3  and  C1'_4 
REMARK    2  A    between atoms: C1'_4  and  C1_5 
ROOT
ATOM      1  C1  I4B d   1      -1.158   2.304  -2.367  0.00  0.00    -0.075 A 
ATOM      2  C2  I4B d   1      -1.023   2.500  -1.016  0.00  0.00     0.003 A 
ATOM      3  C3  I4B d   1      -1.859   1.808  -0.107  0.00  0.00     0.002 A 
ATOM      4  C4  I4B d   1      -2.844   0.972  -0.592  0.00  0.00    -0.004 A 
ATOM      5  C5  I4B d   1      -2.965   0.756  -1.962  0.00  0.00     0.002 A 
ATOM      6  C6  I4B d   1      -2.109   1.416  -2.855  0.00  0.00     0.003 A 
ENDROOT
BRANCH   1   7
ATOM      7  C1' I4B d   1      -0.280   3.076  -3.300  0.00  0.00     0.060 C 
BRANCH   7   8
ATOM      8  C2' I4B d   1       0.902   3.594  -2.507  0.00  0.00    -0.013 C 
ATOM      9  C4' I4B d   1       2.189   2.966  -2.973  0.00  0.00     0.013 C 
ATOM     10  C3' I4B d   1       0.943   5.086  -2.656  0.00  0.00     0.013 C 
ENDBRANCH   7   8
ENDBRANCH   1   7
TORSDOF 2
ENDMDL
