MODEL 1
REMARK minimizedAffinity 4.91750002
REMARK minimizedRMSD -1
REMARK  2 active torsions:
REMARK  status: ('A' for Active; 'I' for Inactive)
REMARK    1  A    between atoms: C2'_3  and  C1'_4 
REMARK    2  A    between atoms: C1'_4  and  C1_5 
ROOT
ATOM      1  C1  I4B d   1       1.123  -1.199   0.770  0.00  0.00    -0.075 A 
ATOM      2  C2  I4B d   1       0.046  -0.573   1.346  0.00  0.00     0.003 A 
ATOM      3  C3  I4B d   1      -1.260  -1.090   1.164  0.00  0.00     0.002 A 
ATOM      4  C4  I4B d   1      -1.447  -2.198   0.363  0.00  0.00    -0.004 A 
ATOM      5  C5  I4B d   1      -0.351  -2.845  -0.201  0.00  0.00     0.002 A 
ATOM      6  C6  I4B d   1       0.943  -2.350   0.013  0.00  0.00     0.003 A 
ENDROOT
BRANCH   1   7
ATOM      7  C1' I4B d   1       2.484  -0.607   0.955  0.00  0.00     0.060 C 
BRANCH   7   8
ATOM      8  C2' I4B d   1       3.370  -1.114  -0.164  0.00  0.00    -0.013 C 
ATOM      9  C4' I4B d   1       3.475  -0.105  -1.277  0.00  0.00     0.013 C 
ATOM     10  C3' I4B d   1       4.718  -1.422   0.416  0.00  0.00     0.013 C 
ENDBRANCH   7   8
ENDBRANCH   1   7
TORSDOF 2
ENDMDL
