MODEL 1
REMARK minimizedAffinity -2.06252098
REMARK minimizedRMSD -1
REMARK  2 active torsions:
REMARK  status: ('A' for Active; 'I' for Inactive)
REMARK    1  A    between atoms: C2'_3  and  C1'_4 
REMARK    2  A    between atoms: C1'_4  and  C1_5 
ROOT
ATOM      1  C1  I4B d   1       0.201  -1.750   0.685  0.00  0.00    -0.075 A 
ATOM      2  C2  I4B d   1       0.528  -2.960   0.127  0.00  0.00     0.003 A 
ATOM      3  C3  I4B d   1       1.859  -3.222  -0.277  0.00  0.00     0.002 A 
ATOM      4  C4  I4B d   1       2.815  -2.234  -0.153  0.00  0.00    -0.004 A 
ATOM      5  C5  I4B d   1       2.486  -1.016   0.434  0.00  0.00     0.002 A 
ATOM      6  C6  I4B d   1       1.174  -0.776   0.867  0.00  0.00     0.003 A 
ENDROOT
BRANCH   1   7
ATOM      7  C1' I4B d   1      -1.222  -1.495   1.071  0.00  0.00     0.060 C 
BRANCH   7   8
ATOM      8  C2' I4B d   1      -1.357  -0.024   1.411  0.00  0.00    -0.013 C 
ATOM      9  C4' I4B d   1      -2.567   0.580   0.748  0.00  0.00     0.013 C 
ATOM     10  C3' I4B d   1      -1.438   0.101   2.903  0.00  0.00     0.013 C 
ENDBRANCH   7   8
ENDBRANCH   1   7
TORSDOF 2
ENDMDL
