MODEL 1
REMARK minimizedAffinity 8.1064682
REMARK minimizedRMSD -1
REMARK  2 active torsions:
REMARK  status: ('A' for Active; 'I' for Inactive)
REMARK    1  A    between atoms: C2'_3  and  C1'_4 
REMARK    2  A    between atoms: C1'_4  and  C1_5 
ROOT
ATOM      1  C1  I4B d   1       0.695  -0.437   1.598  0.00  0.00    -0.075 A 
ATOM      2  C2  I4B d   1       0.780  -0.705   2.941  0.00  0.00     0.003 A 
ATOM      3  C3  I4B d   1       2.037  -0.692   3.592  0.00  0.00     0.002 A 
ATOM      4  C4  I4B d   1       3.181  -0.457   2.857  0.00  0.00    -0.004 A 
ATOM      5  C5  I4B d   1       3.090  -0.162   1.500  0.00  0.00     0.002 A 
ATOM      6  C6  I4B d   1       1.838  -0.140   0.868  0.00  0.00     0.003 A 
ENDROOT
BRANCH   1   7
ATOM      7  C1' I4B d   1      -0.646  -0.492   0.936  0.00  0.00     0.060 C 
BRANCH   7   8
ATOM      8  C2' I4B d   1      -0.645  -1.666  -0.022  0.00  0.00    -0.013 C 
ATOM      9  C4' I4B d   1      -0.067  -1.279  -1.358  0.00  0.00     0.013 C 
ATOM     10  C3' I4B d   1       0.141  -2.777   0.608  0.00  0.00     0.013 C 
ENDBRANCH   7   8
ENDBRANCH   1   7
TORSDOF 2
ENDMDL
