MODEL 1
REMARK minimizedAffinity 4.40250778
REMARK minimizedRMSD -1
REMARK  2 active torsions:
REMARK  status: ('A' for Active; 'I' for Inactive)
REMARK    1  A    between atoms: C2'_3  and  C1'_4 
REMARK    2  A    between atoms: C1'_4  and  C1_5 
ROOT
ATOM      1  C1  I4B d   1       0.399  -2.164   0.815  0.00  0.00    -0.075 A 
ATOM      2  C2  I4B d   1      -0.935  -1.998   0.540  0.00  0.00     0.003 A 
ATOM      3  C3  I4B d   1      -1.493  -0.698   0.472  0.00  0.00     0.002 A 
ATOM      4  C4  I4B d   1      -0.696   0.397   0.734  0.00  0.00    -0.004 A 
ATOM      5  C5  I4B d   1       0.662   0.228   0.990  0.00  0.00     0.002 A 
ATOM      6  C6  I4B d   1       1.216  -1.060   1.019  0.00  0.00     0.003 A 
ENDROOT
BRANCH   1   7
ATOM      7  C1' I4B d   1       0.948  -3.553   0.911  0.00  0.00     0.060 C 
BRANCH   7   8
ATOM      8  C2' I4B d   1       1.533  -3.918  -0.437  0.00  0.00    -0.013 C 
ATOM      9  C4' I4B d   1       2.721  -4.831  -0.286  0.00  0.00     0.013 C 
ATOM     10  C3' I4B d   1       0.453  -4.565  -1.251  0.00  0.00     0.013 C 
ENDBRANCH   7   8
ENDBRANCH   1   7
TORSDOF 2
ENDMDL
