MODEL 1
REMARK minimizedAffinity -0.104688838
REMARK minimizedRMSD -1
REMARK  2 active torsions:
REMARK  status: ('A' for Active; 'I' for Inactive)
REMARK    1  A    between atoms: C2'_3  and  C1'_4 
REMARK    2  A    between atoms: C1'_4  and  C1_5 
ROOT
ATOM      1  C1  I4B d   1       1.150  -2.741   0.059  0.00  0.00    -0.075 A 
ATOM      2  C2  I4B d   1      -0.160  -2.852   0.453  0.00  0.00     0.003 A 
ATOM      3  C3  I4B d   1      -0.911  -1.694   0.768  0.00  0.00     0.002 A 
ATOM      4  C4  I4B d   1      -0.301  -0.457   0.725  0.00  0.00    -0.004 A 
ATOM      5  C5  I4B d   1       1.020  -0.343   0.302  0.00  0.00     0.002 A 
ATOM      6  C6  I4B d   1       1.747  -1.491  -0.045  0.00  0.00     0.003 A 
ENDROOT
BRANCH   1   7
ATOM      7  C1' I4B d   1       1.923  -3.987  -0.235  0.00  0.00     0.060 C 
BRANCH   7   8
ATOM      8  C2' I4B d   1       3.336  -3.584  -0.606  0.00  0.00    -0.013 C 
ATOM      9  C4' I4B d   1       3.790  -2.391   0.194  0.00  0.00     0.013 C 
ATOM     10  C3' I4B d   1       4.231  -4.764  -0.373  0.00  0.00     0.013 C 
ENDBRANCH   7   8
ENDBRANCH   1   7
TORSDOF 2
ENDMDL
