MODEL 1
REMARK minimizedAffinity 3.01503015
REMARK minimizedRMSD -1
REMARK  2 active torsions:
REMARK  status: ('A' for Active; 'I' for Inactive)
REMARK    1  A    between atoms: C2'_3  and  C1'_4 
REMARK    2  A    between atoms: C1'_4  and  C1_5 
ROOT
ATOM      1  C1  I4B d   1       1.052  -1.211  -0.273  0.00  0.00    -0.075 A 
ATOM      2  C2  I4B d   1      -0.013  -1.030   0.573  0.00  0.00     0.003 A 
ATOM      3  C3  I4B d   1       0.150  -0.307   1.780  0.00  0.00     0.002 A 
ATOM      4  C4  I4B d   1       1.399   0.171   2.122  0.00  0.00    -0.004 A 
ATOM      5  C5  I4B d   1       2.472   0.006   1.252  0.00  0.00     0.002 A 
ATOM      6  C6  I4B d   1       2.296  -0.679   0.041  0.00  0.00     0.003 A 
ENDROOT
BRANCH   1   7
ATOM      7  C1' I4B d   1       0.852  -2.008  -1.523  0.00  0.00     0.060 C 
BRANCH   7   8
ATOM      8  C2' I4B d   1       1.010  -3.474  -1.173  0.00  0.00    -0.013 C 
ATOM      9  C4' I4B d   1       2.439  -3.800  -0.826  0.00  0.00     0.013 C 
ATOM     10  C3' I4B d   1       0.092  -3.777  -0.027  0.00  0.00     0.013 C 
ENDBRANCH   7   8
ENDBRANCH   1   7
TORSDOF 2
ENDMDL
