MODEL 1
REMARK minimizedAffinity 14.1904173
REMARK minimizedRMSD -1
REMARK  2 active torsions:
REMARK  status: ('A' for Active; 'I' for Inactive)
REMARK    1  A    between atoms: C2'_3  and  C1'_4 
REMARK    2  A    between atoms: C1'_4  and  C1_5 
ROOT
ATOM      1  C1  I4B d   1       3.582   2.407  -2.668  0.00  0.00    -0.075 A 
ATOM      2  C2  I4B d   1       3.868   1.065  -2.698  0.00  0.00     0.003 A 
ATOM      3  C3  I4B d   1       3.107   0.191  -3.511  0.00  0.00     0.002 A 
ATOM      4  C4  I4B d   1       2.043   0.691  -4.234  0.00  0.00    -0.004 A 
ATOM      5  C5  I4B d   1       1.768   2.055  -4.221  0.00  0.00     0.002 A 
ATOM      6  C6  I4B d   1       2.550   2.921  -3.443  0.00  0.00     0.003 A 
ENDROOT
BRANCH   1   7
ATOM      7  C1' I4B d   1       4.385   3.296  -1.773  0.00  0.00     0.060 C 
BRANCH   7   8
ATOM      8  C2' I4B d   1       3.440   4.296  -1.138  0.00  0.00    -0.013 C 
ATOM      9  C4' I4B d   1       3.625   4.348   0.355  0.00  0.00     0.013 C 
ATOM     10  C3' I4B d   1       3.696   5.636  -1.762  0.00  0.00     0.013 C 
ENDBRANCH   7   8
ENDBRANCH   1   7
TORSDOF 2
ENDMDL
