MODEL 1
REMARK minimizedAffinity -0.515512347
REMARK minimizedRMSD -1
REMARK  2 active torsions:
REMARK  status: ('A' for Active; 'I' for Inactive)
REMARK    1  A    between atoms: C2'_3  and  C1'_4 
REMARK    2  A    between atoms: C1'_4  and  C1_5 
ROOT
ATOM      1  C1  I4B d   1      -0.481  -1.338   0.881  0.00  0.00    -0.075 A 
ATOM      2  C2  I4B d   1      -0.443  -2.596   0.333  0.00  0.00     0.003 A 
ATOM      3  C3  I4B d   1       0.773  -3.118  -0.171  0.00  0.00     0.002 A 
ATOM      4  C4  I4B d   1       1.909  -2.334  -0.152  0.00  0.00    -0.004 A 
ATOM      5  C5  I4B d   1       1.874  -1.068   0.425  0.00  0.00     0.002 A 
ATOM      6  C6  I4B d   1       0.675  -0.571   0.956  0.00  0.00     0.003 A 
ENDROOT
BRANCH   1   7
ATOM      7  C1' I4B d   1      -1.789  -0.806   1.373  0.00  0.00     0.060 C 
BRANCH   7   8
ATOM      8  C2' I4B d   1      -1.838   0.676   1.059  0.00  0.00    -0.013 C 
ATOM      9  C4' I4B d   1      -3.166   1.063   0.463  0.00  0.00     0.013 C 
ATOM     10  C3' I4B d   1      -1.574   1.428   2.329  0.00  0.00     0.013 C 
ENDBRANCH   7   8
ENDBRANCH   1   7
TORSDOF 2
ENDMDL
