MODEL 1
REMARK minimizedAffinity -1.49694061
REMARK minimizedRMSD -1
REMARK  2 active torsions:
REMARK  status: ('A' for Active; 'I' for Inactive)
REMARK    1  A    between atoms: C2'_3  and  C1'_4 
REMARK    2  A    between atoms: C1'_4  and  C1_5 
ROOT
ATOM      1  C1  I4B d   1       1.176  -2.446  -0.181  0.00  0.00    -0.075 A 
ATOM      2  C2  I4B d   1      -0.063  -2.741   0.329  0.00  0.00     0.003 A 
ATOM      3  C3  I4B d   1      -0.791  -1.760   1.046  0.00  0.00     0.002 A 
ATOM      4  C4  I4B d   1      -0.224  -0.522   1.270  0.00  0.00    -0.004 A 
ATOM      5  C5  I4B d   1       1.023  -0.218   0.732  0.00  0.00     0.002 A 
ATOM      6  C6  I4B d   1       1.723  -1.181  -0.008  0.00  0.00     0.003 A 
ENDROOT
BRANCH   1   7
ATOM      7  C1' I4B d   1       1.931  -3.516  -0.904  0.00  0.00     0.060 C 
BRANCH   7   8
ATOM      8  C2' I4B d   1       3.210  -3.785  -0.137  0.00  0.00    -0.013 C 
ATOM      9  C4' I4B d   1       3.938  -4.980  -0.692  0.00  0.00     0.013 C 
ATOM     10  C3' I4B d   1       4.061  -2.552  -0.209  0.00  0.00     0.013 C 
ENDBRANCH   7   8
ENDBRANCH   1   7
TORSDOF 2
ENDMDL
