MODEL 1
REMARK minimizedAffinity 2.56947422
REMARK minimizedRMSD -1
REMARK  2 active torsions:
REMARK  status: ('A' for Active; 'I' for Inactive)
REMARK    1  A    between atoms: C2'_3  and  C1'_4 
REMARK    2  A    between atoms: C1'_4  and  C1_5 
ROOT
ATOM      1  C1  I4B d   1       0.392  -1.220   1.584  0.00  0.00    -0.075 A 
ATOM      2  C2  I4B d   1       1.208  -0.620   0.657  0.00  0.00     0.003 A 
ATOM      3  C3  I4B d   1       1.298  -1.142  -0.657  0.00  0.00     0.002 A 
ATOM      4  C4  I4B d   1       0.599  -2.286  -0.983  0.00  0.00    -0.004 A 
ATOM      5  C5  I4B d   1      -0.245  -2.880  -0.049  0.00  0.00     0.002 A 
ATOM      6  C6  I4B d   1      -0.359  -2.337   1.239  0.00  0.00     0.003 A 
ENDROOT
BRANCH   1   7
ATOM      7  C1' I4B d   1       0.346  -0.663   2.971  0.00  0.00     0.060 C 
BRANCH   7   8
ATOM      8  C2' I4B d   1       1.510  -1.245   3.747  0.00  0.00    -0.013 C 
ATOM      9  C4' I4B d   1       1.320  -2.718   3.992  0.00  0.00     0.013 C 
ATOM     10  C3' I4B d   1       2.764  -0.983   2.966  0.00  0.00     0.013 C 
ENDBRANCH   7   8
ENDBRANCH   1   7
TORSDOF 2
ENDMDL
