MODEL 1
REMARK minimizedAffinity -5.25493193
REMARK minimizedRMSD -1
REMARK  0 active torsions:
REMARK  status: ('A' for Active; 'I' for Inactive)
ROOT
ATOM      1  C1  DEN d   1      -1.621  -1.692   0.709  0.00  0.00     0.130 A 
ATOM      2  C2  DEN d   1      -0.946  -0.703   1.545  0.00  0.00    -0.031 A 
ATOM      3  C3  DEN d   1       0.379  -0.433   0.954  0.00  0.00     0.027 A 
ATOM      4  C4  DEN d   1       1.446  -1.440  -1.168  0.00  0.00     0.027 A 
ATOM      5  C5  DEN d   1       1.261  -2.329  -2.203  0.00  0.00    -0.003 A 
ATOM      6  C6  DEN d   1       0.126  -3.087  -2.321  0.00  0.00     0.001 A 
ATOM      7  C7  DEN d   1      -0.888  -2.937  -1.412  0.00  0.00     0.017 A 
ATOM      8  C8  DEN d   1      -0.706  -2.048  -0.361  0.00  0.00    -0.094 A 
ATOM      9  C9  DEN d   1       0.444  -1.282  -0.266  0.00  0.00    -0.072 A 
ENDROOT
TORSDOF 0
ENDMDL
