MODEL 1
REMARK minimizedAffinity -2.06512308
REMARK minimizedRMSD -1
REMARK  0 active torsions:
REMARK  status: ('A' for Active; 'I' for Inactive)
ROOT
ATOM      1  C1  DEN d   1      -0.497  -2.959  -1.739  0.00  0.00     0.130 A 
ATOM      2  C2  DEN d   1       0.842  -3.270  -2.232  0.00  0.00    -0.031 A 
ATOM      3  C3  DEN d   1       1.801  -2.390  -1.534  0.00  0.00     0.027 A 
ATOM      4  C4  DEN d   1       1.346  -0.591   0.257  0.00  0.00     0.027 A 
ATOM      5  C5  DEN d   1       0.365   0.042   0.989  0.00  0.00    -0.003 A 
ATOM      6  C6  DEN d   1      -0.963  -0.255   0.840  0.00  0.00     0.001 A 
ATOM      7  C7  DEN d   1      -1.345  -1.242  -0.030  0.00  0.00     0.017 A 
ATOM      8  C8  DEN d   1      -0.363  -1.879  -0.777  0.00  0.00    -0.094 A 
ATOM      9  C9  DEN d   1       0.976  -1.573  -0.603  0.00  0.00    -0.072 A 
ENDROOT
TORSDOF 0
ENDMDL
