MODEL 1
REMARK minimizedAffinity -4.26796579
REMARK minimizedRMSD -1
REMARK  0 active torsions:
REMARK  status: ('A' for Active; 'I' for Inactive)
ROOT
ATOM      1  C1  DEN d   1       0.705  -2.883  -1.133  0.00  0.00     0.130 A 
ATOM      2  C2  DEN d   1       1.753  -2.265  -1.942  0.00  0.00    -0.031 A 
ATOM      3  C3  DEN d   1       1.829  -0.837  -1.576  0.00  0.00     0.027 A 
ATOM      4  C4  DEN d   1       0.439   0.471   0.159  0.00  0.00     0.027 A 
ATOM      5  C5  DEN d   1      -0.577   0.377   1.084  0.00  0.00    -0.003 A 
ATOM      6  C6  DEN d   1      -1.254  -0.792   1.309  0.00  0.00     0.001 A 
ATOM      7  C7  DEN d   1      -0.893  -1.926   0.631  0.00  0.00     0.017 A 
ATOM      8  C8  DEN d   1       0.126  -1.838  -0.308  0.00  0.00    -0.094 A 
ATOM      9  C9  DEN d   1       0.806  -0.650  -0.512  0.00  0.00    -0.072 A 
ENDROOT
TORSDOF 0
ENDMDL
