MODEL 1
REMARK minimizedAffinity -2.61217332
REMARK minimizedRMSD -1
REMARK  0 active torsions:
REMARK  status: ('A' for Active; 'I' for Inactive)
ROOT
ATOM      1  C1  DEN d   1      -0.982  -1.570   0.831  0.00  0.00     0.130 A 
ATOM      2  C2  DEN d   1      -0.534  -0.238   1.227  0.00  0.00    -0.031 A 
ATOM      3  C3  DEN d   1       0.469   0.218   0.243  0.00  0.00     0.027 A 
ATOM      4  C4  DEN d   1       1.363  -1.003  -1.846  0.00  0.00     0.027 A 
ATOM      5  C5  DEN d   1       1.289  -2.162  -2.586  0.00  0.00    -0.003 A 
ATOM      6  C6  DEN d   1       0.485  -3.210  -2.223  0.00  0.00     0.001 A 
ATOM      7  C7  DEN d   1      -0.312  -3.102  -1.114  0.00  0.00     0.017 A 
ATOM      8  C8  DEN d   1      -0.238  -1.939  -0.359  0.00  0.00    -0.094 A 
ATOM      9  C9  DEN d   1       0.572  -0.886  -0.749  0.00  0.00    -0.072 A 
ENDROOT
TORSDOF 0
ENDMDL
