MODEL 1
REMARK minimizedAffinity -3.20400119
REMARK minimizedRMSD -1
REMARK  0 active torsions:
REMARK  status: ('A' for Active; 'I' for Inactive)
ROOT
ATOM      1  C1  DEN d   1       1.444  -1.815  -2.031  0.00  0.00     0.130 A 
ATOM      2  C2  DEN d   1       0.505  -2.759  -2.630  0.00  0.00    -0.031 A 
ATOM      3  C3  DEN d   1      -0.705  -2.799  -1.785  0.00  0.00     0.027 A 
ATOM      4  C4  DEN d   1      -1.215  -1.493   0.380  0.00  0.00     0.027 A 
ATOM      5  C5  DEN d   1      -0.718  -0.580   1.284  0.00  0.00    -0.003 A 
ATOM      6  C6  DEN d   1       0.538  -0.046   1.167  0.00  0.00     0.001 A 
ATOM      7  C7  DEN d   1       1.322  -0.385   0.096  0.00  0.00     0.017 A 
ATOM      8  C8  DEN d   1       0.831  -1.310  -0.816  0.00  0.00    -0.094 A 
ATOM      9  C9  DEN d   1      -0.446  -1.830  -0.686  0.00  0.00    -0.072 A 
ENDROOT
TORSDOF 0
ENDMDL
