MODEL 1
REMARK minimizedAffinity -0.656197608
REMARK minimizedRMSD -1
REMARK  0 active torsions:
REMARK  status: ('A' for Active; 'I' for Inactive)
ROOT
ATOM      1  C1  DEN d   1      -0.127   1.789   0.388  0.00  0.00     0.130 A 
ATOM      2  C2  DEN d   1      -1.002   2.039   1.531  0.00  0.00    -0.031 A 
ATOM      3  C3  DEN d   1      -1.540   0.742   1.986  0.00  0.00     0.027 A 
ATOM      4  C4  DEN d   1      -1.102  -1.618   1.043  0.00  0.00     0.027 A 
ATOM      5  C5  DEN d   1      -0.439  -2.333   0.070  0.00  0.00    -0.003 A 
ATOM      6  C6  DEN d   1       0.341  -1.726  -0.878  0.00  0.00     0.001 A 
ATOM      7  C7  DEN d   1       0.514  -0.367  -0.846  0.00  0.00     0.017 A 
ATOM      8  C8  DEN d   1      -0.158   0.361   0.127  0.00  0.00    -0.094 A 
ATOM      9  C9  DEN d   1      -0.932  -0.273   1.084  0.00  0.00    -0.072 A 
ENDROOT
TORSDOF 0
ENDMDL
