MODEL 1
REMARK minimizedAffinity -0.473036736
REMARK minimizedRMSD -1
REMARK  0 active torsions:
REMARK  status: ('A' for Active; 'I' for Inactive)
ROOT
ATOM      1  C1  DEN d   1       1.403  -0.495  -0.268  0.00  0.00     0.130 A 
ATOM      2  C2  DEN d   1       0.965  -1.524  -1.207  0.00  0.00    -0.031 A 
ATOM      3  C3  DEN d   1      -0.474  -1.766  -0.981  0.00  0.00     0.027 A 
ATOM      4  C4  DEN d   1      -2.059  -0.650   0.720  0.00  0.00     0.027 A 
ATOM      5  C5  DEN d   1      -2.142   0.274   1.739  0.00  0.00    -0.003 A 
ATOM      6  C6  DEN d   1      -1.052   0.975   2.179  0.00  0.00     0.001 A 
ATOM      7  C7  DEN d   1       0.162   0.797   1.568  0.00  0.00     0.017 A 
ATOM      8  C8  DEN d   1       0.255  -0.138   0.546  0.00  0.00    -0.094 A 
ATOM      9  C9  DEN d   1      -0.862  -0.828   0.107  0.00  0.00    -0.072 A 
ENDROOT
TORSDOF 0
ENDMDL
