MODEL 1
REMARK minimizedAffinity -3.54864311
REMARK minimizedRMSD -1
REMARK  0 active torsions:
REMARK  status: ('A' for Active; 'I' for Inactive)
ROOT
ATOM      1  C1  DEN d   1       1.570  -1.973  -2.026  0.00  0.00     0.130 A 
ATOM      2  C2  DEN d   1       0.823  -3.186  -2.349  0.00  0.00    -0.031 A 
ATOM      3  C3  DEN d   1      -0.407  -3.196  -1.531  0.00  0.00     0.027 A 
ATOM      4  C4  DEN d   1      -1.225  -1.458   0.190  0.00  0.00     0.027 A 
ATOM      5  C5  DEN d   1      -0.924  -0.267   0.812  0.00  0.00    -0.003 A 
ATOM      6  C6  DEN d   1       0.236   0.417   0.559  0.00  0.00     0.001 A 
ATOM      7  C7  DEN d   1       1.117  -0.064  -0.374  0.00  0.00     0.017 A 
ATOM      8  C8  DEN d   1       0.824  -1.268  -0.999  0.00  0.00    -0.094 A 
ATOM      9  C9  DEN d   1      -0.360  -1.938  -0.739  0.00  0.00    -0.072 A 
ENDROOT
TORSDOF 0
ENDMDL
