MODEL 1
REMARK minimizedAffinity 0.287073165
REMARK minimizedRMSD -1
REMARK  0 active torsions:
REMARK  status: ('A' for Active; 'I' for Inactive)
ROOT
ATOM      1  C1  DEN d   1      -0.789  -1.381   1.156  0.00  0.00     0.130 A 
ATOM      2  C2  DEN d   1      -0.543   0.058   1.146  0.00  0.00    -0.031 A 
ATOM      3  C3  DEN d   1       0.239   0.380  -0.065  0.00  0.00     0.027 A 
ATOM      4  C4  DEN d   1       1.085  -1.202  -1.917  0.00  0.00     0.027 A 
ATOM      5  C5  DEN d   1       1.133  -2.513  -2.339  0.00  0.00    -0.003 A 
ATOM      6  C6  DEN d   1       0.579  -3.534  -1.614  0.00  0.00     0.001 A 
ATOM      7  C7  DEN d   1      -0.089  -3.256  -0.450  0.00  0.00     0.017 A 
ATOM      8  C8  DEN d   1      -0.135  -1.938  -0.015  0.00  0.00    -0.094 A 
ATOM      9  C9  DEN d   1       0.421  -0.918  -0.769  0.00  0.00    -0.072 A 
ENDROOT
TORSDOF 0
ENDMDL
