MODEL 1
REMARK minimizedAffinity -2.3889184
REMARK minimizedRMSD -1
REMARK  0 active torsions:
REMARK  status: ('A' for Active; 'I' for Inactive)
ROOT
ATOM      1  C1  DEN d   1       1.229  -2.472  -1.921  0.00  0.00     0.130 A 
ATOM      2  C2  DEN d   1       0.262  -3.453  -2.408  0.00  0.00    -0.031 A 
ATOM      3  C3  DEN d   1      -0.974  -3.309  -1.613  0.00  0.00     0.027 A 
ATOM      4  C4  DEN d   1      -1.484  -1.668   0.311  0.00  0.00     0.027 A 
ATOM      5  C5  DEN d   1      -0.969  -0.653   1.086  0.00  0.00    -0.003 A 
ATOM      6  C6  DEN d   1       0.315  -0.200   0.938  0.00  0.00     0.001 A 
ATOM      7  C7  DEN d   1       1.114  -0.732  -0.039  0.00  0.00     0.017 A 
ATOM      8  C8  DEN d   1       0.605  -1.761  -0.820  0.00  0.00    -0.094 A 
ATOM      9  C9  DEN d   1      -0.700  -2.197  -0.663  0.00  0.00    -0.072 A 
ENDROOT
TORSDOF 0
ENDMDL
