MODEL 1
REMARK minimizedAffinity -1.98070884
REMARK minimizedRMSD -1
REMARK  0 active torsions:
REMARK  status: ('A' for Active; 'I' for Inactive)
ROOT
ATOM      1  C1  DEN d   1       0.789  -0.944   0.543  0.00  0.00     0.130 A 
ATOM      2  C2  DEN d   1       0.198   0.348   0.205  0.00  0.00    -0.031 A 
ATOM      3  C3  DEN d   1      -0.094   0.351  -1.243  0.00  0.00     0.027 A 
ATOM      4  C4  DEN d   1       0.304  -1.511  -2.983  0.00  0.00     0.027 A 
ATOM      5  C5  DEN d   1       0.794  -2.785  -3.172  0.00  0.00    -0.003 A 
ATOM      6  C6  DEN d   1       1.343  -3.515  -2.151  0.00  0.00     0.001 A 
ATOM      7  C7  DEN d   1       1.374  -2.994  -0.884  0.00  0.00     0.017 A 
ATOM      8  C8  DEN d   1       0.889  -1.708  -0.687  0.00  0.00    -0.094 A 
ATOM      9  C9  DEN d   1       0.327  -0.991  -1.730  0.00  0.00    -0.072 A 
ENDROOT
TORSDOF 0
ENDMDL
