MODEL 1
REMARK minimizedAffinity -6.59133005
REMARK minimizedRMSD -1
REMARK  0 active torsions:
REMARK  status: ('A' for Active; 'I' for Inactive)
ROOT
ATOM      1  C1  DEN d   1       0.138   2.268  -1.208  0.00  0.00     0.130 A 
ATOM      2  C2  DEN d   1       0.737   1.172  -1.965  0.00  0.00    -0.031 A 
ATOM      3  C3  DEN d   1       0.627  -0.057  -1.153  0.00  0.00     0.027 A 
ATOM      4  C4  DEN d   1      -0.410  -0.367   1.188  0.00  0.00     0.027 A 
ATOM      5  C5  DEN d   1      -1.033   0.277   2.234  0.00  0.00    -0.003 A 
ATOM      6  C6  DEN d   1      -1.276   1.625   2.221  0.00  0.00     0.001 A 
ATOM      7  C7  DEN d   1      -0.935   2.365   1.121  0.00  0.00     0.017 A 
ATOM      8  C8  DEN d   1      -0.300   1.724   0.065  0.00  0.00    -0.094 A 
ATOM      9  C9  DEN d   1      -0.074   0.359   0.092  0.00  0.00    -0.072 A 
ENDROOT
TORSDOF 0
ENDMDL
