MODEL 1
REMARK minimizedAffinity -1.73881173
REMARK minimizedRMSD -1
REMARK  0 active torsions:
REMARK  status: ('A' for Active; 'I' for Inactive)
ROOT
ATOM      1  C1  DEN d   1       0.857   0.227  -0.678  0.00  0.00     0.130 A 
ATOM      2  C2  DEN d   1       0.684  -1.093  -0.079  0.00  0.00    -0.031 A 
ATOM      3  C3  DEN d   1      -0.071  -0.928   1.179  0.00  0.00     0.027 A 
ATOM      4  C4  DEN d   1      -0.988   1.232   2.250  0.00  0.00     0.027 A 
ATOM      5  C5  DEN d   1      -1.079   2.600   2.116  0.00  0.00    -0.003 A 
ATOM      6  C6  DEN d   1      -0.507   3.271   1.069  0.00  0.00     0.001 A 
ATOM      7  C7  DEN d   1       0.144   2.570   0.088  0.00  0.00     0.017 A 
ATOM      8  C8  DEN d   1       0.247   1.191   0.220  0.00  0.00    -0.094 A 
ATOM      9  C9  DEN d   1      -0.349   0.530   1.280  0.00  0.00    -0.072 A 
ENDROOT
TORSDOF 0
ENDMDL
