MODEL 1
REMARK minimizedAffinity -1.85923135
REMARK minimizedRMSD -1
REMARK  0 active torsions:
REMARK  status: ('A' for Active; 'I' for Inactive)
ROOT
ATOM      1  C1  DEN d   1       0.023   1.730   1.059  0.00  0.00     0.130 A 
ATOM      2  C2  DEN d   1      -1.095   1.739   1.999  0.00  0.00    -0.031 A 
ATOM      3  C3  DEN d   1      -1.759   0.422   1.931  0.00  0.00     0.027 A 
ATOM      4  C4  DEN d   1      -1.165  -1.622   0.474  0.00  0.00     0.027 A 
ATOM      5  C5  DEN d   1      -0.304  -2.102  -0.488  0.00  0.00    -0.003 A 
ATOM      6  C6  DEN d   1       0.696  -1.334  -1.022  0.00  0.00     0.001 A 
ATOM      7  C7  DEN d   1       0.889  -0.057  -0.564  0.00  0.00     0.017 A 
ATOM      8  C8  DEN d   1       0.021   0.437   0.400  0.00  0.00    -0.094 A 
ATOM      9  C9  DEN d   1      -0.976  -0.360   0.937  0.00  0.00    -0.072 A 
ENDROOT
TORSDOF 0
ENDMDL
