MODEL 1
REMARK minimizedAffinity -0.0325791948
REMARK minimizedRMSD -1
REMARK  2 active torsions:
REMARK  status: ('A' for Active; 'I' for Inactive)
REMARK    1  A    between atoms: C2'_3  and  C1'_4 
REMARK    2  A    between atoms: C1'_4  and  C1_5 
ROOT
ATOM      1  C1  I4B d   1      -0.722   3.510   0.785  0.00  0.00    -0.075 A 
ATOM      2  C2  I4B d   1      -1.518   4.565   0.412  0.00  0.00     0.003 A 
ATOM      3  C3  I4B d   1      -1.427   5.098  -0.896  0.00  0.00     0.002 A 
ATOM      4  C4  I4B d   1      -0.498   4.584  -1.777  0.00  0.00    -0.004 A 
ATOM      5  C5  I4B d   1       0.292   3.500  -1.405  0.00  0.00     0.002 A 
ATOM      6  C6  I4B d   1       0.171   2.951  -0.120  0.00  0.00     0.003 A 
ENDROOT
BRANCH   1   7
ATOM      7  C1' I4B d   1      -0.821   2.992   2.185  0.00  0.00     0.060 C 
BRANCH   7   8
ATOM      8  C2' I4B d   1       0.327   2.029   2.409  0.00  0.00    -0.013 C 
ATOM      9  C4' I4B d   1       1.635   2.762   2.544  0.00  0.00     0.013 C 
ATOM     10  C3' I4B d   1       0.025   1.227   3.640  0.00  0.00     0.013 C 
ENDBRANCH   7   8
ENDBRANCH   1   7
TORSDOF 2
ENDMDL
