MODEL 1
REMARK minimizedAffinity 5.14612865
REMARK minimizedRMSD -1
REMARK  2 active torsions:
REMARK  status: ('A' for Active; 'I' for Inactive)
REMARK    1  A    between atoms: C2'_3  and  C1'_4 
REMARK    2  A    between atoms: C1'_4  and  C1_5 
ROOT
ATOM      1  C1  I4B d   1      -0.155   4.445  -0.706  0.00  0.00    -0.075 A 
ATOM      2  C2  I4B d   1       0.010   4.077  -2.018  0.00  0.00     0.003 A 
ATOM      3  C3  I4B d   1      -0.774   4.680  -3.031  0.00  0.00     0.002 A 
ATOM      4  C4  I4B d   1      -1.739   5.604  -2.685  0.00  0.00    -0.004 A 
ATOM      5  C5  I4B d   1      -1.889   5.992  -1.357  0.00  0.00     0.002 A 
ATOM      6  C6  I4B d   1      -1.084   5.418  -0.362  0.00  0.00     0.003 A 
ENDROOT
BRANCH   1   7
ATOM      7  C1' I4B d   1       0.666   3.764   0.343  0.00  0.00     0.060 C 
BRANCH   7   8
ATOM      8  C2' I4B d   1      -0.278   3.015   1.262  0.00  0.00    -0.013 C 
ATOM      9  C4' I4B d   1      -1.181   2.095   0.484  0.00  0.00     0.013 C 
ATOM     10  C3' I4B d   1       0.549   2.252   2.253  0.00  0.00     0.013 C 
ENDBRANCH   7   8
ENDBRANCH   1   7
TORSDOF 2
ENDMDL
