MODEL 1
REMARK minimizedAffinity 4.19586658
REMARK minimizedRMSD -1
REMARK  2 active torsions:
REMARK  status: ('A' for Active; 'I' for Inactive)
REMARK    1  A    between atoms: C2'_3  and  C1'_4 
REMARK    2  A    between atoms: C1'_4  and  C1_5 
ROOT
ATOM      1  C1  I4B d   1       3.043  -3.539  -0.346  0.00  0.00    -0.075 A 
ATOM      2  C2  I4B d   1       3.770  -4.648  -0.700  0.00  0.00     0.003 A 
ATOM      3  C3  I4B d   1       5.135  -4.522  -1.055  0.00  0.00     0.002 A 
ATOM      4  C4  I4B d   1       5.715  -3.270  -1.090  0.00  0.00    -0.004 A 
ATOM      5  C5  I4B d   1       4.983  -2.150  -0.708  0.00  0.00     0.002 A 
ATOM      6  C6  I4B d   1       3.642  -2.286  -0.322  0.00  0.00     0.003 A 
ENDROOT
BRANCH   1   7
ATOM      7  C1' I4B d   1       1.595  -3.704  -0.009  0.00  0.00     0.060 C 
BRANCH   7   8
ATOM      8  C2' I4B d   1       0.933  -4.453  -1.148  0.00  0.00    -0.013 C 
ATOM      9  C4' I4B d   1       0.766  -5.912  -0.816  0.00  0.00     0.013 C 
ATOM     10  C3' I4B d   1      -0.391  -3.804  -1.421  0.00  0.00     0.013 C 
ENDBRANCH   7   8
ENDBRANCH   1   7
TORSDOF 2
ENDMDL
