MODEL 1
REMARK minimizedAffinity 12.4629736
REMARK minimizedRMSD -1
REMARK  2 active torsions:
REMARK  status: ('A' for Active; 'I' for Inactive)
REMARK    1  A    between atoms: C2'_3  and  C1'_4 
REMARK    2  A    between atoms: C1'_4  and  C1_5 
ROOT
ATOM      1  C1  I4B d   1      -5.124   4.425  -3.041  0.00  0.00    -0.075 A 
ATOM      2  C2  I4B d   1      -5.343   4.604  -1.698  0.00  0.00     0.003 A 
ATOM      3  C3  I4B d   1      -5.762   3.517  -0.892  0.00  0.00     0.002 A 
ATOM      4  C4  I4B d   1      -5.997   2.290  -1.477  0.00  0.00    -0.004 A 
ATOM      5  C5  I4B d   1      -5.753   2.104  -2.834  0.00  0.00     0.002 A 
ATOM      6  C6  I4B d   1      -5.302   3.175  -3.619  0.00  0.00     0.003 A 
ENDROOT
BRANCH   1   7
ATOM      7  C1' I4B d   1      -4.714   5.602  -3.868  0.00  0.00     0.060 C 
BRANCH   7   8
ATOM      8  C2' I4B d   1      -4.803   5.202  -5.326  0.00  0.00    -0.013 C 
ATOM      9  C4' I4B d   1      -6.000   5.829  -5.992  0.00  0.00     0.013 C 
ATOM     10  C3' I4B d   1      -3.529   5.618  -5.999  0.00  0.00     0.013 C 
ENDBRANCH   7   8
ENDBRANCH   1   7
TORSDOF 2
ENDMDL
