MODEL 1
REMARK minimizedAffinity 14.599925
REMARK minimizedRMSD -1
REMARK  2 active torsions:
REMARK  status: ('A' for Active; 'I' for Inactive)
REMARK    1  A    between atoms: C2'_3  and  C1'_4 
REMARK    2  A    between atoms: C1'_4  and  C1_5 
ROOT
ATOM      1  C1  I4B d   1      -1.213  -4.098  -3.977  0.00  0.00    -0.075 A 
ATOM      2  C2  I4B d   1      -2.404  -4.694  -3.646  0.00  0.00     0.003 A 
ATOM      3  C3  I4B d   1      -2.968  -5.679  -4.492  0.00  0.00     0.002 A 
ATOM      4  C4  I4B d   1      -2.337  -5.999  -5.677  0.00  0.00    -0.004 A 
ATOM      5  C5  I4B d   1      -1.118  -5.411  -6.000  0.00  0.00     0.002 A 
ATOM      6  C6  I4B d   1      -0.545  -4.463  -5.139  0.00  0.00     0.003 A 
ENDROOT
BRANCH   1   7
ATOM      7  C1' I4B d   1      -0.662  -3.039  -3.076  0.00  0.00     0.060 C 
BRANCH   7   8
ATOM      8  C2' I4B d   1      -0.524  -3.630  -1.688  0.00  0.00    -0.013 C 
ATOM      9  C4' I4B d   1       0.392  -4.826  -1.694  0.00  0.00     0.013 C 
ATOM     10  C3' I4B d   1      -0.009  -2.557  -0.776  0.00  0.00     0.013 C 
ENDBRANCH   7   8
ENDBRANCH   1   7
TORSDOF 2
ENDMDL
