MODEL 1
REMARK minimizedAffinity -2.47006488
REMARK minimizedRMSD -1
REMARK  1 active torsions:
REMARK  status: ('A' for Active; 'I' for Inactive)
REMARK    1  A    between atoms: C1_2  and  C2_3 
ROOT
ATOM      1  C2  UNL d   1       5.306   0.663   3.775  0.00  0.00    -0.076 A 
ATOM      2  C3  UNL d   1       5.313   2.015   3.389  0.00  0.00     0.004 A 
ATOM      3  C4  UNL d   1       5.648   3.019   4.296  0.00  0.00    -0.003 A 
ATOM      4  C5  UNL d   1       5.984   2.687   5.604  0.00  0.00     0.000 A 
ATOM      5  C6  UNL d   1       6.000   1.350   6.000  0.00  0.00     0.000 A 
ATOM      6  C7  UNL d   1       5.680   0.325   5.094  0.00  0.00    -0.073 A 
ATOM      7  C8  UNL d   1       5.707  -1.100   5.576  0.00  0.00     0.078 C 
ENDROOT
BRANCH   1   8
ATOM      8  C1  UNL d   1       4.907  -0.380   2.756  0.00  0.00     0.053 C 
ATOM      9  C   UNL d   1       6.000  -0.641   1.731  0.00  0.00     0.018 C 
ENDBRANCH   1   8
TORSDOF 1
ENDMDL
