MODEL 1
REMARK minimizedAffinity -0.158702195
REMARK minimizedRMSD -1
REMARK  1 active torsions:
REMARK  status: ('A' for Active; 'I' for Inactive)
REMARK    1  A    between atoms: C1_2  and  C2_3 
ROOT
ATOM      1  C2  UNL d   1       5.989   0.130   3.474  0.00  0.00    -0.076 A 
ATOM      2  C3  UNL d   1       6.000   0.673   2.177  0.00  0.00     0.004 A 
ATOM      3  C4  UNL d   1       5.987   2.052   1.977  0.00  0.00    -0.003 A 
ATOM      4  C5  UNL d   1       5.964   2.911   3.070  0.00  0.00     0.000 A 
ATOM      5  C6  UNL d   1       5.971   2.390   4.364  0.00  0.00     0.000 A 
ATOM      6  C7  UNL d   1       6.000   1.002   4.583  0.00  0.00    -0.073 A 
ATOM      7  C8  UNL d   1       5.999   0.495   5.999  0.00  0.00     0.078 C 
ENDROOT
BRANCH   1   8
ATOM      8  C1  UNL d   1       5.975  -1.374   3.629  0.00  0.00     0.053 C 
ATOM      9  C   UNL d   1       5.995  -1.809   5.086  0.00  0.00     0.018 C 
ENDBRANCH   1   8
TORSDOF 1
ENDMDL
