MODEL 1
REMARK minimizedAffinity -1.37103546
REMARK minimizedRMSD -1
REMARK  1 active torsions:
REMARK  status: ('A' for Active; 'I' for Inactive)
REMARK    1  A    between atoms: C1_2  and  C2_3 
ROOT
ATOM      1  C2  UNL d   1       5.153   2.511   4.229  0.00  0.00    -0.076 A 
ATOM      2  C3  UNL d   1       4.936   1.533   5.215  0.00  0.00     0.004 A 
ATOM      3  C4  UNL d   1       5.234   0.193   4.975  0.00  0.00    -0.003 A 
ATOM      4  C5  UNL d   1       5.756  -0.191   3.744  0.00  0.00     0.000 A 
ATOM      5  C6  UNL d   1       5.995   0.768   2.761  0.00  0.00     0.000 A 
ATOM      6  C7  UNL d   1       5.714   2.125   2.992  0.00  0.00    -0.073 A 
ATOM      7  C8  UNL d   1       5.986   3.116   1.894  0.00  0.00     0.078 C 
ENDROOT
BRANCH   1   8
ATOM      8  C1  UNL d   1       4.785   3.944   4.536  0.00  0.00     0.053 C 
ATOM      9  C   UNL d   1       6.000   4.804   4.848  0.00  0.00     0.018 C 
ENDBRANCH   1   8
TORSDOF 1
ENDMDL
