MODEL 1
REMARK minimizedAffinity 14.4646568
REMARK minimizedRMSD -1
REMARK  1 active torsions:
REMARK  status: ('A' for Active; 'I' for Inactive)
REMARK    1  A    between atoms: C1_2  and  C2_3 
ROOT
ATOM      1  C2  UNL d   1       5.434   2.710   3.804  0.00  0.00    -0.076 A 
ATOM      2  C3  UNL d   1       4.928   1.653   4.580  0.00  0.00     0.004 A 
ATOM      3  C4  UNL d   1       4.402   0.510   3.980  0.00  0.00    -0.003 A 
ATOM      4  C5  UNL d   1       4.374   0.406   2.593  0.00  0.00     0.000 A 
ATOM      5  C6  UNL d   1       4.888   1.438   1.808  0.00  0.00     0.000 A 
ATOM      6  C7  UNL d   1       5.437   2.589   2.398  0.00  0.00    -0.073 A 
ATOM      7  C8  UNL d   1       5.972   3.673   1.503  0.00  0.00     0.078 C 
ENDROOT
BRANCH   1   8
ATOM      8  C1  UNL d   1       5.967   3.936   4.511  0.00  0.00     0.053 C 
ATOM      9  C   UNL d   1       6.000   5.160   3.609  0.00  0.00     0.018 C 
ENDBRANCH   1   8
TORSDOF 1
ENDMDL
