MODEL 1
REMARK minimizedAffinity 1.00193691
REMARK minimizedRMSD -1
REMARK  1 active torsions:
REMARK  status: ('A' for Active; 'I' for Inactive)
REMARK    1  A    between atoms: C1_2  and  C2_3 
ROOT
ATOM      1  C2  UNL d   1       5.865   1.316   4.504  0.00  0.00    -0.076 A 
ATOM      2  C3  UNL d   1       5.844   0.752   5.791  0.00  0.00     0.004 A 
ATOM      3  C4  UNL d   1       5.869  -0.630   5.970  0.00  0.00    -0.003 A 
ATOM      4  C5  UNL d   1       5.917  -1.471   4.863  0.00  0.00     0.000 A 
ATOM      5  C6  UNL d   1       5.956  -0.929   3.579  0.00  0.00     0.000 A 
ATOM      6  C7  UNL d   1       5.947   0.463   3.382  0.00  0.00    -0.073 A 
ATOM      7  C8  UNL d   1       5.985   0.993   1.975  0.00  0.00     0.078 C 
ENDROOT
BRANCH   1   8
ATOM      8  C1  UNL d   1       5.808   2.821   4.372  0.00  0.00     0.053 C 
ATOM      9  C   UNL d   1       5.936   3.284   2.929  0.00  0.00     0.018 C 
ENDBRANCH   1   8
TORSDOF 1
ENDMDL
