MODEL 1
REMARK minimizedAffinity -2.8138597
REMARK minimizedRMSD -1
REMARK  1 active torsions:
REMARK  status: ('A' for Active; 'I' for Inactive)
REMARK    1  A    between atoms: C1_2  and  C2_3 
ROOT
ATOM      1  C2  UNL d   1       5.475   0.736   3.502  0.00  0.00    -0.076 A 
ATOM      2  C3  UNL d   1       5.331   1.443   2.296  0.00  0.00     0.004 A 
ATOM      3  C4  UNL d   1       5.487   2.828   2.253  0.00  0.00    -0.003 A 
ATOM      4  C5  UNL d   1       5.790   3.528   3.415  0.00  0.00     0.000 A 
ATOM      5  C6  UNL d   1       5.954   2.841   4.618  0.00  0.00     0.000 A 
ATOM      6  C7  UNL d   1       5.816   1.443   4.675  0.00  0.00    -0.073 A 
ATOM      7  C8  UNL d   1       5.998   0.754   6.000  0.00  0.00     0.078 C 
ENDROOT
BRANCH   1   8
ATOM      8  C1  UNL d   1       5.267  -0.761   3.493  0.00  0.00     0.053 C 
ATOM      9  C   UNL d   1       6.000  -1.444   2.349  0.00  0.00     0.018 C 
ENDBRANCH   1   8
TORSDOF 1
ENDMDL
