MODEL 1
REMARK minimizedAffinity 0.161521658
REMARK minimizedRMSD -1
REMARK  1 active torsions:
REMARK  status: ('A' for Active; 'I' for Inactive)
REMARK    1  A    between atoms: C1_2  and  C2_3 
ROOT
ATOM      1  C2  UNL d   1       5.981   1.756   3.647  0.00  0.00    -0.076 A 
ATOM      2  C3  UNL d   1       5.996   2.092   5.012  0.00  0.00     0.004 A 
ATOM      3  C4  UNL d   1       5.994   1.102   5.994  0.00  0.00    -0.003 A 
ATOM      4  C5  UNL d   1       5.978  -0.239   5.627  0.00  0.00     0.000 A 
ATOM      5  C6  UNL d   1       5.981  -0.590   4.277  0.00  0.00     0.000 A 
ATOM      6  C7  UNL d   1       5.999   0.395   3.275  0.00  0.00    -0.073 A 
ATOM      7  C8  UNL d   1       5.995  -0.040   1.835  0.00  0.00     0.078 C 
ENDROOT
BRANCH   1   8
ATOM      8  C1  UNL d   1       5.956   2.872   2.627  0.00  0.00     0.053 C 
ATOM      9  C   UNL d   1       5.985   4.250   3.271  0.00  0.00     0.018 C 
ENDBRANCH   1   8
TORSDOF 1
ENDMDL
