MODEL 1
REMARK minimizedAffinity 2.647717
REMARK minimizedRMSD -1
REMARK  1 active torsions:
REMARK  status: ('A' for Active; 'I' for Inactive)
REMARK    1  A    between atoms: C1_2  and  C2_3 
ROOT
ATOM      1  C2  UNL d   1       5.908   0.890   4.408  0.00  0.00    -0.076 A 
ATOM      2  C3  UNL d   1       5.857   2.212   4.882  0.00  0.00     0.004 A 
ATOM      3  C4  UNL d   1       5.887   3.292   4.002  0.00  0.00    -0.003 A 
ATOM      4  C5  UNL d   1       5.966   3.067   2.632  0.00  0.00     0.000 A 
ATOM      5  C6  UNL d   1       6.000   1.762   2.143  0.00  0.00     0.000 A 
ATOM      6  C7  UNL d   1       5.954   0.662   3.016  0.00  0.00    -0.073 A 
ATOM      7  C8  UNL d   1       5.999  -0.725   2.434  0.00  0.00     0.078 C 
ENDROOT
BRANCH   1   8
ATOM      8  C1  UNL d   1       5.900  -0.240   5.412  0.00  0.00     0.053 C 
ATOM      9  C   UNL d   1       5.977  -1.608   4.751  0.00  0.00     0.018 C 
ENDBRANCH   1   8
TORSDOF 1
ENDMDL
