MODEL 1
REMARK minimizedAffinity 2.08035445
REMARK minimizedRMSD -1
REMARK  1 active torsions:
REMARK  status: ('A' for Active; 'I' for Inactive)
REMARK    1  A    between atoms: C1_2  and  C2_3 
ROOT
ATOM      1  C2  UNL d   1       5.964   3.594   3.617  0.00  0.00    -0.076 A 
ATOM      2  C3  UNL d   1       5.982   3.417   2.223  0.00  0.00     0.004 A 
ATOM      3  C4  UNL d   1       5.999   4.512   1.360  0.00  0.00    -0.003 A 
ATOM      4  C5  UNL d   1       5.999   5.802   1.879  0.00  0.00     0.000 A 
ATOM      5  C6  UNL d   1       5.999   5.997   3.260  0.00  0.00     0.000 A 
ATOM      6  C7  UNL d   1       5.998   4.903   4.143  0.00  0.00    -0.073 A 
ATOM      7  C8  UNL d   1       5.992   5.171   5.623  0.00  0.00     0.078 C 
ENDROOT
BRANCH   1   8
ATOM      8  C1  UNL d   1       5.919   2.369   4.502  0.00  0.00     0.053 C 
ATOM      9  C   UNL d   1       5.984   1.074   3.708  0.00  0.00     0.018 C 
ENDBRANCH   1   8
TORSDOF 1
ENDMDL
