MODEL 1
REMARK minimizedAffinity 2.36159587
REMARK minimizedRMSD -1
REMARK  1 active torsions:
REMARK  status: ('A' for Active; 'I' for Inactive)
REMARK    1  A    between atoms: C1_2  and  C2_3 
ROOT
ATOM      1  C2  UNL d   1       5.828   3.758   2.774  0.00  0.00    -0.076 A 
ATOM      2  C3  UNL d   1       5.844   3.271   1.455  0.00  0.00     0.004 A 
ATOM      3  C4  UNL d   1       5.696   4.133   0.370  0.00  0.00    -0.003 A 
ATOM      4  C5  UNL d   1       5.528   5.497   0.586  0.00  0.00     0.000 A 
ATOM      5  C6  UNL d   1       5.527   5.999   1.887  0.00  0.00     0.000 A 
ATOM      6  C7  UNL d   1       5.692   5.146   2.991  0.00  0.00    -0.073 A 
ATOM      7  C8  UNL d   1       5.677   5.741   4.372  0.00  0.00     0.078 C 
ENDROOT
BRANCH   1   8
ATOM      8  C1  UNL d   1       5.966   2.772   3.912  0.00  0.00     0.053 C 
ATOM      9  C   UNL d   1       6.000   1.329   3.432  0.00  0.00     0.018 C 
ENDBRANCH   1   8
TORSDOF 1
ENDMDL
