MODEL 1
REMARK minimizedAffinity -0.308979332
REMARK minimizedRMSD -1
REMARK  1 active torsions:
REMARK  status: ('A' for Active; 'I' for Inactive)
REMARK    1  A    between atoms: C1_2  and  C2_3 
ROOT
ATOM      1  C2  UNL d   1       5.963   0.624   4.220  0.00  0.00    -0.076 A 
ATOM      2  C3  UNL d   1       5.973   1.463   5.348  0.00  0.00     0.004 A 
ATOM      3  C4  UNL d   1       5.990   2.849   5.211  0.00  0.00    -0.003 A 
ATOM      4  C5  UNL d   1       5.997   3.420   3.943  0.00  0.00     0.000 A 
ATOM      5  C6  UNL d   1       5.969   2.604   2.813  0.00  0.00     0.000 A 
ATOM      6  C7  UNL d   1       5.935   1.204   2.934  0.00  0.00    -0.073 A 
ATOM      7  C8  UNL d   1       5.912   0.371   1.681  0.00  0.00     0.078 C 
ENDROOT
BRANCH   1   8
ATOM      8  C1  UNL d   1       5.972  -0.874   4.431  0.00  0.00     0.053 C 
ATOM      9  C   UNL d   1       5.998  -1.255   5.903  0.00  0.00     0.018 C 
ENDBRANCH   1   8
TORSDOF 1
ENDMDL
