MODEL 1
REMARK minimizedAffinity 0.483643353
REMARK minimizedRMSD -1
REMARK  1 active torsions:
REMARK  status: ('A' for Active; 'I' for Inactive)
REMARK    1  A    between atoms: C1_2  and  C2_3 
ROOT
ATOM      1  C2  UNL d   1       5.779   3.530   2.872  0.00  0.00    -0.076 A 
ATOM      2  C3  UNL d   1       6.000   3.545   4.260  0.00  0.00     0.004 A 
ATOM      3  C4  UNL d   1       5.984   4.741   4.976  0.00  0.00    -0.003 A 
ATOM      4  C5  UNL d   1       5.747   5.941   4.315  0.00  0.00     0.000 A 
ATOM      5  C6  UNL d   1       5.509   5.943   2.942  0.00  0.00     0.000 A 
ATOM      6  C7  UNL d   1       5.505   4.744   2.208  0.00  0.00    -0.073 A 
ATOM      7  C8  UNL d   1       5.248   4.805   0.727  0.00  0.00     0.078 C 
ENDROOT
BRANCH   1   8
ATOM      8  C1  UNL d   1       5.835   2.206   2.144  0.00  0.00     0.053 C 
ATOM      9  C   UNL d   1       5.997   1.027   3.091  0.00  0.00     0.018 C 
ENDBRANCH   1   8
TORSDOF 1
ENDMDL
