MODEL 1
REMARK minimizedAffinity -1.85633707
REMARK minimizedRMSD -1
REMARK  0 active torsions:
REMARK  status: ('A' for Active; 'I' for Inactive)
ROOT
ATOM      1  C2' OXE d   1       0.682   1.581  -2.132  0.00  0.00     0.078 C 
ATOM      2  C1' OXE d   1      -0.237   1.757   0.514  0.00  0.00     0.078 C 
ATOM      3  C1  OXE d   1       0.193   0.403   0.007  0.00  0.00    -0.078 A 
ATOM      4  C2  OXE d   1       0.597   0.317  -1.303  0.00  0.00    -0.078 A 
ATOM      5  C3  OXE d   1       1.056  -0.897  -1.805  0.00  0.00     0.003 A 
ATOM      6  C4  OXE d   1       0.965  -2.063  -1.035  0.00  0.00    -0.002 A 
ATOM      7  C5  OXE d   1       0.518  -2.005   0.290  0.00  0.00    -0.002 A 
ATOM      8  C6  OXE d   1       0.170  -0.776   0.838  0.00  0.00     0.003 A 
ENDROOT
TORSDOF 0
ENDMDL
