MODEL 1
REMARK minimizedAffinity -3.92151356
REMARK minimizedRMSD -1
REMARK  0 active torsions:
REMARK  status: ('A' for Active; 'I' for Inactive)
ROOT
ATOM      1  C2' OXE d   1       0.564   1.412  -0.565  0.00  0.00     0.078 C 
ATOM      2  C1' OXE d   1      -1.691   0.666   0.932  0.00  0.00     0.078 C 
ATOM      3  C1  OXE d   1      -0.648  -0.388   0.658  0.00  0.00    -0.078 A 
ATOM      4  C2  OXE d   1       0.429  -0.027  -0.114  0.00  0.00    -0.078 A 
ATOM      5  C3  OXE d   1       1.447  -0.946  -0.351  0.00  0.00     0.003 A 
ATOM      6  C4  OXE d   1       1.310  -2.277   0.060  0.00  0.00    -0.002 A 
ATOM      7  C5  OXE d   1       0.201  -2.677   0.814  0.00  0.00    -0.002 A 
ATOM      8  C6  OXE d   1      -0.764  -1.736   1.158  0.00  0.00     0.003 A 
ENDROOT
TORSDOF 0
ENDMDL
