MODEL 1
REMARK minimizedAffinity -0.39304024
REMARK minimizedRMSD -1
REMARK  0 active torsions:
REMARK  status: ('A' for Active; 'I' for Inactive)
ROOT
ATOM      1  C2' OXE d   1       0.141   2.280  -0.173  0.00  0.00     0.078 C 
ATOM      2  C1' OXE d   1      -2.167   1.258   1.055  0.00  0.00     0.078 C 
ATOM      3  C1  OXE d   1      -1.045   0.295   0.755  0.00  0.00    -0.078 A 
ATOM      4  C2  OXE d   1       0.061   0.795   0.111  0.00  0.00    -0.078 A 
ATOM      5  C3  OXE d   1       1.147  -0.038  -0.141  0.00  0.00     0.003 A 
ATOM      6  C4  OXE d   1       1.061  -1.412   0.116  0.00  0.00    -0.002 A 
ATOM      7  C5  OXE d   1      -0.073  -1.949   0.735  0.00  0.00    -0.002 A 
ATOM      8  C6  OXE d   1      -1.116  -1.103   1.099  0.00  0.00     0.003 A 
ENDROOT
TORSDOF 0
ENDMDL
