MODEL 1
REMARK minimizedAffinity -5.19014549
REMARK minimizedRMSD -1
REMARK  0 active torsions:
REMARK  status: ('A' for Active; 'I' for Inactive)
ROOT
ATOM      1  C2' OXE d   1      -0.121   1.166  -0.036  0.00  0.00     0.078 C 
ATOM      2  C1' OXE d   1       0.663  -1.380  -0.921  0.00  0.00     0.078 C 
ATOM      3  C1  OXE d   1      -0.513  -1.294   0.020  0.00  0.00    -0.078 A 
ATOM      4  C2  OXE d   1      -0.860  -0.048   0.485  0.00  0.00    -0.078 A 
ATOM      5  C3  OXE d   1      -1.970   0.094   1.312  0.00  0.00     0.003 A 
ATOM      6  C4  OXE d   1      -2.642  -1.035   1.797  0.00  0.00    -0.002 A 
ATOM      7  C5  OXE d   1      -2.279  -2.316   1.367  0.00  0.00    -0.002 A 
ATOM      8  C6  OXE d   1      -1.246  -2.459   0.448  0.00  0.00     0.003 A 
ENDROOT
TORSDOF 0
ENDMDL
