MODEL 1
REMARK minimizedAffinity -2.19489193
REMARK minimizedRMSD -1
REMARK  0 active torsions:
REMARK  status: ('A' for Active; 'I' for Inactive)
ROOT
ATOM      1  C2' OXE d   1       0.318   0.908  -0.515  0.00  0.00     0.078 C 
ATOM      2  C1' OXE d   1      -1.921   0.895   1.178  0.00  0.00     0.078 C 
ATOM      3  C1  OXE d   1      -1.116  -0.375   1.066  0.00  0.00    -0.078 A 
ATOM      4  C2  OXE d   1      -0.050  -0.374   0.200  0.00  0.00    -0.078 A 
ATOM      5  C3  OXE d   1       0.759  -1.503   0.101  0.00  0.00     0.003 A 
ATOM      6  C4  OXE d   1       0.406  -2.688   0.758  0.00  0.00    -0.002 A 
ATOM      7  C5  OXE d   1      -0.699  -2.722   1.615  0.00  0.00    -0.002 A 
ATOM      8  C6  OXE d   1      -1.445  -1.565   1.812  0.00  0.00     0.003 A 
ENDROOT
TORSDOF 0
ENDMDL
