MODEL 1
REMARK minimizedAffinity -1.76133895
REMARK minimizedRMSD -1
REMARK  0 active torsions:
REMARK  status: ('A' for Active; 'I' for Inactive)
ROOT
ATOM      1  C2' OXE d   1      -0.345   1.066   0.735  0.00  0.00     0.078 C 
ATOM      2  C1' OXE d   1      -1.934  -0.478   2.460  0.00  0.00     0.078 C 
ATOM      3  C1  OXE d   1      -1.150  -1.198   1.391  0.00  0.00    -0.078 A 
ATOM      4  C2  OXE d   1      -0.412  -0.431   0.522  0.00  0.00    -0.078 A 
ATOM      5  C3  OXE d   1       0.372  -1.049  -0.448  0.00  0.00     0.003 A 
ATOM      6  C4  OXE d   1       0.296  -2.433  -0.644  0.00  0.00    -0.002 A 
ATOM      7  C5  OXE d   1      -0.481  -3.230   0.204  0.00  0.00    -0.002 A 
ATOM      8  C6  OXE d   1      -1.175  -2.634   1.252  0.00  0.00     0.003 A 
ENDROOT
TORSDOF 0
ENDMDL
