MODEL 1
REMARK minimizedAffinity -0.903481722
REMARK minimizedRMSD -1
REMARK  0 active torsions:
REMARK  status: ('A' for Active; 'I' for Inactive)
ROOT
ATOM      1  C2' OXE d   1       0.158   2.203   0.666  0.00  0.00     0.078 C 
ATOM      2  C1' OXE d   1       0.764   1.622  -2.012  0.00  0.00     0.078 C 
ATOM      3  C1  OXE d   1       0.553   0.462  -1.071  0.00  0.00    -0.078 A 
ATOM      4  C2  OXE d   1       0.303   0.756   0.248  0.00  0.00    -0.078 A 
ATOM      5  C3  OXE d   1       0.046  -0.275   1.147  0.00  0.00     0.003 A 
ATOM      6  C4  OXE d   1       0.192  -1.611   0.754  0.00  0.00    -0.002 A 
ATOM      7  C5  OXE d   1       0.486  -1.932  -0.576  0.00  0.00    -0.002 A 
ATOM      8  C6  OXE d   1       0.627  -0.910  -1.508  0.00  0.00     0.003 A 
ENDROOT
TORSDOF 0
ENDMDL
