MODEL 1
REMARK minimizedAffinity -3.59622478
REMARK minimizedRMSD -1
REMARK  0 active torsions:
REMARK  status: ('A' for Active; 'I' for Inactive)
ROOT
ATOM      1  C2' OXE d   1       0.386   1.789  -2.420  0.00  0.00     0.078 C 
ATOM      2  C1' OXE d   1       0.237   2.179   0.356  0.00  0.00     0.078 C 
ATOM      3  C1  OXE d   1       0.217   0.761  -0.157  0.00  0.00    -0.078 A 
ATOM      4  C2  OXE d   1       0.243   0.581  -1.519  0.00  0.00    -0.078 A 
ATOM      5  C3  OXE d   1       0.282  -0.708  -2.043  0.00  0.00     0.003 A 
ATOM      6  C4  OXE d   1       0.139  -1.819  -1.203  0.00  0.00    -0.002 A 
ATOM      7  C5  OXE d   1       0.071  -1.657   0.184  0.00  0.00    -0.002 A 
ATOM      8  C6  OXE d   1       0.151  -0.378   0.725  0.00  0.00     0.003 A 
ENDROOT
TORSDOF 0
ENDMDL
