MODEL 1
REMARK minimizedAffinity -5.1344142
REMARK minimizedRMSD -1
REMARK  0 active torsions:
REMARK  status: ('A' for Active; 'I' for Inactive)
ROOT
ATOM      1  C2' OXE d   1       1.560  -1.238  -0.001  0.00  0.00     0.078 C 
ATOM      2  C1' OXE d   1       0.295   1.235  -0.402  0.00  0.00     0.078 C 
ATOM      3  C1  OXE d   1      -0.456   0.178   0.369  0.00  0.00    -0.078 A 
ATOM      4  C2  OXE d   1       0.152  -1.045   0.520  0.00  0.00    -0.078 A 
ATOM      5  C3  OXE d   1      -0.473  -2.037   1.270  0.00  0.00     0.003 A 
ATOM      6  C4  OXE d   1      -1.779  -1.854   1.740  0.00  0.00    -0.002 A 
ATOM      7  C5  OXE d   1      -2.432  -0.629   1.563  0.00  0.00    -0.002 A 
ATOM      8  C6  OXE d   1      -1.769   0.409   0.918  0.00  0.00     0.003 A 
ENDROOT
TORSDOF 0
ENDMDL
