MODEL 1
REMARK minimizedAffinity -4.52460098
REMARK minimizedRMSD -1
REMARK  0 active torsions:
REMARK  status: ('A' for Active; 'I' for Inactive)
ROOT
ATOM      1  C2' OXE d   1      -0.083   2.492   0.376  0.00  0.00     0.078 C 
ATOM      2  C1' OXE d   1       0.597   2.281  -2.340  0.00  0.00     0.078 C 
ATOM      3  C1  OXE d   1       0.475   1.005  -1.544  0.00  0.00    -0.078 A 
ATOM      4  C2  OXE d   1       0.187   1.121  -0.205  0.00  0.00    -0.078 A 
ATOM      5  C3  OXE d   1       0.010  -0.026   0.564  0.00  0.00     0.003 A 
ATOM      6  C4  OXE d   1       0.272  -1.290   0.021  0.00  0.00    -0.002 A 
ATOM      7  C5  OXE d   1       0.605  -1.428  -1.330  0.00  0.00    -0.002 A 
ATOM      8  C6  OXE d   1       0.669  -0.296  -2.135  0.00  0.00     0.003 A 
ENDROOT
TORSDOF 0
ENDMDL
