MODEL 1
REMARK minimizedAffinity -1.36296904
REMARK minimizedRMSD -1
REMARK  0 active torsions:
REMARK  status: ('A' for Active; 'I' for Inactive)
ROOT
ATOM      1  C2' OXE d   1       1.575  -1.018   1.406  0.00  0.00     0.078 C 
ATOM      2  C1' OXE d   1       0.244   0.734  -0.338  0.00  0.00     0.078 C 
ATOM      3  C1  OXE d   1      -0.538  -0.425   0.228  0.00  0.00    -0.078 A 
ATOM      4  C2  OXE d   1       0.134  -1.304   1.043  0.00  0.00    -0.078 A 
ATOM      5  C3  OXE d   1      -0.555  -2.359   1.636  0.00  0.00     0.003 A 
ATOM      6  C4  OXE d   1      -1.885  -2.621   1.287  0.00  0.00    -0.002 A 
ATOM      7  C5  OXE d   1      -2.577  -1.762   0.427  0.00  0.00    -0.002 A 
ATOM      8  C6  OXE d   1      -1.932  -0.637  -0.076  0.00  0.00     0.003 A 
ENDROOT
TORSDOF 0
ENDMDL
