MODEL 1
REMARK minimizedAffinity -3.12748384
REMARK minimizedRMSD -1
REMARK  0 active torsions:
REMARK  status: ('A' for Active; 'I' for Inactive)
ROOT
ATOM      1  C2' OXE d   1      -0.890  -2.616   1.897  0.00  0.00     0.078 C 
ATOM      2  C1' OXE d   1       1.455  -1.799   0.588  0.00  0.00     0.078 C 
ATOM      3  C1  OXE d   1       0.333  -0.799   0.710  0.00  0.00    -0.078 A 
ATOM      4  C2  OXE d   1      -0.829  -1.222   1.311  0.00  0.00    -0.078 A 
ATOM      5  C3  OXE d   1      -1.875  -0.323   1.498  0.00  0.00     0.003 A 
ATOM      6  C4  OXE d   1      -1.814   0.961   0.944  0.00  0.00    -0.002 A 
ATOM      7  C5  OXE d   1      -0.655   1.399   0.293  0.00  0.00    -0.002 A 
ATOM      8  C6  OXE d   1       0.440   0.548   0.205  0.00  0.00     0.003 A 
ENDROOT
TORSDOF 0
ENDMDL
