MODEL 1
REMARK minimizedAffinity -2.88086319
REMARK minimizedRMSD -1
REMARK  0 active torsions:
REMARK  status: ('A' for Active; 'I' for Inactive)
ROOT
ATOM      1  C2' OXE d   1      -1.322  -0.568  -2.285  0.00  0.00     0.078 C 
ATOM      2  C1' OXE d   1       0.369  -0.054  -0.104  0.00  0.00     0.078 C 
ATOM      3  C1  OXE d   1       0.630   0.693  -1.388  0.00  0.00    -0.078 A 
ATOM      4  C2  OXE d   1      -0.173   0.401  -2.464  0.00  0.00    -0.078 A 
ATOM      5  C3  OXE d   1      -0.010   1.101  -3.656  0.00  0.00     0.003 A 
ATOM      6  C4  OXE d   1       1.061   1.988  -3.817  0.00  0.00    -0.002 A 
ATOM      7  C5  OXE d   1       1.915   2.270  -2.746  0.00  0.00    -0.002 A 
ATOM      8  C6  OXE d   1       1.688   1.665  -1.515  0.00  0.00     0.003 A 
ENDROOT
TORSDOF 0
ENDMDL
