MODEL 1
REMARK minimizedAffinity -4.13160753
REMARK minimizedRMSD -1
REMARK  0 active torsions:
REMARK  status: ('A' for Active; 'I' for Inactive)
ROOT
ATOM      1  C2' OXE d   1       1.084   2.873  -3.398  0.00  0.00     0.078 C 
ATOM      2  C1' OXE d   1      -0.216   0.652  -4.520  0.00  0.00     0.078 C 
ATOM      3  C1  OXE d   1       0.007   0.658  -3.028  0.00  0.00    -0.078 A 
ATOM      4  C2  OXE d   1       0.685   1.727  -2.494  0.00  0.00    -0.078 A 
ATOM      5  C3  OXE d   1       0.869   1.808  -1.117  0.00  0.00     0.003 A 
ATOM      6  C4  OXE d   1       0.506   0.739  -0.289  0.00  0.00    -0.002 A 
ATOM      7  C5  OXE d   1      -0.151  -0.377  -0.818  0.00  0.00    -0.002 A 
ATOM      8  C6  OXE d   1      -0.445  -0.414  -2.176  0.00  0.00     0.003 A 
ENDROOT
TORSDOF 0
ENDMDL
