MODEL 1
REMARK minimizedAffinity -5.82395029
REMARK minimizedRMSD -1
REMARK  0 active torsions:
REMARK  status: ('A' for Active; 'I' for Inactive)
ROOT
ATOM      1  C2' OXE d   1       1.192  -1.329   0.004  0.00  0.00     0.078 C 
ATOM      2  C1' OXE d   1       0.225   1.294  -0.252  0.00  0.00     0.078 C 
ATOM      3  C1  OXE d   1      -0.533   0.350   0.647  0.00  0.00    -0.078 A 
ATOM      4  C2  OXE d   1      -0.080  -0.945   0.730  0.00  0.00    -0.078 A 
ATOM      5  C3  OXE d   1      -0.710  -1.842   1.587  0.00  0.00     0.003 A 
ATOM      6  C4  OXE d   1      -1.891  -1.482   2.247  0.00  0.00    -0.002 A 
ATOM      7  C5  OXE d   1      -2.392  -0.180   2.145  0.00  0.00    -0.002 A 
ATOM      8  C6  OXE d   1      -1.703   0.758   1.385  0.00  0.00     0.003 A 
ENDROOT
TORSDOF 0
ENDMDL
