MODEL 1
REMARK minimizedAffinity -3.03749275
REMARK minimizedRMSD -1
REMARK  0 active torsions:
REMARK  status: ('A' for Active; 'I' for Inactive)
ROOT
ATOM      1  C2' OXE d   1      -0.972   1.503   0.551  0.00  0.00     0.078 C 
ATOM      2  C1' OXE d   1       0.994   1.199  -1.429  0.00  0.00     0.078 C 
ATOM      3  C1  OXE d   1       0.630  -0.012  -0.608  0.00  0.00    -0.078 A 
ATOM      4  C2  OXE d   1      -0.300   0.157   0.390  0.00  0.00    -0.078 A 
ATOM      5  C3  OXE d   1      -0.712  -0.940   1.141  0.00  0.00     0.003 A 
ATOM      6  C4  OXE d   1      -0.078  -2.180   0.992  0.00  0.00    -0.002 A 
ATOM      7  C5  OXE d   1       0.900  -2.364   0.008  0.00  0.00    -0.002 A 
ATOM      8  C6  OXE d   1       1.234  -1.303  -0.827  0.00  0.00     0.003 A 
ENDROOT
TORSDOF 0
ENDMDL
