MODEL 1
REMARK minimizedAffinity -2.05514789
REMARK minimizedRMSD -1
REMARK  0 active torsions:
REMARK  status: ('A' for Active; 'I' for Inactive)
ROOT
ATOM      1  C2' OXE d   1      -0.526   2.204   0.838  0.00  0.00     0.078 C 
ATOM      2  C1' OXE d   1       1.031   1.782  -1.459  0.00  0.00     0.078 C 
ATOM      3  C1  OXE d   1       0.563   0.569  -0.693  0.00  0.00    -0.078 A 
ATOM      4  C2  OXE d   1      -0.159   0.787   0.455  0.00  0.00    -0.078 A 
ATOM      5  C3  OXE d   1      -0.662  -0.298   1.169  0.00  0.00     0.003 A 
ATOM      6  C4  OXE d   1      -0.309  -1.605   0.813  0.00  0.00    -0.002 A 
ATOM      7  C5  OXE d   1       0.459  -1.847  -0.330  0.00  0.00    -0.002 A 
ATOM      8  C6  OXE d   1       0.867  -0.775  -1.117  0.00  0.00     0.003 A 
ENDROOT
TORSDOF 0
ENDMDL
