MODEL 1
REMARK minimizedAffinity 8.87345409
REMARK minimizedRMSD -1
REMARK  0 active torsions:
REMARK  status: ('A' for Active; 'I' for Inactive)
ROOT
ATOM      1  C   UNL d   1       0.493   4.709   0.211  0.00  0.00     0.077 C 
ATOM      2  C1  UNL d   1       1.126   3.491   0.816  0.00  0.00    -0.074 A 
ATOM      3  C2  UNL d   1       1.433   3.443   2.179  0.00  0.00    -0.005 A 
ATOM      4  C3  UNL d   1       2.013   2.299   2.729  0.00  0.00     0.006 A 
ATOM      5  C4  UNL d   1       2.291   1.195   1.922  0.00  0.00    -0.005 A 
ATOM      6  C5  UNL d   1       1.989   1.225   0.557  0.00  0.00    -0.074 A 
ATOM      7  C6  UNL d   1       2.272   0.043  -0.322  0.00  0.00     0.077 C 
ATOM      8  C7  UNL d   1       1.400   2.375   0.013  0.00  0.00    -0.001 A 
ENDROOT
TORSDOF 0
ENDMDL
