MODEL 1
REMARK minimizedAffinity 6.3512907
REMARK minimizedRMSD -1
REMARK  0 active torsions:
REMARK  status: ('A' for Active; 'I' for Inactive)
ROOT
ATOM      1  C   UNL d   1      -5.584   3.897   1.409  0.00  0.00     0.077 C 
ATOM      2  C1  UNL d   1      -5.663   3.759   2.900  0.00  0.00    -0.074 A 
ATOM      3  C2  UNL d   1      -5.906   2.517   3.495  0.00  0.00    -0.005 A 
ATOM      4  C3  UNL d   1      -5.967   2.403   4.884  0.00  0.00     0.006 A 
ATOM      5  C4  UNL d   1      -5.787   3.527   5.690  0.00  0.00    -0.005 A 
ATOM      6  C5  UNL d   1      -5.543   4.777   5.113  0.00  0.00    -0.074 A 
ATOM      7  C6  UNL d   1      -5.337   5.994   5.966  0.00  0.00     0.077 C 
ATOM      8  C7  UNL d   1      -5.475   4.883   3.717  0.00  0.00    -0.001 A 
ENDROOT
TORSDOF 0
ENDMDL
