MODEL 1
REMARK minimizedAffinity 15.2457218
REMARK minimizedRMSD -1
REMARK  0 active torsions:
REMARK  status: ('A' for Active; 'I' for Inactive)
ROOT
ATOM      1  C   UNL d   1       2.052  -1.352  -1.192  0.00  0.00     0.077 C 
ATOM      2  C1  UNL d   1       2.287  -0.065  -0.458  0.00  0.00    -0.074 A 
ATOM      3  C2  UNL d   1       1.498   0.290   0.641  0.00  0.00    -0.005 A 
ATOM      4  C3  UNL d   1       1.735   1.486   1.319  0.00  0.00     0.006 A 
ATOM      5  C4  UNL d   1       2.761   2.337   0.906  0.00  0.00    -0.005 A 
ATOM      6  C5  UNL d   1       3.560   1.998  -0.190  0.00  0.00    -0.074 A 
ATOM      7  C6  UNL d   1       4.673   2.896  -0.641  0.00  0.00     0.077 C 
ATOM      8  C7  UNL d   1       3.321   0.791  -0.862  0.00  0.00    -0.001 A 
ENDROOT
TORSDOF 0
ENDMDL
