MODEL 1
REMARK minimizedAffinity 2.4565649
REMARK minimizedRMSD -1
REMARK  0 active torsions:
REMARK  status: ('A' for Active; 'I' for Inactive)
ROOT
ATOM      1  C   UNL d   1       0.884   5.999   4.260  0.00  0.00     0.077 C 
ATOM      2  C1  UNL d   1       2.150   5.253   4.558  0.00  0.00    -0.074 A 
ATOM      3  C2  UNL d   1       2.266   3.890   4.270  0.00  0.00    -0.005 A 
ATOM      4  C3  UNL d   1       3.454   3.212   4.545  0.00  0.00     0.006 A 
ATOM      5  C4  UNL d   1       4.536   3.889   5.108  0.00  0.00    -0.005 A 
ATOM      6  C5  UNL d   1       4.439   5.253   5.402  0.00  0.00    -0.074 A 
ATOM      7  C6  UNL d   1       5.595   5.998   5.999  0.00  0.00     0.077 C 
ATOM      8  C7  UNL d   1       3.244   5.929   5.117  0.00  0.00    -0.001 A 
ENDROOT
TORSDOF 0
ENDMDL
