MODEL 1
REMARK minimizedAffinity 11.3838634
REMARK minimizedRMSD -1
REMARK  0 active torsions:
REMARK  status: ('A' for Active; 'I' for Inactive)
ROOT
ATOM      1  C   UNL d   1       2.494  -1.316  -1.443  0.00  0.00     0.077 C 
ATOM      2  C1  UNL d   1       2.840   0.047  -0.922  0.00  0.00    -0.074 A 
ATOM      3  C2  UNL d   1       3.487   0.984  -1.734  0.00  0.00    -0.005 A 
ATOM      4  C3  UNL d   1       3.793   2.252  -1.239  0.00  0.00     0.006 A 
ATOM      5  C4  UNL d   1       3.456   2.595   0.071  0.00  0.00    -0.005 A 
ATOM      6  C5  UNL d   1       2.808   1.671   0.897  0.00  0.00    -0.074 A 
ATOM      7  C6  UNL d   1       2.430   2.027   2.304  0.00  0.00     0.077 C 
ATOM      8  C7  UNL d   1       2.497   0.402   0.390  0.00  0.00    -0.001 A 
ENDROOT
TORSDOF 0
ENDMDL
