MODEL 1
REMARK minimizedAffinity 3.08010459
REMARK minimizedRMSD -1
REMARK  0 active torsions:
REMARK  status: ('A' for Active; 'I' for Inactive)
ROOT
ATOM      1  C   UNL d   1      -0.469   4.339   0.853  0.00  0.00     0.077 C 
ATOM      2  C1  UNL d   1      -1.890   4.783   1.036  0.00  0.00    -0.074 A 
ATOM      3  C2  UNL d   1      -2.378   5.130   2.300  0.00  0.00    -0.005 A 
ATOM      4  C3  UNL d   1      -3.699   5.551   2.453  0.00  0.00     0.006 A 
ATOM      5  C4  UNL d   1      -4.544   5.628   1.345  0.00  0.00    -0.005 A 
ATOM      6  C5  UNL d   1      -4.074   5.286   0.074  0.00  0.00    -0.074 A 
ATOM      7  C6  UNL d   1      -4.967   5.373  -1.129  0.00  0.00     0.077 C 
ATOM      8  C7  UNL d   1      -2.744   4.871  -0.073  0.00  0.00    -0.001 A 
ENDROOT
TORSDOF 0
ENDMDL
