MODEL 1
REMARK minimizedAffinity 11.8105202
REMARK minimizedRMSD -1
REMARK  0 active torsions:
REMARK  status: ('A' for Active; 'I' for Inactive)
ROOT
ATOM      1  C   UNL d   1       4.118   2.544  -0.419  0.00  0.00     0.077 C 
ATOM      2  C1  UNL d   1       3.968   1.118   0.019  0.00  0.00    -0.074 A 
ATOM      3  C2  UNL d   1       2.816   0.388  -0.292  0.00  0.00    -0.005 A 
ATOM      4  C3  UNL d   1       2.694  -0.941   0.114  0.00  0.00     0.006 A 
ATOM      5  C4  UNL d   1       3.722  -1.553   0.832  0.00  0.00    -0.005 A 
ATOM      6  C5  UNL d   1       4.882  -0.840   1.151  0.00  0.00    -0.074 A 
ATOM      7  C6  UNL d   1       6.000  -1.485   1.915  0.00  0.00     0.077 C 
ATOM      8  C7  UNL d   1       4.999   0.493   0.734  0.00  0.00    -0.001 A 
ENDROOT
TORSDOF 0
ENDMDL
