MODEL 1
REMARK minimizedAffinity 0.198866442
REMARK minimizedRMSD -1
REMARK  1 active torsions:
REMARK  status: ('A' for Active; 'I' for Inactive)
REMARK    1  A    between atoms: C1_2  and  C2_3 
ROOT
ATOM      1  C2  UNL d   1       1.873   4.525   5.995  0.00  0.00    -0.077 A 
ATOM      2  C3  UNL d   1       3.245   4.814   5.991  0.00  0.00     0.002 A 
ATOM      3  C4  UNL d   1       4.184   3.781   5.993  0.00  0.00     0.002 A 
ATOM      4  C5  UNL d   1       3.763   2.454   5.994  0.00  0.00    -0.004 A 
ATOM      5  C6  UNL d   1       2.401   2.155   6.000  0.00  0.00     0.002 A 
ATOM      6  C7  UNL d   1       1.460   3.186   6.000  0.00  0.00     0.002 A 
ENDROOT
BRANCH   1   7
ATOM      7  C1  UNL d   1       0.858   5.637   5.944  0.00  0.00     0.055 C 
ATOM      8  C   UNL d   1       0.491   5.986   4.509  0.00  0.00     0.019 C 
ENDBRANCH   1   7
TORSDOF 1
ENDMDL
