MODEL 1
REMARK minimizedAffinity 3.46149945
REMARK minimizedRMSD -1
REMARK  1 active torsions:
REMARK  status: ('A' for Active; 'I' for Inactive)
REMARK    1  A    between atoms: C1_2  and  C2_3 
ROOT
ATOM      1  C2  UNL d   1      -3.473   0.231  -0.391  0.00  0.00    -0.077 A 
ATOM      2  C3  UNL d   1      -4.714  -0.215  -0.865  0.00  0.00     0.002 A 
ATOM      3  C4  UNL d   1      -5.873  -0.004  -0.116  0.00  0.00     0.002 A 
ATOM      4  C5  UNL d   1      -5.803   0.657   1.108  0.00  0.00    -0.004 A 
ATOM      5  C6  UNL d   1      -4.572   1.103   1.589  0.00  0.00     0.002 A 
ATOM      6  C7  UNL d   1      -3.413   0.892   0.842  0.00  0.00     0.002 A 
ENDROOT
BRANCH   1   7
ATOM      7  C1  UNL d   1      -2.228   0.048  -1.221  0.00  0.00     0.055 C 
ATOM      8  C   UNL d   1      -2.545   0.085  -2.709  0.00  0.00     0.019 C 
ENDBRANCH   1   7
TORSDOF 1
ENDMDL
