MODEL 1
REMARK minimizedAffinity 11.3699436
REMARK minimizedRMSD -1
REMARK  1 active torsions:
REMARK  status: ('A' for Active; 'I' for Inactive)
REMARK    1  A    between atoms: C1_2  and  C2_3 
ROOT
ATOM      1  C2  UNL d   1      -3.015   0.012  -3.707  0.00  0.00    -0.077 A 
ATOM      2  C3  UNL d   1      -2.980   0.852  -4.829  0.00  0.00     0.002 A 
ATOM      3  C4  UNL d   1      -4.127   1.048  -5.601  0.00  0.00     0.002 A 
ATOM      4  C5  UNL d   1      -5.318   0.411  -5.257  0.00  0.00    -0.004 A 
ATOM      5  C6  UNL d   1      -5.362  -0.428  -4.144  0.00  0.00     0.002 A 
ATOM      6  C7  UNL d   1      -4.217  -0.626  -3.372  0.00  0.00     0.002 A 
ENDROOT
BRANCH   1   7
ATOM      7  C1  UNL d   1      -1.792  -0.162  -2.845  0.00  0.00     0.055 C 
ATOM      8  C   UNL d   1      -2.023   0.379  -1.442  0.00  0.00     0.019 C 
ENDBRANCH   1   7
TORSDOF 1
ENDMDL
