MODEL 1
REMARK minimizedAffinity 2.36109519
REMARK minimizedRMSD -1
REMARK  1 active torsions:
REMARK  status: ('A' for Active; 'I' for Inactive)
REMARK    1  A    between atoms: C1_2  and  C2_3 
ROOT
ATOM      1  C2  UNL d   1       0.297  -4.898   3.266  0.00  0.00    -0.077 A 
ATOM      2  C3  UNL d   1       1.317  -4.056   3.731  0.00  0.00     0.002 A 
ATOM      3  C4  UNL d   1       1.631  -4.011   5.091  0.00  0.00     0.002 A 
ATOM      4  C5  UNL d   1       0.933  -4.808   5.996  0.00  0.00    -0.004 A 
ATOM      5  C6  UNL d   1      -0.085  -5.648   5.543  0.00  0.00     0.002 A 
ATOM      6  C7  UNL d   1      -0.401  -5.693   4.185  0.00  0.00     0.002 A 
ENDROOT
BRANCH   1   7
ATOM      7  C1  UNL d   1      -0.011  -4.985   1.794  0.00  0.00     0.055 C 
ATOM      8  C   UNL d   1       1.200  -4.606   0.953  0.00  0.00     0.019 C 
ENDBRANCH   1   7
TORSDOF 1
ENDMDL
