MODEL 1
REMARK minimizedAffinity 9.51376152
REMARK minimizedRMSD -1
REMARK  0 active torsions:
REMARK  status: ('A' for Active; 'I' for Inactive)
ROOT
ATOM      1  C   UNL d   1      -0.060   2.584   3.335  0.00  0.00     0.023 A 
ATOM      2  C1  UNL d   1       1.261   3.029   3.281  0.00  0.00     0.003 A 
ATOM      3  C2  UNL d   1       2.123   2.539   2.298  0.00  0.00     0.048 A 
ATOM      4  C3  UNL d   1       1.658   1.606   1.372  0.00  0.00     0.023 A 
ATOM      5  C4  UNL d   1       0.337   1.159   1.422  0.00  0.00     0.048 A 
ATOM      6  C5  UNL d   1      -0.522   1.650   2.407  0.00  0.00     0.003 A 
ATOM      7  I   UNL d   1       2.941   0.877  -0.092  0.00  0.00    -0.146 I 
ENDROOT
TORSDOF 0
ENDMDL
