MODEL 1
REMARK minimizedAffinity -1.35171592
REMARK minimizedRMSD -1
REMARK  0 active torsions:
REMARK  status: ('A' for Active; 'I' for Inactive)
ROOT
ATOM      1  C   UNL d   1      -0.804   1.638   2.182  0.00  0.00     0.023 A 
ATOM      2  C1  UNL d   1       0.354   1.369   2.911  0.00  0.00     0.003 A 
ATOM      3  C2  UNL d   1       1.580   1.242   2.254  0.00  0.00     0.048 A 
ATOM      4  C3  UNL d   1       1.640   1.387   0.868  0.00  0.00     0.023 A 
ATOM      5  C4  UNL d   1       0.484   1.658   0.135  0.00  0.00     0.048 A 
ATOM      6  C5  UNL d   1      -0.740   1.783   0.796  0.00  0.00     0.003 A 
ATOM      7  I   UNL d   1       3.463   1.200  -0.112  0.00  0.00    -0.146 I 
ENDROOT
TORSDOF 0
ENDMDL
