MODEL 1
REMARK minimizedAffinity 1.59990168
REMARK minimizedRMSD -1
REMARK  0 active torsions:
REMARK  status: ('A' for Active; 'I' for Inactive)
ROOT
ATOM      1  C   UNL d   1       4.565   1.304  -1.155  0.00  0.00     0.023 A 
ATOM      2  C1  UNL d   1       4.324   2.516  -0.508  0.00  0.00     0.003 A 
ATOM      3  C2  UNL d   1       3.155   2.691   0.237  0.00  0.00     0.048 A 
ATOM      4  C3  UNL d   1       2.233   1.650   0.331  0.00  0.00     0.023 A 
ATOM      5  C4  UNL d   1       2.470   0.435  -0.314  0.00  0.00     0.048 A 
ATOM      6  C5  UNL d   1       3.639   0.265  -1.059  0.00  0.00     0.003 A 
ATOM      7  I   UNL d   1       0.494   1.907   1.439  0.00  0.00    -0.146 I 
ENDROOT
TORSDOF 0
ENDMDL
