MODEL 1
REMARK minimizedAffinity 5.97977638
REMARK minimizedRMSD -1
REMARK  0 active torsions:
REMARK  status: ('A' for Active; 'I' for Inactive)
ROOT
ATOM      1  C   UNL d   1      -1.574  -2.379  -0.501  0.00  0.00     0.023 A 
ATOM      2  C1  UNL d   1      -0.901  -1.657   0.485  0.00  0.00     0.003 A 
ATOM      3  C2  UNL d   1       0.423  -1.262   0.280  0.00  0.00     0.048 A 
ATOM      4  C3  UNL d   1       1.067  -1.591  -0.912  0.00  0.00     0.023 A 
ATOM      5  C4  UNL d   1       0.396  -2.313  -1.901  0.00  0.00     0.048 A 
ATOM      6  C5  UNL d   1      -0.927  -2.707  -1.692  0.00  0.00     0.003 A 
ATOM      7  I   UNL d   1       3.036  -1.003  -1.219  0.00  0.00    -0.146 I 
ENDROOT
TORSDOF 0
ENDMDL
