MODEL 1
REMARK minimizedAffinity 2.93474865
REMARK minimizedRMSD -1
REMARK  0 active torsions:
REMARK  status: ('A' for Active; 'I' for Inactive)
ROOT
ATOM      1  C   UNL d   1       3.844   2.531  -0.478  0.00  0.00     0.023 A 
ATOM      2  C1  UNL d   1       2.591   2.437   0.129  0.00  0.00     0.003 A 
ATOM      3  C2  UNL d   1       1.874   1.240   0.070  0.00  0.00     0.048 A 
ATOM      4  C3  UNL d   1       2.417   0.141  -0.595  0.00  0.00     0.023 A 
ATOM      5  C4  UNL d   1       3.670   0.231  -1.203  0.00  0.00     0.048 A 
ATOM      6  C5  UNL d   1       4.383   1.430  -1.143  0.00  0.00     0.003 A 
ATOM      7  I   UNL d   1       1.352  -1.642  -0.683  0.00  0.00    -0.146 I 
ENDROOT
TORSDOF 0
ENDMDL
