MODEL 1
REMARK minimizedAffinity -1.4764955
REMARK minimizedRMSD -1
REMARK  0 active torsions:
REMARK  status: ('A' for Active; 'I' for Inactive)
ROOT
ATOM      1  C   UNL d   1       0.307  -1.335  -0.390  0.00  0.00     0.023 A 
ATOM      2  C1  UNL d   1       0.087   0.042  -0.349  0.00  0.00     0.003 A 
ATOM      3  C2  UNL d   1       1.168   0.925  -0.399  0.00  0.00     0.048 A 
ATOM      4  C3  UNL d   1       2.466   0.424  -0.491  0.00  0.00     0.023 A 
ATOM      5  C4  UNL d   1       2.691  -0.953  -0.533  0.00  0.00     0.048 A 
ATOM      6  C5  UNL d   1       1.607  -1.832  -0.482  0.00  0.00     0.003 A 
ATOM      7  I   UNL d   1       4.076   1.736  -0.565  0.00  0.00    -0.146 I 
ENDROOT
TORSDOF 0
ENDMDL
