MODEL 1
REMARK minimizedAffinity 3.78978896
REMARK minimizedRMSD -1
REMARK  0 active torsions:
REMARK  status: ('A' for Active; 'I' for Inactive)
ROOT
ATOM      1  C   UNL d   1      -0.678  -1.842   0.052  0.00  0.00     0.023 A 
ATOM      2  C1  UNL d   1      -0.255  -0.613  -0.453  0.00  0.00     0.003 A 
ATOM      3  C2  UNL d   1       0.883  -0.542  -1.260  0.00  0.00     0.048 A 
ATOM      4  C3  UNL d   1       1.592  -1.704  -1.559  0.00  0.00     0.023 A 
ATOM      5  C4  UNL d   1       1.172  -2.937  -1.057  0.00  0.00     0.048 A 
ATOM      6  C5  UNL d   1       0.034  -3.003  -0.250  0.00  0.00     0.003 A 
ATOM      7  I   UNL d   1       3.285  -1.601  -2.759  0.00  0.00    -0.146 I 
ENDROOT
TORSDOF 0
ENDMDL
