MODEL 1
REMARK minimizedAffinity -4.51346827
REMARK minimizedRMSD -1
REMARK  0 active torsions:
REMARK  status: ('A' for Active; 'I' for Inactive)
ROOT
ATOM      1  C   UNL d   1       1.143  -0.692   0.032  0.00  0.00     0.023 A 
ATOM      2  C1  UNL d   1       2.240  -1.504  -0.256  0.00  0.00     0.003 A 
ATOM      3  C2  UNL d   1       3.524  -0.957  -0.301  0.00  0.00     0.048 A 
ATOM      4  C3  UNL d   1       3.704   0.404  -0.056  0.00  0.00     0.023 A 
ATOM      5  C4  UNL d   1       2.610   1.221   0.234  0.00  0.00     0.048 A 
ATOM      6  C5  UNL d   1       1.328   0.669   0.277  0.00  0.00     0.003 A 
ATOM      7  I   UNL d   1       5.614   1.222  -0.122  0.00  0.00    -0.146 I 
ENDROOT
TORSDOF 0
ENDMDL
