MODEL 1
REMARK minimizedAffinity 8.30434322
REMARK minimizedRMSD -1
REMARK  0 active torsions:
REMARK  status: ('A' for Active; 'I' for Inactive)
ROOT
ATOM      1  C   UNL d   1       0.818  -1.639  -0.862  0.00  0.00     0.023 A 
ATOM      2  C1  UNL d   1       2.098  -2.090  -1.183  0.00  0.00     0.003 A 
ATOM      3  C2  UNL d   1       3.170  -1.196  -1.205  0.00  0.00     0.048 A 
ATOM      4  C3  UNL d   1       2.955   0.149  -0.904  0.00  0.00     0.023 A 
ATOM      5  C4  UNL d   1       1.676   0.605  -0.581  0.00  0.00     0.048 A 
ATOM      6  C5  UNL d   1       0.607  -0.293  -0.561  0.00  0.00     0.003 A 
ATOM      7  I   UNL d   1       4.549   1.482  -0.937  0.00  0.00    -0.146 I 
ENDROOT
TORSDOF 0
ENDMDL
