MODEL 1
REMARK minimizedAffinity -3.0327642
REMARK minimizedRMSD -1
REMARK  0 active torsions:
REMARK  status: ('A' for Active; 'I' for Inactive)
ROOT
ATOM      1  C1  BNZ d   1       1.131   1.946   0.614  0.00  0.00     0.000 A 
ATOM      2  C2  BNZ d   1       1.073   0.634   0.229  0.00  0.00     0.000 A 
ATOM      3  C3  BNZ d   1      -0.108  -0.055   0.266  0.00  0.00     0.000 A 
ATOM      4  C4  BNZ d   1      -1.218   0.557   0.725  0.00  0.00     0.000 A 
ATOM      5  C5  BNZ d   1      -1.174   1.878   1.126  0.00  0.00     0.000 A 
ATOM      6  C6  BNZ d   1       0.008   2.579   1.051  0.00  0.00     0.000 A 
ENDROOT
TORSDOF 0
ENDMDL
