MODEL 1
REMARK minimizedAffinity -3.31069589
REMARK minimizedRMSD -1
REMARK  0 active torsions:
REMARK  status: ('A' for Active; 'I' for Inactive)
ROOT
ATOM      1  C1  BNZ d   1      -1.021   2.328  -0.049  0.00  0.00     0.000 A 
ATOM      2  C2  BNZ d   1      -1.189   1.136  -0.701  0.00  0.00     0.000 A 
ATOM      3  C3  BNZ d   1      -0.261   0.139  -0.588  0.00  0.00     0.000 A 
ATOM      4  C4  BNZ d   1       0.853   0.349   0.143  0.00  0.00     0.000 A 
ATOM      5  C5  BNZ d   1       1.042   1.550   0.799  0.00  0.00     0.000 A 
ATOM      6  C6  BNZ d   1       0.087   2.537   0.714  0.00  0.00     0.000 A 
ENDROOT
TORSDOF 0
ENDMDL
