MODEL 1
REMARK minimizedAffinity -3.28517866
REMARK minimizedRMSD -1
REMARK  0 active torsions:
REMARK  status: ('A' for Active; 'I' for Inactive)
ROOT
ATOM      1  C1  BNZ d   1      -0.177   0.131   0.108  0.00  0.00     0.000 A 
ATOM      2  C2  BNZ d   1      -1.124   1.112   0.240  0.00  0.00     0.000 A 
ATOM      3  C3  BNZ d   1      -0.774   2.375   0.626  0.00  0.00     0.000 A 
ATOM      4  C4  BNZ d   1       0.515   2.646   0.918  0.00  0.00     0.000 A 
ATOM      5  C5  BNZ d   1       1.479   1.666   0.799  0.00  0.00     0.000 A 
ATOM      6  C6  BNZ d   1       1.129   0.405   0.373  0.00  0.00     0.000 A 
ENDROOT
TORSDOF 0
ENDMDL
