MODEL 1
REMARK minimizedAffinity -2.84233022
REMARK minimizedRMSD -1
REMARK  0 active torsions:
REMARK  status: ('A' for Active; 'I' for Inactive)
ROOT
ATOM      1  C1  BNZ d   1      -1.080  -3.058  -1.345  0.00  0.00     0.000 A 
ATOM      2  C2  BNZ d   1      -1.414  -1.734  -1.243  0.00  0.00     0.000 A 
ATOM      3  C3  BNZ d   1      -0.672  -0.882  -0.473  0.00  0.00     0.000 A 
ATOM      4  C4  BNZ d   1       0.376  -1.363   0.226  0.00  0.00     0.000 A 
ATOM      5  C5  BNZ d   1       0.720  -2.697   0.142  0.00  0.00     0.000 A 
ATOM      6  C6  BNZ d   1      -0.005  -3.544  -0.666  0.00  0.00     0.000 A 
ENDROOT
TORSDOF 0
ENDMDL
