MODEL 1
REMARK minimizedAffinity -3.5772965
REMARK minimizedRMSD -1
REMARK  0 active torsions:
REMARK  status: ('A' for Active; 'I' for Inactive)
ROOT
ATOM      1  C1  BNZ d   1      -1.101   2.150   0.534  0.00  0.00     0.000 A 
ATOM      2  C2  BNZ d   1      -1.615   0.915   0.241  0.00  0.00     0.000 A 
ATOM      3  C3  BNZ d   1      -0.793  -0.166   0.085  0.00  0.00     0.000 A 
ATOM      4  C4  BNZ d   1       0.542  -0.003   0.181  0.00  0.00     0.000 A 
ATOM      5  C5  BNZ d   1       1.076   1.238   0.467  0.00  0.00     0.000 A 
ATOM      6  C6  BNZ d   1       0.244   2.316   0.662  0.00  0.00     0.000 A 
ENDROOT
TORSDOF 0
ENDMDL
