MODEL 1
REMARK minimizedAffinity -2.57459784
REMARK minimizedRMSD -1
REMARK  0 active torsions:
REMARK  status: ('A' for Active; 'I' for Inactive)
ROOT
ATOM      1  C1  BNZ d   1       0.187   0.109  -0.008  0.00  0.00     0.000 A 
ATOM      2  C2  BNZ d   1       0.759   1.211   0.571  0.00  0.00     0.000 A 
ATOM      3  C3  BNZ d   1       0.028   2.345   0.791  0.00  0.00     0.000 A 
ATOM      4  C4  BNZ d   1      -1.261   2.390   0.396  0.00  0.00     0.000 A 
ATOM      5  C5  BNZ d   1      -1.849   1.291  -0.198  0.00  0.00     0.000 A 
ATOM      6  C6  BNZ d   1      -1.121   0.138  -0.382  0.00  0.00     0.000 A 
ENDROOT
TORSDOF 0
ENDMDL
