MODEL 1
REMARK minimizedAffinity -2.76206493
REMARK minimizedRMSD -1
REMARK  0 active torsions:
REMARK  status: ('A' for Active; 'I' for Inactive)
ROOT
ATOM      1  C1  BNZ d   1      -1.221   0.537   1.277  0.00  0.00     0.000 A 
ATOM      2  C2  BNZ d   1      -0.535  -0.632   1.084  0.00  0.00     0.000 A 
ATOM      3  C3  BNZ d   1      -0.196  -1.045  -0.174  0.00  0.00     0.000 A 
ATOM      4  C4  BNZ d   1      -0.577  -0.310  -1.238  0.00  0.00     0.000 A 
ATOM      5  C5  BNZ d   1      -1.278   0.866  -1.061  0.00  0.00     0.000 A 
ATOM      6  C6  BNZ d   1      -1.584   1.299   0.209  0.00  0.00     0.000 A 
ENDROOT
TORSDOF 0
ENDMDL
