MODEL 1
REMARK minimizedAffinity -2.81627965
REMARK minimizedRMSD -1
REMARK  0 active torsions:
REMARK  status: ('A' for Active; 'I' for Inactive)
ROOT
ATOM      1  C1  BNZ d   1      -0.502  -1.799  -0.726  0.00  0.00     0.000 A 
ATOM      2  C2  BNZ d   1       0.105  -0.989   0.197  0.00  0.00     0.000 A 
ATOM      3  C3  BNZ d   1      -0.376   0.265   0.451  0.00  0.00     0.000 A 
ATOM      4  C4  BNZ d   1      -1.437   0.722  -0.246  0.00  0.00     0.000 A 
ATOM      5  C5  BNZ d   1      -2.053  -0.079  -1.186  0.00  0.00     0.000 A 
ATOM      6  C6  BNZ d   1      -1.590  -1.355  -1.411  0.00  0.00     0.000 A 
ENDROOT
TORSDOF 0
ENDMDL
