MODEL 1
REMARK minimizedAffinity -3.1463933
REMARK minimizedRMSD -1
REMARK  0 active torsions:
REMARK  status: ('A' for Active; 'I' for Inactive)
ROOT
ATOM      1  C1  BNZ d   1      -1.003   0.701  -1.126  0.00  0.00     0.000 A 
ATOM      2  C2  BNZ d   1      -0.441  -0.479  -1.532  0.00  0.00     0.000 A 
ATOM      3  C3  BNZ d   1      -0.074  -1.430  -0.621  0.00  0.00     0.000 A 
ATOM      4  C4  BNZ d   1      -0.231  -1.182   0.695  0.00  0.00     0.000 A 
ATOM      5  C5  BNZ d   1      -0.788   0.007   1.121  0.00  0.00     0.000 A 
ATOM      6  C6  BNZ d   1      -1.192   0.945   0.200  0.00  0.00     0.000 A 
ENDROOT
TORSDOF 0
ENDMDL
