MODEL 1
REMARK minimizedAffinity -2.96832609
REMARK minimizedRMSD -1
REMARK  0 active torsions:
REMARK  status: ('A' for Active; 'I' for Inactive)
ROOT
ATOM      1  C1  BNZ d   1       0.050  -2.809  -0.307  0.00  0.00     0.000 A 
ATOM      2  C2  BNZ d   1      -0.102  -3.733  -1.306  0.00  0.00     0.000 A 
ATOM      3  C3  BNZ d   1      -0.635  -3.377  -2.514  0.00  0.00     0.000 A 
ATOM      4  C4  BNZ d   1      -1.052  -2.109  -2.707  0.00  0.00     0.000 A 
ATOM      5  C5  BNZ d   1      -0.914  -1.168  -1.706  0.00  0.00     0.000 A 
ATOM      6  C6  BNZ d   1      -0.341  -1.520  -0.505  0.00  0.00     0.000 A 
ENDROOT
TORSDOF 0
ENDMDL
