MODEL 1
REMARK minimizedAffinity -0.853217483
REMARK minimizedRMSD -1
REMARK  0 active torsions:
REMARK  status: ('A' for Active; 'I' for Inactive)
ROOT
ATOM      1  C1  BNZ d   1      -1.294   0.701  -1.010  0.00  0.00     0.000 A 
ATOM      2  C2  BNZ d   1      -0.665  -0.413  -1.497  0.00  0.00     0.000 A 
ATOM      3  C3  BNZ d   1      -0.005  -1.267  -0.659  0.00  0.00     0.000 A 
ATOM      4  C4  BNZ d   1       0.059  -0.985   0.658  0.00  0.00     0.000 A 
ATOM      5  C5  BNZ d   1      -0.563   0.139   1.164  0.00  0.00     0.000 A 
ATOM      6  C6  BNZ d   1      -1.259   0.976   0.323  0.00  0.00     0.000 A 
ENDROOT
TORSDOF 0
ENDMDL
