MODEL 1
REMARK minimizedAffinity -1.24512315
REMARK minimizedRMSD -1
REMARK  0 active torsions:
REMARK  status: ('A' for Active; 'I' for Inactive)
ROOT
ATOM      1  C1  BNZ d   1       0.458  -1.155   0.709  0.00  0.00     0.000 A 
ATOM      2  C2  BNZ d   1       0.091   0.109   1.089  0.00  0.00     0.000 A 
ATOM      3  C3  BNZ d   1      -0.851   0.805   0.385  0.00  0.00     0.000 A 
ATOM      4  C4  BNZ d   1      -1.394   0.255  -0.720  0.00  0.00     0.000 A 
ATOM      5  C5  BNZ d   1      -1.028  -1.014  -1.121  0.00  0.00     0.000 A 
ATOM      6  C6  BNZ d   1      -0.108  -1.728  -0.388  0.00  0.00     0.000 A 
ENDROOT
TORSDOF 0
ENDMDL
