MODEL 1
REMARK minimizedAffinity -2.10535383
REMARK minimizedRMSD -1
REMARK  0 active torsions:
REMARK  status: ('A' for Active; 'I' for Inactive)
ROOT
ATOM      1  C1  BNZ d   1       0.246  -2.838  -0.017  0.00  0.00     0.000 A 
ATOM      2  C2  BNZ d   1       0.347  -1.684   0.713  0.00  0.00     0.000 A 
ATOM      3  C3  BNZ d   1      -0.084  -0.492   0.200  0.00  0.00     0.000 A 
ATOM      4  C4  BNZ d   1      -0.577  -0.449  -1.054  0.00  0.00     0.000 A 
ATOM      5  C5  BNZ d   1      -0.676  -1.603  -1.806  0.00  0.00     0.000 A 
ATOM      6  C6  BNZ d   1      -0.278  -2.807  -1.272  0.00  0.00     0.000 A 
ENDROOT
TORSDOF 0
ENDMDL
