MODEL 1
REMARK minimizedAffinity -2.90966773
REMARK minimizedRMSD -1
REMARK  0 active torsions:
REMARK  status: ('A' for Active; 'I' for Inactive)
ROOT
ATOM      1  C1  BNZ d   1       0.542   0.105   0.144  0.00  0.00     0.000 A 
ATOM      2  C2  BNZ d   1       0.429   1.243   0.897  0.00  0.00     0.000 A 
ATOM      3  C3  BNZ d   1      -0.630   2.090   0.731  0.00  0.00     0.000 A 
ATOM      4  C4  BNZ d   1      -1.553   1.820  -0.214  0.00  0.00     0.000 A 
ATOM      5  C5  BNZ d   1      -1.449   0.682  -0.988  0.00  0.00     0.000 A 
ATOM      6  C6  BNZ d   1      -0.402  -0.189  -0.791  0.00  0.00     0.000 A 
ENDROOT
TORSDOF 0
ENDMDL
