MODEL 1
REMARK minimizedAffinity 2.67731237
REMARK minimizedRMSD -1
REMARK  1 active torsions:
REMARK  status: ('A' for Active; 'I' for Inactive)
REMARK    1  A    between atoms: C3_4  and  O_7 
ROOT
ATOM      1  C   UNL d   1      -1.903   1.231   3.054  0.00  0.00    -0.033 A 
ATOM      2  C1  UNL d   1      -2.062   0.026   2.367  0.00  0.00     0.039 A 
ATOM      3  C2  UNL d   1      -1.098  -0.977   2.481  0.00  0.00    -0.080 A 
ATOM      4  C3  UNL d   1       0.018  -0.764   3.285  0.00  0.00     0.150 A 
ATOM      5  C4  UNL d   1       0.182   0.432   3.975  0.00  0.00    -0.007 A 
ATOM      6  C5  UNL d   1      -0.782   1.434   3.859  0.00  0.00     0.039 A 
ENDROOT
BRANCH   4   7
ATOM      7  O   UNL d   1       0.988  -1.712   3.423  0.00  0.00    -0.526 OA
ATOM      8  H5  UNL d   1       0.755  -2.474   2.866  0.00  0.00     0.418 HD
ENDBRANCH   4   7
TORSDOF 1
ENDMDL
