MODEL 1
REMARK minimizedAffinity 9.94419765
REMARK minimizedRMSD -1
REMARK  1 active torsions:
REMARK  status: ('A' for Active; 'I' for Inactive)
REMARK    1  A    between atoms: C3_4  and  O_7 
ROOT
ATOM      1  C   UNL d   1       0.606   0.073   2.049  0.00  0.00    -0.033 A 
ATOM      2  C1  UNL d   1       1.643  -0.791   2.408  0.00  0.00     0.039 A 
ATOM      3  C2  UNL d   1       1.375  -1.923   3.181  0.00  0.00    -0.080 A 
ATOM      4  C3  UNL d   1       0.068  -2.180   3.585  0.00  0.00     0.150 A 
ATOM      5  C4  UNL d   1      -0.971  -1.326   3.227  0.00  0.00    -0.007 A 
ATOM      6  C5  UNL d   1      -0.701  -0.196   2.457  0.00  0.00     0.039 A 
ENDROOT
BRANCH   4   7
ATOM      7  O   UNL d   1      -0.242  -3.270   4.343  0.00  0.00    -0.526 OA
ATOM      8  H5  UNL d   1       0.578  -3.753   4.538  0.00  0.00     0.418 HD
ENDBRANCH   4   7
TORSDOF 1
ENDMDL
