MODEL 1
REMARK minimizedAffinity 8.77864838
REMARK minimizedRMSD -1
REMARK  1 active torsions:
REMARK  status: ('A' for Active; 'I' for Inactive)
REMARK    1  A    between atoms: C3_4  and  O_7 
ROOT
ATOM      1  C   UNL d   1      -0.445  -2.185  -2.599  0.00  0.00    -0.033 A 
ATOM      2  C1  UNL d   1      -0.429  -2.831  -3.836  0.00  0.00     0.039 A 
ATOM      3  C2  UNL d   1      -0.084  -2.125  -4.990  0.00  0.00    -0.080 A 
ATOM      4  C3  UNL d   1       0.243  -0.775  -4.893  0.00  0.00     0.150 A 
ATOM      5  C4  UNL d   1       0.233  -0.126  -3.663  0.00  0.00    -0.007 A 
ATOM      6  C5  UNL d   1      -0.113  -0.833  -2.512  0.00  0.00     0.039 A 
ENDROOT
BRANCH   4   7
ATOM      7  O   UNL d   1       0.582  -0.043  -5.993  0.00  0.00    -0.526 OA
ATOM      8  H5  UNL d   1       0.518  -0.616  -6.775  0.00  0.00     0.418 HD
ENDBRANCH   4   7
TORSDOF 1
ENDMDL
