MODEL 1
REMARK minimizedAffinity -4.77239799
REMARK minimizedRMSD -1
REMARK  0 active torsions:
REMARK  status: ('A' for Active; 'I' for Inactive)
ROOT
ATOM      1  C4' PXY d   1       3.735  -4.003  -0.602  0.00  0.00     0.077 C 
ATOM      2  C1' PXY d   1      -0.525  -0.604   1.326  0.00  0.00     0.077 C 
ATOM      3  C1  PXY d   1       0.587  -1.506   0.827  0.00  0.00    -0.082 A 
ATOM      4  C2  PXY d   1       1.722  -0.972   0.407  0.00  0.00     0.003 A 
ATOM      5  C3  PXY d   1       2.727  -1.770  -0.077  0.00  0.00     0.003 A 
ATOM      6  C4  PXY d   1       2.588  -3.132  -0.082  0.00  0.00    -0.082 A 
ATOM      7  C5  PXY d   1       1.437  -3.685   0.356  0.00  0.00     0.003 A 
ATOM      8  C6  PXY d   1       0.413  -2.855   0.805  0.00  0.00     0.003 A 
ENDROOT
TORSDOF 0
ENDMDL
