MODEL 1
REMARK minimizedAffinity 0.0796438977
REMARK minimizedRMSD -1
REMARK  0 active torsions:
REMARK  status: ('A' for Active; 'I' for Inactive)
ROOT
ATOM      1  C4' PXY d   1      -1.063  -1.088  -0.148  0.00  0.00     0.077 C 
ATOM      2  C1' PXY d   1       3.614  -4.477   0.101  0.00  0.00     0.077 C 
ATOM      3  C1  PXY d   1       2.392  -3.581   0.045  0.00  0.00    -0.082 A 
ATOM      4  C2  PXY d   1       1.252  -4.057  -0.429  0.00  0.00     0.003 A 
ATOM      5  C3  PXY d   1       0.147  -3.251  -0.517  0.00  0.00     0.003 A 
ATOM      6  C4  PXY d   1       0.193  -1.960  -0.064  0.00  0.00    -0.082 A 
ATOM      7  C5  PXY d   1       1.349  -1.470   0.432  0.00  0.00     0.003 A 
ATOM      8  C6  PXY d   1       2.472  -2.292   0.473  0.00  0.00     0.003 A 
ENDROOT
TORSDOF 0
ENDMDL
