MODEL 1
REMARK minimizedAffinity -6.02457619
REMARK minimizedRMSD -1
REMARK  0 active torsions:
REMARK  status: ('A' for Active; 'I' for Inactive)
ROOT
ATOM      1  C4' PXY d   1      -0.849  -0.995   0.443  0.00  0.00     0.077 C 
ATOM      2  C1' PXY d   1       3.744  -4.431  -0.269  0.00  0.00     0.077 C 
ATOM      3  C1  PXY d   1       2.547  -3.522  -0.076  0.00  0.00    -0.082 A 
ATOM      4  C2  PXY d   1       1.325  -4.021  -0.164  0.00  0.00     0.003 A 
ATOM      5  C3  PXY d   1       0.231  -3.207  -0.024  0.00  0.00     0.003 A 
ATOM      6  C4  PXY d   1       0.389  -1.878   0.264  0.00  0.00    -0.082 A 
ATOM      7  C5  PXY d   1       1.633  -1.362   0.366  0.00  0.00     0.003 A 
ATOM      8  C6  PXY d   1       2.730  -2.198   0.179  0.00  0.00     0.003 A 
ENDROOT
TORSDOF 0
ENDMDL
