MODEL 1
REMARK minimizedAffinity 2.16170907
REMARK minimizedRMSD -1
REMARK  0 active torsions:
REMARK  status: ('A' for Active; 'I' for Inactive)
ROOT
ATOM      1  C4' PXY d   1       3.540  -3.924   0.321  0.00  0.00     0.077 C 
ATOM      2  C1' PXY d   1      -0.881  -0.335   1.315  0.00  0.00     0.077 C 
ATOM      3  C1  PXY d   1       0.286  -1.266   1.052  0.00  0.00    -0.082 A 
ATOM      4  C2  PXY d   1       0.056  -2.509   0.664  0.00  0.00     0.003 A 
ATOM      5  C3  PXY d   1       1.099  -3.374   0.452  0.00  0.00     0.003 A 
ATOM      6  C4  PXY d   1       2.392  -2.946   0.589  0.00  0.00    -0.082 A 
ATOM      7  C5  PXY d   1       2.635  -1.675   0.975  0.00  0.00     0.003 A 
ATOM      8  C6  PXY d   1       1.562  -0.825   1.224  0.00  0.00     0.003 A 
ENDROOT
TORSDOF 0
ENDMDL
