MODEL 1
REMARK minimizedAffinity -3.47237587
REMARK minimizedRMSD -1
REMARK  0 active torsions:
REMARK  status: ('A' for Active; 'I' for Inactive)
ROOT
ATOM      1  C4' PXY d   1       3.451  -4.276  -0.407  0.00  0.00     0.077 C 
ATOM      2  C1' PXY d   1      -0.951  -0.630   0.455  0.00  0.00     0.077 C 
ATOM      3  C1  PXY d   1       0.211  -1.576   0.226  0.00  0.00    -0.082 A 
ATOM      4  C2  PXY d   1      -0.025  -2.856  -0.012  0.00  0.00     0.003 A 
ATOM      5  C3  PXY d   1       1.015  -3.732  -0.191  0.00  0.00     0.003 A 
ATOM      6  C4  PXY d   1       2.309  -3.283  -0.178  0.00  0.00    -0.082 A 
ATOM      7  C5  PXY d   1       2.557  -1.976   0.053  0.00  0.00     0.003 A 
ATOM      8  C6  PXY d   1       1.489  -1.111   0.273  0.00  0.00     0.003 A 
ENDROOT
TORSDOF 0
ENDMDL
