MODEL 1
REMARK minimizedAffinity -0.982598424
REMARK minimizedRMSD -1
REMARK  0 active torsions:
REMARK  status: ('A' for Active; 'I' for Inactive)
ROOT
ATOM      1  C4' PXY d   1       3.026  -4.287   0.391  0.00  0.00     0.077 C 
ATOM      2  C1' PXY d   1      -1.181  -0.355   0.904  0.00  0.00     0.077 C 
ATOM      3  C1  PXY d   1      -0.069  -1.376   0.769  0.00  0.00    -0.082 A 
ATOM      4  C2  PXY d   1      -0.339  -2.577   0.284  0.00  0.00     0.003 A 
ATOM      5  C3  PXY d   1       0.648  -3.524   0.185  0.00  0.00     0.003 A 
ATOM      6  C4  PXY d   1       1.936  -3.221   0.537  0.00  0.00    -0.082 A 
ATOM      7  C5  PXY d   1       2.222  -1.994   1.023  0.00  0.00     0.003 A 
ATOM      8  C6  PXY d   1       1.198  -1.061   1.154  0.00  0.00     0.003 A 
ENDROOT
TORSDOF 0
ENDMDL
