MODEL 1
REMARK minimizedAffinity -4.53782654
REMARK minimizedRMSD -1
REMARK  0 active torsions:
REMARK  status: ('A' for Active; 'I' for Inactive)
ROOT
ATOM      1  C4' PXY d   1       4.378  -4.358  -0.270  0.00  0.00     0.077 C 
ATOM      2  C1' PXY d   1      -0.453  -1.281   0.510  0.00  0.00     0.077 C 
ATOM      3  C1  PXY d   1       0.820  -2.077   0.301  0.00  0.00    -0.082 A 
ATOM      4  C2  PXY d   1       0.756  -3.393   0.182  0.00  0.00     0.003 A 
ATOM      5  C3  PXY d   1       1.900  -4.132   0.024  0.00  0.00     0.003 A 
ATOM      6  C4  PXY d   1       3.118  -3.513  -0.067  0.00  0.00    -0.082 A 
ATOM      7  C5  PXY d   1       3.190  -2.169   0.042  0.00  0.00     0.003 A 
ATOM      8  C6  PXY d   1       2.021  -1.441   0.243  0.00  0.00     0.003 A 
ENDROOT
TORSDOF 0
ENDMDL
