MODEL 1
REMARK minimizedAffinity 0.475866407
REMARK minimizedRMSD -1
REMARK  0 active torsions:
REMARK  status: ('A' for Active; 'I' for Inactive)
ROOT
ATOM      1  C4' PXY d   1       4.896  -0.875   2.013  0.00  0.00     0.077 C 
ATOM      2  C1' PXY d   1      -0.741  -0.761   0.738  0.00  0.00     0.077 C 
ATOM      3  C1  PXY d   1       0.740  -0.799   1.062  0.00  0.00    -0.082 A 
ATOM      4  C2  PXY d   1       1.147  -0.532   2.292  0.00  0.00     0.003 A 
ATOM      5  C3  PXY d   1       2.484  -0.531   2.595  0.00  0.00     0.003 A 
ATOM      6  C4  PXY d   1       3.411  -0.858   1.642  0.00  0.00    -0.082 A 
ATOM      7  C5  PXY d   1       3.003  -1.142   0.387  0.00  0.00     0.003 A 
ATOM      8  C6  PXY d   1       1.644  -1.098   0.090  0.00  0.00     0.003 A 
ENDROOT
TORSDOF 0
ENDMDL
