MODEL 1
REMARK minimizedAffinity -6.19571257
REMARK minimizedRMSD -1
REMARK  0 active torsions:
REMARK  status: ('A' for Active; 'I' for Inactive)
ROOT
ATOM      1  C4' PXY d   1      -1.524  -0.523   1.936  0.00  0.00     0.077 C 
ATOM      2  C1' PXY d   1       3.134  -3.159  -0.248  0.00  0.00     0.077 C 
ATOM      3  C1  PXY d   1       1.905  -2.477   0.320  0.00  0.00    -0.082 A 
ATOM      4  C2  PXY d   1       1.934  -1.178   0.569  0.00  0.00     0.003 A 
ATOM      5  C3  PXY d   1       0.842  -0.551   1.113  0.00  0.00     0.003 A 
ATOM      6  C4  PXY d   1      -0.310  -1.251   1.353  0.00  0.00    -0.082 A 
ATOM      7  C5  PXY d   1      -0.351  -2.575   1.091  0.00  0.00     0.003 A 
ATOM      8  C6  PXY d   1       0.782  -3.200   0.579  0.00  0.00     0.003 A 
ENDROOT
TORSDOF 0
ENDMDL
