MODEL 1
REMARK minimizedAffinity -2.48543811
REMARK minimizedRMSD -1
REMARK  0 active torsions:
REMARK  status: ('A' for Active; 'I' for Inactive)
ROOT
ATOM      1  C4' PXY d   1       3.763  -4.368  -0.084  0.00  0.00     0.077 C 
ATOM      2  C1' PXY d   1      -0.295  -0.449   1.172  0.00  0.00     0.077 C 
ATOM      3  C1  PXY d   1       0.776  -1.467   0.837  0.00  0.00    -0.082 A 
ATOM      4  C2  PXY d   1       0.455  -2.747   0.740  0.00  0.00     0.003 A 
ATOM      5  C3  PXY d   1       1.417  -3.685   0.470  0.00  0.00     0.003 A 
ATOM      6  C4  PXY d   1       2.713  -3.304   0.243  0.00  0.00    -0.082 A 
ATOM      7  C5  PXY d   1       3.046  -1.999   0.329  0.00  0.00     0.003 A 
ATOM      8  C6  PXY d   1       2.063  -1.066   0.646  0.00  0.00     0.003 A 
ENDROOT
TORSDOF 0
ENDMDL
