MODEL 1
REMARK minimizedAffinity -2.08951735
REMARK minimizedRMSD -1
REMARK  0 active torsions:
REMARK  status: ('A' for Active; 'I' for Inactive)
ROOT
ATOM      1  C4' PXY d   1      -0.843  -0.831   1.221  0.00  0.00     0.077 C 
ATOM      2  C1' PXY d   1       3.271  -4.448  -0.624  0.00  0.00     0.077 C 
ATOM      3  C1  PXY d   1       2.201  -3.490  -0.137  0.00  0.00    -0.082 A 
ATOM      4  C2  PXY d   1       1.032  -3.964   0.261  0.00  0.00     0.003 A 
ATOM      5  C3  PXY d   1       0.042  -3.110   0.675  0.00  0.00     0.003 A 
ATOM      6  C4  PXY d   1       0.269  -1.761   0.731  0.00  0.00    -0.082 A 
ATOM      7  C5  PXY d   1       1.464  -1.271   0.336  0.00  0.00     0.003 A 
ATOM      8  C6  PXY d   1       2.441  -2.151  -0.120  0.00  0.00     0.003 A 
ENDROOT
TORSDOF 0
ENDMDL
