MODEL 1
REMARK minimizedAffinity -4.46088505
REMARK minimizedRMSD -1
REMARK  0 active torsions:
REMARK  status: ('A' for Active; 'I' for Inactive)
ROOT
ATOM      1  C4' PXY d   1       3.526  -4.428  -0.093  0.00  0.00     0.077 C 
ATOM      2  C1' PXY d   1      -0.860  -0.734   0.633  0.00  0.00     0.077 C 
ATOM      3  C1  PXY d   1       0.282  -1.712   0.446  0.00  0.00    -0.082 A 
ATOM      4  C2  PXY d   1       1.531  -1.277   0.491  0.00  0.00     0.003 A 
ATOM      5  C3  PXY d   1       2.575  -2.143   0.293  0.00  0.00     0.003 A 
ATOM      6  C4  PXY d   1       2.341  -3.478   0.099  0.00  0.00    -0.082 A 
ATOM      7  C5  PXY d   1       1.071  -3.932   0.062  0.00  0.00     0.003 A 
ATOM      8  C6  PXY d   1       0.023  -3.030   0.225  0.00  0.00     0.003 A 
ENDROOT
TORSDOF 0
ENDMDL
