MODEL 1
REMARK minimizedAffinity -1.71701086
REMARK minimizedRMSD -1
REMARK  0 active torsions:
REMARK  status: ('A' for Active; 'I' for Inactive)
ROOT
ATOM      1  C4' PXY d   1       3.308  -4.807  -0.253  0.00  0.00     0.077 C 
ATOM      2  C1' PXY d   1      -0.639  -0.825   1.154  0.00  0.00     0.077 C 
ATOM      3  C1  PXY d   1       0.404  -1.859   0.781  0.00  0.00    -0.082 A 
ATOM      4  C2  PXY d   1       0.025  -3.090   0.476  0.00  0.00     0.003 A 
ATOM      5  C3  PXY d   1       0.958  -4.046   0.168  0.00  0.00     0.003 A 
ATOM      6  C4  PXY d   1       2.288  -3.727   0.120  0.00  0.00    -0.082 A 
ATOM      7  C5  PXY d   1       2.682  -2.471   0.420  0.00  0.00     0.003 A 
ATOM      8  C6  PXY d   1       1.723  -1.525   0.770  0.00  0.00     0.003 A 
ENDROOT
TORSDOF 0
ENDMDL
