MODEL 1
REMARK minimizedAffinity -4.1917038
REMARK minimizedRMSD -1
REMARK  0 active torsions:
REMARK  status: ('A' for Active; 'I' for Inactive)
ROOT
ATOM      1  C4' PXY d   1       3.690  -4.604   0.014  0.00  0.00     0.077 C 
ATOM      2  C1' PXY d   1      -0.814  -1.016   0.516  0.00  0.00     0.077 C 
ATOM      3  C1  PXY d   1       0.359  -1.967   0.388  0.00  0.00    -0.082 A 
ATOM      4  C2  PXY d   1       1.594  -1.497   0.467  0.00  0.00     0.003 A 
ATOM      5  C3  PXY d   1       2.667  -2.338   0.322  0.00  0.00     0.003 A 
ATOM      6  C4  PXY d   1       2.475  -3.682   0.147  0.00  0.00    -0.082 A 
ATOM      7  C5  PXY d   1       1.218  -4.171   0.076  0.00  0.00     0.003 A 
ATOM      8  C6  PXY d   1       0.143  -3.294   0.185  0.00  0.00     0.003 A 
ENDROOT
TORSDOF 0
ENDMDL
