MODEL 1
REMARK minimizedAffinity -3.96194363
REMARK minimizedRMSD -1
REMARK  0 active torsions:
REMARK  status: ('A' for Active; 'I' for Inactive)
ROOT
ATOM      1  C4' PXY d   1       3.562  -4.550   0.098  0.00  0.00     0.077 C 
ATOM      2  C1' PXY d   1      -0.759  -0.757   0.691  0.00  0.00     0.077 C 
ATOM      3  C1  PXY d   1       0.382  -1.742   0.531  0.00  0.00    -0.082 A 
ATOM      4  C2  PXY d   1       0.117  -3.024   0.342  0.00  0.00     0.003 A 
ATOM      5  C3  PXY d   1       1.137  -3.934   0.228  0.00  0.00     0.003 A 
ATOM      6  C4  PXY d   1       2.442  -3.518   0.254  0.00  0.00    -0.082 A 
ATOM      7  C5  PXY d   1       2.720  -2.210   0.436  0.00  0.00     0.003 A 
ATOM      8  C6  PXY d   1       1.670  -1.309   0.591  0.00  0.00     0.003 A 
ENDROOT
TORSDOF 0
ENDMDL
