MODEL 1
REMARK minimizedAffinity -5.11637259
REMARK minimizedRMSD -1
REMARK  0 active torsions:
REMARK  status: ('A' for Active; 'I' for Inactive)
ROOT
ATOM      1  C4' PXY d   1       3.289  -4.484   0.166  0.00  0.00     0.077 C 
ATOM      2  C1' PXY d   1      -0.904  -0.507   0.266  0.00  0.00     0.077 C 
ATOM      3  C1  PXY d   1       0.187  -1.559   0.243  0.00  0.00    -0.082 A 
ATOM      4  C2  PXY d   1       1.438  -1.210   0.493  0.00  0.00     0.003 A 
ATOM      5  C3  PXY d   1       2.442  -2.143   0.444  0.00  0.00     0.003 A 
ATOM      6  C4  PXY d   1       2.154  -3.457   0.189  0.00  0.00    -0.082 A 
ATOM      7  C5  PXY d   1       0.878  -3.823  -0.057  0.00  0.00     0.003 A 
ATOM      8  C6  PXY d   1      -0.120  -2.854  -0.044  0.00  0.00     0.003 A 
ENDROOT
TORSDOF 0
ENDMDL
