MODEL 1
REMARK minimizedAffinity 9.33672905
REMARK minimizedRMSD -1
REMARK  0 active torsions:
REMARK  status: ('A' for Active; 'I' for Inactive)
ROOT
ATOM      1  C4' PXY d   1      -3.730   2.913   3.820  0.00  0.00     0.077 C 
ATOM      2  C1' PXY d   1       0.610  -0.901   3.635  0.00  0.00     0.077 C 
ATOM      3  C1  PXY d   1      -0.523   0.106   3.674  0.00  0.00    -0.082 A 
ATOM      4  C2  PXY d   1      -1.232   0.250   4.781  0.00  0.00     0.003 A 
ATOM      5  C3  PXY d   1      -2.280   1.133   4.824  0.00  0.00     0.003 A 
ATOM      6  C4  PXY d   1      -2.572   1.915   3.738  0.00  0.00    -0.082 A 
ATOM      7  C5  PXY d   1      -1.846   1.781   2.608  0.00  0.00     0.003 A 
ATOM      8  C6  PXY d   1      -0.812   0.850   2.572  0.00  0.00     0.003 A 
ENDROOT
TORSDOF 0
ENDMDL
