MODEL 1
REMARK minimizedAffinity 3.5426023
REMARK minimizedRMSD -1
REMARK  0 active torsions:
REMARK  status: ('A' for Active; 'I' for Inactive)
ROOT
ATOM      1  C4' PXY d   1       3.752   4.267   0.574  0.00  0.00     0.077 C 
ATOM      2  C1' PXY d   1       2.266   0.694  -3.720  0.00  0.00     0.077 C 
ATOM      3  C1  PXY d   1       2.651   1.642  -2.601  0.00  0.00    -0.082 A 
ATOM      4  C2  PXY d   1       3.616   1.304  -1.761  0.00  0.00     0.003 A 
ATOM      5  C3  PXY d   1       3.955   2.134  -0.724  0.00  0.00     0.003 A 
ATOM      6  C4  PXY d   1       3.336   3.346  -0.577  0.00  0.00    -0.082 A 
ATOM      7  C5  PXY d   1       2.358   3.703  -1.436  0.00  0.00     0.003 A 
ATOM      8  C6  PXY d   1       2.000   2.828  -2.457  0.00  0.00     0.003 A 
ENDROOT
TORSDOF 0
ENDMDL
