MODEL 1
REMARK minimizedAffinity 2.93517327
REMARK minimizedRMSD -1
REMARK  0 active torsions:
REMARK  status: ('A' for Active; 'I' for Inactive)
ROOT
ATOM      1  C4' PXY d   1       4.903  -5.565  -0.284  0.00  0.00     0.077 C 
ATOM      2  C1' PXY d   1       0.327  -2.106   0.433  0.00  0.00     0.077 C 
ATOM      3  C1  PXY d   1       1.534  -3.004   0.239  0.00  0.00    -0.082 A 
ATOM      4  C2  PXY d   1       1.384  -4.318   0.276  0.00  0.00     0.003 A 
ATOM      5  C3  PXY d   1       2.469  -5.144   0.134  0.00  0.00     0.003 A 
ATOM      6  C4  PXY d   1       3.712  -4.621  -0.102  0.00  0.00    -0.082 A 
ATOM      7  C5  PXY d   1       3.871  -3.281  -0.152  0.00  0.00     0.003 A 
ATOM      8  C6  PXY d   1       2.764  -2.459   0.036  0.00  0.00     0.003 A 
ENDROOT
TORSDOF 0
ENDMDL
