MODEL 1
REMARK minimizedAffinity -5.15854263
REMARK minimizedRMSD -1
REMARK  0 active torsions:
REMARK  status: ('A' for Active; 'I' for Inactive)
ROOT
ATOM      1  C4' PXY d   1       3.602  -3.920  -0.384  0.00  0.00     0.077 C 
ATOM      2  C1' PXY d   1      -1.102  -0.635   0.320  0.00  0.00     0.077 C 
ATOM      3  C1  PXY d   1       0.125  -1.507   0.138  0.00  0.00    -0.082 A 
ATOM      4  C2  PXY d   1       1.330  -0.969   0.232  0.00  0.00     0.003 A 
ATOM      5  C3  PXY d   1       2.449  -1.737   0.040  0.00  0.00     0.003 A 
ATOM      6  C4  PXY d   1       2.336  -3.080  -0.199  0.00  0.00    -0.082 A 
ATOM      7  C5  PXY d   1       1.110  -3.639  -0.286  0.00  0.00     0.003 A 
ATOM      8  C6  PXY d   1      -0.015  -2.834  -0.128  0.00  0.00     0.003 A 
ENDROOT
TORSDOF 0
ENDMDL
