MODEL 1
REMARK minimizedAffinity 6.23828125
REMARK minimizedRMSD -1
REMARK  0 active torsions:
REMARK  status: ('A' for Active; 'I' for Inactive)
ROOT
ATOM      1  C   UNL d   1      -1.199  -0.014  -1.734  0.00  0.00     0.020 A 
ATOM      2  C1  UNL d   1      -1.185   0.416  -0.407  0.00  0.00     0.020 A 
ATOM      3  C2  UNL d   1      -2.120   1.354   0.033  0.00  0.00     0.034 A 
ATOM      4  C3  UNL d   1      -3.074   1.866  -0.854  0.00  0.00     0.017 A 
ATOM      5  C4  UNL d   1      -3.088   1.435  -2.185  0.00  0.00     0.017 A 
ATOM      6  C5  UNL d   1      -2.148   0.495  -2.621  0.00  0.00     0.034 A 
ATOM      7 Cl   UNL d   1      -4.234   2.022  -3.338  0.00  0.00    -0.070 Cl
ATOM      8 Cl1  UNL d   1      -4.202   3.023  -0.241  0.00  0.00    -0.070 Cl
ENDROOT
TORSDOF 0
ENDMDL
