MODEL 1
REMARK minimizedAffinity 8.58561993
REMARK minimizedRMSD -1
REMARK  0 active torsions:
REMARK  status: ('A' for Active; 'I' for Inactive)
ROOT
ATOM      1  C   UNL d   1      -6.000   3.538   0.303  0.00  0.00     0.020 A 
ATOM      2  C1  UNL d   1      -5.330   3.732   1.510  0.00  0.00     0.020 A 
ATOM      3  C2  UNL d   1      -3.995   3.341   1.638  0.00  0.00     0.034 A 
ATOM      4  C3  UNL d   1      -3.327   2.755   0.558  0.00  0.00     0.017 A 
ATOM      5  C4  UNL d   1      -4.000   2.561  -0.654  0.00  0.00     0.017 A 
ATOM      6  C5  UNL d   1      -5.336   2.954  -0.777  0.00  0.00     0.034 A 
ATOM      7 Cl   UNL d   1      -3.241   1.843  -2.031  0.00  0.00    -0.070 Cl
ATOM      8 Cl1  UNL d   1      -1.676   2.296   0.787  0.00  0.00    -0.070 Cl
ENDROOT
TORSDOF 0
ENDMDL
