MODEL 1
REMARK minimizedAffinity -1.19059205
REMARK minimizedRMSD -1
REMARK  0 active torsions:
REMARK  status: ('A' for Active; 'I' for Inactive)
ROOT
ATOM      1  C   UNL d   1       1.712  -5.973  -5.990  0.00  0.00     0.020 A 
ATOM      2  C1  UNL d   1       1.014  -5.985  -4.783  0.00  0.00     0.020 A 
ATOM      3  C2  UNL d   1       1.711  -5.993  -3.573  0.00  0.00     0.034 A 
ATOM      4  C3  UNL d   1       3.110  -5.989  -3.566  0.00  0.00     0.017 A 
ATOM      5  C4  UNL d   1       3.811  -5.977  -4.778  0.00  0.00     0.017 A 
ATOM      6  C5  UNL d   1       3.108  -5.969  -5.987  0.00  0.00     0.034 A 
ATOM      7 Cl   UNL d   1       5.538  -5.971  -4.851  0.00  0.00    -0.070 Cl
ATOM      8 Cl1  UNL d   1       3.907  -5.999  -2.033  0.00  0.00    -0.070 Cl
ENDROOT
TORSDOF 0
ENDMDL
