MODEL 1
REMARK minimizedAffinity 0.739044487
REMARK minimizedRMSD -1
REMARK  0 active torsions:
REMARK  status: ('A' for Active; 'I' for Inactive)
ROOT
ATOM      1  C   UNL d   1       1.949  -5.997  -1.688  0.00  0.00     0.020 A 
ATOM      2  C1  UNL d   1       3.324  -5.997  -1.455  0.00  0.00     0.020 A 
ATOM      3  C2  UNL d   1       4.214  -5.996  -2.531  0.00  0.00     0.034 A 
ATOM      4  C3  UNL d   1       3.732  -5.995  -3.844  0.00  0.00     0.017 A 
ATOM      5  C4  UNL d   1       2.352  -5.995  -4.078  0.00  0.00     0.017 A 
ATOM      6  C5  UNL d   1       1.464  -5.996  -2.997  0.00  0.00     0.034 A 
ATOM      7 Cl   UNL d   1       1.681  -5.993  -5.670  0.00  0.00    -0.070 Cl
ATOM      8 Cl1  UNL d   1       4.890  -5.993  -5.126  0.00  0.00    -0.070 Cl
ENDROOT
TORSDOF 0
ENDMDL
