MODEL 1
REMARK minimizedAffinity 0.287451923
REMARK minimizedRMSD -1
REMARK  0 active torsions:
REMARK  status: ('A' for Active; 'I' for Inactive)
ROOT
ATOM      1  C   UNL d   1       1.538  -5.993  -4.446  0.00  0.00     0.020 A 
ATOM      2  C1  UNL d   1       2.019  -5.994  -5.755  0.00  0.00     0.020 A 
ATOM      3  C2  UNL d   1       3.395  -5.996  -5.994  0.00  0.00     0.034 A 
ATOM      4  C3  UNL d   1       4.295  -5.997  -4.922  0.00  0.00     0.017 A 
ATOM      5  C4  UNL d   1       3.812  -5.996  -3.609  0.00  0.00     0.017 A 
ATOM      6  C5  UNL d   1       2.433  -5.994  -3.375  0.00  0.00     0.034 A 
ATOM      7 Cl   UNL d   1       4.861  -5.997  -2.235  0.00  0.00    -0.070 Cl
ATOM      8 Cl1  UNL d   1       5.983  -5.999  -5.291  0.00  0.00    -0.070 Cl
ENDROOT
TORSDOF 0
ENDMDL
