MODEL 1
REMARK minimizedAffinity 0.838551939
REMARK minimizedRMSD -1
REMARK  0 active torsions:
REMARK  status: ('A' for Active; 'I' for Inactive)
ROOT
ATOM      1  C   UNL d   1       4.527  -5.997  -1.895  0.00  0.00     0.020 A 
ATOM      2  C1  UNL d   1       3.133  -5.997  -1.858  0.00  0.00     0.020 A 
ATOM      3  C2  UNL d   1       2.403  -5.998  -3.048  0.00  0.00     0.034 A 
ATOM      4  C3  UNL d   1       3.066  -5.999  -4.281  0.00  0.00     0.017 A 
ATOM      5  C4  UNL d   1       4.465  -5.999  -4.317  0.00  0.00     0.017 A 
ATOM      6  C5  UNL d   1       5.191  -5.998  -3.122  0.00  0.00     0.034 A 
ATOM      7 Cl   UNL d   1       5.353  -6.000  -5.800  0.00  0.00    -0.070 Cl
ATOM      8 Cl1  UNL d   1       2.099  -6.000  -5.713  0.00  0.00    -0.070 Cl
ENDROOT
TORSDOF 0
ENDMDL
