MODEL 1
REMARK minimizedAffinity 10.5491028
REMARK minimizedRMSD -1
REMARK  0 active torsions:
REMARK  status: ('A' for Active; 'I' for Inactive)
ROOT
ATOM      1  C   UNL d   1      -5.989   1.212   0.377  0.00  0.00     0.020 A 
ATOM      2  C1  UNL d   1      -5.999   1.677  -0.937  0.00  0.00     0.020 A 
ATOM      3  C2  UNL d   1      -5.998   3.051  -1.191  0.00  0.00     0.034 A 
ATOM      4  C3  UNL d   1      -5.988   3.963  -0.130  0.00  0.00     0.017 A 
ATOM      5  C4  UNL d   1      -5.978   3.494   1.189  0.00  0.00     0.017 A 
ATOM      6  C5  UNL d   1      -5.979   2.118   1.438  0.00  0.00     0.034 A 
ATOM      7 Cl   UNL d   1      -5.965   4.558   2.551  0.00  0.00    -0.070 Cl
ATOM      8 Cl1  UNL d   1      -5.987   5.647  -0.517  0.00  0.00    -0.070 Cl
ENDROOT
TORSDOF 0
ENDMDL
