MODEL 1
REMARK minimizedAffinity 7.22266197
REMARK minimizedRMSD -1
REMARK  0 active torsions:
REMARK  status: ('A' for Active; 'I' for Inactive)
ROOT
ATOM      1  C   UNL d   1       1.097  -2.884   2.948  0.00  0.00     0.020 A 
ATOM      2  C1  UNL d   1       1.989  -1.861   2.628  0.00  0.00     0.020 A 
ATOM      3  C2  UNL d   1       3.270  -1.853   3.184  0.00  0.00     0.034 A 
ATOM      4  C3  UNL d   1       3.662  -2.869   4.064  0.00  0.00     0.017 A 
ATOM      5  C4  UNL d   1       2.766  -3.895   4.384  0.00  0.00     0.017 A 
ATOM      6  C5  UNL d   1       1.485  -3.898   3.824  0.00  0.00     0.034 A 
ATOM      7 Cl   UNL d   1       3.178  -5.182   5.461  0.00  0.00    -0.070 Cl
ATOM      8 Cl1  UNL d   1       5.261  -2.795   4.714  0.00  0.00    -0.070 Cl
ENDROOT
TORSDOF 0
ENDMDL
