MODEL 1
REMARK minimizedAffinity 1.68570054
REMARK minimizedRMSD -1
REMARK  0 active torsions:
REMARK  status: ('A' for Active; 'I' for Inactive)
ROOT
ATOM      1  C   UNL d   1       6.000  -1.000  -5.440  0.00  0.00     0.020 A 
ATOM      2  C1  UNL d   1       5.507   0.179  -6.000  0.00  0.00     0.020 A 
ATOM      3  C2  UNL d   1       4.689   1.021  -5.244  0.00  0.00     0.034 A 
ATOM      4  C3  UNL d   1       4.361   0.687  -3.925  0.00  0.00     0.017 A 
ATOM      5  C4  UNL d   1       4.856  -0.496  -3.365  0.00  0.00     0.017 A 
ATOM      6  C5  UNL d   1       5.675  -1.336  -4.126  0.00  0.00     0.034 A 
ATOM      7 Cl   UNL d   1       4.494  -0.975  -1.744  0.00  0.00    -0.070 Cl
ATOM      8 Cl1  UNL d   1       3.345   1.776  -3.050  0.00  0.00    -0.070 Cl
ENDROOT
TORSDOF 0
ENDMDL
