MODEL 1
REMARK minimizedAffinity 3.64261484
REMARK minimizedRMSD -1
REMARK  0 active torsions:
REMARK  status: ('A' for Active; 'I' for Inactive)
ROOT
ATOM      1  C   UNL d   1       1.493  -4.173   4.603  0.00  0.00     0.020 A 
ATOM      2  C1  UNL d   1       1.962  -4.364   3.305  0.00  0.00     0.020 A 
ATOM      3  C2  UNL d   1       2.188  -3.265   2.474  0.00  0.00     0.034 A 
ATOM      4  C3  UNL d   1       1.944  -1.968   2.942  0.00  0.00     0.017 A 
ATOM      5  C4  UNL d   1       1.473  -1.777   4.246  0.00  0.00     0.017 A 
ATOM      6  C5  UNL d   1       1.248  -2.881   5.073  0.00  0.00     0.034 A 
ATOM      7 Cl   UNL d   1       1.149  -0.207   4.893  0.00  0.00    -0.070 Cl
ATOM      8 Cl1  UNL d   1       2.246  -0.654   1.861  0.00  0.00    -0.070 Cl
ENDROOT
TORSDOF 0
ENDMDL
