MODEL 1
REMARK minimizedAffinity 6.36915827
REMARK minimizedRMSD -1
REMARK  2 active torsions:
REMARK  status: ('A' for Active; 'I' for Inactive)
REMARK    1  A    between atoms: C1_2  and  C2_3 
REMARK    2  A    between atoms: C2_3  and  C3_4 
ROOT
ATOM      1  C3  UNL d   1       3.604   4.492   3.776  0.00  0.00    -0.075 A 
ATOM      2  C4  UNL d   1       3.174   5.249   4.875  0.00  0.00     0.002 A 
ATOM      3  C5  UNL d   1       4.086   6.000   5.618  0.00  0.00     0.002 A 
ATOM      4  C6  UNL d   1       5.437   5.996   5.278  0.00  0.00    -0.004 A 
ATOM      5  C7  UNL d   1       5.877   5.234   4.198  0.00  0.00     0.002 A 
ATOM      6  C8  UNL d   1       4.967   4.486   3.450  0.00  0.00     0.002 A 
ENDROOT
BRANCH   1   7
ATOM      7  C2  UNL d   1       2.618   3.701   2.950  0.00  0.00     0.056 C 
BRANCH   7   8
ATOM      8  C1  UNL d   1       1.219   4.324   2.883  0.00  0.00     0.007 C 
ATOM      9  C   UNL d   1       0.191   3.582   3.727  0.00  0.00     0.009 C 
ENDBRANCH   7   8
ENDBRANCH   1   7
TORSDOF 2
ENDMDL
