MODEL 1
REMARK minimizedAffinity -4.42296743
REMARK minimizedRMSD -1
REMARK  2 active torsions:
REMARK  status: ('A' for Active; 'I' for Inactive)
REMARK    1  A    between atoms: C1_2  and  C2_3 
REMARK    2  A    between atoms: C2_3  and  C3_4 
ROOT
ATOM      1  C3  UNL d   1       1.981   5.249   4.254  0.00  0.00    -0.075 A 
ATOM      2  C4  UNL d   1       1.442   5.999   5.310  0.00  0.00     0.002 A 
ATOM      3  C5  UNL d   1       0.072   5.966   5.574  0.00  0.00     0.002 A 
ATOM      4  C6  UNL d   1      -0.775   5.193   4.782  0.00  0.00    -0.004 A 
ATOM      5  C7  UNL d   1      -0.252   4.458   3.721  0.00  0.00     0.002 A 
ATOM      6  C8  UNL d   1       1.119   4.485   3.457  0.00  0.00     0.002 A 
ENDROOT
BRANCH   1   7
ATOM      7  C2  UNL d   1       3.466   5.257   3.981  0.00  0.00     0.056 C 
BRANCH   7   8
ATOM      8  C1  UNL d   1       4.328   4.937   5.207  0.00  0.00     0.007 C 
ATOM      9  C   UNL d   1       5.817   4.877   4.896  0.00  0.00     0.009 C 
ENDBRANCH   7   8
ENDBRANCH   1   7
TORSDOF 2
ENDMDL
