MODEL 1
REMARK minimizedAffinity 7.33860588
REMARK minimizedRMSD -1
REMARK  2 active torsions:
REMARK  status: ('A' for Active; 'I' for Inactive)
REMARK    1  A    between atoms: C1_2  and  C2_3 
REMARK    2  A    between atoms: C2_3  and  C3_4 
ROOT
ATOM      1  C3  UNL d   1       0.697   3.277  -5.247  0.00  0.00    -0.075 A 
ATOM      2  C4  UNL d   1       2.067   2.975  -5.252  0.00  0.00     0.002 A 
ATOM      3  C5  UNL d   1       3.004   3.944  -5.614  0.00  0.00     0.002 A 
ATOM      4  C6  UNL d   1       2.584   5.219  -5.985  0.00  0.00    -0.004 A 
ATOM      5  C7  UNL d   1       1.224   5.525  -6.000  0.00  0.00     0.002 A 
ATOM      6  C8  UNL d   1       0.285   4.559  -5.634  0.00  0.00     0.002 A 
ENDROOT
BRANCH   1   7
ATOM      7  C2  UNL d   1      -0.320   2.242  -4.828  0.00  0.00     0.056 C 
BRANCH   7   8
ATOM      8  C1  UNL d   1      -1.499   2.813  -4.033  0.00  0.00     0.007 C 
ATOM      9  C   UNL d   1      -1.632   2.209  -2.641  0.00  0.00     0.009 C 
ENDBRANCH   7   8
ENDBRANCH   1   7
TORSDOF 2
ENDMDL
