MODEL 1
REMARK minimizedAffinity 12.3532457
REMARK minimizedRMSD -1
REMARK  2 active torsions:
REMARK  status: ('A' for Active; 'I' for Inactive)
REMARK    1  A    between atoms: C1_2  and  C2_3 
REMARK    2  A    between atoms: C2_3  and  C3_4 
ROOT
ATOM      1  C3  UNL d   1       1.348  -1.425   3.093  0.00  0.00    -0.075 A 
ATOM      2  C4  UNL d   1       0.066  -1.973   3.246  0.00  0.00     0.002 A 
ATOM      3  C5  UNL d   1      -0.532  -2.678   2.202  0.00  0.00     0.002 A 
ATOM      4  C6  UNL d   1       0.137  -2.836   0.990  0.00  0.00    -0.004 A 
ATOM      5  C7  UNL d   1       1.404  -2.282   0.821  0.00  0.00     0.002 A 
ATOM      6  C8  UNL d   1       2.007  -1.580   1.866  0.00  0.00     0.002 A 
ENDROOT
BRANCH   1   7
ATOM      7  C2  UNL d   1       2.014  -0.686   4.229  0.00  0.00     0.056 C 
BRANCH   7   8
ATOM      8  C1  UNL d   1       3.394  -1.235   4.607  0.00  0.00     0.007 C 
ATOM      9  C   UNL d   1       3.326  -2.520   5.422  0.00  0.00     0.009 C 
ENDBRANCH   7   8
ENDBRANCH   1   7
TORSDOF 2
ENDMDL
