MODEL 1
REMARK minimizedAffinity 3.60944724
REMARK minimizedRMSD -1
REMARK  2 active torsions:
REMARK  status: ('A' for Active; 'I' for Inactive)
REMARK    1  A    between atoms: C1_2  and  C2_3 
REMARK    2  A    between atoms: C2_3  and  C3_4 
ROOT
ATOM      1  C3  UNL d   1       3.298   5.129   4.773  0.00  0.00    -0.075 A 
ATOM      2  C4  UNL d   1       3.883   5.578   5.967  0.00  0.00     0.002 A 
ATOM      3  C5  UNL d   1       5.223   5.964   5.997  0.00  0.00     0.002 A 
ATOM      4  C6  UNL d   1       5.997   5.898   4.841  0.00  0.00    -0.004 A 
ATOM      5  C7  UNL d   1       5.431   5.438   3.654  0.00  0.00     0.002 A 
ATOM      6  C8  UNL d   1       4.089   5.055   3.619  0.00  0.00     0.002 A 
ENDROOT
BRANCH   1   7
ATOM      7  C2  UNL d   1       1.841   4.737   4.727  0.00  0.00     0.056 C 
BRANCH   7   8
ATOM      8  C1  UNL d   1       1.338   4.369   3.327  0.00  0.00     0.007 C 
ATOM      9  C   UNL d   1       1.589   2.911   2.963  0.00  0.00     0.009 C 
ENDBRANCH   7   8
ENDBRANCH   1   7
TORSDOF 2
ENDMDL
