MODEL 1
REMARK minimizedAffinity -1.24367213
REMARK minimizedRMSD -1
REMARK  0 active torsions:
REMARK  status: ('A' for Active; 'I' for Inactive)
ROOT
ATOM      1  C   UNL d   1      -0.259   0.091  -5.999  0.00  0.00     0.023 A 
ATOM      2  C1  UNL d   1      -0.597   0.769  -4.828  0.00  0.00     0.003 A 
ATOM      3  C2  UNL d   1      -0.743   0.067  -3.630  0.00  0.00     0.048 A 
ATOM      4  C3  UNL d   1      -0.548  -1.314  -3.610  0.00  0.00     0.023 A 
ATOM      5  C4  UNL d   1      -0.209  -1.996  -4.779  0.00  0.00     0.048 A 
ATOM      6  C5  UNL d   1      -0.065  -1.290  -5.975  0.00  0.00     0.003 A 
ATOM      7  I   UNL d   1      -0.765  -2.362  -1.828  0.00  0.00    -0.146 I 
ENDROOT
TORSDOF 0
ENDMDL
