MODEL 1
REMARK minimizedAffinity 4.97800827
REMARK minimizedRMSD -1
REMARK  0 active torsions:
REMARK  status: ('A' for Active; 'I' for Inactive)
ROOT
ATOM      1  C   UNL d   1       1.602  -1.791   2.962  0.00  0.00     0.023 A 
ATOM      2  C1  UNL d   1       1.105  -2.002   1.677  0.00  0.00     0.003 A 
ATOM      3  C2  UNL d   1       0.019  -1.254   1.216  0.00  0.00     0.048 A 
ATOM      4  C3  UNL d   1      -0.564  -0.297   2.045  0.00  0.00     0.023 A 
ATOM      5  C4  UNL d   1      -0.068  -0.082   3.332  0.00  0.00     0.048 A 
ATOM      6  C5  UNL d   1       1.017  -0.832   3.789  0.00  0.00     0.003 A 
ATOM      7  I   UNL d   1      -2.180   0.817   1.361  0.00  0.00    -0.146 I 
ENDROOT
TORSDOF 0
ENDMDL
