MODEL 1
REMARK minimizedAffinity -0.129346281
REMARK minimizedRMSD -1
REMARK  0 active torsions:
REMARK  status: ('A' for Active; 'I' for Inactive)
ROOT
ATOM      1  C   UNL d   1      -1.106  -0.377   1.934  0.00  0.00     0.023 A 
ATOM      2  C1  UNL d   1      -1.991   0.543   2.496  0.00  0.00     0.003 A 
ATOM      3  C2  UNL d   1      -3.139   0.925   1.798  0.00  0.00     0.048 A 
ATOM      4  C3  UNL d   1      -3.395   0.383   0.539  0.00  0.00     0.023 A 
ATOM      5  C4  UNL d   1      -2.513  -0.539  -0.026  0.00  0.00     0.048 A 
ATOM      6  C5  UNL d   1      -1.366  -0.917   0.675  0.00  0.00     0.003 A 
ATOM      7  I   UNL d   1      -5.103   0.950  -0.501  0.00  0.00    -0.146 I 
ENDROOT
TORSDOF 0
ENDMDL
