MODEL 1
REMARK minimizedAffinity 2.27212524
REMARK minimizedRMSD -1
REMARK  0 active torsions:
REMARK  status: ('A' for Active; 'I' for Inactive)
ROOT
ATOM      1  C   UNL d   1       4.396   1.655   4.322  0.00  0.00     0.023 A 
ATOM      2  C1  UNL d   1       4.812   2.819   4.967  0.00  0.00     0.003 A 
ATOM      3  C2  UNL d   1       5.193   3.935   4.219  0.00  0.00     0.048 A 
ATOM      4  C3  UNL d   1       5.155   3.880   2.827  0.00  0.00     0.023 A 
ATOM      5  C4  UNL d   1       4.739   2.717   2.176  0.00  0.00     0.048 A 
ATOM      6  C5  UNL d   1       4.360   1.604   2.928  0.00  0.00     0.003 A 
ATOM      7  I   UNL d   1       5.722   5.540   1.712  0.00  0.00    -0.146 I 
ENDROOT
TORSDOF 0
ENDMDL
