MODEL 1
REMARK minimizedAffinity -1.56196928
REMARK minimizedRMSD -1
REMARK  0 active torsions:
REMARK  status: ('A' for Active; 'I' for Inactive)
ROOT
ATOM      1  C   UNL d   1      -0.565  -0.058  -5.276  0.00  0.00     0.023 A 
ATOM      2  C1  UNL d   1      -1.071   0.540  -4.121  0.00  0.00     0.003 A 
ATOM      3  C2  UNL d   1      -1.295  -0.228  -2.977  0.00  0.00     0.048 A 
ATOM      4  C3  UNL d   1      -1.010  -1.593  -2.993  0.00  0.00     0.023 A 
ATOM      5  C4  UNL d   1      -0.503  -2.195  -4.146  0.00  0.00     0.048 A 
ATOM      6  C5  UNL d   1      -0.282  -1.423  -5.288  0.00  0.00     0.003 A 
ATOM      7  I   UNL d   1      -1.343  -2.738  -1.291  0.00  0.00    -0.146 I 
ENDROOT
TORSDOF 0
ENDMDL
