MODEL 1
REMARK minimizedAffinity 4.9215498
REMARK minimizedRMSD -1
REMARK  0 active torsions:
REMARK  status: ('A' for Active; 'I' for Inactive)
ROOT
ATOM      1  C   UNL d   1       0.715   0.099  -5.999  0.00  0.00     0.023 A 
ATOM      2  C1  UNL d   1       0.006   1.298  -5.943  0.00  0.00     0.003 A 
ATOM      3  C2  UNL d   1      -1.372   1.286  -5.716  0.00  0.00     0.048 A 
ATOM      4  C3  UNL d   1      -2.034   0.070  -5.547  0.00  0.00     0.023 A 
ATOM      5  C4  UNL d   1      -1.328  -1.132  -5.602  0.00  0.00     0.048 A 
ATOM      6  C5  UNL d   1       0.049  -1.115  -5.829  0.00  0.00     0.003 A 
ATOM      7  I   UNL d   1      -4.085   0.049  -5.210  0.00  0.00    -0.146 I 
ENDROOT
TORSDOF 0
ENDMDL
