MODEL 1
REMARK minimizedAffinity 6.05005932
REMARK minimizedRMSD -1
REMARK  0 active torsions:
REMARK  status: ('A' for Active; 'I' for Inactive)
ROOT
ATOM      1  C   UNL d   1       0.006  -2.664  -2.444  0.00  0.00     0.023 A 
ATOM      2  C1  UNL d   1      -0.918  -1.736  -1.964  0.00  0.00     0.003 A 
ATOM      3  C2  UNL d   1      -1.409  -0.738  -2.808  0.00  0.00     0.048 A 
ATOM      4  C3  UNL d   1      -0.975  -0.675  -4.131  0.00  0.00     0.023 A 
ATOM      5  C4  UNL d   1      -0.052  -1.602  -4.616  0.00  0.00     0.048 A 
ATOM      6  C5  UNL d   1       0.438  -2.598  -3.769  0.00  0.00     0.003 A 
ATOM      7  I   UNL d   1      -1.705   0.810  -5.389  0.00  0.00    -0.146 I 
ENDROOT
TORSDOF 0
ENDMDL
