MODEL 1
REMARK minimizedAffinity 2.42767596
REMARK minimizedRMSD -1
REMARK  0 active torsions:
REMARK  status: ('A' for Active; 'I' for Inactive)
ROOT
ATOM      1  C   UNL d   1       0.086  -0.620  -5.999  0.00  0.00     0.023 A 
ATOM      2  C1  UNL d   1      -0.649  -1.805  -5.999  0.00  0.00     0.003 A 
ATOM      3  C2  UNL d   1      -2.014  -1.782  -5.706  0.00  0.00     0.048 A 
ATOM      4  C3  UNL d   1      -2.638  -0.569  -5.415  0.00  0.00     0.023 A 
ATOM      5  C4  UNL d   1      -1.906   0.619  -5.415  0.00  0.00     0.048 A 
ATOM      6  C5  UNL d   1      -0.542   0.591  -5.708  0.00  0.00     0.003 A 
ATOM      7  I   UNL d   1      -4.669  -0.532  -4.979  0.00  0.00    -0.146 I 
ENDROOT
TORSDOF 0
ENDMDL
