MODEL 1
REMARK minimizedAffinity 7.55143976
REMARK minimizedRMSD -1
REMARK  0 active torsions:
REMARK  status: ('A' for Active; 'I' for Inactive)
ROOT
ATOM      1  C   UNL d   1      -0.800  -0.706   2.891  0.00  0.00     0.023 A 
ATOM      2  C1  UNL d   1      -1.682  -1.646   3.422  0.00  0.00     0.003 A 
ATOM      3  C2  UNL d   1      -2.524  -2.372   2.577  0.00  0.00     0.048 A 
ATOM      4  C3  UNL d   1      -2.477  -2.152   1.200  0.00  0.00     0.023 A 
ATOM      5  C4  UNL d   1      -1.595  -1.213   0.664  0.00  0.00     0.048 A 
ATOM      6  C5  UNL d   1      -0.756  -0.489   1.514  0.00  0.00     0.003 A 
ATOM      7  I   UNL d   1      -3.729  -3.230  -0.060  0.00  0.00    -0.146 I 
ENDROOT
TORSDOF 0
ENDMDL
