MODEL 1
REMARK minimizedAffinity -1.07675338
REMARK minimizedRMSD -1
REMARK  0 active torsions:
REMARK  status: ('A' for Active; 'I' for Inactive)
ROOT
ATOM      1  C   UNL d   1       0.789  -2.354  -3.146  0.00  0.00     0.023 A 
ATOM      2  C1  UNL d   1       0.744  -2.326  -4.540  0.00  0.00     0.003 A 
ATOM      3  C2  UNL d   1      -0.090  -1.418  -5.196  0.00  0.00     0.048 A 
ATOM      4  C3  UNL d   1      -0.876  -0.540  -4.451  0.00  0.00     0.023 A 
ATOM      5  C4  UNL d   1      -0.834  -0.563  -3.056  0.00  0.00     0.048 A 
ATOM      6  C5  UNL d   1       0.001  -1.473  -2.405  0.00  0.00     0.003 A 
ATOM      7  I   UNL d   1      -2.119   0.813  -5.424  0.00  0.00    -0.146 I 
ENDROOT
TORSDOF 0
ENDMDL
