MODEL 1
REMARK minimizedAffinity 3.4259541
REMARK minimizedRMSD -1
REMARK  0 active torsions:
REMARK  status: ('A' for Active; 'I' for Inactive)
ROOT
ATOM      1  C   UNL d   1      -0.791  -2.993  -3.117  0.00  0.00     0.023 A 
ATOM      2  C1  UNL d   1      -0.368  -1.786  -2.560  0.00  0.00     0.003 A 
ATOM      3  C2  UNL d   1      -0.069  -0.701  -3.385  0.00  0.00     0.048 A 
ATOM      4  C3  UNL d   1      -0.196  -0.829  -4.768  0.00  0.00     0.023 A 
ATOM      5  C4  UNL d   1      -0.619  -2.034  -5.331  0.00  0.00     0.048 A 
ATOM      6  C5  UNL d   1      -0.916  -3.117  -4.501  0.00  0.00     0.003 A 
ATOM      7  I   UNL d   1       0.249   0.786  -6.000  0.00  0.00    -0.146 I 
ENDROOT
TORSDOF 0
ENDMDL
