MODEL 1
REMARK minimizedAffinity -5.88582468
REMARK minimizedRMSD -1
REMARK  0 active torsions:
REMARK  status: ('A' for Active; 'I' for Inactive)
ROOT
ATOM      1  C1  DEN d   1      -1.774  -0.043   3.167  0.00  0.00     0.130 A 
ATOM      2  C2  DEN d   1      -3.030  -0.048   2.422  0.00  0.00    -0.031 A 
ATOM      3  C3  DEN d   1      -2.715   0.170   0.995  0.00  0.00     0.027 A 
ATOM      4  C4  DEN d   1      -0.417   0.509  -0.126  0.00  0.00     0.027 A 
ATOM      5  C5  DEN d   1       0.939   0.603   0.099  0.00  0.00    -0.003 A 
ATOM      6  C6  DEN d   1       1.478   0.524   1.355  0.00  0.00     0.001 A 
ATOM      7  C7  DEN d   1       0.661   0.299   2.432  0.00  0.00     0.017 A 
ATOM      8  C8  DEN d   1      -0.708   0.210   2.214  0.00  0.00    -0.094 A 
ATOM      9  C9  DEN d   1      -1.233   0.281   0.935  0.00  0.00    -0.072 A 
ENDROOT
TORSDOF 0
ENDMDL
