MODEL 1
REMARK minimizedAffinity -4.40375185
REMARK minimizedRMSD -1
REMARK  0 active torsions:
REMARK  status: ('A' for Active; 'I' for Inactive)
ROOT
ATOM      1  C1  DEN d   1      -1.207  -1.560   1.447  0.00  0.00     0.130 A 
ATOM      2  C2  DEN d   1      -0.991  -0.738   2.635  0.00  0.00    -0.031 A 
ATOM      3  C3  DEN d   1      -0.268   0.481   2.222  0.00  0.00     0.027 A 
ATOM      4  C4  DEN d   1       0.531   1.176  -0.130  0.00  0.00     0.027 A 
ATOM      5  C5  DEN d   1       0.588   0.797  -1.453  0.00  0.00    -0.003 A 
ATOM      6  C6  DEN d   1       0.085  -0.398  -1.893  0.00  0.00     0.001 A 
ATOM      7  C7  DEN d   1      -0.538  -1.239  -1.009  0.00  0.00     0.017 A 
ATOM      8  C8  DEN d   1      -0.592  -0.868   0.328  0.00  0.00    -0.094 A 
ATOM      9  C9  DEN d   1      -0.089   0.350   0.751  0.00  0.00    -0.072 A 
ENDROOT
TORSDOF 0
ENDMDL
