MODEL 1
REMARK minimizedAffinity -2.28009439
REMARK minimizedRMSD -1
REMARK  0 active torsions:
REMARK  status: ('A' for Active; 'I' for Inactive)
ROOT
ATOM      1  C1  DEN d   1      -0.805   0.750  -1.423  0.00  0.00     0.130 A 
ATOM      2  C2  DEN d   1       0.382   0.424  -2.208  0.00  0.00    -0.031 A 
ATOM      3  C3  DEN d   1       1.412  -0.096  -1.286  0.00  0.00     0.027 A 
ATOM      4  C4  DEN d   1       1.281  -0.431   1.268  0.00  0.00     0.027 A 
ATOM      5  C5  DEN d   1       0.482  -0.285   2.380  0.00  0.00    -0.003 A 
ATOM      6  C6  DEN d   1      -0.780   0.243   2.308  0.00  0.00     0.001 A 
ATOM      7  C7  DEN d   1      -1.297   0.603   1.091  0.00  0.00     0.017 A 
ATOM      8  C8  DEN d   1      -0.493   0.466  -0.033  0.00  0.00    -0.094 A 
ATOM      9  C9  DEN d   1       0.775  -0.081   0.059  0.00  0.00    -0.072 A 
ENDROOT
TORSDOF 0
ENDMDL
