MODEL 1
REMARK minimizedAffinity -5.13576078
REMARK minimizedRMSD -1
REMARK  0 active torsions:
REMARK  status: ('A' for Active; 'I' for Inactive)
ROOT
ATOM      1  C1  DEN d   1       0.009   1.101  -0.281  0.00  0.00     0.130 A 
ATOM      2  C2  DEN d   1       1.358   1.000   0.268  0.00  0.00    -0.031 A 
ATOM      3  C3  DEN d   1       1.255   0.449   1.634  0.00  0.00     0.027 A 
ATOM      4  C4  DEN d   1      -0.851  -0.258   2.944  0.00  0.00     0.027 A 
ATOM      5  C5  DEN d   1      -2.225  -0.346   2.898  0.00  0.00    -0.003 A 
ATOM      6  C6  DEN d   1      -2.947   0.070   1.811  0.00  0.00     0.001 A 
ATOM      7  C7  DEN d   1      -2.295   0.552   0.707  0.00  0.00     0.017 A 
ATOM      8  C8  DEN d   1      -0.910   0.651   0.749  0.00  0.00    -0.094 A 
ATOM      9  C9  DEN d   1      -0.197   0.214   1.852  0.00  0.00    -0.072 A 
ENDROOT
TORSDOF 0
ENDMDL
