MODEL 1
REMARK minimizedAffinity -1.69680071
REMARK minimizedRMSD -1
REMARK  0 active torsions:
REMARK  status: ('A' for Active; 'I' for Inactive)
ROOT
ATOM      1  C1  DEN d   1      -0.755  -0.033  -1.898  0.00  0.00     0.130 A 
ATOM      2  C2  DEN d   1       0.586  -0.110  -2.470  0.00  0.00    -0.031 A 
ATOM      3  C3  DEN d   1       1.556  -0.136  -1.356  0.00  0.00     0.027 A 
ATOM      4  C4  DEN d   1       1.113  -0.071   1.184  0.00  0.00     0.027 A 
ATOM      5  C5  DEN d   1       0.136   0.007   2.151  0.00  0.00    -0.003 A 
ATOM      6  C6  DEN d   1      -1.194   0.110   1.839  0.00  0.00     0.001 A 
ATOM      7  C7  DEN d   1      -1.586   0.093   0.527  0.00  0.00     0.017 A 
ATOM      8  C8  DEN d   1      -0.606   0.023  -0.454  0.00  0.00    -0.094 A 
ATOM      9  C9  DEN d   1       0.732  -0.094  -0.119  0.00  0.00    -0.072 A 
ENDROOT
TORSDOF 0
ENDMDL
