MODEL 1
REMARK minimizedAffinity -4.68536949
REMARK minimizedRMSD -1
REMARK  0 active torsions:
REMARK  status: ('A' for Active; 'I' for Inactive)
ROOT
ATOM      1  C1  DEN d   1      -0.646   0.255  -0.789  0.00  0.00     0.130 A 
ATOM      2  C2  DEN d   1       0.767   0.623  -0.743  0.00  0.00    -0.031 A 
ATOM      3  C3  DEN d   1       1.226   0.498   0.655  0.00  0.00     0.027 A 
ATOM      4  C4  DEN d   1      -0.105  -0.230   2.741  0.00  0.00     0.027 A 
ATOM      5  C5  DEN d   1      -1.340  -0.629   3.201  0.00  0.00    -0.003 A 
ATOM      6  C6  DEN d   1      -2.429  -0.728   2.377  0.00  0.00     0.001 A 
ATOM      7  C7  DEN d   1      -2.295  -0.467   1.039  0.00  0.00     0.017 A 
ATOM      8  C8  DEN d   1      -1.054  -0.057   0.569  0.00  0.00    -0.094 A 
ATOM      9  C9  DEN d   1       0.038   0.025   1.415  0.00  0.00    -0.072 A 
ENDROOT
TORSDOF 0
ENDMDL
