MODEL 1
REMARK minimizedAffinity -5.07959986
REMARK minimizedRMSD -1
REMARK  0 active torsions:
REMARK  status: ('A' for Active; 'I' for Inactive)
ROOT
ATOM      1  C1  DEN d   1      -0.920   0.732  -0.483  0.00  0.00     0.130 A 
ATOM      2  C2  DEN d   1       0.483   0.836  -0.874  0.00  0.00    -0.031 A 
ATOM      3  C3  DEN d   1       1.307   0.329   0.242  0.00  0.00     0.027 A 
ATOM      4  C4  DEN d   1       0.549  -0.605   2.524  0.00  0.00     0.027 A 
ATOM      5  C5  DEN d   1      -0.543  -0.881   3.317  0.00  0.00    -0.003 A 
ATOM      6  C6  DEN d   1      -1.824  -0.609   2.917  0.00  0.00     0.001 A 
ATOM      7  C7  DEN d   1      -2.049  -0.086   1.671  0.00  0.00     0.017 A 
ATOM      8  C8  DEN d   1      -0.953   0.202   0.868  0.00  0.00    -0.094 A 
ATOM      9  C9  DEN d   1       0.334  -0.092   1.286  0.00  0.00    -0.072 A 
ENDROOT
TORSDOF 0
ENDMDL
