MODEL 1
REMARK minimizedAffinity -0.739791095
REMARK minimizedRMSD -1
REMARK  0 active torsions:
REMARK  status: ('A' for Active; 'I' for Inactive)
ROOT
ATOM      1  C1  DEN d   1      -1.681   0.528  -0.366  0.00  0.00     0.130 A 
ATOM      2  C2  DEN d   1      -1.031   0.184  -1.628  0.00  0.00    -0.031 A 
ATOM      3  C3  DEN d   1       0.407  -0.019  -1.360  0.00  0.00     0.027 A 
ATOM      4  C4  DEN d   1       1.682   0.160   0.875  0.00  0.00     0.027 A 
ATOM      5  C5  DEN d   1       1.559   0.437   2.218  0.00  0.00    -0.003 A 
ATOM      6  C6  DEN d   1       0.364   0.794   2.784  0.00  0.00     0.001 A 
ATOM      7  C7  DEN d   1      -0.766   0.840   2.011  0.00  0.00     0.017 A 
ATOM      8  C8  DEN d   1      -0.648   0.569   0.654  0.00  0.00    -0.094 A 
ATOM      9  C9  DEN d   1       0.567   0.197   0.103  0.00  0.00    -0.072 A 
ENDROOT
TORSDOF 0
ENDMDL
