MODEL 1
REMARK minimizedAffinity -3.85854173
REMARK minimizedRMSD -1
REMARK  0 active torsions:
REMARK  status: ('A' for Active; 'I' for Inactive)
ROOT
ATOM      1  C1  DEN d   1      -2.700   0.293   0.021  0.00  0.00     0.130 A 
ATOM      2  C2  DEN d   1      -2.655   1.011  -1.249  0.00  0.00    -0.031 A 
ATOM      3  C3  DEN d   1      -1.238   1.162  -1.638  0.00  0.00     0.027 A 
ATOM      4  C4  DEN d   1       0.878   0.352  -0.405  0.00  0.00     0.027 A 
ATOM      5  C5  DEN d   1       1.344  -0.295   0.718  0.00  0.00    -0.003 A 
ATOM      6  C6  DEN d   1       0.504  -0.758   1.696  0.00  0.00     0.001 A 
ATOM      7  C7  DEN d   1      -0.851  -0.620   1.548  0.00  0.00     0.017 A 
ATOM      8  C8  DEN d   1      -1.328   0.038   0.422  0.00  0.00    -0.094 A 
ATOM      9  C9  DEN d   1      -0.463   0.488  -0.561  0.00  0.00    -0.072 A 
ENDROOT
TORSDOF 0
ENDMDL
