MODEL 1
REMARK minimizedAffinity -4.21414137
REMARK minimizedRMSD -1
REMARK  0 active torsions:
REMARK  status: ('A' for Active; 'I' for Inactive)
ROOT
ATOM      1  C1  DEN d   1       1.337   0.256  -0.648  0.00  0.00     0.130 A 
ATOM      2  C2  DEN d   1       0.386  -0.069  -1.708  0.00  0.00    -0.031 A 
ATOM      3  C3  DEN d   1      -0.877  -0.494  -1.073  0.00  0.00     0.027 A 
ATOM      4  C4  DEN d   1      -1.452  -0.674   1.435  0.00  0.00     0.027 A 
ATOM      5  C5  DEN d   1      -0.963  -0.517   2.713  0.00  0.00    -0.003 A 
ATOM      6  C6  DEN d   1       0.327  -0.126   2.958  0.00  0.00     0.001 A 
ATOM      7  C7  DEN d   1       1.159   0.164   1.910  0.00  0.00     0.017 A 
ATOM      8  C8  DEN d   1       0.676  -0.000   0.618  0.00  0.00    -0.094 A 
ATOM      9  C9  DEN d   1      -0.635  -0.384   0.391  0.00  0.00    -0.072 A 
ENDROOT
TORSDOF 0
ENDMDL
