MODEL 1
REMARK minimizedAffinity -0.94806838
REMARK minimizedRMSD -1
REMARK  0 active torsions:
REMARK  status: ('A' for Active; 'I' for Inactive)
ROOT
ATOM      1  C1  DEN d   1      -1.695  -0.792   1.409  0.00  0.00     0.130 A 
ATOM      2  C2  DEN d   1      -1.039  -0.561   2.693  0.00  0.00    -0.031 A 
ATOM      3  C3  DEN d   1       0.278   0.053   2.428  0.00  0.00     0.027 A 
ATOM      4  C4  DEN d   1       1.356   0.670   0.168  0.00  0.00     0.027 A 
ATOM      5  C5  DEN d   1       1.185   0.653  -1.199  0.00  0.00    -0.003 A 
ATOM      6  C6  DEN d   1       0.066   0.127  -1.789  0.00  0.00     0.001 A 
ATOM      7  C7  DEN d   1      -0.946  -0.364  -1.007  0.00  0.00     0.017 A 
ATOM      8  C8  DEN d   1      -0.778  -0.357   0.371  0.00  0.00    -0.094 A 
ATOM      9  C9  DEN d   1       0.355   0.190   0.949  0.00  0.00    -0.072 A 
ENDROOT
TORSDOF 0
ENDMDL
