MODEL 1
REMARK minimizedAffinity -3.72980547
REMARK minimizedRMSD -1
REMARK  0 active torsions:
REMARK  status: ('A' for Active; 'I' for Inactive)
ROOT
ATOM      1  C1  DEN d   1      -1.887   0.680  -0.773  0.00  0.00     0.130 A 
ATOM      2  C2  DEN d   1      -3.163   0.829  -0.077  0.00  0.00    -0.031 A 
ATOM      3  C3  DEN d   1      -2.902   0.756   1.375  0.00  0.00     0.027 A 
ATOM      4  C4  DEN d   1      -0.660   0.433   2.607  0.00  0.00     0.027 A 
ATOM      5  C5  DEN d   1       0.695   0.248   2.442  0.00  0.00    -0.003 A 
ATOM      6  C6  DEN d   1       1.275   0.161   1.204  0.00  0.00     0.001 A 
ATOM      7  C7  DEN d   1       0.503   0.304   0.081  0.00  0.00     0.017 A 
ATOM      8  C8  DEN d   1      -0.865   0.483   0.239  0.00  0.00    -0.094 A 
ATOM      9  C9  DEN d   1      -1.430   0.581   1.499  0.00  0.00    -0.072 A 
ENDROOT
TORSDOF 0
ENDMDL
