MODEL 1
REMARK minimizedAffinity -0.00359745813
REMARK minimizedRMSD -1
REMARK  0 active torsions:
REMARK  status: ('A' for Active; 'I' for Inactive)
ROOT
ATOM      1  C1  DEN d   1      -1.412   0.146  -0.808  0.00  0.00     0.130 A 
ATOM      2  C2  DEN d   1      -0.514  -0.073  -1.939  0.00  0.00    -0.031 A 
ATOM      3  C3  DEN d   1       0.869  -0.111  -1.423  0.00  0.00     0.027 A 
ATOM      4  C4  DEN d   1       1.703   0.142   1.004  0.00  0.00     0.027 A 
ATOM      5  C5  DEN d   1       1.314   0.356   2.308  0.00  0.00    -0.003 A 
ATOM      6  C6  DEN d   1       0.004   0.548   2.657  0.00  0.00     0.001 A 
ATOM      7  C7  DEN d   1      -0.971   0.484   1.697  0.00  0.00     0.017 A 
ATOM      8  C8  DEN d   1      -0.586   0.276   0.379  0.00  0.00    -0.094 A 
ATOM      9  C9  DEN d   1       0.743   0.072   0.048  0.00  0.00    -0.072 A 
ENDROOT
TORSDOF 0
ENDMDL
