MODEL 1
REMARK minimizedAffinity -5.8097105
REMARK minimizedRMSD -1
REMARK  0 active torsions:
REMARK  status: ('A' for Active; 'I' for Inactive)
ROOT
ATOM      1  C1  DEN d   1      -0.639  -0.240  -0.931  0.00  0.00     0.130 A 
ATOM      2  C2  DEN d   1       0.799  -0.492  -0.963  0.00  0.00    -0.031 A 
ATOM      3  C3  DEN d   1       1.268  -0.640   0.430  0.00  0.00     0.027 A 
ATOM      4  C4  DEN d   1      -0.088  -0.510   2.620  0.00  0.00     0.027 A 
ATOM      5  C5  DEN d   1      -1.341  -0.304   3.154  0.00  0.00    -0.003 A 
ATOM      6  C6  DEN d   1      -2.432  -0.030   2.372  0.00  0.00     0.001 A 
ATOM      7  C7  DEN d   1      -2.300  -0.001   1.009  0.00  0.00     0.017 A 
ATOM      8  C8  DEN d   1      -1.039  -0.200   0.464  0.00  0.00    -0.094 A 
ATOM      9  C9  DEN d   1       0.049  -0.487   1.270  0.00  0.00    -0.072 A 
ENDROOT
TORSDOF 0
ENDMDL
