MODEL 1
REMARK minimizedAffinity -5.5651021
REMARK minimizedRMSD -1
REMARK  0 active torsions:
REMARK  status: ('A' for Active; 'I' for Inactive)
ROOT
ATOM      1  C1  DEN d   1      -2.416  -0.027   0.521  0.00  0.00     0.130 A 
ATOM      2  C2  DEN d   1      -2.274   0.468  -0.845  0.00  0.00    -0.031 A 
ATOM      3  C3  DEN d   1      -0.843   0.735  -1.088  0.00  0.00     0.027 A 
ATOM      4  C4  DEN d   1       1.159   0.428   0.510  0.00  0.00     0.027 A 
ATOM      5  C5  DEN d   1       1.534   0.044   1.779  0.00  0.00    -0.003 A 
ATOM      6  C6  DEN d   1       0.622  -0.354   2.720  0.00  0.00     0.001 A 
ATOM      7  C7  DEN d   1      -0.706  -0.421   2.393  0.00  0.00     0.017 A 
ATOM      8  C8  DEN d   1      -1.093  -0.030   1.118  0.00  0.00    -0.094 A 
ATOM      9  C9  DEN d   1      -0.155   0.359   0.177  0.00  0.00    -0.072 A 
ENDROOT
TORSDOF 0
ENDMDL
