MODEL 1
REMARK minimizedAffinity -4.14368439
REMARK minimizedRMSD -1
REMARK  0 active torsions:
REMARK  status: ('A' for Active; 'I' for Inactive)
ROOT
ATOM      1  C1  DEN d   1      -0.443  -0.966  -0.969  0.00  0.00     0.130 A 
ATOM      2  C2  DEN d   1       0.209   0.115  -1.703  0.00  0.00    -0.031 A 
ATOM      3  C3  DEN d   1       0.738   1.081  -0.719  0.00  0.00     0.027 A 
ATOM      4  C4  DEN d   1       0.613   1.006   1.856  0.00  0.00     0.027 A 
ATOM      5  C5  DEN d   1       0.148   0.290   2.937  0.00  0.00    -0.003 A 
ATOM      6  C6  DEN d   1      -0.570  -0.867   2.792  0.00  0.00     0.001 A 
ATOM      7  C7  DEN d   1      -0.805  -1.368   1.539  0.00  0.00     0.017 A 
ATOM      8  C8  DEN d   1      -0.346  -0.647   0.444  0.00  0.00    -0.094 A 
ATOM      9  C9  DEN d   1       0.389   0.514   0.611  0.00  0.00    -0.072 A 
ENDROOT
TORSDOF 0
ENDMDL
