MODEL 1
REMARK minimizedAffinity -0.318809837
REMARK minimizedRMSD -1
REMARK  0 active torsions:
REMARK  status: ('A' for Active; 'I' for Inactive)
ROOT
ATOM      1  C1  DEN d   1       1.338   4.271  -5.932  0.00  0.00     0.130 A 
ATOM      2  C2  DEN d   1       1.562   5.714  -5.955  0.00  0.00    -0.031 A 
ATOM      3  C3  DEN d   1       3.020   5.949  -5.984  0.00  0.00     0.027 A 
ATOM      4  C4  DEN d   1       4.941   4.228  -6.000  0.00  0.00     0.027 A 
ATOM      5  C5  DEN d   1       5.245   2.885  -5.977  0.00  0.00    -0.003 A 
ATOM      6  C6  DEN d   1       4.278   1.919  -5.904  0.00  0.00     0.001 A 
ATOM      7  C7  DEN d   1       2.956   2.280  -5.896  0.00  0.00     0.017 A 
ATOM      8  C8  DEN d   1       2.642   3.632  -5.912  0.00  0.00    -0.094 A 
ATOM      9  C9  DEN d   1       3.634   4.594  -5.998  0.00  0.00    -0.072 A 
ENDROOT
TORSDOF 0
ENDMDL
