MODEL 1
REMARK minimizedAffinity 5.38956213
REMARK minimizedRMSD -1
REMARK  0 active torsions:
REMARK  status: ('A' for Active; 'I' for Inactive)
ROOT
ATOM      1  C1  DEN d   1       3.687   3.578   3.945  0.00  0.00     0.130 A 
ATOM      2  C2  DEN d   1       3.106   2.981   2.745  0.00  0.00    -0.031 A 
ATOM      3  C3  DEN d   1       1.743   3.522   2.580  0.00  0.00     0.027 A 
ATOM      4  C4  DEN d   1       0.482   5.222   4.055  0.00  0.00     0.027 A 
ATOM      5  C5  DEN d   1       0.560   5.999   5.189  0.00  0.00    -0.003 A 
ATOM      6  C6  DEN d   1       1.664   5.999   6.000  0.00  0.00     0.001 A 
ATOM      7  C7  DEN d   1       2.753   5.239   5.663  0.00  0.00     0.017 A 
ATOM      8  C8  DEN d   1       2.679   4.446   4.525  0.00  0.00    -0.094 A 
ATOM      9  C9  DEN d   1       1.558   4.470   3.712  0.00  0.00    -0.072 A 
ENDROOT
TORSDOF 0
ENDMDL
