MODEL 1
REMARK minimizedAffinity 1.62066042
REMARK minimizedRMSD -1
REMARK  0 active torsions:
REMARK  status: ('A' for Active; 'I' for Inactive)
ROOT
ATOM      1  C1  DEN d   1       3.025   6.000   5.662  0.00  0.00     0.130 A 
ATOM      2  C2  DEN d   1       4.135   5.074   5.454  0.00  0.00    -0.031 A 
ATOM      3  C3  DEN d   1       3.670   3.996   4.558  0.00  0.00     0.027 A 
ATOM      4  C4  DEN d   1       1.352   3.675   3.475  0.00  0.00     0.027 A 
ATOM      5  C5  DEN d   1       0.081   4.197   3.366  0.00  0.00    -0.003 A 
ATOM      6  C6  DEN d   1      -0.304   5.327   4.036  0.00  0.00     0.001 A 
ATOM      7  C7  DEN d   1       0.605   6.000   4.810  0.00  0.00     0.017 A 
ATOM      8  C8  DEN d   1       1.885   5.476   4.931  0.00  0.00    -0.094 A 
ATOM      9  C9  DEN d   1       2.258   4.338   4.236  0.00  0.00    -0.072 A 
ENDROOT
TORSDOF 0
ENDMDL
