MODEL 1
REMARK minimizedAffinity 8.1381464
REMARK minimizedRMSD -1
REMARK  0 active torsions:
REMARK  status: ('A' for Active; 'I' for Inactive)
ROOT
ATOM      1  C1  DEN d   1       1.195   5.998   5.868  0.00  0.00     0.130 A 
ATOM      2  C2  DEN d   1       0.182   5.715   4.855  0.00  0.00    -0.031 A 
ATOM      3  C3  DEN d   1       0.876   5.343   3.606  0.00  0.00     0.027 A 
ATOM      4  C4  DEN d   1       3.408   5.173   3.147  0.00  0.00     0.027 A 
ATOM      5  C5  DEN d   1       4.662   5.329   3.696  0.00  0.00    -0.003 A 
ATOM      6  C6  DEN d   1       4.846   5.748   4.986  0.00  0.00     0.001 A 
ATOM      7  C7  DEN d   1       3.759   5.983   5.786  0.00  0.00     0.017 A 
ATOM      8  C8  DEN d   1       2.492   5.835   5.237  0.00  0.00    -0.094 A 
ATOM      9  C9  DEN d   1       2.326   5.398   3.934  0.00  0.00    -0.072 A 
ENDROOT
TORSDOF 0
ENDMDL
