MODEL 1
REMARK minimizedAffinity 3.2762177
REMARK minimizedRMSD -1
REMARK  0 active torsions:
REMARK  status: ('A' for Active; 'I' for Inactive)
ROOT
ATOM      1  C1  DEN d   1       0.390   5.996   6.000  0.00  0.00     0.130 A 
ATOM      2  C2  DEN d   1      -0.606   5.750   4.960  0.00  0.00    -0.031 A 
ATOM      3  C3  DEN d   1       0.111   5.433   3.708  0.00  0.00     0.027 A 
ATOM      4  C4  DEN d   1       2.651   5.298   3.281  0.00  0.00     0.027 A 
ATOM      5  C5  DEN d   1       3.894   5.438   3.856  0.00  0.00    -0.003 A 
ATOM      6  C6  DEN d   1       4.056   5.805   5.166  0.00  0.00     0.001 A 
ATOM      7  C7  DEN d   1       2.955   6.000   5.957  0.00  0.00     0.017 A 
ATOM      8  C8  DEN d   1       1.698   5.867   5.383  0.00  0.00    -0.094 A 
ATOM      9  C9  DEN d   1       1.555   5.484   4.060  0.00  0.00    -0.072 A 
ENDROOT
TORSDOF 0
ENDMDL
