MODEL 1
REMARK minimizedAffinity 7.56007814
REMARK minimizedRMSD -1
REMARK  0 active torsions:
REMARK  status: ('A' for Active; 'I' for Inactive)
ROOT
ATOM      1  C1  DEN d   1       4.659   0.671  -0.200  0.00  0.00     0.130 A 
ATOM      2  C2  DEN d   1       4.116   1.881   0.413  0.00  0.00    -0.031 A 
ATOM      3  C3  DEN d   1       2.842   1.526   1.070  0.00  0.00     0.027 A 
ATOM      4  C4  DEN d   1       1.667  -0.766   1.202  0.00  0.00     0.027 A 
ATOM      5  C5  DEN d   1       1.739  -2.088   0.823  0.00  0.00    -0.003 A 
ATOM      6  C6  DEN d   1       2.765  -2.572   0.055  0.00  0.00     0.001 A 
ATOM      7  C7  DEN d   1       3.783  -1.737  -0.322  0.00  0.00     0.017 A 
ATOM      8  C8  DEN d   1       3.713  -0.401   0.050  0.00  0.00    -0.094 A 
ATOM      9  C9  DEN d   1       2.674   0.066   0.837  0.00  0.00    -0.072 A 
ENDROOT
TORSDOF 0
ENDMDL
