MODEL 1
REMARK minimizedAffinity -4.28385258
REMARK minimizedRMSD -1
REMARK  0 active torsions:
REMARK  status: ('A' for Active; 'I' for Inactive)
ROOT
ATOM      1  C   UNL d   1       0.082   3.392   0.323  0.00  0.00     0.023 A 
ATOM      2  C1  UNL d   1       0.918   2.857  -0.657  0.00  0.00     0.003 A 
ATOM      3  C2  UNL d   1       0.877   1.490  -0.941  0.00  0.00     0.048 A 
ATOM      4  C3  UNL d   1      -0.003   0.665  -0.242  0.00  0.00     0.023 A 
ATOM      5  C4  UNL d   1      -0.842   1.196   0.739  0.00  0.00     0.048 A 
ATOM      6  C5  UNL d   1      -0.797   2.563   1.020  0.00  0.00     0.003 A 
ATOM      7  I   UNL d   1      -0.065  -1.370  -0.663  0.00  0.00    -0.146 I 
ENDROOT
TORSDOF 0
ENDMDL
