MODEL 1
REMARK minimizedAffinity 1.19805694
REMARK minimizedRMSD -1
REMARK  0 active torsions:
REMARK  status: ('A' for Active; 'I' for Inactive)
ROOT
ATOM      1  C   UNL d   1      -0.356  -3.220  -1.301  0.00  0.00     0.023 A 
ATOM      2  C1  UNL d   1      -0.518  -2.748   0.002  0.00  0.00     0.003 A 
ATOM      3  C2  UNL d   1      -0.072  -1.470   0.343  0.00  0.00     0.048 A 
ATOM      4  C3  UNL d   1       0.534  -0.668  -0.623  0.00  0.00     0.023 A 
ATOM      5  C4  UNL d   1       0.697  -1.135  -1.928  0.00  0.00     0.048 A 
ATOM      6  C5  UNL d   1       0.251  -2.414  -2.265  0.00  0.00     0.003 A 
ATOM      7  I   UNL d   1       1.197   1.236  -0.117  0.00  0.00    -0.146 I 
ENDROOT
TORSDOF 0
ENDMDL
