MODEL 1
REMARK minimizedAffinity -1.0620383
REMARK minimizedRMSD -1
REMARK  0 active torsions:
REMARK  status: ('A' for Active; 'I' for Inactive)
ROOT
ATOM      1  C   UNL d   1       2.133   1.268  -0.501  0.00  0.00     0.023 A 
ATOM      2  C1  UNL d   1       1.000   1.274  -1.315  0.00  0.00     0.003 A 
ATOM      3  C2  UNL d   1       0.180   0.146  -1.381  0.00  0.00     0.048 A 
ATOM      4  C3  UNL d   1       0.498  -0.984  -0.629  0.00  0.00     0.023 A 
ATOM      5  C4  UNL d   1       1.630  -0.995   0.187  0.00  0.00     0.048 A 
ATOM      6  C5  UNL d   1       2.447   0.134   0.249  0.00  0.00     0.003 A 
ATOM      7  I   UNL d   1      -0.722  -2.665  -0.726  0.00  0.00    -0.146 I 
ENDROOT
TORSDOF 0
ENDMDL
