MODEL 1
REMARK minimizedAffinity 1.28340566
REMARK minimizedRMSD -1
REMARK  0 active torsions:
REMARK  status: ('A' for Active; 'I' for Inactive)
ROOT
ATOM      1  C   UNL d   1      -0.977  -4.250  -2.903  0.00  0.00     0.023 A 
ATOM      2  C1  UNL d   1       0.289  -3.732  -3.181  0.00  0.00     0.003 A 
ATOM      3  C2  UNL d   1       0.894  -2.848  -2.286  0.00  0.00     0.048 A 
ATOM      4  C3  UNL d   1       0.229  -2.486  -1.115  0.00  0.00     0.023 A 
ATOM      5  C4  UNL d   1      -1.037  -3.002  -0.833  0.00  0.00     0.048 A 
ATOM      6  C5  UNL d   1      -1.639  -3.885  -1.731  0.00  0.00     0.003 A 
ATOM      7  I   UNL d   1       1.129  -1.170   0.219  0.00  0.00    -0.146 I 
ENDROOT
TORSDOF 0
ENDMDL
