MODEL 1
REMARK minimizedAffinity -1.08095598
REMARK minimizedRMSD -1
REMARK  0 active torsions:
REMARK  status: ('A' for Active; 'I' for Inactive)
ROOT
ATOM      1  C   UNL d   1      -1.391  -3.901  -1.817  0.00  0.00     0.023 A 
ATOM      2  C1  UNL d   1      -1.591  -3.321  -0.564  0.00  0.00     0.003 A 
ATOM      3  C2  UNL d   1      -0.679  -2.385  -0.072  0.00  0.00     0.048 A 
ATOM      4  C3  UNL d   1       0.431  -2.032  -0.840  0.00  0.00     0.023 A 
ATOM      5  C4  UNL d   1       0.634  -2.608  -2.095  0.00  0.00     0.048 A 
ATOM      6  C5  UNL d   1      -0.280  -3.545  -2.581  0.00  0.00     0.003 A 
ATOM      7  I   UNL d   1       1.790  -0.639  -0.111  0.00  0.00    -0.146 I 
ENDROOT
TORSDOF 0
ENDMDL
