MODEL 1
REMARK minimizedAffinity -4.81546545
REMARK minimizedRMSD -1
REMARK  0 active torsions:
REMARK  status: ('A' for Active; 'I' for Inactive)
ROOT
ATOM      1  C   UNL d   1       0.074   2.290   0.829  0.00  0.00     0.023 A 
ATOM      2  C1  UNL d   1       1.185   1.630   0.305  0.00  0.00     0.003 A 
ATOM      3  C2  UNL d   1       1.024   0.426  -0.382  0.00  0.00     0.048 A 
ATOM      4  C3  UNL d   1      -0.253  -0.112  -0.544  0.00  0.00     0.023 A 
ATOM      5  C4  UNL d   1      -1.368   0.546  -0.023  0.00  0.00     0.048 A 
ATOM      6  C5  UNL d   1      -1.201   1.749   0.665  0.00  0.00     0.003 A 
ATOM      7  I   UNL d   1      -0.496  -1.904  -1.568  0.00  0.00    -0.146 I 
ENDROOT
TORSDOF 0
ENDMDL
