MODEL 1
REMARK minimizedAffinity -3.18739319
REMARK minimizedRMSD -1
REMARK  0 active torsions:
REMARK  status: ('A' for Active; 'I' for Inactive)
ROOT
ATOM      1  C   UNL d   1       0.700   1.976  -1.402  0.00  0.00     0.023 A 
ATOM      2  C1  UNL d   1       0.814   3.219  -0.779  0.00  0.00     0.003 A 
ATOM      3  C2  UNL d   1       0.259   3.421   0.486  0.00  0.00     0.048 A 
ATOM      4  C3  UNL d   1      -0.408   2.375   1.124  0.00  0.00     0.023 A 
ATOM      5  C4  UNL d   1      -0.524   1.129   0.505  0.00  0.00     0.048 A 
ATOM      6  C5  UNL d   1       0.032   0.932  -0.761  0.00  0.00     0.003 A 
ATOM      7  I   UNL d   1      -1.234   2.673   3.007  0.00  0.00    -0.146 I 
ENDROOT
TORSDOF 0
ENDMDL
