MODEL 1
REMARK minimizedAffinity -4.87661171
REMARK minimizedRMSD -1
REMARK  0 active torsions:
REMARK  status: ('A' for Active; 'I' for Inactive)
ROOT
ATOM      1  C   UNL d   1      -0.022   2.794   0.366  0.00  0.00     0.023 A 
ATOM      2  C1  UNL d   1      -1.201   2.083   0.590  0.00  0.00     0.003 A 
ATOM      3  C2  UNL d   1      -1.259   0.718   0.302  0.00  0.00     0.048 A 
ATOM      4  C3  UNL d   1      -0.134   0.070  -0.207  0.00  0.00     0.023 A 
ATOM      5  C4  UNL d   1       1.048   0.777  -0.431  0.00  0.00     0.048 A 
ATOM      6  C5  UNL d   1       1.101   2.143  -0.143  0.00  0.00     0.003 A 
ATOM      7  I   UNL d   1      -0.218  -1.962  -0.635  0.00  0.00    -0.146 I 
ENDROOT
TORSDOF 0
ENDMDL
