MODEL 1
REMARK minimizedAffinity -0.054495208
REMARK minimizedRMSD -1
REMARK  0 active torsions:
REMARK  status: ('A' for Active; 'I' for Inactive)
ROOT
ATOM      1  C   UNL d   1       0.451   1.248   0.508  0.00  0.00     0.023 A 
ATOM      2  C1  UNL d   1      -0.839   0.943   0.074  0.00  0.00     0.003 A 
ATOM      3  C2  UNL d   1      -1.131  -0.336  -0.405  0.00  0.00     0.048 A 
ATOM      4  C3  UNL d   1      -0.130  -1.305  -0.445  0.00  0.00     0.023 A 
ATOM      5  C4  UNL d   1       1.162  -1.005  -0.011  0.00  0.00     0.048 A 
ATOM      6  C5  UNL d   1       1.451   0.275   0.466  0.00  0.00     0.003 A 
ATOM      7  I   UNL d   1      -0.563  -3.209  -1.157  0.00  0.00    -0.146 I 
ENDROOT
TORSDOF 0
ENDMDL
