MODEL 1
REMARK minimizedAffinity 0.644913495
REMARK minimizedRMSD -1
REMARK  0 active torsions:
REMARK  status: ('A' for Active; 'I' for Inactive)
ROOT
ATOM      1  C   UNL d   1      -0.785  -3.662  -1.337  0.00  0.00     0.023 A 
ATOM      2  C1  UNL d   1      -1.775  -2.798  -1.805  0.00  0.00     0.003 A 
ATOM      3  C2  UNL d   1      -1.862  -1.497  -1.306  0.00  0.00     0.048 A 
ATOM      4  C3  UNL d   1      -0.955  -1.066  -0.338  0.00  0.00     0.023 A 
ATOM      5  C4  UNL d   1       0.038  -1.926   0.133  0.00  0.00     0.048 A 
ATOM      6  C5  UNL d   1       0.120  -3.226  -0.369  0.00  0.00     0.003 A 
ATOM      7  I   UNL d   1      -1.083   0.870   0.407  0.00  0.00    -0.146 I 
ENDROOT
TORSDOF 0
ENDMDL
