MODEL 1
REMARK minimizedAffinity -4.2352643
REMARK minimizedRMSD -1
REMARK  0 active torsions:
REMARK  status: ('A' for Active; 'I' for Inactive)
ROOT
ATOM      1  C   UNL d   1      -1.509   0.376   0.060  0.00  0.00     0.023 A 
ATOM      2  C1  UNL d   1      -0.312  -0.337  -0.005  0.00  0.00     0.003 A 
ATOM      3  C2  UNL d   1       0.879   0.256   0.418  0.00  0.00     0.048 A 
ATOM      4  C3  UNL d   1       0.865   1.562   0.907  0.00  0.00     0.023 A 
ATOM      5  C4  UNL d   1      -0.330   2.279   0.975  0.00  0.00     0.048 A 
ATOM      6  C5  UNL d   1      -1.519   1.682   0.549  0.00  0.00     0.003 A 
ATOM      7  I   UNL d   1       2.637   2.448   1.538  0.00  0.00    -0.146 I 
ENDROOT
TORSDOF 0
ENDMDL
