MODEL 1
REMARK minimizedAffinity -3.34697413
REMARK minimizedRMSD -1
REMARK  0 active torsions:
REMARK  status: ('A' for Active; 'I' for Inactive)
ROOT
ATOM      1  C   UNL d   1       0.965   2.744   1.308  0.00  0.00     0.023 A 
ATOM      2  C1  UNL d   1       1.988   1.799   1.236  0.00  0.00     0.003 A 
ATOM      3  C2  UNL d   1       1.696   0.476   0.899  0.00  0.00     0.048 A 
ATOM      4  C3  UNL d   1       0.378   0.105   0.634  0.00  0.00     0.023 A 
ATOM      5  C4  UNL d   1      -0.649   1.048   0.703  0.00  0.00     0.048 A 
ATOM      6  C5  UNL d   1      -0.352   2.369   1.042  0.00  0.00     0.003 A 
ATOM      7  I   UNL d   1      -0.059  -1.864   0.131  0.00  0.00    -0.146 I 
ENDROOT
TORSDOF 0
ENDMDL
