MODEL 1
REMARK minimizedAffinity -5.43946981
REMARK minimizedRMSD -1
REMARK  0 active torsions:
REMARK  status: ('A' for Active; 'I' for Inactive)
ROOT
ATOM      1  C   UNL d   1       0.583   2.329   0.319  0.00  0.00     0.023 A 
ATOM      2  C1  UNL d   1      -0.707   2.073  -0.145  0.00  0.00     0.003 A 
ATOM      3  C2  UNL d   1      -1.036   0.808  -0.636  0.00  0.00     0.048 A 
ATOM      4  C3  UNL d   1      -0.070  -0.197  -0.660  0.00  0.00     0.023 A 
ATOM      5  C4  UNL d   1       1.222   0.054  -0.196  0.00  0.00     0.048 A 
ATOM      6  C5  UNL d   1       1.547   1.320   0.293  0.00  0.00     0.003 A 
ATOM      7  I   UNL d   1      -0.558  -2.081  -1.390  0.00  0.00    -0.146 I 
ENDROOT
TORSDOF 0
ENDMDL
