MODEL 1
REMARK minimizedAffinity -3.29835224
REMARK minimizedRMSD -1
REMARK  0 active torsions:
REMARK  status: ('A' for Active; 'I' for Inactive)
ROOT
ATOM      1  C   UNL d   1      -0.135  -1.320   2.609  0.00  0.00     0.023 A 
ATOM      2  C1  UNL d   1       1.017  -0.682   2.148  0.00  0.00     0.003 A 
ATOM      3  C2  UNL d   1       0.987   0.034   0.949  0.00  0.00     0.048 A 
ATOM      4  C3  UNL d   1      -0.197   0.108   0.217  0.00  0.00     0.023 A 
ATOM      5  C4  UNL d   1      -1.352  -0.528   0.674  0.00  0.00     0.048 A 
ATOM      6  C5  UNL d   1      -1.318  -1.244   1.873  0.00  0.00     0.003 A 
ATOM      7  I   UNL d   1      -0.243   1.174  -1.567  0.00  0.00    -0.146 I 
ENDROOT
TORSDOF 0
ENDMDL
