MODEL 1
REMARK minimizedAffinity -2.03442717
REMARK minimizedRMSD -1
REMARK  0 active torsions:
REMARK  status: ('A' for Active; 'I' for Inactive)
ROOT
ATOM      1  C   UNL d   1       0.155  -0.902   1.199  0.00  0.00     0.023 A 
ATOM      2  C1  UNL d   1       1.112  -0.762   0.194  0.00  0.00     0.003 A 
ATOM      3  C2  UNL d   1       0.870   0.084  -0.890  0.00  0.00     0.048 A 
ATOM      4  C3  UNL d   1      -0.331   0.788  -0.963  0.00  0.00     0.023 A 
ATOM      5  C4  UNL d   1      -1.292   0.652   0.041  0.00  0.00     0.048 A 
ATOM      6  C5  UNL d   1      -1.046  -0.195   1.123  0.00  0.00     0.003 A 
ATOM      7  I   UNL d   1      -0.694   2.047  -2.576  0.00  0.00    -0.146 I 
ENDROOT
TORSDOF 0
ENDMDL
