MODEL 1
REMARK minimizedAffinity -2.55215621
REMARK minimizedRMSD -1
REMARK  0 active torsions:
REMARK  status: ('A' for Active; 'I' for Inactive)
ROOT
ATOM      1  C   UNL d   1      -0.920   0.652  -1.191  0.00  0.00     0.023 A 
ATOM      2  C1  UNL d   1       0.332   0.043  -1.113  0.00  0.00     0.003 A 
ATOM      3  C2  UNL d   1       0.748  -0.551   0.080  0.00  0.00     0.048 A 
ATOM      4  C3  UNL d   1      -0.094  -0.534   1.191  0.00  0.00     0.023 A 
ATOM      5  C4  UNL d   1      -1.348   0.074   1.118  0.00  0.00     0.048 A 
ATOM      6  C5  UNL d   1      -1.760   0.667  -0.077  0.00  0.00     0.003 A 
ATOM      7  I   UNL d   1       0.523  -1.418   2.969  0.00  0.00    -0.146 I 
ENDROOT
TORSDOF 0
ENDMDL
