MODEL 1
REMARK minimizedAffinity -3.4985745
REMARK minimizedRMSD -1
REMARK  0 active torsions:
REMARK  status: ('A' for Active; 'I' for Inactive)
ROOT
ATOM      1  C   UNL d   1       0.737  -0.949   2.819  0.00  0.00     0.023 A 
ATOM      2  C1  UNL d   1      -0.616  -1.068   2.502  0.00  0.00     0.003 A 
ATOM      3  C2  UNL d   1      -1.094  -0.584   1.282  0.00  0.00     0.048 A 
ATOM      4  C3  UNL d   1      -0.212   0.016   0.383  0.00  0.00     0.023 A 
ATOM      5  C4  UNL d   1       1.143   0.136   0.696  0.00  0.00     0.048 A 
ATOM      6  C5  UNL d   1       1.615  -0.347   1.917  0.00  0.00     0.003 A 
ATOM      7  I   UNL d   1      -0.921   0.736  -1.433  0.00  0.00    -0.146 I 
ENDROOT
TORSDOF 0
ENDMDL
