MODEL 1
REMARK minimizedAffinity -4.64128065
REMARK minimizedRMSD -1
REMARK  0 active torsions:
REMARK  status: ('A' for Active; 'I' for Inactive)
ROOT
ATOM      1  C   UNL d   1       1.463  -1.525   2.450  0.00  0.00     0.023 A 
ATOM      2  C1  UNL d   1       2.292  -1.259   1.361  0.00  0.00     0.003 A 
ATOM      3  C2  UNL d   1       1.815  -0.506   0.286  0.00  0.00     0.048 A 
ATOM      4  C3  UNL d   1       0.507  -0.023   0.307  0.00  0.00     0.023 A 
ATOM      5  C4  UNL d   1      -0.326  -0.286   1.395  0.00  0.00     0.048 A 
ATOM      6  C5  UNL d   1       0.155  -1.039   2.467  0.00  0.00     0.003 A 
ATOM      7  I   UNL d   1      -0.205   1.098  -1.292  0.00  0.00    -0.146 I 
ENDROOT
TORSDOF 0
ENDMDL
