MODEL 1
REMARK minimizedAffinity -3.24728894
REMARK minimizedRMSD -1
REMARK  0 active torsions:
REMARK  status: ('A' for Active; 'I' for Inactive)
ROOT
ATOM      1  C   UNL d   1       0.453  -0.665   2.875  0.00  0.00     0.023 A 
ATOM      2  C1  UNL d   1      -0.827  -0.173   2.622  0.00  0.00     0.003 A 
ATOM      3  C2  UNL d   1      -1.168   0.261   1.339  0.00  0.00     0.048 A 
ATOM      4  C3  UNL d   1      -0.224   0.198   0.314  0.00  0.00     0.023 A 
ATOM      5  C4  UNL d   1       1.057  -0.295   0.563  0.00  0.00     0.048 A 
ATOM      6  C5  UNL d   1       1.394  -0.727   1.847  0.00  0.00     0.003 A 
ATOM      7  I   UNL d   1      -0.730   0.843  -1.596  0.00  0.00    -0.146 I 
ENDROOT
TORSDOF 0
ENDMDL
