MODEL 1
REMARK minimizedAffinity -2.01815414
REMARK minimizedRMSD -1
REMARK  0 active torsions:
REMARK  status: ('A' for Active; 'I' for Inactive)
ROOT
ATOM      1  C   UNL d   1       0.755  -1.634   1.309  0.00  0.00     0.023 A 
ATOM      2  C1  UNL d   1       1.331  -1.502   0.045  0.00  0.00     0.003 A 
ATOM      3  C2  UNL d   1       0.774  -0.629  -0.890  0.00  0.00     0.048 A 
ATOM      4  C3  UNL d   1      -0.360   0.111  -0.556  0.00  0.00     0.023 A 
ATOM      5  C4  UNL d   1      -0.939  -0.017   0.708  0.00  0.00     0.048 A 
ATOM      6  C5  UNL d   1      -0.379  -0.892   1.640  0.00  0.00     0.003 A 
ATOM      7  I   UNL d   1      -1.192   1.413  -1.947  0.00  0.00    -0.146 I 
ENDROOT
TORSDOF 0
ENDMDL
