MODEL 1
REMARK minimizedAffinity -2.91683912
REMARK minimizedRMSD -1
REMARK  0 active torsions:
REMARK  status: ('A' for Active; 'I' for Inactive)
ROOT
ATOM      1  C   UNL d   1      -1.512   3.317  -2.480  0.00  0.00     0.023 A 
ATOM      2  C1  UNL d   1      -2.502   3.145  -1.513  0.00  0.00     0.003 A 
ATOM      3  C2  UNL d   1      -2.382   2.132  -0.560  0.00  0.00     0.048 A 
ATOM      4  C3  UNL d   1      -1.267   1.294  -0.579  0.00  0.00     0.023 A 
ATOM      5  C4  UNL d   1      -0.273   1.462  -1.545  0.00  0.00     0.048 A 
ATOM      6  C5  UNL d   1      -0.399   2.476  -2.496  0.00  0.00     0.003 A 
ATOM      7  I   UNL d   1      -1.085  -0.215   0.838  0.00  0.00    -0.146 I 
ENDROOT
TORSDOF 0
ENDMDL
