MODEL 1
REMARK minimizedAffinity 22.1313381
REMARK minimizedRMSD -1
REMARK  1 active torsions:
REMARK  status: ('A' for Active; 'I' for Inactive)
REMARK    1  A    between atoms: C1_2  and  C2_3 
ROOT
ATOM      1  C2  UNL d   1       2.628  -2.411  -1.609  0.00  0.00    -0.076 A 
ATOM      2  C3  UNL d   1       3.726  -3.280  -1.730  0.00  0.00     0.004 A 
ATOM      3  C4  UNL d   1       4.111  -3.781  -2.973  0.00  0.00    -0.003 A 
ATOM      4  C5  UNL d   1       3.403  -3.420  -4.115  0.00  0.00     0.000 A 
ATOM      5  C6  UNL d   1       2.322  -2.545  -4.015  0.00  0.00     0.000 A 
ATOM      6  C7  UNL d   1       1.932  -2.018  -2.772  0.00  0.00    -0.073 A 
ATOM      7  C8  UNL d   1       0.754  -1.083  -2.721  0.00  0.00     0.078 C 
ENDROOT
BRANCH   1   8
ATOM      8  C1  UNL d   1       2.241  -1.921  -0.231  0.00  0.00     0.053 C 
ATOM      9  C   UNL d   1       2.791  -2.805   0.877  0.00  0.00     0.018 C 
ENDBRANCH   1   8
TORSDOF 1
ENDMDL
