MODEL 1
REMARK minimizedAffinity 19.3919907
REMARK minimizedRMSD -1
REMARK  1 active torsions:
REMARK  status: ('A' for Active; 'I' for Inactive)
REMARK    1  A    between atoms: C1_2  and  C2_3 
ROOT
ATOM      1  C2  UNL d   1       0.827   0.415   3.204  0.00  0.00    -0.076 A 
ATOM      2  C3  UNL d   1       0.662   1.230   4.337  0.00  0.00     0.004 A 
ATOM      3  C4  UNL d   1       1.375   2.419   4.476  0.00  0.00    -0.003 A 
ATOM      4  C5  UNL d   1       2.265   2.814   3.483  0.00  0.00     0.000 A 
ATOM      5  C6  UNL d   1       2.428   2.027   2.343  0.00  0.00     0.000 A 
ATOM      6  C7  UNL d   1       1.704   0.833   2.180  0.00  0.00    -0.073 A 
ATOM      7  C8  UNL d   1       1.924   0.020   0.934  0.00  0.00     0.078 C 
ENDROOT
BRANCH   1   8
ATOM      8  C1  UNL d   1       0.047  -0.877   3.121  0.00  0.00     0.053 C 
ATOM      9  C   UNL d   1       0.584  -1.944   4.063  0.00  0.00     0.018 C 
ENDBRANCH   1   8
TORSDOF 1
ENDMDL
