MODEL 1
REMARK minimizedAffinity 4.86682463
REMARK minimizedRMSD -1
REMARK  1 active torsions:
REMARK  status: ('A' for Active; 'I' for Inactive)
REMARK    1  A    between atoms: C1_2  and  C2_3 
ROOT
ATOM      1  C2  UNL d   1      -4.610   5.965   2.925  0.00  0.00    -0.076 A 
ATOM      2  C3  UNL d   1      -5.857   5.982   2.276  0.00  0.00     0.004 A 
ATOM      3  C4  UNL d   1      -5.943   6.000   0.885  0.00  0.00    -0.003 A 
ATOM      4  C5  UNL d   1      -4.782   6.000   0.120  0.00  0.00     0.000 A 
ATOM      5  C6  UNL d   1      -3.536   5.965   0.746  0.00  0.00     0.000 A 
ATOM      6  C7  UNL d   1      -3.433   5.931   2.147  0.00  0.00    -0.073 A 
ATOM      7  C8  UNL d   1      -2.064   5.900   2.770  0.00  0.00     0.078 C 
ENDROOT
BRANCH   1   8
ATOM      8  C1  UNL d   1      -4.580   5.973   4.436  0.00  0.00     0.053 C 
ATOM      9  C   UNL d   1      -5.771   5.252   5.047  0.00  0.00     0.018 C 
ENDBRANCH   1   8
TORSDOF 1
ENDMDL
