MODEL 1
REMARK minimizedAffinity -4.84330559
REMARK minimizedRMSD -1
REMARK  0 active torsions:
REMARK  status: ('A' for Active; 'I' for Inactive)
ROOT
ATOM      1  C4' PXY d   1       0.641  -1.296  -1.097  0.00  0.00     0.077 C 
ATOM      2  C1' PXY d   1      -1.359   3.187   1.955  0.00  0.00     0.077 C 
ATOM      3  C1  PXY d   1      -0.843   2.014   1.146  0.00  0.00    -0.082 A 
ATOM      4  C2  PXY d   1      -0.156   1.056   1.747  0.00  0.00     0.003 A 
ATOM      5  C3  PXY d   1       0.344   0.003   1.024  0.00  0.00     0.003 A 
ATOM      6  C4  PXY d   1       0.094  -0.097  -0.318  0.00  0.00    -0.082 A 
ATOM      7  C5  PXY d   1      -0.615   0.871  -0.937  0.00  0.00     0.003 A 
ATOM      8  C6  PXY d   1      -1.080   1.952  -0.193  0.00  0.00     0.003 A 
ENDROOT
TORSDOF 0
ENDMDL
