MODEL 1
REMARK minimizedAffinity -0.676422
REMARK minimizedRMSD -1
REMARK  0 active torsions:
REMARK  status: ('A' for Active; 'I' for Inactive)
ROOT
ATOM      1  C4' PXY d   1       0.056   1.923   0.910  0.00  0.00     0.077 C 
ATOM      2  C1' PXY d   1      -0.119  -3.431  -1.262  0.00  0.00     0.077 C 
ATOM      3  C1  PXY d   1      -0.085  -2.028  -0.688  0.00  0.00    -0.082 A 
ATOM      4  C2  PXY d   1       0.785  -1.150  -1.159  0.00  0.00     0.003 A 
ATOM      5  C3  PXY d   1       0.850   0.113  -0.630  0.00  0.00     0.003 A 
ATOM      6  C4  PXY d   1      -0.020   0.498   0.355  0.00  0.00    -0.082 A 
ATOM      7  C5  PXY d   1      -0.918  -0.389   0.833  0.00  0.00     0.003 A 
ATOM      8  C6  PXY d   1      -0.941  -1.679   0.311  0.00  0.00     0.003 A 
ENDROOT
TORSDOF 0
ENDMDL
