MODEL 1
REMARK minimizedAffinity -4.05218077
REMARK minimizedRMSD -1
REMARK  0 active torsions:
REMARK  status: ('A' for Active; 'I' for Inactive)
ROOT
ATOM      1  C4' PXY d   1       0.848  -1.635  -1.448  0.00  0.00     0.077 C 
ATOM      2  C1' PXY d   1      -1.435   2.555   1.816  0.00  0.00     0.077 C 
ATOM      3  C1  PXY d   1      -0.826   1.456   0.968  0.00  0.00    -0.082 A 
ATOM      4  C2  PXY d   1      -1.202   1.318  -0.293  0.00  0.00     0.003 A 
ATOM      5  C3  PXY d   1      -0.685   0.310  -1.065  0.00  0.00     0.003 A 
ATOM      6  C4  PXY d   1       0.266  -0.533  -0.557  0.00  0.00    -0.082 A 
ATOM      7  C5  PXY d   1       0.663  -0.393   0.725  0.00  0.00     0.003 A 
ATOM      8  C6  PXY d   1       0.096   0.611   1.505  0.00  0.00     0.003 A 
ENDROOT
TORSDOF 0
ENDMDL
