MODEL 1
REMARK minimizedAffinity -4.5234189
REMARK minimizedRMSD -1
REMARK  0 active torsions:
REMARK  status: ('A' for Active; 'I' for Inactive)
ROOT
ATOM      1  C4' PXY d   1       0.519  -1.494  -0.833  0.00  0.00     0.077 C 
ATOM      2  C1' PXY d   1      -1.210   3.439   1.636  0.00  0.00     0.077 C 
ATOM      3  C1  PXY d   1      -0.748   2.144   0.998  0.00  0.00    -0.082 A 
ATOM      4  C2  PXY d   1      -0.932   1.951  -0.298  0.00  0.00     0.003 A 
ATOM      5  C3  PXY d   1      -0.549   0.772  -0.885  0.00  0.00     0.003 A 
ATOM      6  C4  PXY d   1       0.077  -0.198  -0.149  0.00  0.00    -0.082 A 
ATOM      7  C5  PXY d   1       0.278  -0.004   1.172  0.00  0.00     0.003 A 
ATOM      8  C6  PXY d   1      -0.155   1.182   1.757  0.00  0.00     0.003 A 
ENDROOT
TORSDOF 0
ENDMDL
