MODEL 1
REMARK minimizedAffinity -4.02279568
REMARK minimizedRMSD -1
REMARK  0 active torsions:
REMARK  status: ('A' for Active; 'I' for Inactive)
ROOT
ATOM      1  C4' PXY d   1       1.644   5.137   0.319  0.00  0.00     0.077 C 
ATOM      2  C1' PXY d   1      -2.129   0.864   1.277  0.00  0.00     0.077 C 
ATOM      3  C1  PXY d   1      -1.139   1.987   1.039  0.00  0.00    -0.082 A 
ATOM      4  C2  PXY d   1      -1.094   2.579  -0.144  0.00  0.00     0.003 A 
ATOM      5  C3  PXY d   1      -0.183   3.575  -0.387  0.00  0.00     0.003 A 
ATOM      6  C4  PXY d   1       0.654   4.006   0.608  0.00  0.00    -0.082 A 
ATOM      7  C5  PXY d   1       0.606   3.414   1.820  0.00  0.00     0.003 A 
ATOM      8  C6  PXY d   1      -0.298   2.377   2.034  0.00  0.00     0.003 A 
ENDROOT
TORSDOF 0
ENDMDL
