MODEL 1
REMARK minimizedAffinity -4.51539612
REMARK minimizedRMSD -1
REMARK  0 active torsions:
REMARK  status: ('A' for Active; 'I' for Inactive)
ROOT
ATOM      1  C4' PXY d   1       1.107  -2.166  -0.840  0.00  0.00     0.077 C 
ATOM      2  C1' PXY d   1      -1.339   2.402   1.722  0.00  0.00     0.077 C 
ATOM      3  C1  PXY d   1      -0.708   1.203   1.042  0.00  0.00    -0.082 A 
ATOM      4  C2  PXY d   1       0.172   0.466   1.700  0.00  0.00     0.003 A 
ATOM      5  C3  PXY d   1       0.776  -0.603   1.090  0.00  0.00     0.003 A 
ATOM      6  C4  PXY d   1       0.437  -0.952  -0.190  0.00  0.00    -0.082 A 
ATOM      7  C5  PXY d   1      -0.468  -0.212  -0.864  0.00  0.00     0.003 A 
ATOM      8  C6  PXY d   1      -1.039   0.894  -0.241  0.00  0.00     0.003 A 
ENDROOT
TORSDOF 0
ENDMDL
