MODEL 1
REMARK minimizedAffinity 9.17571449
REMARK minimizedRMSD -1
REMARK  0 active torsions:
REMARK  status: ('A' for Active; 'I' for Inactive)
ROOT
ATOM      1  O1  BZF d   1       2.492   0.073  -0.825  0.00  0.00    -0.204 OA
ATOM      2  C2  BZF d   1       3.558   0.165  -1.698  0.00  0.00     0.174 A 
ATOM      3  C3  BZF d   1       4.589   0.821  -1.126  0.00  0.00    -0.012 A 
ATOM      4  C3A BZF d   1       4.173   1.078   0.218  0.00  0.00    -0.107 A 
ATOM      5  C4  BZF d   1       4.769   1.685   1.286  0.00  0.00     0.055 A 
ATOM      6  C5  BZF d   1       4.064   1.839   2.437  0.00  0.00    -0.016 A 
ATOM      7  C6  BZF d   1       2.760   1.404   2.554  0.00  0.00     0.022 A 
ATOM      8  C7  BZF d   1       2.128   0.792   1.523  0.00  0.00     0.029 A 
ATOM      9  C7A BZF d   1       2.849   0.605   0.369  0.00  0.00     0.058 A 
ENDROOT
TORSDOF 0
ENDMDL
