MODEL 1
REMARK minimizedAffinity 17.6054554
REMARK minimizedRMSD -1
REMARK  0 active torsions:
REMARK  status: ('A' for Active; 'I' for Inactive)
ROOT
ATOM      1  O1  BZF d   1      -0.381  -0.241   3.156  0.00  0.00    -0.204 OA
ATOM      2  C2  BZF d   1       0.664  -1.140   3.248  0.00  0.00     0.174 A 
ATOM      3  C3  BZF d   1       1.361  -1.183   2.094  0.00  0.00    -0.012 A 
ATOM      4  C3A BZF d   1       0.766  -0.186   1.258  0.00  0.00    -0.107 A 
ATOM      5  C4  BZF d   1       1.029   0.257  -0.007  0.00  0.00     0.055 A 
ATOM      6  C5  BZF d   1       0.215   1.194  -0.561  0.00  0.00    -0.016 A 
ATOM      7  C6  BZF d   1      -0.872   1.705   0.118  0.00  0.00     0.022 A 
ATOM      8  C7  BZF d   1      -1.169   1.300   1.377  0.00  0.00     0.029 A 
ATOM      9  C7A BZF d   1      -0.329   0.378   1.952  0.00  0.00     0.058 A 
ENDROOT
TORSDOF 0
ENDMDL
