MODEL 1
REMARK minimizedAffinity 19.0889435
REMARK minimizedRMSD -1
REMARK  0 active torsions:
REMARK  status: ('A' for Active; 'I' for Inactive)
ROOT
ATOM      1  O1  BZF d   1       2.041   0.132  -1.581  0.00  0.00    -0.204 OA
ATOM      2  C2  BZF d   1       3.143  -0.448  -0.983  0.00  0.00     0.174 A 
ATOM      3  C3  BZF d   1       3.002  -0.472   0.358  0.00  0.00    -0.012 A 
ATOM      4  C3A BZF d   1       1.692   0.047   0.608  0.00  0.00    -0.107 A 
ATOM      5  C4  BZF d   1       0.967   0.257   1.746  0.00  0.00     0.055 A 
ATOM      6  C5  BZF d   1      -0.254   0.846   1.651  0.00  0.00    -0.016 A 
ATOM      7  C6  BZF d   1      -0.778   1.242   0.438  0.00  0.00     0.022 A 
ATOM      8  C7  BZF d   1      -0.097   1.049  -0.719  0.00  0.00     0.029 A 
ATOM      9  C7A BZF d   1       1.122   0.424  -0.630  0.00  0.00     0.058 A 
ENDROOT
TORSDOF 0
ENDMDL
