MODEL 1
REMARK minimizedAffinity 7.12824249
REMARK minimizedRMSD -1
REMARK  0 active torsions:
REMARK  status: ('A' for Active; 'I' for Inactive)
ROOT
ATOM      1  O1  BZF d   1       4.121   1.742  -1.691  0.00  0.00    -0.204 OA
ATOM      2  C2  BZF d   1       3.862   0.473  -1.209  0.00  0.00     0.174 A 
ATOM      3  C3  BZF d   1       4.371   0.319   0.030  0.00  0.00    -0.012 A 
ATOM      4  C3A BZF d   1       4.907   1.600   0.379  0.00  0.00    -0.107 A 
ATOM      5  C4  BZF d   1       5.532   2.084   1.492  0.00  0.00     0.055 A 
ATOM      6  C5  BZF d   1       5.997   3.361   1.485  0.00  0.00    -0.016 A 
ATOM      7  C6  BZF d   1       5.860   4.178   0.382  0.00  0.00     0.022 A 
ATOM      8  C7  BZF d   1       5.242   3.743  -0.743  0.00  0.00     0.029 A 
ATOM      9  C7A BZF d   1       4.741   2.464  -0.728  0.00  0.00     0.058 A 
ENDROOT
TORSDOF 0
ENDMDL
