MODEL 1
REMARK minimizedAffinity 8.74920559
REMARK minimizedRMSD -1
REMARK  0 active torsions:
REMARK  status: ('A' for Active; 'I' for Inactive)
ROOT
ATOM      1  O1  BZF d   1       1.763   1.714   1.779  0.00  0.00    -0.204 OA
ATOM      2  C2  BZF d   1       0.535   1.135   2.036  0.00  0.00     0.174 A 
ATOM      3  C3  BZF d   1       0.304   0.109   1.192  0.00  0.00    -0.012 A 
ATOM      4  C3A BZF d   1       1.499  -0.016   0.416  0.00  0.00    -0.107 A 
ATOM      5  C4  BZF d   1       1.887  -0.866  -0.580  0.00  0.00     0.055 A 
ATOM      6  C5  BZF d   1       3.092  -0.675  -1.180  0.00  0.00    -0.016 A 
ATOM      7  C6  BZF d   1       3.930   0.357  -0.812  0.00  0.00     0.022 A 
ATOM      8  C7  BZF d   1       3.591   1.223   0.174  0.00  0.00     0.029 A 
ATOM      9  C7A BZF d   1       2.389   1.012   0.804  0.00  0.00     0.058 A 
ENDROOT
TORSDOF 0
ENDMDL
