MODEL 1
REMARK minimizedAffinity 5.45200253
REMARK minimizedRMSD -1
REMARK  0 active torsions:
REMARK  status: ('A' for Active; 'I' for Inactive)
ROOT
ATOM      1  O1  BZF d   1      -4.452   1.334  -1.465  0.00  0.00    -0.204 OA
ATOM      2  C2  BZF d   1      -5.637   2.000  -1.710  0.00  0.00     0.174 A 
ATOM      3  C3  BZF d   1      -5.745   2.320  -3.015  0.00  0.00    -0.012 A 
ATOM      4  C3A BZF d   1      -4.596   1.742  -3.641  0.00  0.00    -0.107 A 
ATOM      5  C4  BZF d   1      -4.148   1.704  -4.930  0.00  0.00     0.055 A 
ATOM      6  C5  BZF d   1      -2.950   1.121  -5.197  0.00  0.00    -0.016 A 
ATOM      7  C6  BZF d   1      -2.172   0.572  -4.199  0.00  0.00     0.022 A 
ATOM      8  C7  BZF d   1      -2.576   0.582  -2.905  0.00  0.00     0.029 A 
ATOM      9  C7A BZF d   1      -3.801   1.141  -2.637  0.00  0.00     0.058 A 
ENDROOT
TORSDOF 0
ENDMDL
