MODEL 1
REMARK minimizedAffinity 16.1719189
REMARK minimizedRMSD -1
REMARK  0 active torsions:
REMARK  status: ('A' for Active; 'I' for Inactive)
ROOT
ATOM      1  O1  BZF d   1       5.629   5.023  -0.876  0.00  0.00    -0.204 OA
ATOM      2  C2  BZF d   1       5.907   6.000   0.061  0.00  0.00     0.174 A 
ATOM      3  C3  BZF d   1       6.000   5.466   1.296  0.00  0.00    -0.012 A 
ATOM      4  C3A BZF d   1       5.856   4.055   1.107  0.00  0.00    -0.107 A 
ATOM      5  C4  BZF d   1       5.874   2.987   1.959  0.00  0.00     0.055 A 
ATOM      6  C5  BZF d   1       5.630   1.745   1.466  0.00  0.00    -0.016 A 
ATOM      7  C6  BZF d   1       5.360   1.534   0.129  0.00  0.00     0.022 A 
ATOM      8  C7  BZF d   1       5.337   2.561  -0.755  0.00  0.00     0.029 A 
ATOM      9  C7A BZF d   1       5.615   3.814  -0.265  0.00  0.00     0.058 A 
ENDROOT
TORSDOF 0
ENDMDL
