MODEL 1
REMARK minimizedAffinity 10.8370171
REMARK minimizedRMSD -1
REMARK  0 active torsions:
REMARK  status: ('A' for Active; 'I' for Inactive)
ROOT
ATOM      1  O1  BZF d   1      -4.971   1.956  -4.935  0.00  0.00    -0.204 OA
ATOM      2  C2  BZF d   1      -6.000   1.672  -4.059  0.00  0.00     0.174 A 
ATOM      3  C3  BZF d   1      -5.628   0.724  -3.175  0.00  0.00    -0.012 A 
ATOM      4  C3A BZF d   1      -4.251   0.461  -3.463  0.00  0.00    -0.107 A 
ATOM      5  C4  BZF d   1      -3.320  -0.374  -2.914  0.00  0.00     0.055 A 
ATOM      6  C5  BZF d   1      -2.085  -0.446  -3.476  0.00  0.00    -0.016 A 
ATOM      7  C6  BZF d   1      -1.748   0.298  -4.587  0.00  0.00     0.022 A 
ATOM      8  C7  BZF d   1      -2.636   1.144  -5.164  0.00  0.00     0.029 A 
ATOM      9  C7A BZF d   1      -3.875   1.244  -4.579  0.00  0.00     0.058 A 
ENDROOT
TORSDOF 0
ENDMDL
