MODEL 1
REMARK minimizedAffinity 16.0133781
REMARK minimizedRMSD -1
REMARK  0 active torsions:
REMARK  status: ('A' for Active; 'I' for Inactive)
ROOT
ATOM      1  O1  BZF d   1       2.077  -4.117  -0.450  0.00  0.00    -0.204 OA
ATOM      2  C2  BZF d   1       2.208  -2.759  -0.670  0.00  0.00     0.174 A 
ATOM      3  C3  BZF d   1       1.079  -2.248  -1.200  0.00  0.00    -0.012 A 
ATOM      4  C3A BZF d   1       0.153  -3.338  -1.234  0.00  0.00    -0.107 A 
ATOM      5  C4  BZF d   1      -1.146  -3.455  -1.641  0.00  0.00     0.055 A 
ATOM      6  C5  BZF d   1      -1.740  -4.677  -1.612  0.00  0.00    -0.016 A 
ATOM      7  C6  BZF d   1      -1.065  -5.802  -1.186  0.00  0.00     0.022 A 
ATOM      8  C7  BZF d   1       0.222  -5.735  -0.768  0.00  0.00     0.029 A 
ATOM      9  C7A BZF d   1       0.815  -4.497  -0.766  0.00  0.00     0.058 A 
ENDROOT
TORSDOF 0
ENDMDL
