MODEL 1
REMARK minimizedAffinity -3.32141972
REMARK minimizedRMSD -1
REMARK  0 active torsions:
REMARK  status: ('A' for Active; 'I' for Inactive)
ROOT
ATOM      1  O1  BZF d   1       0.116  -0.703  -2.016  0.00  0.00    -0.204 OA
ATOM      2  C2  BZF d   1       0.721  -1.945  -1.992  0.00  0.00     0.174 A 
ATOM      3  C3  BZF d   1       0.867  -2.382  -0.724  0.00  0.00    -0.012 A 
ATOM      4  C3A BZF d   1       0.235  -1.389   0.090  0.00  0.00    -0.107 A 
ATOM      5  C4  BZF d   1       0.039  -1.266   1.436  0.00  0.00     0.055 A 
ATOM      6  C5  BZF d   1      -0.551  -0.139   1.917  0.00  0.00    -0.016 A 
ATOM      7  C6  BZF d   1      -0.950   0.884   1.082  0.00  0.00     0.022 A 
ATOM      8  C7  BZF d   1      -0.781   0.804  -0.260  0.00  0.00     0.029 A 
ATOM      9  C7A BZF d   1      -0.215  -0.347  -0.752  0.00  0.00     0.058 A 
ENDROOT
TORSDOF 0
ENDMDL
