MODEL 1
REMARK minimizedAffinity -2.98341227
REMARK minimizedRMSD -1
REMARK  0 active torsions:
REMARK  status: ('A' for Active; 'I' for Inactive)
ROOT
ATOM      1  O1  BZF d   1      -0.624   0.158  -1.170  0.00  0.00    -0.204 OA
ATOM      2  C2  BZF d   1       0.006   0.536   0.000  0.00  0.00     0.174 A 
ATOM      3  C3  BZF d   1       0.772  -0.467   0.476  0.00  0.00    -0.012 A 
ATOM      4  C3A BZF d   1       0.682  -1.507  -0.503  0.00  0.00    -0.107 A 
ATOM      5  C4  BZF d   1       1.236  -2.751  -0.605  0.00  0.00     0.055 A 
ATOM      6  C5  BZF d   1       0.888  -3.545  -1.651  0.00  0.00    -0.016 A 
ATOM      7  C6  BZF d   1      -0.013  -3.129  -2.610  0.00  0.00     0.022 A 
ATOM      8  C7  BZF d   1      -0.584  -1.901  -2.554  0.00  0.00     0.029 A 
ATOM      9  C7A BZF d   1      -0.209  -1.084  -1.516  0.00  0.00     0.058 A 
ENDROOT
TORSDOF 0
ENDMDL
