MODEL 1
REMARK minimizedAffinity -2.83189678
REMARK minimizedRMSD -1
REMARK  0 active torsions:
REMARK  status: ('A' for Active; 'I' for Inactive)
ROOT
ATOM      1  O1  BZF d   1      -0.045   0.174  -0.696  0.00  0.00    -0.204 OA
ATOM      2  C2  BZF d   1      -0.154  -0.830   0.247  0.00  0.00     0.174 A 
ATOM      3  C3  BZF d   1      -0.627  -0.343   1.412  0.00  0.00    -0.012 A 
ATOM      4  C3A BZF d   1      -0.912   1.035   1.156  0.00  0.00    -0.107 A 
ATOM      5  C4  BZF d   1      -1.420   2.047   1.920  0.00  0.00     0.055 A 
ATOM      6  C5  BZF d   1      -1.505   3.295   1.391  0.00  0.00    -0.016 A 
ATOM      7  C6  BZF d   1      -1.088   3.569   0.105  0.00  0.00     0.022 A 
ATOM      8  C7  BZF d   1      -0.583   2.597  -0.693  0.00  0.00     0.029 A 
ATOM      9  C7A BZF d   1      -0.526   1.327  -0.173  0.00  0.00     0.058 A 
ENDROOT
TORSDOF 0
ENDMDL
