MODEL 1
REMARK minimizedAffinity -0.0543806627
REMARK minimizedRMSD -1
REMARK  0 active torsions:
REMARK  status: ('A' for Active; 'I' for Inactive)
ROOT
ATOM      1  O1  BZF d   1       0.216   0.341  -0.616  0.00  0.00    -0.204 OA
ATOM      2  C2  BZF d   1       0.193   0.259   0.763  0.00  0.00     0.174 A 
ATOM      3  C3  BZF d   1       0.466  -0.997   1.173  0.00  0.00    -0.012 A 
ATOM      4  C3A BZF d   1       0.763  -1.726  -0.022  0.00  0.00    -0.107 A 
ATOM      5  C4  BZF d   1       1.124  -3.020  -0.266  0.00  0.00     0.055 A 
ATOM      6  C5  BZF d   1       1.269  -3.433  -1.553  0.00  0.00    -0.016 A 
ATOM      7  C6  BZF d   1       1.057  -2.582  -2.617  0.00  0.00     0.022 A 
ATOM      8  C7  BZF d   1       0.702  -1.288  -2.424  0.00  0.00     0.029 A 
ATOM      9  C7A BZF d   1       0.587  -0.859  -1.125  0.00  0.00     0.058 A 
ENDROOT
TORSDOF 0
ENDMDL
