MODEL 1
REMARK minimizedAffinity -1.26919401
REMARK minimizedRMSD -1
REMARK  0 active torsions:
REMARK  status: ('A' for Active; 'I' for Inactive)
ROOT
ATOM      1  O1  BZF d   1      -1.227   0.195   1.922  0.00  0.00    -0.204 OA
ATOM      2  C2  BZF d   1      -1.830   1.437   1.947  0.00  0.00     0.174 A 
ATOM      3  C3  BZF d   1      -1.363   2.216   0.949  0.00  0.00    -0.012 A 
ATOM      4  C3A BZF d   1      -0.476   1.378   0.202  0.00  0.00    -0.107 A 
ATOM      5  C4  BZF d   1       0.283   1.576  -0.916  0.00  0.00     0.055 A 
ATOM      6  C5  BZF d   1       1.096   0.576  -1.348  0.00  0.00    -0.016 A 
ATOM      7  C6  BZF d   1       1.177  -0.631  -0.684  0.00  0.00     0.022 A 
ATOM      8  C7  BZF d   1       0.440  -0.876   0.426  0.00  0.00     0.029 A 
ATOM      9  C7A BZF d   1      -0.407   0.121   0.846  0.00  0.00     0.058 A 
ENDROOT
TORSDOF 0
ENDMDL
