MODEL 1
REMARK minimizedAffinity -5.28416491
REMARK minimizedRMSD -1
REMARK  0 active torsions:
REMARK  status: ('A' for Active; 'I' for Inactive)
ROOT
ATOM      1  O1  BZF d   1       0.462   0.887  -1.057  0.00  0.00    -0.204 OA
ATOM      2  C2  BZF d   1       0.904  -0.409  -0.871  0.00  0.00     0.174 A 
ATOM      3  C3  BZF d   1       0.308  -0.968   0.202  0.00  0.00    -0.012 A 
ATOM      4  C3A BZF d   1      -0.629   0.009   0.664  0.00  0.00    -0.107 A 
ATOM      5  C4  BZF d   1      -1.531   0.034   1.689  0.00  0.00     0.055 A 
ATOM      6  C5  BZF d   1      -2.243   1.169   1.915  0.00  0.00    -0.016 A 
ATOM      7  C6  BZF d   1      -2.075   2.298   1.141  0.00  0.00     0.022 A 
ATOM      8  C7  BZF d   1      -1.195   2.320   0.110  0.00  0.00     0.029 A 
ATOM      9  C7A BZF d   1      -0.498   1.163  -0.142  0.00  0.00     0.058 A 
ENDROOT
TORSDOF 0
ENDMDL
