MODEL 1
REMARK minimizedAffinity -0.873442709
REMARK minimizedRMSD -1
REMARK  0 active torsions:
REMARK  status: ('A' for Active; 'I' for Inactive)
ROOT
ATOM      1  O1  BZF d   1      -0.659  -0.327  -0.980  0.00  0.00    -0.204 OA
ATOM      2  C2  BZF d   1       0.061   0.204   0.073  0.00  0.00     0.174 A 
ATOM      3  C3  BZF d   1       0.958  -0.689   0.537  0.00  0.00    -0.012 A 
ATOM      4  C3A BZF d   1       0.852  -1.818  -0.336  0.00  0.00    -0.107 A 
ATOM      5  C4  BZF d   1       1.497  -3.020  -0.399  0.00  0.00     0.055 A 
ATOM      6  C5  BZF d   1       1.107  -3.931  -1.328  0.00  0.00    -0.016 A 
ATOM      7  C6  BZF d   1       0.074  -3.676  -2.206  0.00  0.00     0.022 A 
ATOM      8  C7  BZF d   1      -0.593  -2.496  -2.185  0.00  0.00     0.029 A 
ATOM      9  C7A BZF d   1      -0.179  -1.561  -1.269  0.00  0.00     0.058 A 
ENDROOT
TORSDOF 0
ENDMDL
