MODEL 1
REMARK minimizedAffinity -5.32191896
REMARK minimizedRMSD -1
REMARK  0 active torsions:
REMARK  status: ('A' for Active; 'I' for Inactive)
ROOT
ATOM      1  O1  BZF d   1      -1.836   1.726  -0.009  0.00  0.00    -0.204 OA
ATOM      2  C2  BZF d   1      -2.426   0.759   0.783  0.00  0.00     0.174 A 
ATOM      3  C3  BZF d   1      -1.636  -0.330   0.877  0.00  0.00    -0.012 A 
ATOM      4  C3A BZF d   1      -0.439   0.011   0.171  0.00  0.00    -0.107 A 
ATOM      5  C4  BZF d   1       0.728  -0.654  -0.075  0.00  0.00     0.055 A 
ATOM      6  C5  BZF d   1       1.669  -0.068  -0.860  0.00  0.00    -0.016 A 
ATOM      7  C6  BZF d   1       1.476   1.178  -1.419  0.00  0.00     0.022 A 
ATOM      8  C7  BZF d   1       0.336   1.879  -1.200  0.00  0.00     0.029 A 
ATOM      9  C7A BZF d   1      -0.603   1.303  -0.380  0.00  0.00     0.058 A 
ENDROOT
TORSDOF 0
ENDMDL
