MODEL 1
REMARK minimizedAffinity 1.84332383
REMARK minimizedRMSD -1
REMARK  0 active torsions:
REMARK  status: ('A' for Active; 'I' for Inactive)
ROOT
ATOM      1  O1  BZF d   1      -1.354   0.639   0.284  0.00  0.00    -0.204 OA
ATOM      2  C2  BZF d   1      -1.277   1.925  -0.215  0.00  0.00     0.174 A 
ATOM      3  C3  BZF d   1      -0.226   2.051  -1.052  0.00  0.00    -0.012 A 
ATOM      4  C3A BZF d   1       0.337   0.739  -1.148  0.00  0.00    -0.107 A 
ATOM      5  C4  BZF d   1       1.392   0.220  -1.842  0.00  0.00     0.055 A 
ATOM      6  C5  BZF d   1       1.724  -1.086  -1.660  0.00  0.00    -0.016 A 
ATOM      7  C6  BZF d   1       1.026  -1.897  -0.790  0.00  0.00     0.022 A 
ATOM      8  C7  BZF d   1      -0.031  -1.428  -0.083  0.00  0.00     0.029 A 
ATOM      9  C7A BZF d   1      -0.389  -0.118  -0.290  0.00  0.00     0.058 A 
ENDROOT
TORSDOF 0
ENDMDL
