MODEL 1
REMARK minimizedAffinity -5.11484337
REMARK minimizedRMSD -1
REMARK  0 active torsions:
REMARK  status: ('A' for Active; 'I' for Inactive)
ROOT
ATOM      1  O1  BZF d   1      -1.769   1.526   2.317  0.00  0.00    -0.204 OA
ATOM      2  C2  BZF d   1      -2.129   2.729   1.739  0.00  0.00     0.174 A 
ATOM      3  C3  BZF d   1      -1.589   2.849   0.509  0.00  0.00    -0.012 A 
ATOM      4  C3A BZF d   1      -0.922   1.606   0.268  0.00  0.00    -0.107 A 
ATOM      5  C4  BZF d   1      -0.212   1.112  -0.788  0.00  0.00     0.055 A 
ATOM      6  C5  BZF d   1       0.371  -0.111  -0.678  0.00  0.00    -0.016 A 
ATOM      7  C6  BZF d   1       0.270  -0.862   0.475  0.00  0.00     0.022 A 
ATOM      8  C7  BZF d   1      -0.429  -0.416   1.547  0.00  0.00     0.029 A 
ATOM      9  C7A BZF d   1      -1.047   0.805   1.426  0.00  0.00     0.058 A 
ENDROOT
TORSDOF 0
ENDMDL
