MODEL 1
REMARK minimizedAffinity -4.31181717
REMARK minimizedRMSD -1
REMARK  0 active torsions:
REMARK  status: ('A' for Active; 'I' for Inactive)
ROOT
ATOM      1  O1  BZF d   1       0.630   2.196  -0.956  0.00  0.00    -0.204 OA
ATOM      2  C2  BZF d   1       1.400   1.122  -1.357  0.00  0.00     0.174 A 
ATOM      3  C3  BZF d   1       1.276   0.095  -0.492  0.00  0.00    -0.012 A 
ATOM      4  C3A BZF d   1       0.301   0.523   0.463  0.00  0.00    -0.107 A 
ATOM      5  C4  BZF d   1      -0.261  -0.065   1.560  0.00  0.00     0.055 A 
ATOM      6  C5  BZF d   1      -1.130   0.651   2.322  0.00  0.00    -0.016 A 
ATOM      7  C6  BZF d   1      -1.455   1.956   2.018  0.00  0.00     0.022 A 
ATOM      8  C7  BZF d   1      -0.928   2.581   0.937  0.00  0.00     0.029 A 
ATOM      9  C7A BZF d   1      -0.075   1.849   0.147  0.00  0.00     0.058 A 
ENDROOT
TORSDOF 0
ENDMDL
