MODEL 1
REMARK minimizedAffinity -6.02425671
REMARK minimizedRMSD -1
REMARK  0 active torsions:
REMARK  status: ('A' for Active; 'I' for Inactive)
ROOT
ATOM      1  O1  BZF d   1       0.488   0.305  -1.104  0.00  0.00    -0.204 OA
ATOM      2  C2  BZF d   1       0.609  -0.740  -0.208  0.00  0.00     0.174 A 
ATOM      3  C3  BZF d   1       0.003  -0.441   0.959  0.00  0.00    -0.012 A 
ATOM      4  C3A BZF d   1      -0.610   0.834   0.750  0.00  0.00    -0.107 A 
ATOM      5  C4  BZF d   1      -1.371   1.651   1.537  0.00  0.00     0.055 A 
ATOM      6  C5  BZF d   1      -1.751   2.864   1.056  0.00  0.00    -0.016 A 
ATOM      7  C6  BZF d   1      -1.385   3.294  -0.202  0.00  0.00     0.022 A 
ATOM      8  C7  BZF d   1      -0.635   2.517  -1.021  0.00  0.00     0.029 A 
ATOM      9  C7A BZF d   1      -0.277   1.277  -0.551  0.00  0.00     0.058 A 
ENDROOT
TORSDOF 0
ENDMDL
