MODEL 1
REMARK minimizedAffinity -5.9211998
REMARK minimizedRMSD -1
REMARK  0 active torsions:
REMARK  status: ('A' for Active; 'I' for Inactive)
ROOT
ATOM      1  O1  BZF d   1       0.125   0.020   0.390  0.00  0.00    -0.204 OA
ATOM      2  C2  BZF d   1      -0.552  -0.284   1.555  0.00  0.00     0.174 A 
ATOM      3  C3  BZF d   1      -1.284   0.770   1.972  0.00  0.00    -0.012 A 
ATOM      4  C3A BZF d   1      -1.121   1.766   0.958  0.00  0.00    -0.107 A 
ATOM      5  C4  BZF d   1      -1.614   3.029   0.795  0.00  0.00     0.055 A 
ATOM      6  C5  BZF d   1      -1.203   3.766  -0.271  0.00  0.00    -0.016 A 
ATOM      7  C6  BZF d   1      -0.298   3.274  -1.188  0.00  0.00     0.022 A 
ATOM      8  C7  BZF d   1       0.215   2.025  -1.071  0.00  0.00     0.029 A 
ATOM      9  C7A BZF d   1      -0.224   1.266  -0.014  0.00  0.00     0.058 A 
ENDROOT
TORSDOF 0
ENDMDL
