MODEL 1
REMARK minimizedAffinity -4.88393593
REMARK minimizedRMSD -1
REMARK  0 active torsions:
REMARK  status: ('A' for Active; 'I' for Inactive)
ROOT
ATOM      1  O1  BZF d   1       0.378   0.018  -0.442  0.00  0.00    -0.204 OA
ATOM      2  C2  BZF d   1       0.117  -0.923   0.535  0.00  0.00     0.174 A 
ATOM      3  C3  BZF d   1      -0.590  -0.379   1.547  0.00  0.00    -0.012 A 
ATOM      4  C3A BZF d   1      -0.861   0.965   1.136  0.00  0.00    -0.107 A 
ATOM      5  C4  BZF d   1      -1.539   2.003   1.708  0.00  0.00     0.055 A 
ATOM      6  C5  BZF d   1      -1.557   3.207   1.079  0.00  0.00    -0.016 A 
ATOM      7  C6  BZF d   1      -0.904   3.410  -0.120  0.00  0.00     0.022 A 
ATOM      8  C7  BZF d   1      -0.223   2.409  -0.729  0.00  0.00     0.029 A 
ATOM      9  C7A BZF d   1      -0.231   1.182  -0.111  0.00  0.00     0.058 A 
ENDROOT
TORSDOF 0
ENDMDL
