MODEL 1
REMARK minimizedAffinity -3.84575534
REMARK minimizedRMSD -1
REMARK  0 active torsions:
REMARK  status: ('A' for Active; 'I' for Inactive)
ROOT
ATOM      1  O1  BZF d   1      -1.738   0.929   2.120  0.00  0.00    -0.204 OA
ATOM      2  C2  BZF d   1      -2.329   1.939   1.387  0.00  0.00     0.174 A 
ATOM      3  C3  BZF d   1      -1.762   2.041   0.167  0.00  0.00    -0.012 A 
ATOM      4  C3A BZF d   1      -0.816   0.970   0.102  0.00  0.00    -0.107 A 
ATOM      5  C4  BZF d   1       0.048   0.537  -0.863  0.00  0.00     0.055 A 
ATOM      6  C5  BZF d   1       0.888  -0.493  -0.584  0.00  0.00    -0.016 A 
ATOM      7  C6  BZF d   1       0.896  -1.110   0.650  0.00  0.00     0.022 A 
ATOM      8  C7  BZF d   1       0.054  -0.720   1.637  0.00  0.00     0.029 A 
ATOM      9  C7A BZF d   1      -0.820   0.299   1.347  0.00  0.00     0.058 A 
ENDROOT
TORSDOF 0
ENDMDL
