MODEL 1
REMARK minimizedAffinity -4.36043262
REMARK minimizedRMSD -1
REMARK  0 active torsions:
REMARK  status: ('A' for Active; 'I' for Inactive)
ROOT
ATOM      1  O1  BZF d   1      -1.759   1.251   2.302  0.00  0.00    -0.204 OA
ATOM      2  C2  BZF d   1      -2.283   2.266   1.524  0.00  0.00     0.174 A 
ATOM      3  C3  BZF d   1      -1.802   2.201   0.266  0.00  0.00    -0.012 A 
ATOM      4  C3A BZF d   1      -0.995   1.020   0.232  0.00  0.00    -0.107 A 
ATOM      5  C4  BZF d   1      -0.263   0.411  -0.747  0.00  0.00     0.055 A 
ATOM      6  C5  BZF d   1       0.470  -0.690  -0.436  0.00  0.00    -0.016 A 
ATOM      7  C6  BZF d   1       0.500  -1.204   0.844  0.00  0.00     0.022 A 
ATOM      8  C7  BZF d   1      -0.214  -0.637   1.847  0.00  0.00     0.029 A 
ATOM      9  C7A BZF d   1      -0.982   0.456   1.528  0.00  0.00     0.058 A 
ENDROOT
TORSDOF 0
ENDMDL
