MODEL 1
REMARK minimizedAffinity -2.35975599
REMARK minimizedRMSD -1
REMARK  0 active torsions:
REMARK  status: ('A' for Active; 'I' for Inactive)
ROOT
ATOM      1  O1  BZF d   1      -1.176   1.610   2.235  0.00  0.00    -0.204 OA
ATOM      2  C2  BZF d   1      -1.921   2.444   1.423  0.00  0.00     0.174 A 
ATOM      3  C3  BZF d   1      -1.736   2.136   0.123  0.00  0.00    -0.012 A 
ATOM      4  C3A BZF d   1      -0.890   0.982   0.126  0.00  0.00    -0.107 A 
ATOM      5  C4  BZF d   1      -0.366   0.199  -0.862  0.00  0.00     0.055 A 
ATOM      6  C5  BZF d   1       0.482  -0.809  -0.527  0.00  0.00    -0.016 A 
ATOM      7  C6  BZF d   1       0.831  -1.059   0.784  0.00  0.00     0.022 A 
ATOM      8  C7  BZF d   1       0.332  -0.312   1.799  0.00  0.00     0.029 A 
ATOM      9  C7A BZF d   1      -0.550   0.686   1.467  0.00  0.00     0.058 A 
ENDROOT
TORSDOF 0
ENDMDL
