MODEL 1
REMARK minimizedAffinity 8.01239491
REMARK minimizedRMSD -1
REMARK  0 active torsions:
REMARK  status: ('A' for Active; 'I' for Inactive)
ROOT
ATOM      1  C   UNL d   1       0.363   1.438   1.985  0.00  0.00     0.077 C 
ATOM      2  C1  UNL d   1       0.051   0.113   2.614  0.00  0.00    -0.074 A 
ATOM      3  C2  UNL d   1      -1.065  -0.628   2.213  0.00  0.00    -0.005 A 
ATOM      4  C3  UNL d   1      -1.338  -1.863   2.801  0.00  0.00     0.006 A 
ATOM      5  C4  UNL d   1      -0.499  -2.369   3.794  0.00  0.00    -0.005 A 
ATOM      6  C5  UNL d   1       0.622  -1.643   4.208  0.00  0.00    -0.074 A 
ATOM      7  C6  UNL d   1       1.539  -2.176   5.268  0.00  0.00     0.077 C 
ATOM      8  C7  UNL d   1       0.893  -0.406   3.608  0.00  0.00    -0.001 A 
ENDROOT
TORSDOF 0
ENDMDL
