MODEL 1
REMARK minimizedAffinity 19.3707924
REMARK minimizedRMSD -1
REMARK  0 active torsions:
REMARK  status: ('A' for Active; 'I' for Inactive)
ROOT
ATOM      1  C   UNL d   1      -2.240  -4.888  -5.247  0.00  0.00     0.077 C 
ATOM      2  C1  UNL d   1      -0.931  -4.156  -5.254  0.00  0.00    -0.074 A 
ATOM      3  C2  UNL d   1       0.278  -4.846  -5.384  0.00  0.00    -0.005 A 
ATOM      4  C3  UNL d   1       1.487  -4.151  -5.398  0.00  0.00     0.006 A 
ATOM      5  C4  UNL d   1       1.499  -2.760  -5.282  0.00  0.00    -0.005 A 
ATOM      6  C5  UNL d   1       0.300  -2.053  -5.152  0.00  0.00    -0.074 A 
ATOM      7  C6  UNL d   1       0.294  -0.557  -5.037  0.00  0.00     0.077 C 
ATOM      8  C7  UNL d   1      -0.912  -2.758  -5.146  0.00  0.00    -0.001 A 
ENDROOT
TORSDOF 0
ENDMDL
