MODEL 1
REMARK minimizedAffinity 5.61430264
REMARK minimizedRMSD -1
REMARK  0 active torsions:
REMARK  status: ('A' for Active; 'I' for Inactive)
ROOT
ATOM      1  C   UNL d   1       5.648   1.645   3.856  0.00  0.00     0.077 C 
ATOM      2  C1  UNL d   1       5.320   2.996   3.292  0.00  0.00    -0.074 A 
ATOM      3  C2  UNL d   1       6.000   4.139   3.724  0.00  0.00    -0.005 A 
ATOM      4  C3  UNL d   1       5.691   5.387   3.184  0.00  0.00     0.006 A 
ATOM      5  C4  UNL d   1       4.700   5.504   2.207  0.00  0.00    -0.005 A 
ATOM      6  C5  UNL d   1       4.011   4.372   1.763  0.00  0.00    -0.074 A 
ATOM      7  C6  UNL d   1       2.951   4.479   0.707  0.00  0.00     0.077 C 
ATOM      8  C7  UNL d   1       4.332   3.120   2.305  0.00  0.00    -0.001 A 
ENDROOT
TORSDOF 0
ENDMDL
