MODEL 1
REMARK minimizedAffinity 11.5183849
REMARK minimizedRMSD -1
REMARK  0 active torsions:
REMARK  status: ('A' for Active; 'I' for Inactive)
ROOT
ATOM      1  C   UNL d   1      -5.941   5.377  -2.216  0.00  0.00     0.077 C 
ATOM      2  C1  UNL d   1      -5.944   4.023  -1.572  0.00  0.00    -0.074 A 
ATOM      3  C2  UNL d   1      -5.988   3.889  -0.180  0.00  0.00    -0.005 A 
ATOM      4  C3  UNL d   1      -6.000   2.623   0.404  0.00  0.00     0.006 A 
ATOM      5  C4  UNL d   1      -5.967   1.479  -0.395  0.00  0.00    -0.005 A 
ATOM      6  C5  UNL d   1      -5.924   1.594  -1.789  0.00  0.00    -0.074 A 
ATOM      7  C6  UNL d   1      -5.898   0.375  -2.663  0.00  0.00     0.077 C 
ATOM      8  C7  UNL d   1      -5.919   2.870  -2.369  0.00  0.00    -0.001 A 
ENDROOT
TORSDOF 0
ENDMDL
