MODEL 1
REMARK minimizedAffinity 3.75202417
REMARK minimizedRMSD -1
REMARK  0 active torsions:
REMARK  status: ('A' for Active; 'I' for Inactive)
ROOT
ATOM      1  C   UNL d   1       3.648   3.307   0.597  0.00  0.00     0.077 C 
ATOM      2  C1  UNL d   1       3.976   3.349   2.060  0.00  0.00    -0.074 A 
ATOM      3  C2  UNL d   1       4.194   4.566   2.713  0.00  0.00    -0.005 A 
ATOM      4  C3  UNL d   1       4.488   4.590   4.076  0.00  0.00     0.006 A 
ATOM      5  C4  UNL d   1       4.567   3.399   4.799  0.00  0.00    -0.005 A 
ATOM      6  C5  UNL d   1       4.351   2.173   4.163  0.00  0.00    -0.074 A 
ATOM      7  C6  UNL d   1       4.423   0.884   4.927  0.00  0.00     0.077 C 
ATOM      8  C7  UNL d   1       4.049   2.157   2.794  0.00  0.00    -0.001 A 
ENDROOT
TORSDOF 0
ENDMDL
