MODEL 1
REMARK minimizedAffinity 11.6496086
REMARK minimizedRMSD -1
REMARK  0 active torsions:
REMARK  status: ('A' for Active; 'I' for Inactive)
ROOT
ATOM      1  C   UNL d   1       1.572  -2.061   4.443  0.00  0.00     0.077 C 
ATOM      2  C1  UNL d   1       0.990  -0.830   3.814  0.00  0.00    -0.074 A 
ATOM      3  C2  UNL d   1       0.771  -0.763   2.434  0.00  0.00    -0.005 A 
ATOM      4  C3  UNL d   1       0.220   0.385   1.865  0.00  0.00     0.006 A 
ATOM      5  C4  UNL d   1      -0.116   1.476   2.668  0.00  0.00    -0.005 A 
ATOM      6  C5  UNL d   1       0.095   1.426   4.049  0.00  0.00    -0.074 A 
ATOM      7  C6  UNL d   1      -0.270   2.586   4.928  0.00  0.00     0.077 C 
ATOM      8  C7  UNL d   1       0.642   0.266   4.615  0.00  0.00    -0.001 A 
ENDROOT
TORSDOF 0
ENDMDL
