MODEL 1
REMARK minimizedAffinity 13.8342876
REMARK minimizedRMSD -1
REMARK  0 active torsions:
REMARK  status: ('A' for Active; 'I' for Inactive)
ROOT
ATOM      1  C   UNL d   1       1.718   1.142  -5.338  0.00  0.00     0.077 C 
ATOM      2  C1  UNL d   1       3.212   1.242  -5.427  0.00  0.00    -0.074 A 
ATOM      3  C2  UNL d   1       4.017   0.106  -5.297  0.00  0.00    -0.005 A 
ATOM      4  C3  UNL d   1       5.405   0.213  -5.392  0.00  0.00     0.006 A 
ATOM      5  C4  UNL d   1       6.000   1.455  -5.616  0.00  0.00    -0.005 A 
ATOM      6  C5  UNL d   1       5.210   2.602  -5.749  0.00  0.00    -0.074 A 
ATOM      7  C6  UNL d   1       5.833   3.943  -6.000  0.00  0.00     0.077 C 
ATOM      8  C7  UNL d   1       3.816   2.485  -5.660  0.00  0.00    -0.001 A 
ENDROOT
TORSDOF 0
ENDMDL
