MODEL 1
REMARK minimizedAffinity 20.6891899
REMARK minimizedRMSD -1
REMARK  0 active torsions:
REMARK  status: ('A' for Active; 'I' for Inactive)
ROOT
ATOM      1  C   UNL d   1       5.397   3.217  -5.991  0.00  0.00     0.077 C 
ATOM      2  C1  UNL d   1       5.040   1.770  -5.822  0.00  0.00    -0.074 A 
ATOM      3  C2  UNL d   1       6.000   0.768  -6.000  0.00  0.00    -0.005 A 
ATOM      4  C3  UNL d   1       5.656  -0.573  -5.830  0.00  0.00     0.006 A 
ATOM      5  C4  UNL d   1       4.351  -0.926  -5.482  0.00  0.00    -0.005 A 
ATOM      6  C5  UNL d   1       3.379   0.062  -5.299  0.00  0.00    -0.074 A 
ATOM      7  C6  UNL d   1       1.974  -0.298  -4.915  0.00  0.00     0.077 C 
ATOM      8  C7  UNL d   1       3.734   1.408  -5.465  0.00  0.00    -0.001 A 
ENDROOT
TORSDOF 0
ENDMDL
