MODEL 1
REMARK minimizedAffinity 15.0253477
REMARK minimizedRMSD -1
REMARK  0 active torsions:
REMARK  status: ('A' for Active; 'I' for Inactive)
ROOT
ATOM      1  C   UNL d   1      -1.265  -2.060  -1.884  0.00  0.00     0.077 C 
ATOM      2  C1  UNL d   1      -1.517  -1.541  -0.500  0.00  0.00    -0.074 A 
ATOM      3  C2  UNL d   1      -2.783  -1.639   0.085  0.00  0.00    -0.005 A 
ATOM      4  C3  UNL d   1      -3.000  -1.161   1.377  0.00  0.00     0.006 A 
ATOM      5  C4  UNL d   1      -1.954  -0.581   2.097  0.00  0.00    -0.005 A 
ATOM      6  C5  UNL d   1      -0.681  -0.476   1.529  0.00  0.00    -0.074 A 
ATOM      7  C6  UNL d   1       0.457   0.135   2.292  0.00  0.00     0.077 C 
ATOM      8  C7  UNL d   1      -0.469  -0.965   0.232  0.00  0.00    -0.001 A 
ENDROOT
TORSDOF 0
ENDMDL
