MODEL 1
REMARK minimizedAffinity 7.57713461
REMARK minimizedRMSD -1
REMARK  0 active torsions:
REMARK  status: ('A' for Active; 'I' for Inactive)
ROOT
ATOM      1  C   UNL d   1      -1.742   2.128   1.947  0.00  0.00     0.077 C 
ATOM      2  C1  UNL d   1      -0.827   1.028   2.396  0.00  0.00    -0.074 A 
ATOM      3  C2  UNL d   1      -0.972  -0.273   1.903  0.00  0.00    -0.005 A 
ATOM      4  C3  UNL d   1      -0.108  -1.285   2.322  0.00  0.00     0.006 A 
ATOM      5  C4  UNL d   1       0.908  -1.006   3.237  0.00  0.00    -0.005 A 
ATOM      6  C5  UNL d   1       1.069   0.289   3.740  0.00  0.00    -0.074 A 
ATOM      7  C6  UNL d   1       2.163   0.608   4.716  0.00  0.00     0.077 C 
ATOM      8  C7  UNL d   1       0.201   1.301   3.309  0.00  0.00    -0.001 A 
ENDROOT
TORSDOF 0
ENDMDL
