MODEL 1
REMARK minimizedAffinity -4.58230782
REMARK minimizedRMSD -1
REMARK  1 active torsions:
REMARK  status: ('A' for Active; 'I' for Inactive)
REMARK    1  A    between atoms: N_2  and  C1_3 
ROOT
ATOM      1  C1  UNL d   1       0.010   0.494   0.470  0.00  0.00     0.143 A 
ATOM      2  C2  UNL d   1      -0.269   1.497  -0.465  0.00  0.00    -0.057 A 
ATOM      3  C3  UNL d   1      -1.228   2.484  -0.207  0.00  0.00     0.033 A 
ATOM      4  C4  UNL d   1      -1.948   2.468   0.983  0.00  0.00    -0.042 A 
ATOM      5  C5  UNL d   1      -1.706   1.466   1.916  0.00  0.00     0.033 A 
ATOM      6  C6  UNL d   1      -0.742   0.487   1.655  0.00  0.00    -0.057 A 
ENDROOT
BRANCH   1   7
ATOM      7  N   UNL d   1       0.880  -0.572   0.231  0.00  0.00    -0.732 N 
ATOM      8  C   UNL d   1       1.243  -0.939  -1.121  0.00  0.00     0.284 C 
ATOM      9  H3  UNL d   1       1.655  -0.596   0.890  0.00  0.00     0.395 HD
ENDBRANCH   1   7
TORSDOF 1
ENDMDL
