MODEL 1
REMARK minimizedAffinity -5.1050415
REMARK minimizedRMSD -1
REMARK  1 active torsions:
REMARK  status: ('A' for Active; 'I' for Inactive)
REMARK    1  A    between atoms: N_2  and  C1_3 
ROOT
ATOM      1  C1  UNL d   1      -0.595   1.327   0.445  0.00  0.00     0.143 A 
ATOM      2  C2  UNL d   1      -1.565   1.738   1.365  0.00  0.00    -0.057 A 
ATOM      3  C3  UNL d   1      -2.177   2.993   1.263  0.00  0.00     0.033 A 
ATOM      4  C4  UNL d   1      -1.807   3.874   0.251  0.00  0.00    -0.042 A 
ATOM      5  C5  UNL d   1      -0.827   3.496  -0.660  0.00  0.00     0.033 A 
ATOM      6  C6  UNL d   1      -0.225   2.238  -0.556  0.00  0.00    -0.057 A 
ENDROOT
BRANCH   1   7
ATOM      7  N   UNL d   1       0.120   0.131   0.550  0.00  0.00    -0.732 N 
ATOM      8  C   UNL d   1       0.966  -0.320  -0.533  0.00  0.00     0.284 C 
ATOM      9  H3  UNL d   1       0.524   0.001   1.475  0.00  0.00     0.395 HD
ENDBRANCH   1   7
TORSDOF 1
ENDMDL
