MODEL 1
REMARK minimizedAffinity -4.50012064
REMARK minimizedRMSD -1
REMARK  1 active torsions:
REMARK  status: ('A' for Active; 'I' for Inactive)
REMARK    1  A    between atoms: N_2  and  C1_3 
ROOT
ATOM      1  C1  UNL d   1      -0.497   1.008   0.033  0.00  0.00     0.143 A 
ATOM      2  C2  UNL d   1      -1.478   1.480   0.912  0.00  0.00    -0.057 A 
ATOM      3  C3  UNL d   1      -1.830   2.834   0.948  0.00  0.00     0.033 A 
ATOM      4  C4  UNL d   1      -1.185   3.749   0.122  0.00  0.00    -0.042 A 
ATOM      5  C5  UNL d   1      -0.190   3.307  -0.742  0.00  0.00     0.033 A 
ATOM      6  C6  UNL d   1       0.153   1.952  -0.778  0.00  0.00    -0.057 A 
ENDROOT
BRANCH   1   7
ATOM      7  N   UNL d   1      -0.033  -0.309   0.020  0.00  0.00    -0.732 N 
ATOM      8  C   UNL d   1       1.020  -0.711  -0.889  0.00  0.00     0.284 C 
ATOM      9  H3  UNL d   1       0.054  -0.700   0.955  0.00  0.00     0.395 HD
ENDBRANCH   1   7
TORSDOF 1
ENDMDL
