MODEL 1
REMARK minimizedAffinity -4.78212738
REMARK minimizedRMSD -1
REMARK  1 active torsions:
REMARK  status: ('A' for Active; 'I' for Inactive)
REMARK    1  A    between atoms: N_2  and  C1_3 
ROOT
ATOM      1  C1  UNL d   1      -0.290   0.729   0.570  0.00  0.00     0.143 A 
ATOM      2  C2  UNL d   1      -1.233   1.027   1.560  0.00  0.00    -0.057 A 
ATOM      3  C3  UNL d   1      -1.862   2.276   1.610  0.00  0.00     0.033 A 
ATOM      4  C4  UNL d   1      -1.538   3.263   0.685  0.00  0.00    -0.042 A 
ATOM      5  C5  UNL d   1      -0.586   2.997  -0.293  0.00  0.00     0.033 A 
ATOM      6  C6  UNL d   1       0.034   1.745  -0.342  0.00  0.00    -0.057 A 
ENDROOT
BRANCH   1   7
ATOM      7  N   UNL d   1       0.442  -0.460   0.527  0.00  0.00    -0.732 N 
ATOM      8  C   UNL d   1       1.222  -0.803  -0.643  0.00  0.00     0.284 C 
ATOM      9  H3  UNL d   1       0.905  -0.663   1.409  0.00  0.00     0.395 HD
ENDBRANCH   1   7
TORSDOF 1
ENDMDL
