MODEL 1
REMARK minimizedAffinity -4.99138975
REMARK minimizedRMSD -1
REMARK  1 active torsions:
REMARK  status: ('A' for Active; 'I' for Inactive)
REMARK    1  A    between atoms: N_2  and  C1_3 
ROOT
ATOM      1  C1  UNL d   1      -0.522   1.237  -0.522  0.00  0.00     0.143 A 
ATOM      2  C2  UNL d   1      -1.513   1.181   0.464  0.00  0.00    -0.057 A 
ATOM      3  C3  UNL d   1      -2.233   2.323   0.835  0.00  0.00     0.033 A 
ATOM      4  C4  UNL d   1      -1.953   3.552   0.245  0.00  0.00    -0.042 A 
ATOM      5  C5  UNL d   1      -0.954   3.636  -0.719  0.00  0.00     0.033 A 
ATOM      6  C6  UNL d   1      -0.244   2.490  -1.090  0.00  0.00    -0.057 A 
ENDROOT
BRANCH   1   7
ATOM      7  N   UNL d   1       0.296   0.157  -0.865  0.00  0.00    -0.732 N 
ATOM      8  C   UNL d   1       0.537  -0.914   0.078  0.00  0.00     0.284 C 
ATOM      9  H3  UNL d   1       0.145  -0.157  -1.820  0.00  0.00     0.395 HD
ENDBRANCH   1   7
TORSDOF 1
ENDMDL
