MODEL 1
REMARK minimizedAffinity -3.8190434
REMARK minimizedRMSD -1
REMARK  1 active torsions:
REMARK  status: ('A' for Active; 'I' for Inactive)
REMARK    1  A    between atoms: N_2  and  C1_3 
ROOT
ATOM      1  C1  UNL d   1       0.026  -0.092   0.083  0.00  0.00     0.143 A 
ATOM      2  C2  UNL d   1       0.221   0.027   1.463  0.00  0.00    -0.057 A 
ATOM      3  C3  UNL d   1      -0.647   0.787   2.256  0.00  0.00     0.033 A 
ATOM      4  C4  UNL d   1      -1.712   1.468   1.676  0.00  0.00    -0.042 A 
ATOM      5  C5  UNL d   1      -1.911   1.384   0.302  0.00  0.00     0.033 A 
ATOM      6  C6  UNL d   1      -1.044   0.618  -0.483  0.00  0.00    -0.057 A 
ENDROOT
BRANCH   1   7
ATOM      7  N   UNL d   1       0.911  -0.752  -0.774  0.00  0.00    -0.732 N 
ATOM      8  C   UNL d   1       0.421  -1.705  -1.747  0.00  0.00     0.284 C 
ATOM      9  H3  UNL d   1       1.643  -0.139  -1.124  0.00  0.00     0.395 HD
ENDBRANCH   1   7
TORSDOF 1
ENDMDL
