MODEL 1
REMARK minimizedAffinity -4.15039062
REMARK minimizedRMSD -1
REMARK  1 active torsions:
REMARK  status: ('A' for Active; 'I' for Inactive)
REMARK    1  A    between atoms: N_2  and  C1_3 
ROOT
ATOM      1  C1  UNL d   1       0.060  -0.030   0.120  0.00  0.00     0.143 A 
ATOM      2  C2  UNL d   1      -0.280  -0.220   1.464  0.00  0.00    -0.057 A 
ATOM      3  C3  UNL d   1      -1.265   0.561   2.080  0.00  0.00     0.033 A 
ATOM      4  C4  UNL d   1      -1.909   1.569   1.369  0.00  0.00    -0.042 A 
ATOM      5  C5  UNL d   1      -1.569   1.792   0.040  0.00  0.00     0.033 A 
ATOM      6  C6  UNL d   1      -0.589   1.004  -0.572  0.00  0.00    -0.057 A 
ENDROOT
BRANCH   1   7
ATOM      7  N   UNL d   1       1.100  -0.707  -0.522  0.00  0.00    -0.732 N 
ATOM      8  C   UNL d   1       0.843  -1.931  -1.251  0.00  0.00     0.284 C 
ATOM      9  H3  UNL d   1       1.747  -0.075  -0.987  0.00  0.00     0.395 HD
ENDBRANCH   1   7
TORSDOF 1
ENDMDL
