MODEL 1
REMARK minimizedAffinity -3.81136155
REMARK minimizedRMSD -1
REMARK  1 active torsions:
REMARK  status: ('A' for Active; 'I' for Inactive)
REMARK    1  A    between atoms: N_2  and  C1_3 
ROOT
ATOM      1  C1  UNL d   1       0.470  -1.067  -0.870  0.00  0.00     0.143 A 
ATOM      2  C2  UNL d   1       1.379  -2.127  -0.778  0.00  0.00    -0.057 A 
ATOM      3  C3  UNL d   1       1.367  -3.175  -1.707  0.00  0.00     0.033 A 
ATOM      4  C4  UNL d   1       0.424  -3.197  -2.729  0.00  0.00    -0.042 A 
ATOM      5  C5  UNL d   1      -0.505  -2.167  -2.824  0.00  0.00     0.033 A 
ATOM      6  C6  UNL d   1      -0.484  -1.119  -1.898  0.00  0.00    -0.057 A 
ENDROOT
BRANCH   1   7
ATOM      7  N   UNL d   1       0.367  -0.047   0.079  0.00  0.00    -0.732 N 
ATOM      8  C   UNL d   1      -0.347  -0.263   1.319  0.00  0.00     0.284 C 
ATOM      9  H3  UNL d   1       1.234   0.475   0.184  0.00  0.00     0.395 HD
ENDBRANCH   1   7
TORSDOF 1
ENDMDL
