MODEL 1
REMARK minimizedAffinity -4.31948614
REMARK minimizedRMSD -1
REMARK  1 active torsions:
REMARK  status: ('A' for Active; 'I' for Inactive)
REMARK    1  A    between atoms: N_2  and  C1_3 
ROOT
ATOM      1  C1  UNL d   1       0.028   0.198  -0.073  0.00  0.00     0.143 A 
ATOM      2  C2  UNL d   1       0.057  -0.152   1.281  0.00  0.00    -0.057 A 
ATOM      3  C3  UNL d   1      -0.844   0.406   2.195  0.00  0.00     0.033 A 
ATOM      4  C4  UNL d   1      -1.776   1.349   1.775  0.00  0.00    -0.042 A 
ATOM      5  C5  UNL d   1      -1.807   1.731   0.438  0.00  0.00     0.033 A 
ATOM      6  C6  UNL d   1      -0.908   1.165  -0.471  0.00  0.00    -0.057 A 
ENDROOT
BRANCH   1   7
ATOM      7  N   UNL d   1       0.961  -0.247  -1.012  0.00  0.00    -0.732 N 
ATOM      8  C   UNL d   1       0.790  -1.523  -1.674  0.00  0.00     0.284 C 
ATOM      9  H3  UNL d   1       1.283   0.499  -1.625  0.00  0.00     0.395 HD
ENDBRANCH   1   7
TORSDOF 1
ENDMDL
