MODEL 1
REMARK minimizedAffinity -5.26428413
REMARK minimizedRMSD -1
REMARK  1 active torsions:
REMARK  status: ('A' for Active; 'I' for Inactive)
REMARK    1  A    between atoms: N_2  and  C1_3 
ROOT
ATOM      1  C1  UNL d   1      -0.430   0.894   0.349  0.00  0.00     0.143 A 
ATOM      2  C2  UNL d   1      -1.207   0.908   1.512  0.00  0.00    -0.057 A 
ATOM      3  C3  UNL d   1      -1.907   2.056   1.904  0.00  0.00     0.033 A 
ATOM      4  C4  UNL d   1      -1.818   3.223   1.152  0.00  0.00    -0.042 A 
ATOM      5  C5  UNL d   1      -1.031   3.239   0.006  0.00  0.00     0.033 A 
ATOM      6  C6  UNL d   1      -0.340   2.088  -0.384  0.00  0.00    -0.057 A 
ENDROOT
BRANCH   1   7
ATOM      7  N   UNL d   1       0.367  -0.185  -0.041  0.00  0.00    -0.732 N 
ATOM      8  C   UNL d   1       1.562   0.028  -0.828  0.00  0.00     0.284 C 
ATOM      9  H3  UNL d   1       0.474  -0.876   0.699  0.00  0.00     0.395 HD
ENDBRANCH   1   7
TORSDOF 1
ENDMDL
