MODEL 1
REMARK minimizedAffinity -4.94797087
REMARK minimizedRMSD -1
REMARK  1 active torsions:
REMARK  status: ('A' for Active; 'I' for Inactive)
REMARK    1  A    between atoms: N_2  and  C1_3 
ROOT
ATOM      1  C1  UNL d   1      -0.288   0.931   0.496  0.00  0.00     0.143 A 
ATOM      2  C2  UNL d   1      -1.421   0.985   1.316  0.00  0.00    -0.057 A 
ATOM      3  C3  UNL d   1      -2.218   2.135   1.379  0.00  0.00     0.033 A 
ATOM      4  C4  UNL d   1      -1.877   3.266   0.643  0.00  0.00    -0.042 A 
ATOM      5  C5  UNL d   1      -0.742   3.243  -0.159  0.00  0.00     0.033 A 
ATOM      6  C6  UNL d   1       0.046   2.090  -0.223  0.00  0.00    -0.057 A 
ENDROOT
BRANCH   1   7
ATOM      7  N   UNL d   1       0.598  -0.147   0.465  0.00  0.00    -0.732 N 
ATOM      8  C   UNL d   1       1.565  -0.277  -0.605  0.00  0.00     0.284 C 
ATOM      9  H3  UNL d   1       0.965  -0.376   1.386  0.00  0.00     0.395 HD
ENDBRANCH   1   7
TORSDOF 1
ENDMDL
