MODEL 1
REMARK minimizedAffinity -5.05874205
REMARK minimizedRMSD -1
REMARK  1 active torsions:
REMARK  status: ('A' for Active; 'I' for Inactive)
REMARK    1  A    between atoms: N_2  and  C1_3 
ROOT
ATOM      1  C1  UNL d   1       0.113  -0.026  -0.001  0.00  0.00     0.143 A 
ATOM      2  C2  UNL d   1      -0.242  -0.335   1.317  0.00  0.00    -0.057 A 
ATOM      3  C3  UNL d   1      -1.250   0.372   1.982  0.00  0.00     0.033 A 
ATOM      4  C4  UNL d   1      -1.905   1.424   1.349  0.00  0.00    -0.042 A 
ATOM      5  C5  UNL d   1      -1.552   1.764   0.048  0.00  0.00     0.033 A 
ATOM      6  C6  UNL d   1      -0.549   1.050  -0.614  0.00  0.00    -0.057 A 
ENDROOT
BRANCH   1   7
ATOM      7  N   UNL d   1       1.174  -0.627  -0.682  0.00  0.00    -0.732 N 
ATOM      8  C   UNL d   1       0.976  -1.859  -1.416  0.00  0.00     0.284 C 
ATOM      9  H3  UNL d   1       1.762   0.052  -1.160  0.00  0.00     0.395 HD
ENDBRANCH   1   7
TORSDOF 1
ENDMDL
