MODEL 1
REMARK minimizedAffinity -4.6836586
REMARK minimizedRMSD -1
REMARK  1 active torsions:
REMARK  status: ('A' for Active; 'I' for Inactive)
REMARK    1  A    between atoms: N_2  and  C1_3 
ROOT
ATOM      1  C1  UNL d   1      -0.209   0.245   0.399  0.00  0.00     0.143 A 
ATOM      2  C2  UNL d   1      -1.064   0.470   1.483  0.00  0.00    -0.057 A 
ATOM      3  C3  UNL d   1      -1.731   1.691   1.639  0.00  0.00     0.033 A 
ATOM      4  C4  UNL d   1      -1.532   2.722   0.727  0.00  0.00    -0.042 A 
ATOM      5  C5  UNL d   1      -0.667   2.529  -0.345  0.00  0.00     0.033 A 
ATOM      6  C6  UNL d   1      -0.009   1.305  -0.499  0.00  0.00    -0.057 A 
ENDROOT
BRANCH   1   7
ATOM      7  N   UNL d   1       0.559  -0.912   0.241  0.00  0.00    -0.732 N 
ATOM      8  C   UNL d   1       0.307  -1.820  -0.857  0.00  0.00     0.284 C 
ATOM      9  H3  UNL d   1       1.546  -0.752   0.430  0.00  0.00     0.395 HD
ENDBRANCH   1   7
TORSDOF 1
ENDMDL
