MODEL 1
REMARK minimizedAffinity 12.6045008
REMARK minimizedRMSD -1
REMARK  1 active torsions:
REMARK  status: ('A' for Active; 'I' for Inactive)
REMARK    1  A    between atoms: C1_2  and  C2_3 
ROOT
ATOM      1  C2  UNL d   1       4.547   1.394  -1.008  0.00  0.00    -0.076 A 
ATOM      2  C3  UNL d   1       4.089   0.854  -2.223  0.00  0.00     0.004 A 
ATOM      3  C4  UNL d   1       2.964   0.033  -2.265  0.00  0.00    -0.003 A 
ATOM      4  C5  UNL d   1       2.278  -0.262  -1.092  0.00  0.00     0.000 A 
ATOM      5  C6  UNL d   1       2.707   0.278   0.120  0.00  0.00     0.000 A 
ATOM      6  C7  UNL d   1       3.830   1.121   0.177  0.00  0.00    -0.073 A 
ATOM      7  C8  UNL d   1       4.253   1.672   1.511  0.00  0.00     0.078 C 
ENDROOT
BRANCH   1   8
ATOM      8  C1  UNL d   1       5.789   2.256  -1.021  0.00  0.00     0.053 C 
ATOM      9  C   UNL d   1       5.977   2.987  -2.341  0.00  0.00     0.018 C 
ENDBRANCH   1   8
TORSDOF 1
ENDMDL
