MODEL 1
REMARK minimizedAffinity 7.49377394
REMARK minimizedRMSD -1
REMARK  1 active torsions:
REMARK  status: ('A' for Active; 'I' for Inactive)
REMARK    1  A    between atoms: C1_2  and  C2_3 
ROOT
ATOM      1  C2  UNL d   1       4.537   1.925  -0.774  0.00  0.00    -0.076 A 
ATOM      2  C3  UNL d   1       3.789   1.011  -1.537  0.00  0.00     0.004 A 
ATOM      3  C4  UNL d   1       2.769   0.259  -0.957  0.00  0.00    -0.003 A 
ATOM      4  C5  UNL d   1       2.480   0.409   0.395  0.00  0.00     0.000 A 
ATOM      5  C6  UNL d   1       3.200   1.324   1.162  0.00  0.00     0.000 A 
ATOM      6  C7  UNL d   1       4.221   2.102   0.589  0.00  0.00    -0.073 A 
ATOM      7  C8  UNL d   1       4.969   3.069   1.465  0.00  0.00     0.078 C 
ENDROOT
BRANCH   1   8
ATOM      8  C1  UNL d   1       5.650   2.693  -1.452  0.00  0.00     0.053 C 
ATOM      9  C   UNL d   1       5.999   2.127  -2.819  0.00  0.00     0.018 C 
ENDBRANCH   1   8
TORSDOF 1
ENDMDL
