MODEL 1
REMARK minimizedAffinity 12.439209
REMARK minimizedRMSD -1
REMARK  1 active torsions:
REMARK  status: ('A' for Active; 'I' for Inactive)
REMARK    1  A    between atoms: C1_2  and  C2_3 
ROOT
ATOM      1  C2  UNL d   1       4.033   0.945  -0.786  0.00  0.00    -0.076 A 
ATOM      2  C3  UNL d   1       4.059   0.810  -2.185  0.00  0.00     0.004 A 
ATOM      3  C4  UNL d   1       5.034   1.448  -2.949  0.00  0.00    -0.003 A 
ATOM      4  C5  UNL d   1       6.000   2.231  -2.327  0.00  0.00     0.000 A 
ATOM      5  C6  UNL d   1       6.000   2.361  -0.939  0.00  0.00     0.000 A 
ATOM      6  C7  UNL d   1       5.033   1.712  -0.152  0.00  0.00    -0.073 A 
ATOM      7  C8  UNL d   1       5.077   1.893   1.341  0.00  0.00     0.078 C 
ENDROOT
BRANCH   1   8
ATOM      8  C1  UNL d   1       2.935   0.251  -0.012  0.00  0.00     0.053 C 
ATOM      9  C   UNL d   1       3.438  -0.376   1.279  0.00  0.00     0.018 C 
ENDBRANCH   1   8
TORSDOF 1
ENDMDL
