MODEL 1
REMARK minimizedAffinity 22.7842407
REMARK minimizedRMSD -1
REMARK  1 active torsions:
REMARK  status: ('A' for Active; 'I' for Inactive)
REMARK    1  A    between atoms: C1_2  and  C2_3 
ROOT
ATOM      1  C2  UNL d   1       1.753   2.449   1.981  0.00  0.00    -0.076 A 
ATOM      2  C3  UNL d   1       2.794   1.506   2.030  0.00  0.00     0.004 A 
ATOM      3  C4  UNL d   1       3.109   0.727   0.918  0.00  0.00    -0.003 A 
ATOM      4  C5  UNL d   1       2.388   0.878  -0.261  0.00  0.00     0.000 A 
ATOM      5  C6  UNL d   1       1.363   1.821  -0.333  0.00  0.00     0.000 A 
ATOM      6  C7  UNL d   1       1.044   2.626   0.774  0.00  0.00    -0.073 A 
ATOM      7  C8  UNL d   1      -0.075   3.623   0.643  0.00  0.00     0.078 C 
ENDROOT
BRANCH   1   8
ATOM      8  C1  UNL d   1       1.439   3.246   3.227  0.00  0.00     0.053 C 
ATOM      9  C   UNL d   1       1.302   2.368   4.462  0.00  0.00     0.018 C 
ENDBRANCH   1   8
TORSDOF 1
ENDMDL
