MODEL 1
REMARK minimizedAffinity 17.7026482
REMARK minimizedRMSD -1
REMARK  1 active torsions:
REMARK  status: ('A' for Active; 'I' for Inactive)
REMARK    1  A    between atoms: C1_2  and  C2_3 
ROOT
ATOM      1  C2  UNL d   1       3.842   1.749  -0.579  0.00  0.00    -0.076 A 
ATOM      2  C3  UNL d   1       3.960   1.785  -1.980  0.00  0.00     0.004 A 
ATOM      3  C4  UNL d   1       5.028   2.438  -2.593  0.00  0.00    -0.003 A 
ATOM      4  C5  UNL d   1       5.995   3.065  -1.816  0.00  0.00     0.000 A 
ATOM      5  C6  UNL d   1       5.903   3.025  -0.425  0.00  0.00     0.000 A 
ATOM      6  C7  UNL d   1       4.842   2.357   0.209  0.00  0.00    -0.073 A 
ATOM      7  C8  UNL d   1       4.789   2.350   1.713  0.00  0.00     0.078 C 
ENDROOT
BRANCH   1   8
ATOM      8  C1  UNL d   1       2.647   1.049   0.029  0.00  0.00     0.053 C 
ATOM      9  C   UNL d   1       2.354  -0.287  -0.636  0.00  0.00     0.018 C 
ENDBRANCH   1   8
TORSDOF 1
ENDMDL
