MODEL 1
REMARK minimizedAffinity 16.6120548
REMARK minimizedRMSD -1
REMARK  1 active torsions:
REMARK  status: ('A' for Active; 'I' for Inactive)
REMARK    1  A    between atoms: C1_2  and  C2_3 
ROOT
ATOM      1  C2  UNL d   1       1.863   1.640   0.144  0.00  0.00    -0.076 A 
ATOM      2  C3  UNL d   1       0.652   2.203  -0.294  0.00  0.00     0.004 A 
ATOM      3  C4  UNL d   1       0.123   3.336   0.321  0.00  0.00    -0.003 A 
ATOM      4  C5  UNL d   1       0.798   3.926   1.385  0.00  0.00     0.000 A 
ATOM      5  C6  UNL d   1       2.010   3.391   1.821  0.00  0.00     0.000 A 
ATOM      6  C7  UNL d   1       2.565   2.259   1.201  0.00  0.00    -0.073 A 
ATOM      7  C8  UNL d   1       3.872   1.721   1.716  0.00  0.00     0.078 C 
ENDROOT
BRANCH   1   8
ATOM      8  C1  UNL d   1       2.374   0.394  -0.544  0.00  0.00     0.053 C 
ATOM      9  C   UNL d   1       3.174   0.708  -1.799  0.00  0.00     0.018 C 
ENDBRANCH   1   8
TORSDOF 1
ENDMDL
