MODEL 1
REMARK minimizedAffinity 6.22380686
REMARK minimizedRMSD -1
REMARK  0 active torsions:
REMARK  status: ('A' for Active; 'I' for Inactive)
ROOT
ATOM      1  C   UNL d   1      -3.102   5.996  -2.210  0.00  0.00     0.124 A 
ATOM      2  C1  UNL d   1      -1.914   5.995  -1.492  0.00  0.00     0.062 A 
ATOM      3  C2  UNL d   1      -0.693   5.994  -2.160  0.00  0.00     0.162 A 
ATOM      4  C3  UNL d   1      -0.653   5.997  -3.554  0.00  0.00    -0.034 A 
ATOM      5  C4  UNL d   1      -1.851   5.997  -4.269  0.00  0.00     0.162 A 
ATOM      6  C5  UNL d   1      -3.069   5.998  -3.598  0.00  0.00     0.062 A 
ATOM      7  F   UNL d   1      -4.216   5.999  -4.293  0.00  0.00    -0.097 F 
ATOM      8  F1  UNL d   1      -1.849   5.999  -5.611  0.00  0.00    -0.096 F 
ATOM      9  I   UNL d   1       1.172   5.996  -4.556  0.00  0.00    -0.060 I 
ATOM     10  F2  UNL d   1       0.440   5.993  -1.440  0.00  0.00    -0.096 F 
ATOM     11  F3  UNL d   1      -1.942   5.993  -0.152  0.00  0.00    -0.097 F 
ATOM     12  F4  UNL d   1      -4.276   5.996  -1.565  0.00  0.00    -0.092 F 
ENDROOT
TORSDOF 0
ENDMDL
