MODEL 1
REMARK minimizedAffinity 10.1894054
REMARK minimizedRMSD -1
REMARK  0 active torsions:
REMARK  status: ('A' for Active; 'I' for Inactive)
ROOT
ATOM      1  C   UNL d   1       0.490   0.825   1.701  0.00  0.00     0.124 A 
ATOM      2  C1  UNL d   1       0.451  -0.004   0.588  0.00  0.00     0.062 A 
ATOM      3  C2  UNL d   1       0.899   0.458  -0.646  0.00  0.00     0.162 A 
ATOM      4  C3  UNL d   1       1.392   1.756  -0.774  0.00  0.00    -0.034 A 
ATOM      5  C4  UNL d   1       1.427   2.585   0.349  0.00  0.00     0.162 A 
ATOM      6  C5  UNL d   1       0.978   2.119   1.580  0.00  0.00     0.062 A 
ATOM      7  F   UNL d   1       1.017   2.922   2.653  0.00  0.00    -0.097 F 
ATOM      8  F1  UNL d   1       1.895   3.839   0.260  0.00  0.00    -0.096 F 
ATOM      9  I   UNL d   1       2.063   2.451  -2.618  0.00  0.00    -0.060 I 
ATOM     10  F2  UNL d   1       0.850  -0.366  -1.703  0.00  0.00    -0.096 F 
ATOM     11  F3  UNL d   1      -0.021  -1.254   0.702  0.00  0.00    -0.097 F 
ATOM     12  F4  UNL d   1       0.057   0.378   2.887  0.00  0.00    -0.092 F 
ENDROOT
TORSDOF 0
ENDMDL
