MODEL 1
REMARK minimizedAffinity 6.92187262
REMARK minimizedRMSD -1
REMARK  0 active torsions:
REMARK  status: ('A' for Active; 'I' for Inactive)
ROOT
ATOM      1  C   UNL d   1      -0.503   5.999  -2.315  0.00  0.00     0.124 A 
ATOM      2  C1  UNL d   1      -1.836   5.998  -1.929  0.00  0.00     0.062 A 
ATOM      3  C2  UNL d   1      -2.843   5.998  -2.890  0.00  0.00     0.162 A 
ATOM      4  C3  UNL d   1      -2.521   5.997  -4.247  0.00  0.00    -0.034 A 
ATOM      5  C4  UNL d   1      -1.178   5.999  -4.627  0.00  0.00     0.162 A 
ATOM      6  C5  UNL d   1      -0.175   5.999  -3.663  0.00  0.00     0.062 A 
ATOM      7  F   UNL d   1       1.113   5.999  -4.038  0.00  0.00    -0.097 F 
ATOM      8  F1  UNL d   1      -0.833   5.998  -5.924  0.00  0.00    -0.096 F 
ATOM      9  I   UNL d   1      -4.024   5.997  -5.686  0.00  0.00    -0.060 I 
ATOM     10  F2  UNL d   1      -4.123   5.998  -2.488  0.00  0.00    -0.096 F 
ATOM     11  F3  UNL d   1      -2.155   5.999  -0.627  0.00  0.00    -0.097 F 
ATOM     12  F4  UNL d   1       0.464   6.000  -1.388  0.00  0.00    -0.092 F 
ENDROOT
TORSDOF 0
ENDMDL
