MODEL 1
REMARK minimizedAffinity 6.01564455
REMARK minimizedRMSD -1
REMARK  0 active torsions:
REMARK  status: ('A' for Active; 'I' for Inactive)
ROOT
ATOM      1  C   UNL d   1       1.573   1.592  -1.125  0.00  0.00     0.124 A 
ATOM      2  C1  UNL d   1       1.519   2.624  -0.198  0.00  0.00     0.062 A 
ATOM      3  C2  UNL d   1       1.056   2.382   1.092  0.00  0.00     0.162 A 
ATOM      4  C3  UNL d   1       0.643   1.103   1.464  0.00  0.00    -0.034 A 
ATOM      5  C4  UNL d   1       0.700   0.070   0.526  0.00  0.00     0.162 A 
ATOM      6  C5  UNL d   1       1.163   0.317  -0.762  0.00  0.00     0.062 A 
ATOM      7  F   UNL d   1       1.215  -0.681  -1.656  0.00  0.00    -0.097 F 
ATOM      8  F1  UNL d   1       0.311  -1.172   0.850  0.00  0.00    -0.096 F 
ATOM      9  I   UNL d   1      -0.050   0.737   3.392  0.00  0.00    -0.060 I 
ATOM     10  F2  UNL d   1       1.015   3.398   1.967  0.00  0.00    -0.096 F 
ATOM     11  F3  UNL d   1       1.913   3.857  -0.546  0.00  0.00    -0.097 F 
ATOM     12  F4  UNL d   1       2.018   1.827  -2.365  0.00  0.00    -0.092 F 
ENDROOT
TORSDOF 0
ENDMDL
