MODEL 1
REMARK minimizedAffinity 21.4894009
REMARK minimizedRMSD -1
REMARK  0 active torsions:
REMARK  status: ('A' for Active; 'I' for Inactive)
ROOT
ATOM      1  C   UNL d   1      -2.254  -1.684  -4.357  0.00  0.00     0.124 A 
ATOM      2  C1  UNL d   1      -3.070  -1.690  -3.234  0.00  0.00     0.062 A 
ATOM      3  C2  UNL d   1      -2.558  -1.319  -1.994  0.00  0.00     0.162 A 
ATOM      4  C3  UNL d   1      -1.222  -0.938  -1.870  0.00  0.00    -0.034 A 
ATOM      5  C4  UNL d   1      -0.406  -0.936  -3.003  0.00  0.00     0.162 A 
ATOM      6  C5  UNL d   1      -0.923  -1.307  -4.240  0.00  0.00     0.062 A 
ATOM      7  F   UNL d   1      -0.133  -1.301  -5.324  0.00  0.00    -0.097 F 
ATOM      8  F1  UNL d   1       0.883  -0.575  -2.919  0.00  0.00    -0.096 F 
ATOM      9  I   UNL d   1      -0.452  -0.383  -0.018  0.00  0.00    -0.060 I 
ATOM     10  F2  UNL d   1      -3.370  -1.334  -0.927  0.00  0.00    -0.096 F 
ATOM     11  F3  UNL d   1      -4.356  -2.054  -3.344  0.00  0.00    -0.097 F 
ATOM     12  F4  UNL d   1      -2.749  -2.042  -5.548  0.00  0.00    -0.092 F 
ENDROOT
TORSDOF 0
ENDMDL
