MODEL 1
REMARK minimizedAffinity 18.4449177
REMARK minimizedRMSD -1
REMARK  0 active torsions:
REMARK  status: ('A' for Active; 'I' for Inactive)
ROOT
ATOM      1  C   UNL d   1       1.636   1.966  -1.056  0.00  0.00     0.124 A 
ATOM      2  C1  UNL d   1       1.344   0.640  -0.766  0.00  0.00     0.062 A 
ATOM      3  C2  UNL d   1       0.751   0.303   0.447  0.00  0.00     0.162 A 
ATOM      4  C3  UNL d   1       0.444   1.294   1.380  0.00  0.00    -0.034 A 
ATOM      5  C4  UNL d   1       0.741   2.625   1.081  0.00  0.00     0.162 A 
ATOM      6  C5  UNL d   1       1.334   2.957  -0.132  0.00  0.00     0.062 A 
ATOM      7  F   UNL d   1       1.616   4.238  -0.411  0.00  0.00    -0.097 F 
ATOM      8  F1  UNL d   1       0.460   3.602   1.955  0.00  0.00    -0.096 F 
ATOM      9  I   UNL d   1      -0.443   0.794   3.195  0.00  0.00    -0.060 I 
ATOM     10  F2  UNL d   1       0.480  -0.986   0.700  0.00  0.00    -0.096 F 
ATOM     11  F3  UNL d   1       1.636  -0.319  -1.657  0.00  0.00    -0.097 F 
ATOM     12  F4  UNL d   1       2.208   2.287  -2.224  0.00  0.00    -0.092 F 
ENDROOT
TORSDOF 0
ENDMDL
