MODEL 1
REMARK minimizedAffinity 3.56874561
REMARK minimizedRMSD -1
REMARK  0 active torsions:
REMARK  status: ('A' for Active; 'I' for Inactive)
ROOT
ATOM      1  C   UNL d   1      -3.371   5.999  -0.644  0.00  0.00     0.124 A 
ATOM      2  C1  UNL d   1      -4.374   5.999  -1.603  0.00  0.00     0.062 A 
ATOM      3  C2  UNL d   1      -4.048   5.999  -2.956  0.00  0.00     0.162 A 
ATOM      4  C3  UNL d   1      -2.712   5.998  -3.359  0.00  0.00    -0.034 A 
ATOM      5  C4  UNL d   1      -1.709   5.999  -2.388  0.00  0.00     0.162 A 
ATOM      6  C5  UNL d   1      -2.040   5.999  -1.037  0.00  0.00     0.062 A 
ATOM      7  F   UNL d   1      -1.069   5.999  -0.112  0.00  0.00    -0.097 F 
ATOM      8  F1  UNL d   1      -0.415   5.998  -2.740  0.00  0.00    -0.096 F 
ATOM      9  I   UNL d   1      -2.221   5.998  -5.381  0.00  0.00    -0.060 I 
ATOM     10  F2  UNL d   1      -5.038   5.999  -3.862  0.00  0.00    -0.096 F 
ATOM     11  F3  UNL d   1      -5.660   6.000  -1.226  0.00  0.00    -0.097 F 
ATOM     12  F4  UNL d   1      -3.687   6.000   0.657  0.00  0.00    -0.092 F 
ENDROOT
TORSDOF 0
ENDMDL
