MODEL 1
REMARK minimizedAffinity 10.4783125
REMARK minimizedRMSD -1
REMARK  0 active torsions:
REMARK  status: ('A' for Active; 'I' for Inactive)
ROOT
ATOM      1  C   UNL d   1      -1.413   5.989  -1.932  0.00  0.00     0.124 A 
ATOM      2  C1  UNL d   1      -2.704   5.992  -1.423  0.00  0.00     0.062 A 
ATOM      3  C2  UNL d   1      -3.797   5.994  -2.285  0.00  0.00     0.162 A 
ATOM      4  C3  UNL d   1      -3.604   5.993  -3.666  0.00  0.00    -0.034 A 
ATOM      5  C4  UNL d   1      -2.302   5.991  -4.171  0.00  0.00     0.162 A 
ATOM      6  C5  UNL d   1      -1.213   5.989  -3.306  0.00  0.00     0.062 A 
ATOM      7  F   UNL d   1       0.033   5.986  -3.800  0.00  0.00    -0.097 F 
ATOM      8  F1  UNL d   1      -2.080   5.990  -5.494  0.00  0.00    -0.096 F 
ATOM      9  I   UNL d   1      -5.235   5.997  -4.959  0.00  0.00    -0.060 I 
ATOM     10  F2  UNL d   1      -5.033   5.997  -1.765  0.00  0.00    -0.096 F 
ATOM     11  F3  UNL d   1      -2.900   5.993  -0.096  0.00  0.00    -0.097 F 
ATOM     12  F4  UNL d   1      -0.364   5.987  -1.100  0.00  0.00    -0.092 F 
ENDROOT
TORSDOF 0
ENDMDL
