MODEL 1
REMARK minimizedAffinity 12.2773952
REMARK minimizedRMSD -1
REMARK  0 active torsions:
REMARK  status: ('A' for Active; 'I' for Inactive)
ROOT
ATOM      1  C   UNL d   1      -3.186   5.937  -0.853  0.00  0.00     0.124 A 
ATOM      2  C1  UNL d   1      -3.564   5.939  -2.189  0.00  0.00     0.062 A 
ATOM      3  C2  UNL d   1      -2.599   5.879  -3.190  0.00  0.00     0.162 A 
ATOM      4  C3  UNL d   1      -1.245   5.817  -2.859  0.00  0.00    -0.034 A 
ATOM      5  C4  UNL d   1      -0.873   5.817  -1.513  0.00  0.00     0.162 A 
ATOM      6  C5  UNL d   1      -1.841   5.877  -0.517  0.00  0.00     0.062 A 
ATOM      7  F   UNL d   1      -1.474   5.875   0.773  0.00  0.00    -0.097 F 
ATOM      8  F1  UNL d   1       0.420   5.759  -1.160  0.00  0.00    -0.096 F 
ATOM      9  I   UNL d   1       0.202   5.729  -4.352  0.00  0.00    -0.060 I 
ATOM     10  F2  UNL d   1      -2.993   5.882  -4.472  0.00  0.00    -0.096 F 
ATOM     11  F3  UNL d   1      -4.863   5.998  -2.516  0.00  0.00    -0.097 F 
ATOM     12  F4  UNL d   1      -4.117   5.995   0.108  0.00  0.00    -0.092 F 
ENDROOT
TORSDOF 0
ENDMDL
