MODEL 1
REMARK minimizedAffinity 12.2251549
REMARK minimizedRMSD -1
REMARK  0 active torsions:
REMARK  status: ('A' for Active; 'I' for Inactive)
ROOT
ATOM      1  C   UNL d   1      -1.772   5.999  -4.418  0.00  0.00     0.124 A 
ATOM      2  C1  UNL d   1      -3.085   5.999  -3.969  0.00  0.00     0.062 A 
ATOM      3  C2  UNL d   1      -3.359   5.999  -2.604  0.00  0.00     0.162 A 
ATOM      4  C3  UNL d   1      -2.316   6.000  -1.678  0.00  0.00    -0.034 A 
ATOM      5  C4  UNL d   1      -0.997   5.999  -2.137  0.00  0.00     0.162 A 
ATOM      6  C5  UNL d   1      -0.730   5.999  -3.502  0.00  0.00     0.062 A 
ATOM      7  F   UNL d   1       0.540   5.998  -3.934  0.00  0.00    -0.097 F 
ATOM      8  F1  UNL d   1       0.029   5.999  -1.274  0.00  0.00    -0.096 F 
ATOM      9  I   UNL d   1      -2.720   6.000   0.364  0.00  0.00    -0.060 I 
ATOM     10  F2  UNL d   1      -4.637   5.999  -2.199  0.00  0.00    -0.096 F 
ATOM     11  F3  UNL d   1      -4.094   5.999  -4.852  0.00  0.00    -0.097 F 
ATOM     12  F4  UNL d   1      -1.512   5.998  -5.732  0.00  0.00    -0.092 F 
ENDROOT
TORSDOF 0
ENDMDL
