MODEL 1
REMARK minimizedAffinity 4.72420168
REMARK minimizedRMSD -1
REMARK  0 active torsions:
REMARK  status: ('A' for Active; 'I' for Inactive)
ROOT
ATOM      1  C   UNL d   1      -1.796   5.571  -2.385  0.00  0.00     0.124 A 
ATOM      2  C1  UNL d   1      -2.228   5.640  -3.703  0.00  0.00     0.062 A 
ATOM      3  C2  UNL d   1      -1.304   5.763  -4.736  0.00  0.00     0.162 A 
ATOM      4  C3  UNL d   1       0.062   5.816  -4.457  0.00  0.00    -0.034 A 
ATOM      5  C4  UNL d   1       0.488   5.746  -3.130  0.00  0.00     0.162 A 
ATOM      6  C5  UNL d   1      -0.439   5.624  -2.100  0.00  0.00     0.062 A 
ATOM      7  F   UNL d   1      -0.020   5.557  -0.828  0.00  0.00    -0.097 F 
ATOM      8  F1  UNL d   1       1.794   5.795  -2.826  0.00  0.00    -0.096 F 
ATOM      9  I   UNL d   1       1.446   6.000  -6.000  0.00  0.00    -0.060 I 
ATOM     10  F2  UNL d   1      -1.749   5.828  -6.000  0.00  0.00    -0.096 F 
ATOM     11  F3  UNL d   1      -3.538   5.590  -3.981  0.00  0.00    -0.097 F 
ATOM     12  F4  UNL d   1      -2.687   5.453  -1.392  0.00  0.00    -0.092 F 
ENDROOT
TORSDOF 0
ENDMDL
