MODEL 1
REMARK minimizedAffinity 8.57841778
REMARK minimizedRMSD -1
REMARK  0 active torsions:
REMARK  status: ('A' for Active; 'I' for Inactive)
ROOT
ATOM      1  C   UNL d   1      -2.634   5.999  -0.687  0.00  0.00     0.124 A 
ATOM      2  C1  UNL d   1      -1.246   5.999  -0.721  0.00  0.00     0.062 A 
ATOM      3  C2  UNL d   1      -0.576   5.999  -1.941  0.00  0.00     0.162 A 
ATOM      4  C3  UNL d   1      -1.293   6.000  -3.137  0.00  0.00    -0.034 A 
ATOM      5  C4  UNL d   1      -2.688   5.999  -3.095  0.00  0.00     0.162 A 
ATOM      6  C5  UNL d   1      -3.353   5.999  -1.873  0.00  0.00     0.062 A 
ATOM      7  F   UNL d   1      -4.694   5.999  -1.842  0.00  0.00    -0.097 F 
ATOM      8  F1  UNL d   1      -3.408   6.000  -4.227  0.00  0.00    -0.096 F 
ATOM      9  I   UNL d   1      -0.294   5.999  -4.964  0.00  0.00    -0.060 I 
ATOM     10  F2  UNL d   1       0.765   5.999  -1.944  0.00  0.00    -0.096 F 
ATOM     11  F3  UNL d   1      -0.549   5.998   0.424  0.00  0.00    -0.097 F 
ATOM     12  F4  UNL d   1      -3.276   5.998   0.488  0.00  0.00    -0.092 F 
ENDROOT
TORSDOF 0
ENDMDL
