MODEL 1
REMARK minimizedAffinity 19.3105335
REMARK minimizedRMSD -1
REMARK  0 active torsions:
REMARK  status: ('A' for Active; 'I' for Inactive)
ROOT
ATOM      1  C   UNL d   1      -2.285  -1.575  -4.325  0.00  0.00     0.124 A 
ATOM      2  C1  UNL d   1      -3.087  -1.876  -3.234  0.00  0.00     0.062 A 
ATOM      3  C2  UNL d   1      -2.818  -1.312  -1.990  0.00  0.00     0.162 A 
ATOM      4  C3  UNL d   1      -1.742  -0.439  -1.832  0.00  0.00    -0.034 A 
ATOM      5  C4  UNL d   1      -0.939  -0.142  -2.934  0.00  0.00     0.162 A 
ATOM      6  C5  UNL d   1      -1.212  -0.709  -4.175  0.00  0.00     0.062 A 
ATOM      7  F   UNL d   1      -0.435  -0.417  -5.228  0.00  0.00    -0.097 F 
ATOM      8  F1  UNL d   1       0.105   0.693  -2.817  0.00  0.00    -0.096 F 
ATOM      9  I   UNL d   1      -1.336   0.407   0.026  0.00  0.00    -0.060 I 
ATOM     10  F2  UNL d   1      -3.611  -1.620  -0.953  0.00  0.00    -0.096 F 
ATOM     11  F3  UNL d   1      -4.125  -2.714  -3.376  0.00  0.00    -0.097 F 
ATOM     12  F4  UNL d   1      -2.545  -2.121  -5.520  0.00  0.00    -0.092 F 
ENDROOT
TORSDOF 0
ENDMDL
