MODEL 1
REMARK minimizedAffinity 4.58397675
REMARK minimizedRMSD -1
REMARK  0 active torsions:
REMARK  status: ('A' for Active; 'I' for Inactive)
ROOT
ATOM      1  C   UNL d   1      -3.562   5.996  -2.385  0.00  0.00     0.124 A 
ATOM      2  C1  UNL d   1      -2.289   5.996  -1.832  0.00  0.00     0.062 A 
ATOM      3  C2  UNL d   1      -1.168   5.997  -2.657  0.00  0.00     0.162 A 
ATOM      4  C3  UNL d   1      -1.315   5.999  -4.044  0.00  0.00    -0.034 A 
ATOM      5  C4  UNL d   1      -2.598   5.998  -4.592  0.00  0.00     0.162 A 
ATOM      6  C5  UNL d   1      -3.716   5.997  -3.764  0.00  0.00     0.062 A 
ATOM      7  F   UNL d   1      -4.945   5.997  -4.300  0.00  0.00    -0.097 F 
ATOM      8  F1  UNL d   1      -2.775   5.999  -5.922  0.00  0.00    -0.096 F 
ATOM      9  I   UNL d   1       0.359   6.000  -5.280  0.00  0.00    -0.060 I 
ATOM     10  F2  UNL d   1       0.050   5.997  -2.095  0.00  0.00    -0.096 F 
ATOM     11  F3  UNL d   1      -2.139   5.994  -0.500  0.00  0.00    -0.097 F 
ATOM     12  F4  UNL d   1      -4.640   5.995  -1.589  0.00  0.00    -0.092 F 
ENDROOT
TORSDOF 0
ENDMDL
