MODEL 1
REMARK minimizedAffinity 14.8831587
REMARK minimizedRMSD -1
REMARK  0 active torsions:
REMARK  status: ('A' for Active; 'I' for Inactive)
ROOT
ATOM      1  C   UNL d   1      -2.498   5.993  -2.099  0.00  0.00     0.124 A 
ATOM      2  C1  UNL d   1      -2.979   5.992  -3.401  0.00  0.00     0.062 A 
ATOM      3  C2  UNL d   1      -2.093   5.992  -4.474  0.00  0.00     0.162 A 
ATOM      4  C3  UNL d   1      -0.716   5.992  -4.251  0.00  0.00    -0.034 A 
ATOM      5  C4  UNL d   1      -0.240   5.994  -2.938  0.00  0.00     0.162 A 
ATOM      6  C5  UNL d   1      -1.129   5.994  -1.869  0.00  0.00     0.062 A 
ATOM      7  F   UNL d   1      -0.663   5.995  -0.612  0.00  0.00    -0.097 F 
ATOM      8  F1  UNL d   1       1.078   5.994  -2.688  0.00  0.00    -0.096 F 
ATOM      9  I   UNL d   1       0.611   5.992  -5.853  0.00  0.00    -0.060 I 
ATOM     10  F2  UNL d   1      -2.586   5.991  -5.722  0.00  0.00    -0.096 F 
ATOM     11  F3  UNL d   1      -4.301   5.992  -3.625  0.00  0.00    -0.097 F 
ATOM     12  F4  UNL d   1      -3.352   5.994  -1.068  0.00  0.00    -0.092 F 
ENDROOT
TORSDOF 0
ENDMDL
