MODEL 1
REMARK minimizedAffinity 1.92124283
REMARK minimizedRMSD -1
REMARK  0 active torsions:
REMARK  status: ('A' for Active; 'I' for Inactive)
ROOT
ATOM      1  C   UNL d   1       5.851  -2.684   4.480  0.00  0.00    -0.002 A 
ATOM      2  C1  UNL d   1       5.840  -2.376   3.127  0.00  0.00     0.010 A 
ATOM      3  C2  UNL d   1       4.636  -2.316   2.422  0.00  0.00     0.041 A 
ATOM      4  C3  UNL d   1       3.432  -2.570   3.107  0.00  0.00    -0.075 A 
ATOM      5  S   UNL d   1       1.838  -2.551   2.449  0.00  0.00     0.015 SA
ATOM      6  C4  UNL d   1       1.134  -2.949   3.949  0.00  0.00     0.022 A 
ATOM      7  C5  UNL d   1       2.077  -3.097   4.938  0.00  0.00     0.026 A 
ATOM      8  C6  UNL d   1       3.417  -2.880   4.469  0.00  0.00    -0.082 A 
ATOM      9  C7  UNL d   1       4.653  -2.935   5.156  0.00  0.00     0.045 A 
ENDROOT
TORSDOF 0
ENDMDL
