MODEL 1
REMARK minimizedAffinity 16.2937012
REMARK minimizedRMSD -1
REMARK  0 active torsions:
REMARK  status: ('A' for Active; 'I' for Inactive)
ROOT
ATOM      1  C   UNL d   1       3.942   1.666   2.847  0.00  0.00    -0.002 A 
ATOM      2  C1  UNL d   1       3.122   2.396   3.696  0.00  0.00     0.010 A 
ATOM      3  C2  UNL d   1       1.995   3.056   3.202  0.00  0.00     0.041 A 
ATOM      4  C3  UNL d   1       1.702   2.967   1.827  0.00  0.00    -0.075 A 
ATOM      5  S   UNL d   1       0.375   3.692   0.998  0.00  0.00     0.015 SA
ATOM      6  C4  UNL d   1       0.864   3.048  -0.502  0.00  0.00     0.022 A 
ATOM      7  C5  UNL d   1       2.010   2.296  -0.392  0.00  0.00     0.026 A 
ATOM      8  C6  UNL d   1       2.512   2.237   0.952  0.00  0.00    -0.082 A 
ATOM      9  C7  UNL d   1       3.647   1.580   1.484  0.00  0.00     0.045 A 
ENDROOT
TORSDOF 0
ENDMDL
