MODEL 1
REMARK minimizedAffinity 14.4301043
REMARK minimizedRMSD -1
REMARK  0 active torsions:
REMARK  status: ('A' for Active; 'I' for Inactive)
ROOT
ATOM      1  C   UNL d   1       4.482   0.960   5.999  0.00  0.00    -0.002 A 
ATOM      2  C1  UNL d   1       3.261   0.302   5.953  0.00  0.00     0.010 A 
ATOM      3  C2  UNL d   1       2.458   0.375   4.813  0.00  0.00     0.041 A 
ATOM      4  C3  UNL d   1       2.908   1.126   3.709  0.00  0.00    -0.075 A 
ATOM      5  S   UNL d   1       2.094   1.355   2.207  0.00  0.00     0.015 SA
ATOM      6  C4  UNL d   1       3.348   2.331   1.591  0.00  0.00     0.022 A 
ATOM      7  C5  UNL d   1       4.371   2.489   2.496  0.00  0.00     0.026 A 
ATOM      8  C6  UNL d   1       4.135   1.796   3.731  0.00  0.00    -0.082 A 
ATOM      9  C7  UNL d   1       4.925   1.704   4.902  0.00  0.00     0.045 A 
ENDROOT
TORSDOF 0
ENDMDL
