MODEL 1
REMARK minimizedAffinity 12.8469601
REMARK minimizedRMSD -1
REMARK  0 active torsions:
REMARK  status: ('A' for Active; 'I' for Inactive)
ROOT
ATOM      1  C   UNL d   1      -2.437   3.028   0.519  0.00  0.00    -0.002 A 
ATOM      2  C1  UNL d   1      -2.918   3.187  -0.773  0.00  0.00     0.010 A 
ATOM      3  C2  UNL d   1      -2.909   2.117  -1.671  0.00  0.00     0.041 A 
ATOM      4  C3  UNL d   1      -2.406   0.873  -1.244  0.00  0.00    -0.075 A 
ATOM      5  S   UNL d   1      -2.296  -0.578  -2.169  0.00  0.00     0.015 SA
ATOM      6  C4  UNL d   1      -1.609  -1.443  -0.872  0.00  0.00     0.022 A 
ATOM      7  C5  UNL d   1      -1.460  -0.659   0.248  0.00  0.00     0.026 A 
ATOM      8  C6  UNL d   1      -1.916   0.688   0.052  0.00  0.00    -0.082 A 
ATOM      9  C7  UNL d   1      -1.938   1.792   0.939  0.00  0.00     0.045 A 
ENDROOT
TORSDOF 0
ENDMDL
