MODEL 1
REMARK minimizedAffinity 19.335928
REMARK minimizedRMSD -1
REMARK  0 active torsions:
REMARK  status: ('A' for Active; 'I' for Inactive)
ROOT
ATOM      1  C   UNL d   1      -1.168   0.358  -3.737  0.00  0.00    -0.002 A 
ATOM      2  C1  UNL d   1      -0.614  -0.880  -3.447  0.00  0.00     0.010 A 
ATOM      3  C2  UNL d   1      -0.070  -1.137  -2.187  0.00  0.00     0.041 A 
ATOM      4  C3  UNL d   1      -0.095  -0.119  -1.213  0.00  0.00    -0.075 A 
ATOM      5  S   UNL d   1       0.511  -0.207   0.398  0.00  0.00     0.015 SA
ATOM      6  C4  UNL d   1       0.047   1.397   0.740  0.00  0.00     0.022 A 
ATOM      7  C5  UNL d   1      -0.557   2.000  -0.338  0.00  0.00     0.026 A 
ATOM      8  C6  UNL d   1      -0.649   1.136  -1.482  0.00  0.00    -0.082 A 
ATOM      9  C7  UNL d   1      -1.191   1.365  -2.769  0.00  0.00     0.045 A 
ENDROOT
TORSDOF 0
ENDMDL
