MODEL 1
REMARK minimizedAffinity 14.4176044
REMARK minimizedRMSD -1
REMARK  0 active torsions:
REMARK  status: ('A' for Active; 'I' for Inactive)
ROOT
ATOM      1  C   UNL d   1       1.462  -1.907   3.240  0.00  0.00    -0.002 A 
ATOM      2  C1  UNL d   1       1.312  -2.947   4.147  0.00  0.00     0.010 A 
ATOM      3  C2  UNL d   1       2.403  -3.406   4.887  0.00  0.00     0.041 A 
ATOM      4  C3  UNL d   1       3.659  -2.795   4.700  0.00  0.00    -0.075 A 
ATOM      5  S   UNL d   1       5.136  -3.190   5.497  0.00  0.00     0.015 SA
ATOM      6  C4  UNL d   1       6.000  -1.987   4.654  0.00  0.00     0.022 A 
ATOM      7  C5  UNL d   1       5.197  -1.292   3.782  0.00  0.00     0.026 A 
ATOM      8  C6  UNL d   1       3.834  -1.746   3.794  0.00  0.00    -0.082 A 
ATOM      9  C7  UNL d   1       2.709  -1.304   3.058  0.00  0.00     0.045 A 
ENDROOT
TORSDOF 0
ENDMDL
