MODEL 1
REMARK minimizedAffinity 16.1706505
REMARK minimizedRMSD -1
REMARK  0 active torsions:
REMARK  status: ('A' for Active; 'I' for Inactive)
ROOT
ATOM      1  C   UNL d   1       0.241  -0.883   0.264  0.00  0.00    -0.002 A 
ATOM      2  C1  UNL d   1       0.381  -2.070  -0.441  0.00  0.00     0.010 A 
ATOM      3  C2  UNL d   1       1.221  -3.081   0.030  0.00  0.00     0.041 A 
ATOM      4  C3  UNL d   1       1.925  -2.876   1.233  0.00  0.00    -0.075 A 
ATOM      5  S   UNL d   1       3.010  -3.974   2.002  0.00  0.00     0.015 SA
ATOM      6  C4  UNL d   1       3.313  -2.893   3.284  0.00  0.00     0.022 A 
ATOM      7  C5  UNL d   1       2.611  -1.718   3.145  0.00  0.00     0.026 A 
ATOM      8  C6  UNL d   1       1.800  -1.690   1.961  0.00  0.00    -0.082 A 
ATOM      9  C7  UNL d   1       0.940  -0.684   1.457  0.00  0.00     0.045 A 
ENDROOT
TORSDOF 0
ENDMDL
