MODEL 1
REMARK minimizedAffinity 12.0562162
REMARK minimizedRMSD -1
REMARK  0 active torsions:
REMARK  status: ('A' for Active; 'I' for Inactive)
ROOT
ATOM      1  C   UNL d   1       1.724  -2.546   4.092  0.00  0.00    -0.002 A 
ATOM      2  C1  UNL d   1       2.275  -1.322   3.744  0.00  0.00     0.010 A 
ATOM      3  C2  UNL d   1       3.595  -1.015   4.084  0.00  0.00     0.041 A 
ATOM      4  C3  UNL d   1       4.358  -1.969   4.784  0.00  0.00    -0.075 A 
ATOM      5  S   UNL d   1       5.994  -1.813   5.304  0.00  0.00     0.015 SA
ATOM      6  C4  UNL d   1       6.000  -3.369   6.000  0.00  0.00     0.022 A 
ATOM      7  C5  UNL d   1       4.791  -4.006   5.849  0.00  0.00     0.026 A 
ATOM      8  C6  UNL d   1       3.825  -3.210   5.145  0.00  0.00    -0.082 A 
ATOM      9  C7  UNL d   1       2.484  -3.491   4.787  0.00  0.00     0.045 A 
ENDROOT
TORSDOF 0
ENDMDL
