MODEL 1
REMARK minimizedAffinity -1.66893184
REMARK minimizedRMSD -1
REMARK  0 active torsions:
REMARK  status: ('A' for Active; 'I' for Inactive)
ROOT
ATOM      1  C   UNL d   1      -1.005  -0.541   3.349  0.00  0.00    -0.002 A 
ATOM      2  C1  UNL d   1       0.120   0.180   3.725  0.00  0.00     0.010 A 
ATOM      3  C2  UNL d   1       1.039   0.613   2.767  0.00  0.00     0.041 A 
ATOM      4  C3  UNL d   1       0.805   0.308   1.412  0.00  0.00    -0.075 A 
ATOM      5  S   UNL d   1       1.793   0.735   0.065  0.00  0.00     0.015 SA
ATOM      6  C4  UNL d   1       0.745  -0.028  -1.041  0.00  0.00     0.022 A 
ATOM      7  C5  UNL d   1      -0.337  -0.601  -0.415  0.00  0.00     0.026 A 
ATOM      8  C6  UNL d   1      -0.321  -0.416   1.009  0.00  0.00    -0.082 A 
ATOM      9  C7  UNL d   1      -1.233  -0.841   2.004  0.00  0.00     0.045 A 
ENDROOT
TORSDOF 0
ENDMDL
