MODEL 1
REMARK minimizedAffinity -2.70596409
REMARK minimizedRMSD -1
REMARK  0 active torsions:
REMARK  status: ('A' for Active; 'I' for Inactive)
ROOT
ATOM      1  C   UNL d   1       1.331   0.128   2.933  0.00  0.00    -0.002 A 
ATOM      2  C1  UNL d   1       1.800   0.797   1.811  0.00  0.00     0.010 A 
ATOM      3  C2  UNL d   1       1.053   0.814   0.631  0.00  0.00     0.041 A 
ATOM      4  C3  UNL d   1      -0.185   0.144   0.598  0.00  0.00    -0.075 A 
ATOM      5  S   UNL d   1      -1.272   0.032  -0.736  0.00  0.00     0.015 SA
ATOM      6  C4  UNL d   1      -2.384  -0.906   0.152  0.00  0.00     0.022 A 
ATOM      7  C5  UNL d   1      -1.953  -1.138   1.437  0.00  0.00     0.026 A 
ATOM      8  C6  UNL d   1      -0.679  -0.536   1.715  0.00  0.00    -0.082 A 
ATOM      9  C7  UNL d   1       0.102  -0.536   2.896  0.00  0.00     0.045 A 
ENDROOT
TORSDOF 0
ENDMDL
