MODEL 1
REMARK minimizedAffinity -1.07977021
REMARK minimizedRMSD -1
REMARK  0 active torsions:
REMARK  status: ('A' for Active; 'I' for Inactive)
ROOT
ATOM      1  C   UNL d   1       3.301   3.929  -0.142  0.00  0.00    -0.002 A 
ATOM      2  C1  UNL d   1       2.375   4.010  -1.173  0.00  0.00     0.010 A 
ATOM      3  C2  UNL d   1       1.406   3.018  -1.337  0.00  0.00     0.041 A 
ATOM      4  C3  UNL d   1       1.381   1.935  -0.437  0.00  0.00    -0.075 A 
ATOM      5  S   UNL d   1       0.285   0.604  -0.443  0.00  0.00     0.015 SA
ATOM      6  C4  UNL d   1       1.018  -0.103   0.924  0.00  0.00     0.022 A 
ATOM      7  C5  UNL d   1       2.076   0.645   1.386  0.00  0.00     0.026 A 
ATOM      8  C6  UNL d   1       2.302   1.832   0.610  0.00  0.00    -0.082 A 
ATOM      9  C7  UNL d   1       3.273   2.853   0.749  0.00  0.00     0.045 A 
ENDROOT
TORSDOF 0
ENDMDL
