MODEL 1
REMARK minimizedAffinity 1.6367445
REMARK minimizedRMSD -1
REMARK  0 active torsions:
REMARK  status: ('A' for Active; 'I' for Inactive)
ROOT
ATOM      1  C   UNL d   1       1.540  -2.620  -3.280  0.00  0.00    -0.002 A 
ATOM      2  C1  UNL d   1       2.119  -1.386  -3.542  0.00  0.00     0.010 A 
ATOM      3  C2  UNL d   1       1.428  -0.418  -4.274  0.00  0.00     0.041 A 
ATOM      4  C3  UNL d   1       0.133  -0.713  -4.741  0.00  0.00    -0.075 A 
ATOM      5  S   UNL d   1      -0.902   0.319  -5.657  0.00  0.00     0.015 SA
ATOM      6  C4  UNL d   1      -2.137  -0.854  -5.722  0.00  0.00     0.022 A 
ATOM      7  C5  UNL d   1      -1.786  -2.010  -5.067  0.00  0.00     0.026 A 
ATOM      8  C6  UNL d   1      -0.472  -1.948  -4.490  0.00  0.00    -0.082 A 
ATOM      9  C7  UNL d   1       0.254  -2.908  -3.746  0.00  0.00     0.045 A 
ENDROOT
TORSDOF 0
ENDMDL
