MODEL 1
REMARK minimizedAffinity 14.7430201
REMARK minimizedRMSD -1
REMARK  0 active torsions:
REMARK  status: ('A' for Active; 'I' for Inactive)
ROOT
ATOM      1  C   UNL d   1      -0.021  -0.147  -1.282  0.00  0.00    -0.002 A 
ATOM      2  C1  UNL d   1      -1.374  -0.189  -1.588  0.00  0.00     0.010 A 
ATOM      3  C2  UNL d   1      -1.835  -0.941  -2.671  0.00  0.00     0.041 A 
ATOM      4  C3  UNL d   1      -0.903  -1.658  -3.448  0.00  0.00    -0.075 A 
ATOM      5  S   UNL d   1      -1.237  -2.647  -4.820  0.00  0.00     0.015 SA
ATOM      6  C4  UNL d   1       0.409  -3.037  -5.032  0.00  0.00     0.022 A 
ATOM      7  C5  UNL d   1       1.207  -2.436  -4.088  0.00  0.00     0.026 A 
ATOM      8  C6  UNL d   1       0.464  -1.632  -3.159  0.00  0.00    -0.082 A 
ATOM      9  C7  UNL d   1       0.899  -0.860  -2.055  0.00  0.00     0.045 A 
ENDROOT
TORSDOF 0
ENDMDL
