MODEL 1
REMARK minimizedAffinity 13.0409327
REMARK minimizedRMSD -1
REMARK  0 active torsions:
REMARK  status: ('A' for Active; 'I' for Inactive)
ROOT
ATOM      1  C   UNL d   1      -2.622  -2.760  -5.248  0.00  0.00    -0.002 A 
ATOM      2  C1  UNL d   1      -2.609  -1.954  -4.119  0.00  0.00     0.010 A 
ATOM      3  C2  UNL d   1      -1.412  -1.412  -3.646  0.00  0.00     0.041 A 
ATOM      4  C3  UNL d   1      -0.217  -1.695  -4.337  0.00  0.00    -0.075 A 
ATOM      5  S   UNL d   1       1.367  -1.140  -3.942  0.00  0.00     0.015 SA
ATOM      6  C4  UNL d   1       2.064  -1.959  -5.265  0.00  0.00     0.022 A 
ATOM      7  C5  UNL d   1       1.126  -2.644  -6.000  0.00  0.00     0.026 A 
ATOM      8  C6  UNL d   1      -0.204  -2.503  -5.477  0.00  0.00    -0.082 A 
ATOM      9  C7  UNL d   1      -1.434  -3.038  -5.930  0.00  0.00     0.045 A 
ENDROOT
TORSDOF 0
ENDMDL
