MODEL 1
REMARK minimizedAffinity 3.00370193
REMARK minimizedRMSD -1
REMARK  0 active torsions:
REMARK  status: ('A' for Active; 'I' for Inactive)
ROOT
ATOM      1  C   UNL d   1       0.876  -3.792  -3.481  0.00  0.00    -0.002 A 
ATOM      2  C1  UNL d   1       0.025  -2.813  -2.988  0.00  0.00     0.010 A 
ATOM      3  C2  UNL d   1       0.534  -1.602  -2.517  0.00  0.00     0.041 A 
ATOM      4  C3  UNL d   1       1.926  -1.388  -2.551  0.00  0.00    -0.075 A 
ATOM      5  S   UNL d   1       2.775   0.019  -2.028  0.00  0.00     0.015 SA
ATOM      6  C4  UNL d   1       4.287  -0.646  -2.448  0.00  0.00     0.022 A 
ATOM      7  C5  UNL d   1       4.166  -1.910  -2.975  0.00  0.00     0.026 A 
ATOM      8  C6  UNL d   1       2.803  -2.358  -3.044  0.00  0.00    -0.082 A 
ATOM      9  C7  UNL d   1       2.256  -3.576  -3.514  0.00  0.00     0.045 A 
ENDROOT
TORSDOF 0
ENDMDL
