MODEL 1
REMARK minimizedAffinity 2.93460608
REMARK minimizedRMSD -1
REMARK  0 active torsions:
REMARK  status: ('A' for Active; 'I' for Inactive)
ROOT
ATOM      1  C   UNL d   1      -5.983  -3.853   0.999  0.00  0.00    -0.002 A 
ATOM      2  C1  UNL d   1      -5.994  -5.230   0.825  0.00  0.00     0.010 A 
ATOM      3  C2  UNL d   1      -4.816  -5.970   0.944  0.00  0.00     0.041 A 
ATOM      4  C3  UNL d   1      -3.615  -5.297   1.245  0.00  0.00    -0.075 A 
ATOM      5  S   UNL d   1      -2.051  -5.997   1.439  0.00  0.00     0.015 SA
ATOM      6  C4  UNL d   1      -1.332  -4.485   1.757  0.00  0.00     0.022 A 
ATOM      7  C5  UNL d   1      -2.248  -3.460   1.720  0.00  0.00     0.026 A 
ATOM      8  C6  UNL d   1      -3.579  -3.911   1.425  0.00  0.00    -0.082 A 
ATOM      9  C7  UNL d   1      -4.790  -3.189   1.297  0.00  0.00     0.045 A 
ENDROOT
TORSDOF 0
ENDMDL
