MODEL 1
REMARK minimizedAffinity 4.01345539
REMARK minimizedRMSD -1
REMARK  0 active torsions:
REMARK  status: ('A' for Active; 'I' for Inactive)
ROOT
ATOM      1  C   UNL d   1       1.955  -2.622  -2.846  0.00  0.00    -0.002 A 
ATOM      2  C1  UNL d   1       1.020  -2.611  -1.820  0.00  0.00     0.010 A 
ATOM      3  C2  UNL d   1       0.714  -1.424  -1.151  0.00  0.00     0.041 A 
ATOM      4  C3  UNL d   1       1.368  -0.237  -1.535  0.00  0.00    -0.075 A 
ATOM      5  S   UNL d   1       1.152   1.334  -0.859  0.00  0.00     0.015 SA
ATOM      6  C4  UNL d   1       2.295   2.028  -1.916  0.00  0.00     0.022 A 
ATOM      7  C5  UNL d   1       2.838   1.098  -2.770  0.00  0.00     0.026 A 
ATOM      8  C6  UNL d   1       2.312  -0.223  -2.565  0.00  0.00    -0.082 A 
ATOM      9  C7  UNL d   1       2.602  -1.442  -3.224  0.00  0.00     0.045 A 
ENDROOT
TORSDOF 0
ENDMDL
