MODEL 1
REMARK minimizedAffinity -0.433311284
REMARK minimizedRMSD -1
REMARK  0 active torsions:
REMARK  status: ('A' for Active; 'I' for Inactive)
ROOT
ATOM      1  C   UNL d   1      -4.981  -3.900   0.374  0.00  0.00    -0.002 A 
ATOM      2  C1  UNL d   1      -5.071  -5.273   0.558  0.00  0.00     0.010 A 
ATOM      3  C2  UNL d   1      -3.976  -6.000   1.030  0.00  0.00     0.041 A 
ATOM      4  C3  UNL d   1      -2.778  -5.317   1.319  0.00  0.00    -0.075 A 
ATOM      5  S   UNL d   1      -1.309  -6.000   1.908  0.00  0.00     0.015 SA
ATOM      6  C4  UNL d   1      -0.527  -4.485   1.930  0.00  0.00     0.022 A 
ATOM      7  C5  UNL d   1      -1.352  -3.473   1.501  0.00  0.00     0.026 A 
ATOM      8  C6  UNL d   1      -2.663  -3.935   1.142  0.00  0.00    -0.082 A 
ATOM      9  C7  UNL d   1      -3.791  -3.227   0.662  0.00  0.00     0.045 A 
ENDROOT
TORSDOF 0
ENDMDL
