MODEL 1
REMARK minimizedAffinity 12.1389828
REMARK minimizedRMSD -1
REMARK  0 active torsions:
REMARK  status: ('A' for Active; 'I' for Inactive)
ROOT
ATOM      1  C   UNL d   1      -4.740   1.180   5.451  0.00  0.00    -0.002 A 
ATOM      2  C1  UNL d   1      -4.923   1.282   4.080  0.00  0.00     0.010 A 
ATOM      3  C2  UNL d   1      -3.831   1.467   3.229  0.00  0.00     0.041 A 
ATOM      4  C3  UNL d   1      -2.540   1.546   3.786  0.00  0.00    -0.075 A 
ATOM      5  S   UNL d   1      -1.055   1.769   2.939  0.00  0.00     0.015 SA
ATOM      6  C4  UNL d   1      -0.142   1.733   4.378  0.00  0.00     0.022 A 
ATOM      7  C5  UNL d   1      -0.935   1.556   5.487  0.00  0.00     0.026 A 
ATOM      8  C6  UNL d   1      -2.330   1.445   5.164  0.00  0.00    -0.082 A 
ATOM      9  C7  UNL d   1      -3.457   1.259   6.000  0.00  0.00     0.045 A 
ENDROOT
TORSDOF 0
ENDMDL
