MODEL 1
REMARK minimizedAffinity 5.8274045
REMARK minimizedRMSD -1
REMARK  0 active torsions:
REMARK  status: ('A' for Active; 'I' for Inactive)
ROOT
ATOM      1  C   UNL d   1      -4.824  -5.127   0.761  0.00  0.00    -0.002 A 
ATOM      2  C1  UNL d   1      -4.627  -3.761   0.616  0.00  0.00     0.010 A 
ATOM      3  C2  UNL d   1      -3.408  -3.177   0.965  0.00  0.00     0.041 A 
ATOM      4  C3  UNL d   1      -2.379  -3.998   1.467  0.00  0.00    -0.075 A 
ATOM      5  S   UNL d   1      -0.802  -3.505   1.959  0.00  0.00     0.015 SA
ATOM      6  C4  UNL d   1      -0.352  -5.096   2.372  0.00  0.00     0.022 A 
ATOM      7  C5  UNL d   1      -1.368  -5.994   2.147  0.00  0.00     0.026 A 
ATOM      8  C6  UNL d   1      -2.552  -5.377   1.621  0.00  0.00    -0.082 A 
ATOM      9  C7  UNL d   1      -3.801  -5.938   1.258  0.00  0.00     0.045 A 
ENDROOT
TORSDOF 0
ENDMDL
