MODEL 1
REMARK minimizedAffinity 5.01189756
REMARK minimizedRMSD -1
REMARK  0 active torsions:
REMARK  status: ('A' for Active; 'I' for Inactive)
ROOT
ATOM      1  C   UNL d   1      -5.947  -5.364   1.087  0.00  0.00    -0.002 A 
ATOM      2  C1  UNL d   1      -5.632  -5.775  -0.200  0.00  0.00     0.010 A 
ATOM      3  C2  UNL d   1      -4.304  -5.993  -0.571  0.00  0.00     0.041 A 
ATOM      4  C3  UNL d   1      -3.288  -5.792   0.384  0.00  0.00    -0.075 A 
ATOM      5  S   UNL d   1      -1.592  -5.999   0.156  0.00  0.00     0.015 SA
ATOM      6  C4  UNL d   1      -1.245  -5.549   1.763  0.00  0.00     0.022 A 
ATOM      7  C5  UNL d   1      -2.384  -5.245   2.470  0.00  0.00     0.026 A 
ATOM      8  C6  UNL d   1      -3.580  -5.380   1.687  0.00  0.00    -0.082 A 
ATOM      9  C7  UNL d   1      -4.937  -5.166   2.032  0.00  0.00     0.045 A 
ENDROOT
TORSDOF 0
ENDMDL
