MODEL 1
REMARK minimizedAffinity -2.21964836
REMARK minimizedRMSD -1
REMARK  1 active torsions:
REMARK  status: ('A' for Active; 'I' for Inactive)
REMARK    1  A    between atoms: C1_2  and  C2_3 
ROOT
ATOM      1  C2  UNL d   1      -0.985  -0.193  -1.014  0.00  0.00    -0.076 A 
ATOM      2  C3  UNL d   1      -1.964   0.590  -0.378  0.00  0.00     0.004 A 
ATOM      3  C4  UNL d   1      -1.866   0.899   0.978  0.00  0.00    -0.003 A 
ATOM      4  C5  UNL d   1      -0.787   0.430   1.719  0.00  0.00     0.000 A 
ATOM      5  C6  UNL d   1       0.203  -0.333   1.100  0.00  0.00     0.000 A 
ATOM      6  C7  UNL d   1       0.128  -0.640  -0.269  0.00  0.00    -0.073 A 
ATOM      7  C8  UNL d   1       1.220  -1.472  -0.883  0.00  0.00     0.078 C 
ENDROOT
BRANCH   1   8
ATOM      8  C1  UNL d   1      -1.158  -0.519  -2.480  0.00  0.00     0.053 C 
ATOM      9  C   UNL d   1      -2.580  -0.940  -2.820  0.00  0.00     0.018 C 
ENDBRANCH   1   8
TORSDOF 1
ENDMDL
