MODEL 1
REMARK minimizedAffinity -5.47369194
REMARK minimizedRMSD -1
REMARK  1 active torsions:
REMARK  status: ('A' for Active; 'I' for Inactive)
REMARK    1  A    between atoms: C1_2  and  C2_3 
ROOT
ATOM      1  C2  UNL d   1       0.851  -0.126   0.319  0.00  0.00    -0.076 A 
ATOM      2  C3  UNL d   1       2.203  -0.021  -0.051  0.00  0.00     0.004 A 
ATOM      3  C4  UNL d   1       3.008   0.999   0.455  0.00  0.00    -0.003 A 
ATOM      4  C5  UNL d   1       2.473   1.930   1.339  0.00  0.00     0.000 A 
ATOM      5  C6  UNL d   1       1.139   1.830   1.730  0.00  0.00     0.000 A 
ATOM      6  C7  UNL d   1       0.318   0.798   1.243  0.00  0.00    -0.073 A 
ATOM      7  C8  UNL d   1      -1.116   0.742   1.694  0.00  0.00     0.078 C 
ENDROOT
BRANCH   1   8
ATOM      8  C1  UNL d   1       0.021  -1.237  -0.283  0.00  0.00     0.053 C 
ATOM      9  C   UNL d   1      -0.965  -0.729  -1.324  0.00  0.00     0.018 C 
ENDBRANCH   1   8
TORSDOF 1
ENDMDL
