MODEL 1
REMARK minimizedAffinity -4.99571562
REMARK minimizedRMSD -1
REMARK  1 active torsions:
REMARK  status: ('A' for Active; 'I' for Inactive)
REMARK    1  A    between atoms: C1_2  and  C2_3 
ROOT
ATOM      1  C2  UNL d   1       0.460   0.645  -0.019  0.00  0.00    -0.076 A 
ATOM      2  C3  UNL d   1       1.545   1.337  -0.586  0.00  0.00     0.004 A 
ATOM      3  C4  UNL d   1       2.251   2.288   0.149  0.00  0.00    -0.003 A 
ATOM      4  C5  UNL d   1       1.885   2.563   1.462  0.00  0.00     0.000 A 
ATOM      5  C6  UNL d   1       0.822   1.873   2.045  0.00  0.00     0.000 A 
ATOM      6  C7  UNL d   1       0.110   0.900   1.324  0.00  0.00    -0.073 A 
ATOM      7  C8  UNL d   1      -1.031   0.191   2.001  0.00  0.00     0.078 C 
ENDROOT
BRANCH   1   8
ATOM      8  C1  UNL d   1      -0.286  -0.356  -0.873  0.00  0.00     0.053 C 
ATOM      9  C   UNL d   1       0.384  -1.721  -0.889  0.00  0.00     0.018 C 
ENDBRANCH   1   8
TORSDOF 1
ENDMDL
