MODEL 1
REMARK minimizedAffinity -4.14273834
REMARK minimizedRMSD -1
REMARK  1 active torsions:
REMARK  status: ('A' for Active; 'I' for Inactive)
REMARK    1  A    between atoms: C1_2  and  C2_3 
ROOT
ATOM      1  C2  UNL d   1       1.144   0.719   0.278  0.00  0.00    -0.076 A 
ATOM      2  C3  UNL d   1       1.188  -0.155  -0.822  0.00  0.00     0.004 A 
ATOM      3  C4  UNL d   1       0.151  -1.056  -1.064  0.00  0.00    -0.003 A 
ATOM      4  C5  UNL d   1      -0.945  -1.096  -0.210  0.00  0.00     0.000 A 
ATOM      5  C6  UNL d   1      -1.013  -0.224   0.876  0.00  0.00     0.000 A 
ATOM      6  C7  UNL d   1       0.015   0.701   1.125  0.00  0.00    -0.073 A 
ATOM      7  C8  UNL d   1      -0.107   1.613   2.314  0.00  0.00     0.078 C 
ENDROOT
BRANCH   1   8
ATOM      8  C1  UNL d   1       2.310   1.655   0.506  0.00  0.00     0.053 C 
ATOM      9  C   UNL d   1       3.645   0.927   0.528  0.00  0.00     0.018 C 
ENDBRANCH   1   8
TORSDOF 1
ENDMDL
