MODEL 1
REMARK minimizedAffinity -3.36933517
REMARK minimizedRMSD -1
REMARK  1 active torsions:
REMARK  status: ('A' for Active; 'I' for Inactive)
REMARK    1  A    between atoms: C1_2  and  C2_3 
ROOT
ATOM      1  C2  UNL d   1       0.637   0.284   0.091  0.00  0.00    -0.076 A 
ATOM      2  C3  UNL d   1       1.977   0.034  -0.252  0.00  0.00     0.004 A 
ATOM      3  C4  UNL d   1       3.021   0.651   0.435  0.00  0.00    -0.003 A 
ATOM      4  C5  UNL d   1       2.742   1.529   1.477  0.00  0.00     0.000 A 
ATOM      5  C6  UNL d   1       1.419   1.775   1.842  0.00  0.00     0.000 A 
ATOM      6  C7  UNL d   1       0.355   1.148   1.171  0.00  0.00    -0.073 A 
ATOM      7  C8  UNL d   1      -1.052   1.456   1.603  0.00  0.00     0.078 C 
ENDROOT
BRANCH   1   8
ATOM      8  C1  UNL d   1      -0.454  -0.394  -0.707  0.00  0.00     0.053 C 
ATOM      9  C   UNL d   1      -0.213  -1.886  -0.874  0.00  0.00     0.018 C 
ENDBRANCH   1   8
TORSDOF 1
ENDMDL
