MODEL 1
REMARK minimizedAffinity -4.37253761
REMARK minimizedRMSD -1
REMARK  1 active torsions:
REMARK  status: ('A' for Active; 'I' for Inactive)
REMARK    1  A    between atoms: C1_2  and  C2_3 
ROOT
ATOM      1  C2  UNL d   1       0.671  -0.129   0.068  0.00  0.00    -0.076 A 
ATOM      2  C3  UNL d   1       1.997   0.110  -0.332  0.00  0.00     0.004 A 
ATOM      3  C4  UNL d   1       2.725   1.175   0.197  0.00  0.00    -0.003 A 
ATOM      4  C5  UNL d   1       2.138   2.017   1.136  0.00  0.00     0.000 A 
ATOM      5  C6  UNL d   1       0.829   1.784   1.557  0.00  0.00     0.000 A 
ATOM      6  C7  UNL d   1       0.088   0.705   1.046  0.00  0.00    -0.073 A 
ATOM      7  C8  UNL d   1      -1.322   0.503   1.531  0.00  0.00     0.078 C 
ENDROOT
BRANCH   1   8
ATOM      8  C1  UNL d   1      -0.077  -1.283  -0.560  0.00  0.00     0.053 C 
ATOM      9  C   UNL d   1      -1.026  -0.832  -1.660  0.00  0.00     0.018 C 
ENDBRANCH   1   8
TORSDOF 1
ENDMDL
