MODEL 1
REMARK minimizedAffinity -4.29378748
REMARK minimizedRMSD -1
REMARK  1 active torsions:
REMARK  status: ('A' for Active; 'I' for Inactive)
REMARK    1  A    between atoms: C1_2  and  C2_3 
ROOT
ATOM      1  C2  UNL d   1       0.787   0.793   0.257  0.00  0.00    -0.076 A 
ATOM      2  C3  UNL d   1       2.005   1.342  -0.178  0.00  0.00     0.004 A 
ATOM      3  C4  UNL d   1       2.740   2.197   0.642  0.00  0.00    -0.003 A 
ATOM      4  C5  UNL d   1       2.269   2.515   1.911  0.00  0.00     0.000 A 
ATOM      5  C6  UNL d   1       1.071   1.965   2.366  0.00  0.00     0.000 A 
ATOM      6  C7  UNL d   1       0.326   1.089   1.558  0.00  0.00    -0.073 A 
ATOM      7  C8  UNL d   1      -0.962   0.530   2.097  0.00  0.00     0.078 C 
ENDROOT
BRANCH   1   8
ATOM      8  C1  UNL d   1       0.020  -0.106  -0.686  0.00  0.00     0.053 C 
ATOM      9  C   UNL d   1       0.129  -1.575  -0.310  0.00  0.00     0.018 C 
ENDBRANCH   1   8
TORSDOF 1
ENDMDL
