MODEL 1
REMARK minimizedAffinity -3.87480712
REMARK minimizedRMSD -1
REMARK  1 active torsions:
REMARK  status: ('A' for Active; 'I' for Inactive)
REMARK    1  A    between atoms: C1_2  and  C2_3 
ROOT
ATOM      1  C2  UNL d   1       0.453   0.327   0.267  0.00  0.00    -0.076 A 
ATOM      2  C3  UNL d   1       0.679  -0.927  -0.325  0.00  0.00     0.004 A 
ATOM      3  C4  UNL d   1       1.921  -1.251  -0.868  0.00  0.00    -0.003 A 
ATOM      4  C5  UNL d   1       2.958  -0.325  -0.826  0.00  0.00     0.000 A 
ATOM      5  C6  UNL d   1       2.756   0.918  -0.226  0.00  0.00     0.000 A 
ATOM      6  C7  UNL d   1       1.515   1.254   0.340  0.00  0.00    -0.073 A 
ATOM      7  C8  UNL d   1       1.351   2.610   0.969  0.00  0.00     0.078 C 
ENDROOT
BRANCH   1   8
ATOM      8  C1  UNL d   1      -0.924   0.632   0.815  0.00  0.00     0.053 C 
ATOM      9  C   UNL d   1      -0.967   0.597   2.335  0.00  0.00     0.018 C 
ENDBRANCH   1   8
TORSDOF 1
ENDMDL
