MODEL 1
REMARK minimizedAffinity -1.34658623
REMARK minimizedRMSD -1
REMARK  1 active torsions:
REMARK  status: ('A' for Active; 'I' for Inactive)
REMARK    1  A    between atoms: C1_2  and  C2_3 
ROOT
ATOM      1  C2  UNL d   1      -0.858  -0.423  -1.166  0.00  0.00    -0.076 A 
ATOM      2  C3  UNL d   1      -1.700   0.650  -0.827  0.00  0.00     0.004 A 
ATOM      3  C4  UNL d   1      -1.481   1.396   0.329  0.00  0.00    -0.003 A 
ATOM      4  C5  UNL d   1      -0.415   1.082   1.166  0.00  0.00     0.000 A 
ATOM      5  C6  UNL d   1       0.440   0.031   0.836  0.00  0.00     0.000 A 
ATOM      6  C7  UNL d   1       0.243  -0.721  -0.335  0.00  0.00    -0.073 A 
ATOM      7  C8  UNL d   1       1.193  -1.847  -0.638  0.00  0.00     0.078 C 
ENDROOT
BRANCH   1   8
ATOM      8  C1  UNL d   1      -1.161  -1.214  -2.419  0.00  0.00     0.053 C 
ATOM      9  C   UNL d   1      -2.627  -1.606  -2.520  0.00  0.00     0.018 C 
ENDBRANCH   1   8
TORSDOF 1
ENDMDL
