MODEL 1
REMARK minimizedAffinity -6.65860128
REMARK minimizedRMSD -1
REMARK  1 active torsions:
REMARK  status: ('A' for Active; 'I' for Inactive)
REMARK    1  A    between atoms: C1_2  and  C2_3 
ROOT
ATOM      1  C2  UNL d   1       0.658  -0.035   0.151  0.00  0.00    -0.076 A 
ATOM      2  C3  UNL d   1       1.834   0.508  -0.397  0.00  0.00     0.004 A 
ATOM      3  C4  UNL d   1       2.302   1.758   0.006  0.00  0.00    -0.003 A 
ATOM      4  C5  UNL d   1       1.603   2.485   0.963  0.00  0.00     0.000 A 
ATOM      5  C6  UNL d   1       0.444   1.954   1.529  0.00  0.00     0.000 A 
ATOM      6  C7  UNL d   1      -0.033   0.688   1.147  0.00  0.00    -0.073 A 
ATOM      7  C8  UNL d   1      -1.290   0.167   1.786  0.00  0.00     0.078 C 
ENDROOT
BRANCH   1   8
ATOM      8  C1  UNL d   1       0.184  -1.382  -0.344  0.00  0.00     0.053 C 
ATOM      9  C   UNL d   1      -0.905  -1.265  -1.400  0.00  0.00     0.018 C 
ENDBRANCH   1   8
TORSDOF 1
ENDMDL
