MODEL 1
REMARK minimizedAffinity -2.05729747
REMARK minimizedRMSD -1
REMARK  1 active torsions:
REMARK  status: ('A' for Active; 'I' for Inactive)
REMARK    1  A    between atoms: C1_2  and  C2_3 
ROOT
ATOM      1  C2  UNL d   1      -0.208   0.368   1.240  0.00  0.00    -0.076 A 
ATOM      2  C3  UNL d   1      -0.033   0.810  -0.083  0.00  0.00     0.004 A 
ATOM      3  C4  UNL d   1      -0.269  -0.042  -1.160  0.00  0.00    -0.003 A 
ATOM      4  C5  UNL d   1      -0.684  -1.350  -0.932  0.00  0.00     0.000 A 
ATOM      5  C6  UNL d   1      -0.880  -1.799   0.373  0.00  0.00     0.000 A 
ATOM      6  C7  UNL d   1      -0.662  -0.948   1.470  0.00  0.00    -0.073 A 
ATOM      7  C8  UNL d   1      -0.883  -1.487   2.857  0.00  0.00     0.078 C 
ENDROOT
BRANCH   1   8
ATOM      8  C1  UNL d   1       0.089   1.329   2.370  0.00  0.00     0.053 C 
ATOM      9  C   UNL d   1       1.369   2.118   2.142  0.00  0.00     0.018 C 
ENDBRANCH   1   8
TORSDOF 1
ENDMDL
