MODEL 1
REMARK minimizedAffinity -0.236785114
REMARK minimizedRMSD -1
REMARK  0 active torsions:
REMARK  status: ('A' for Active; 'I' for Inactive)
ROOT
ATOM      1  C2' OXE d   1       0.247   0.679  -2.741  0.00  0.00     0.078 C 
ATOM      2  C1' OXE d   1      -1.185   1.315  -0.412  0.00  0.00     0.078 C 
ATOM      3  C1  OXE d   1      -0.478  -0.016  -0.462  0.00  0.00    -0.078 A 
ATOM      4  C2  OXE d   1       0.182  -0.339  -1.623  0.00  0.00    -0.078 A 
ATOM      5  C3  OXE d   1       0.896  -1.531  -1.702  0.00  0.00     0.003 A 
ATOM      6  C4  OXE d   1       0.822  -2.472  -0.667  0.00  0.00    -0.002 A 
ATOM      7  C5  OXE d   1       0.122  -2.180   0.509  0.00  0.00    -0.002 A 
ATOM      8  C6  OXE d   1      -0.496  -0.941   0.644  0.00  0.00     0.003 A 
ENDROOT
TORSDOF 0
ENDMDL
