MODEL 1
REMARK minimizedAffinity -2.96675205
REMARK minimizedRMSD -1
REMARK  0 active torsions:
REMARK  status: ('A' for Active; 'I' for Inactive)
ROOT
ATOM      1  C2' OXE d   1      -0.371  -0.926   0.256  0.00  0.00     0.078 C 
ATOM      2  C1' OXE d   1       1.423  -0.699   2.402  0.00  0.00     0.078 C 
ATOM      3  C1  OXE d   1       1.233   0.505   1.514  0.00  0.00    -0.078 A 
ATOM      4  C2  OXE d   1       0.389   0.370   0.438  0.00  0.00    -0.078 A 
ATOM      5  C3  OXE d   1       0.136   1.466  -0.382  0.00  0.00     0.003 A 
ATOM      6  C4  OXE d   1       0.850   2.658  -0.212  0.00  0.00    -0.002 A 
ATOM      7  C5  OXE d   1       1.745   2.804   0.853  0.00  0.00    -0.002 A 
ATOM      8  C6  OXE d   1       1.916   1.753   1.749  0.00  0.00     0.003 A 
ENDROOT
TORSDOF 0
ENDMDL
