MODEL 1
REMARK minimizedAffinity 1.6095283
REMARK minimizedRMSD -1
REMARK  0 active torsions:
REMARK  status: ('A' for Active; 'I' for Inactive)
ROOT
ATOM      1  C2' OXE d   1      -1.000   1.939  -0.795  0.00  0.00     0.078 C 
ATOM      2  C1' OXE d   1       1.166   0.215  -0.329  0.00  0.00     0.078 C 
ATOM      3  C1  OXE d   1       1.268   1.628   0.188  0.00  0.00    -0.078 A 
ATOM      4  C2  OXE d   1       0.224   2.478  -0.085  0.00  0.00    -0.078 A 
ATOM      5  C3  OXE d   1       0.243   3.776   0.417  0.00  0.00     0.003 A 
ATOM      6  C4  OXE d   1       1.382   4.270   1.064  0.00  0.00    -0.002 A 
ATOM      7  C5  OXE d   1       2.473   3.432   1.317  0.00  0.00    -0.002 A 
ATOM      8  C6  OXE d   1       2.415   2.099   0.925  0.00  0.00     0.003 A 
ENDROOT
TORSDOF 0
ENDMDL
