MODEL 1
REMARK minimizedAffinity -3.39382863
REMARK minimizedRMSD -1
REMARK  0 active torsions:
REMARK  status: ('A' for Active; 'I' for Inactive)
ROOT
ATOM      1  C2' OXE d   1      -0.043   1.149  -0.418  0.00  0.00     0.078 C 
ATOM      2  C1' OXE d   1       0.594  -0.961  -2.157  0.00  0.00     0.078 C 
ATOM      3  C1  OXE d   1      -0.103  -1.302  -0.863  0.00  0.00    -0.078 A 
ATOM      4  C2  OXE d   1      -0.368  -0.268   0.003  0.00  0.00    -0.078 A 
ATOM      5  C3  OXE d   1      -1.058  -0.519   1.185  0.00  0.00     0.003 A 
ATOM      6  C4  OXE d   1      -1.347  -1.834   1.572  0.00  0.00    -0.002 A 
ATOM      7  C5  OXE d   1      -1.049  -2.905   0.723  0.00  0.00    -0.002 A 
ATOM      8  C6  OXE d   1      -0.467  -2.653  -0.514  0.00  0.00     0.003 A 
ENDROOT
TORSDOF 0
ENDMDL
