MODEL 1
REMARK minimizedAffinity -1.76026225
REMARK minimizedRMSD -1
REMARK  0 active torsions:
REMARK  status: ('A' for Active; 'I' for Inactive)
ROOT
ATOM      1  C2' OXE d   1       0.221   1.472  -2.376  0.00  0.00     0.078 C 
ATOM      2  C1' OXE d   1       0.875   2.882  -0.038  0.00  0.00     0.078 C 
ATOM      3  C1  OXE d   1       0.523   1.421   0.096  0.00  0.00    -0.078 A 
ATOM      4  C2  OXE d   1       0.159   0.751  -1.047  0.00  0.00    -0.078 A 
ATOM      5  C3  OXE d   1      -0.123  -0.611  -0.988  0.00  0.00     0.003 A 
ATOM      6  C4  OXE d   1      -0.188  -1.268   0.247  0.00  0.00    -0.002 A 
ATOM      7  C5  OXE d   1       0.141  -0.594   1.428  0.00  0.00    -0.002 A 
ATOM      8  C6  OXE d   1       0.538   0.737   1.365  0.00  0.00     0.003 A 
ENDROOT
TORSDOF 0
ENDMDL
