MODEL 1
REMARK minimizedAffinity -4.23026943
REMARK minimizedRMSD -1
REMARK  0 active torsions:
REMARK  status: ('A' for Active; 'I' for Inactive)
ROOT
ATOM      1  C2' OXE d   1      -2.161  -2.513   0.500  0.00  0.00     0.078 C 
ATOM      2  C1' OXE d   1       0.522  -3.241   0.893  0.00  0.00     0.078 C 
ATOM      3  C1  OXE d   1       0.186  -1.771   0.882  0.00  0.00    -0.078 A 
ATOM      4  C2  OXE d   1      -1.122  -1.422   0.642  0.00  0.00    -0.078 A 
ATOM      5  C3  OXE d   1      -1.495  -0.082   0.676  0.00  0.00     0.003 A 
ATOM      6  C4  OXE d   1      -0.526   0.921   0.799  0.00  0.00    -0.002 A 
ATOM      7  C5  OXE d   1       0.817   0.589   1.004  0.00  0.00    -0.002 A 
ATOM      8  C6  OXE d   1       1.183  -0.749   1.090  0.00  0.00     0.003 A 
ENDROOT
TORSDOF 0
ENDMDL
