MODEL 1
REMARK minimizedAffinity -3.8557632
REMARK minimizedRMSD -1
REMARK  0 active torsions:
REMARK  status: ('A' for Active; 'I' for Inactive)
ROOT
ATOM      1  C2' OXE d   1      -0.760  -0.899   1.873  0.00  0.00     0.078 C 
ATOM      2  C1' OXE d   1       0.091   0.928  -0.082  0.00  0.00     0.078 C 
ATOM      3  C1  OXE d   1      -0.256  -0.470  -0.529  0.00  0.00    -0.078 A 
ATOM      4  C2  OXE d   1      -0.626  -1.370   0.441  0.00  0.00    -0.078 A 
ATOM      5  C3  OXE d   1      -1.009  -2.658   0.076  0.00  0.00     0.003 A 
ATOM      6  C4  OXE d   1      -0.873  -3.089  -1.249  0.00  0.00    -0.002 A 
ATOM      7  C5  OXE d   1      -0.460  -2.199  -2.247  0.00  0.00    -0.002 A 
ATOM      8  C6  OXE d   1      -0.189  -0.877  -1.911  0.00  0.00     0.003 A 
ENDROOT
TORSDOF 0
ENDMDL
