MODEL 1
REMARK minimizedAffinity -5.454741
REMARK minimizedRMSD -1
REMARK  0 active torsions:
REMARK  status: ('A' for Active; 'I' for Inactive)
ROOT
ATOM      1  C2' OXE d   1      -1.465  -3.586   0.597  0.00  0.00     0.078 C 
ATOM      2  C1' OXE d   1      -0.895  -0.908   1.217  0.00  0.00     0.078 C 
ATOM      3  C1  OXE d   1      -0.679  -1.362  -0.205  0.00  0.00    -0.078 A 
ATOM      4  C2  OXE d   1      -0.916  -2.686  -0.489  0.00  0.00    -0.078 A 
ATOM      5  C3  OXE d   1      -0.786  -3.144  -1.797  0.00  0.00     0.003 A 
ATOM      6  C4  OXE d   1      -0.268  -2.308  -2.793  0.00  0.00    -0.002 A 
ATOM      7  C5  OXE d   1       0.018  -0.966  -2.516  0.00  0.00    -0.002 A 
ATOM      8  C6  OXE d   1      -0.222  -0.468  -1.240  0.00  0.00     0.003 A 
ENDROOT
TORSDOF 0
ENDMDL
