MODEL 1
REMARK minimizedAffinity -5.75851774
REMARK minimizedRMSD -1
REMARK  0 active torsions:
REMARK  status: ('A' for Active; 'I' for Inactive)
ROOT
ATOM      1  C2' OXE d   1      -0.277   0.363  -1.863  0.00  0.00     0.078 C 
ATOM      2  C1' OXE d   1       1.316  -0.343   0.338  0.00  0.00     0.078 C 
ATOM      3  C1  OXE d   1       0.658  -1.455  -0.441  0.00  0.00    -0.078 A 
ATOM      4  C2  OXE d   1      -0.157  -1.098  -1.488  0.00  0.00    -0.078 A 
ATOM      5  C3  OXE d   1      -0.744  -2.086  -2.273  0.00  0.00     0.003 A 
ATOM      6  C4  OXE d   1      -0.636  -3.435  -1.913  0.00  0.00    -0.002 A 
ATOM      7  C5  OXE d   1       0.157  -3.818  -0.826  0.00  0.00    -0.002 A 
ATOM      8  C6  OXE d   1       0.844  -2.846  -0.107  0.00  0.00     0.003 A 
ENDROOT
TORSDOF 0
ENDMDL
