MODEL 1
REMARK minimizedAffinity -1.34974682
REMARK minimizedRMSD -1
REMARK  0 active torsions:
REMARK  status: ('A' for Active; 'I' for Inactive)
ROOT
ATOM      1  C2' OXE d   1      -0.975  -3.086  -2.043  0.00  0.00     0.078 C 
ATOM      2  C1' OXE d   1       0.411  -0.749  -2.751  0.00  0.00     0.078 C 
ATOM      3  C1  OXE d   1      -0.080  -0.873  -1.331  0.00  0.00    -0.078 A 
ATOM      4  C2  OXE d   1      -0.798  -1.999  -1.005  0.00  0.00    -0.078 A 
ATOM      5  C3  OXE d   1      -1.228  -2.188   0.305  0.00  0.00     0.003 A 
ATOM      6  C4  OXE d   1      -1.069  -1.173   1.256  0.00  0.00    -0.002 A 
ATOM      7  C5  OXE d   1      -0.376  -0.001   0.935  0.00  0.00    -0.002 A 
ATOM      8  C6  OXE d   1       0.161   0.146  -0.339  0.00  0.00     0.003 A 
ENDROOT
TORSDOF 0
ENDMDL
