MODEL 1
REMARK minimizedAffinity -5.35899115
REMARK minimizedRMSD -1
REMARK  0 active torsions:
REMARK  status: ('A' for Active; 'I' for Inactive)
ROOT
ATOM      1  C2' OXE d   1       0.178   1.149   0.083  0.00  0.00     0.078 C 
ATOM      2  C1' OXE d   1      -1.218  -0.041   2.208  0.00  0.00     0.078 C 
ATOM      3  C1  OXE d   1      -0.675  -0.945   1.129  0.00  0.00    -0.078 A 
ATOM      4  C2  OXE d   1      -0.033  -0.349   0.070  0.00  0.00    -0.078 A 
ATOM      5  C3  OXE d   1       0.535  -1.140  -0.925  0.00  0.00     0.003 A 
ATOM      6  C4  OXE d   1       0.327  -2.525  -0.935  0.00  0.00    -0.002 A 
ATOM      7  C5  OXE d   1      -0.358  -3.147   0.114  0.00  0.00    -0.002 A 
ATOM      8  C6  OXE d   1      -0.827  -2.378   1.173  0.00  0.00     0.003 A 
ENDROOT
TORSDOF 0
ENDMDL
