MODEL 1
REMARK minimizedAffinity -5.96444416
REMARK minimizedRMSD -1
REMARK  0 active torsions:
REMARK  status: ('A' for Active; 'I' for Inactive)
ROOT
ATOM      1  C2' OXE d   1      -1.488  -0.014   1.168  0.00  0.00     0.078 C 
ATOM      2  C1' OXE d   1       0.212   0.759  -0.929  0.00  0.00     0.078 C 
ATOM      3  C1  OXE d   1       0.048  -0.717  -0.664  0.00  0.00    -0.078 A 
ATOM      4  C2  OXE d   1      -0.749  -1.084   0.394  0.00  0.00    -0.078 A 
ATOM      5  C3  OXE d   1      -0.978  -2.434   0.648  0.00  0.00     0.003 A 
ATOM      6  C4  OXE d   1      -0.283  -3.418  -0.065  0.00  0.00    -0.002 A 
ATOM      7  C5  OXE d   1       0.564  -3.064  -1.121  0.00  0.00    -0.002 A 
ATOM      8  C6  OXE d   1       0.707  -1.723  -1.460  0.00  0.00     0.003 A 
ENDROOT
TORSDOF 0
ENDMDL
