MODEL 1
REMARK minimizedAffinity -2.22685599
REMARK minimizedRMSD -1
REMARK  0 active torsions:
REMARK  status: ('A' for Active; 'I' for Inactive)
ROOT
ATOM      1  C2' OXE d   1      -0.746   1.986  -2.390  0.00  0.00     0.078 C 
ATOM      2  C1' OXE d   1       0.510   3.043  -0.113  0.00  0.00     0.078 C 
ATOM      3  C1  OXE d   1       0.301   1.550  -0.172  0.00  0.00    -0.078 A 
ATOM      4  C2  OXE d   1      -0.356   1.047  -1.268  0.00  0.00    -0.078 A 
ATOM      5  C3  OXE d   1      -0.527  -0.328  -1.398  0.00  0.00     0.003 A 
ATOM      6  C4  OXE d   1      -0.173  -1.189  -0.352  0.00  0.00    -0.002 A 
ATOM      7  C5  OXE d   1       0.462  -0.692   0.791  0.00  0.00    -0.002 A 
ATOM      8  C6  OXE d   1       0.744   0.667   0.878  0.00  0.00     0.003 A 
ENDROOT
TORSDOF 0
ENDMDL
