MODEL 1
REMARK minimizedAffinity -3.44270229
REMARK minimizedRMSD -1
REMARK  0 active torsions:
REMARK  status: ('A' for Active; 'I' for Inactive)
ROOT
ATOM      1  C2' OXE d   1      -0.030   1.328  -0.405  0.00  0.00     0.078 C 
ATOM      2  C1' OXE d   1      -1.228  -0.513   1.343  0.00  0.00     0.078 C 
ATOM      3  C1  OXE d   1      -0.932  -0.969  -0.064  0.00  0.00    -0.078 A 
ATOM      4  C2  OXE d   1      -0.389  -0.047  -0.926  0.00  0.00    -0.078 A 
ATOM      5  C3  OXE d   1      -0.047  -0.431  -2.219  0.00  0.00     0.003 A 
ATOM      6  C4  OXE d   1      -0.391  -1.701  -2.696  0.00  0.00    -0.002 A 
ATOM      7  C5  OXE d   1      -0.981  -2.643  -1.847  0.00  0.00    -0.002 A 
ATOM      8  C6  OXE d   1      -1.219  -2.307  -0.518  0.00  0.00     0.003 A 
ENDROOT
TORSDOF 0
ENDMDL
