MODEL 1
REMARK minimizedAffinity -5.94711781
REMARK minimizedRMSD -1
REMARK  0 active torsions:
REMARK  status: ('A' for Active; 'I' for Inactive)
ROOT
ATOM      1  C2' OXE d   1       0.277  -1.499  -2.554  0.00  0.00     0.078 C 
ATOM      2  C1' OXE d   1      -0.297  -3.448  -0.616  0.00  0.00     0.078 C 
ATOM      3  C1  OXE d   1      -0.475  -2.000  -0.232  0.00  0.00    -0.078 A 
ATOM      4  C2  OXE d   1      -0.147  -1.052  -1.171  0.00  0.00    -0.078 A 
ATOM      5  C3  OXE d   1      -0.345   0.297  -0.888  0.00  0.00     0.003 A 
ATOM      6  C4  OXE d   1      -0.728   0.702   0.397  0.00  0.00    -0.002 A 
ATOM      7  C5  OXE d   1      -1.028  -0.246   1.380  0.00  0.00    -0.002 A 
ATOM      8  C6  OXE d   1      -0.948  -1.599   1.070  0.00  0.00     0.003 A 
ENDROOT
TORSDOF 0
ENDMDL
