MODEL 1
REMARK minimizedAffinity -5.62526131
REMARK minimizedRMSD -1
REMARK  0 active torsions:
REMARK  status: ('A' for Active; 'I' for Inactive)
ROOT
ATOM      1  C2' OXE d   1      -0.788   0.064  -0.077  0.00  0.00     0.078 C 
ATOM      2  C1' OXE d   1      -0.621  -2.585   0.836  0.00  0.00     0.078 C 
ATOM      3  C1  OXE d   1      -0.472  -2.340  -0.645  0.00  0.00    -0.078 A 
ATOM      4  C2  OXE d   1      -0.602  -1.046  -1.088  0.00  0.00    -0.078 A 
ATOM      5  C3  OXE d   1      -0.419  -0.758  -2.437  0.00  0.00     0.003 A 
ATOM      6  C4  OXE d   1      -0.257  -1.793  -3.367  0.00  0.00    -0.002 A 
ATOM      7  C5  OXE d   1      -0.162  -3.122  -2.941  0.00  0.00    -0.002 A 
ATOM      8  C6  OXE d   1      -0.224  -3.408  -1.582  0.00  0.00     0.003 A 
ENDROOT
TORSDOF 0
ENDMDL
