MODEL 1
REMARK minimizedAffinity -3.11887383
REMARK minimizedRMSD -1
REMARK  0 active torsions:
REMARK  status: ('A' for Active; 'I' for Inactive)
ROOT
ATOM      1  C2' OXE d   1       0.344  -0.257   2.277  0.00  0.00     0.078 C 
ATOM      2  C1' OXE d   1       0.828   0.838  -0.262  0.00  0.00     0.078 C 
ATOM      3  C1  OXE d   1       0.397  -0.605  -0.189  0.00  0.00    -0.078 A 
ATOM      4  C2  OXE d   1       0.208  -1.146   1.060  0.00  0.00    -0.078 A 
ATOM      5  C3  OXE d   1      -0.242  -2.458   1.182  0.00  0.00     0.003 A 
ATOM      6  C4  OXE d   1      -0.356  -3.276   0.052  0.00  0.00    -0.002 A 
ATOM      7  C5  OXE d   1      -0.130  -2.757  -1.227  0.00  0.00    -0.002 A 
ATOM      8  C6  OXE d   1       0.206  -1.414  -1.368  0.00  0.00     0.003 A 
ENDROOT
TORSDOF 0
ENDMDL
