MODEL 1
REMARK minimizedAffinity -2.85240698
REMARK minimizedRMSD -1
REMARK  0 active torsions:
REMARK  status: ('A' for Active; 'I' for Inactive)
ROOT
ATOM      1  C2' OXE d   1      -0.737  -2.734  -2.504  0.00  0.00     0.078 C 
ATOM      2  C1' OXE d   1      -0.028  -0.017  -2.482  0.00  0.00     0.078 C 
ATOM      3  C1  OXE d   1      -0.376  -0.665  -1.165  0.00  0.00    -0.078 A 
ATOM      4  C2  OXE d   1      -0.767  -1.982  -1.191  0.00  0.00    -0.078 A 
ATOM      5  C3  OXE d   1      -1.045  -2.642   0.002  0.00  0.00     0.003 A 
ATOM      6  C4  OXE d   1      -1.080  -1.937   1.211  0.00  0.00    -0.002 A 
ATOM      7  C5  OXE d   1      -0.724  -0.585   1.255  0.00  0.00    -0.002 A 
ATOM      8  C6  OXE d   1      -0.329   0.054   0.085  0.00  0.00     0.003 A 
ENDROOT
TORSDOF 0
ENDMDL
