MODEL 1
REMARK minimizedAffinity 15.2051764
REMARK minimizedRMSD -1
REMARK  0 active torsions:
REMARK  status: ('A' for Active; 'I' for Inactive)
ROOT
ATOM      1  C   UNL d   1       2.624  -2.229  -1.744  0.00  0.00     0.124 A 
ATOM      2  C1  UNL d   1       2.799  -1.560  -0.540  0.00  0.00     0.062 A 
ATOM      3  C2  UNL d   1       3.605  -0.427  -0.480  0.00  0.00     0.162 A 
ATOM      4  C3  UNL d   1       4.244   0.045  -1.627  0.00  0.00    -0.034 A 
ATOM      5  C4  UNL d   1       4.064  -0.634  -2.833  0.00  0.00     0.162 A 
ATOM      6  C5  UNL d   1       3.257  -1.765  -2.889  0.00  0.00     0.062 A 
ATOM      7  F   UNL d   1       3.089  -2.410  -4.053  0.00  0.00    -0.097 F 
ATOM      8  F1  UNL d   1       4.663  -0.207  -3.955  0.00  0.00    -0.096 F 
ATOM      9  I   UNL d   1       5.451   1.738  -1.540  0.00  0.00    -0.060 I 
ATOM     10  F2  UNL d   1       3.756   0.199   0.697  0.00  0.00    -0.096 F 
ATOM     11  F3  UNL d   1       2.189  -2.006   0.567  0.00  0.00    -0.097 F 
ATOM     12  F4  UNL d   1       1.848  -3.319  -1.800  0.00  0.00    -0.092 F 
ENDROOT
TORSDOF 0
ENDMDL
