MODEL 1
REMARK minimizedAffinity 24.2373981
REMARK minimizedRMSD -1
REMARK  0 active torsions:
REMARK  status: ('A' for Active; 'I' for Inactive)
ROOT
ATOM      1  C   UNL d   1      -2.829   1.012  -5.306  0.00  0.00     0.124 A 
ATOM      2  C1  UNL d   1      -3.978   0.553  -4.677  0.00  0.00     0.062 A 
ATOM      3  C2  UNL d   1      -4.884   1.456  -4.130  0.00  0.00     0.162 A 
ATOM      4  C3  UNL d   1      -4.646   2.828  -4.208  0.00  0.00    -0.034 A 
ATOM      5  C4  UNL d   1      -3.487   3.282  -4.841  0.00  0.00     0.162 A 
ATOM      6  C5  UNL d   1      -2.584   2.376  -5.387  0.00  0.00     0.062 A 
ATOM      7  F   UNL d   1      -1.474   2.821  -5.994  0.00  0.00    -0.097 F 
ATOM      8  F1  UNL d   1      -3.227   4.595  -4.935  0.00  0.00    -0.096 F 
ATOM      9  I   UNL d   1      -5.999   4.182  -3.391  0.00  0.00    -0.060 I 
ATOM     10  F2  UNL d   1      -5.987   0.985  -3.528  0.00  0.00    -0.096 F 
ATOM     11  F3  UNL d   1      -4.216  -0.764  -4.597  0.00  0.00    -0.097 F 
ATOM     12  F4  UNL d   1      -1.958   0.141  -5.831  0.00  0.00    -0.092 F 
ENDROOT
TORSDOF 0
ENDMDL
