MODEL 1
REMARK minimizedAffinity 34.1156693
REMARK minimizedRMSD -1
REMARK  0 active torsions:
REMARK  status: ('A' for Active; 'I' for Inactive)
ROOT
ATOM      1  C   UNL d   1      -5.605   4.800   3.898  0.00  0.00     0.124 A 
ATOM      2  C1  UNL d   1      -5.250   4.784   2.557  0.00  0.00     0.062 A 
ATOM      3  C2  UNL d   1      -4.868   3.592   1.948  0.00  0.00     0.162 A 
ATOM      4  C3  UNL d   1      -4.839   2.405   2.681  0.00  0.00    -0.034 A 
ATOM      5  C4  UNL d   1      -5.196   2.430   4.030  0.00  0.00     0.162 A 
ATOM      6  C5  UNL d   1      -5.578   3.623   4.634  0.00  0.00     0.062 A 
ATOM      7  F   UNL d   1      -5.920   3.637   5.930  0.00  0.00    -0.097 F 
ATOM      8  F1  UNL d   1      -5.180   1.307   4.764  0.00  0.00    -0.096 F 
ATOM      9  I   UNL d   1      -4.268   0.621   1.775  0.00  0.00    -0.060 I 
ATOM     10  F2  UNL d   1      -4.530   3.606   0.650  0.00  0.00    -0.096 F 
ATOM     11  F3  UNL d   1      -5.275   5.919   1.844  0.00  0.00    -0.097 F 
ATOM     12  F4  UNL d   1      -5.972   5.948   4.482  0.00  0.00    -0.092 F 
ENDROOT
TORSDOF 0
ENDMDL
