MODEL 1
REMARK minimizedAffinity 24.1806755
REMARK minimizedRMSD -1
REMARK  0 active torsions:
REMARK  status: ('A' for Active; 'I' for Inactive)
ROOT
ATOM      1  C   UNL d   1       5.071   1.145   0.569  0.00  0.00     0.124 A 
ATOM      2  C1  UNL d   1       4.998   1.532  -0.762  0.00  0.00     0.062 A 
ATOM      3  C2  UNL d   1       5.262   2.849  -1.124  0.00  0.00     0.162 A 
ATOM      4  C3  UNL d   1       5.604   3.791  -0.153  0.00  0.00    -0.034 A 
ATOM      5  C4  UNL d   1       5.675   3.395   1.184  0.00  0.00     0.162 A 
ATOM      6  C5  UNL d   1       5.409   2.077   1.540  0.00  0.00     0.062 A 
ATOM      7  F   UNL d   1       5.481   1.705   2.827  0.00  0.00    -0.097 F 
ATOM      8  F1  UNL d   1       6.000   4.274   2.143  0.00  0.00    -0.096 F 
ATOM      9  I   UNL d   1       6.000   5.762  -0.690  0.00  0.00    -0.060 I 
ATOM     10  F2  UNL d   1       5.184   3.195  -2.418  0.00  0.00    -0.096 F 
ATOM     11  F3  UNL d   1       4.671   0.634  -1.702  0.00  0.00    -0.097 F 
ATOM     12  F4  UNL d   1       4.815  -0.123   0.915  0.00  0.00    -0.092 F 
ENDROOT
TORSDOF 0
ENDMDL
