MODEL 1
REMARK minimizedAffinity 28.2485847
REMARK minimizedRMSD -1
REMARK  0 active torsions:
REMARK  status: ('A' for Active; 'I' for Inactive)
ROOT
ATOM      1  C   UNL d   1       4.950   1.288  -1.021  0.00  0.00     0.124 A 
ATOM      2  C1  UNL d   1       3.921   0.484  -1.492  0.00  0.00     0.062 A 
ATOM      3  C2  UNL d   1       2.829   0.196  -0.678  0.00  0.00     0.162 A 
ATOM      4  C3  UNL d   1       2.761   0.712   0.616  0.00  0.00    -0.034 A 
ATOM      5  C4  UNL d   1       3.800   1.519   1.083  0.00  0.00     0.162 A 
ATOM      6  C5  UNL d   1       4.888   1.805   0.266  0.00  0.00     0.062 A 
ATOM      7  F   UNL d   1       5.881   2.581   0.722  0.00  0.00    -0.097 F 
ATOM      8  F1  UNL d   1       3.766   2.032   2.322  0.00  0.00    -0.096 F 
ATOM      9  I   UNL d   1       1.130   0.283   1.837  0.00  0.00    -0.060 I 
ATOM     10  F2  UNL d   1       1.849  -0.584  -1.159  0.00  0.00    -0.096 F 
ATOM     11  F3  UNL d   1       3.978  -0.016  -2.734  0.00  0.00    -0.097 F 
ATOM     12  F4  UNL d   1       5.999   1.564  -1.806  0.00  0.00    -0.092 F 
ENDROOT
TORSDOF 0
ENDMDL
