MODEL 1
REMARK minimizedAffinity 13.448679
REMARK minimizedRMSD -1
REMARK  0 active torsions:
REMARK  status: ('A' for Active; 'I' for Inactive)
ROOT
ATOM      1  C   UNL d   1       1.185  -3.366  -2.488  0.00  0.00     0.124 A 
ATOM      2  C1  UNL d   1       1.444  -3.162  -1.140  0.00  0.00     0.062 A 
ATOM      3  C2  UNL d   1       0.775  -3.912  -0.177  0.00  0.00     0.162 A 
ATOM      4  C3  UNL d   1      -0.159  -4.875  -0.560  0.00  0.00    -0.034 A 
ATOM      5  C4  UNL d   1      -0.414  -5.074  -1.918  0.00  0.00     0.162 A 
ATOM      6  C5  UNL d   1       0.257  -4.322  -2.876  0.00  0.00     0.062 A 
ATOM      7  F   UNL d   1       0.005  -4.521  -4.178  0.00  0.00    -0.097 F 
ATOM      8  F1  UNL d   1      -1.306  -5.992  -2.320  0.00  0.00    -0.096 F 
ATOM      9  I   UNL d   1      -1.161  -6.000   0.877  0.00  0.00    -0.060 I 
ATOM     10  F2  UNL d   1       1.045  -3.694   1.118  0.00  0.00    -0.096 F 
ATOM     11  F3  UNL d   1       2.340  -2.239  -0.763  0.00  0.00    -0.097 F 
ATOM     12  F4  UNL d   1       1.830  -2.642  -3.412  0.00  0.00    -0.092 F 
ENDROOT
TORSDOF 0
ENDMDL
