MODEL 1
REMARK minimizedAffinity 16.4676094
REMARK minimizedRMSD -1
REMARK  0 active torsions:
REMARK  status: ('A' for Active; 'I' for Inactive)
ROOT
ATOM      1  C   UNL d   1       4.968   1.439  -0.133  0.00  0.00     0.124 A 
ATOM      2  C1  UNL d   1       4.853   1.983   1.139  0.00  0.00     0.062 A 
ATOM      3  C2  UNL d   1       3.782   1.632   1.955  0.00  0.00     0.162 A 
ATOM      4  C3  UNL d   1       2.817   0.731   1.503  0.00  0.00    -0.034 A 
ATOM      5  C4  UNL d   1       2.939   0.189   0.222  0.00  0.00     0.162 A 
ATOM      6  C5  UNL d   1       4.012   0.543  -0.590  0.00  0.00     0.062 A 
ATOM      7  F   UNL d   1       4.122   0.017  -1.818  0.00  0.00    -0.097 F 
ATOM      8  F1  UNL d   1       2.030  -0.679  -0.244  0.00  0.00    -0.096 F 
ATOM      9  I   UNL d   1       1.214   0.204   2.721  0.00  0.00    -0.060 I 
ATOM     10  F2  UNL d   1       3.695   2.173   3.180  0.00  0.00    -0.096 F 
ATOM     11  F3  UNL d   1       5.775   2.849   1.582  0.00  0.00    -0.097 F 
ATOM     12  F4  UNL d   1       5.999   1.779  -0.917  0.00  0.00    -0.092 F 
ENDROOT
TORSDOF 0
ENDMDL
