MODEL 1
REMARK minimizedAffinity 14.019084
REMARK minimizedRMSD -1
REMARK  0 active torsions:
REMARK  status: ('A' for Active; 'I' for Inactive)
ROOT
ATOM      1  C   UNL d   1       3.467  -0.816  -0.678  0.00  0.00     0.124 A 
ATOM      2  C1  UNL d   1       2.538  -1.421   0.156  0.00  0.00     0.062 A 
ATOM      3  C2  UNL d   1       1.749  -2.466  -0.316  0.00  0.00     0.162 A 
ATOM      4  C3  UNL d   1       1.887  -2.914  -1.629  0.00  0.00    -0.034 A 
ATOM      5  C4  UNL d   1       2.824  -2.300  -2.463  0.00  0.00     0.162 A 
ATOM      6  C5  UNL d   1       3.610  -1.256  -1.986  0.00  0.00     0.062 A 
ATOM      7  F   UNL d   1       4.508  -0.673  -2.794  0.00  0.00    -0.097 F 
ATOM      8  F1  UNL d   1       2.983  -2.706  -3.731  0.00  0.00    -0.096 F 
ATOM      9  I   UNL d   1       0.710  -4.477  -2.339  0.00  0.00    -0.060 I 
ATOM     10  F2  UNL d   1       0.859  -3.032   0.513  0.00  0.00    -0.096 F 
ATOM     11  F3  UNL d   1       2.397  -0.997   1.421  0.00  0.00    -0.097 F 
ATOM     12  F4  UNL d   1       4.224   0.190  -0.221  0.00  0.00    -0.092 F 
ENDROOT
TORSDOF 0
ENDMDL
