MODEL 1
REMARK minimizedAffinity 22.6497726
REMARK minimizedRMSD -1
REMARK  0 active torsions:
REMARK  status: ('A' for Active; 'I' for Inactive)
ROOT
ATOM      1  C   UNL d   1       2.638  -2.208  -2.726  0.00  0.00     0.124 A 
ATOM      2  C1  UNL d   1       3.264  -1.210  -1.993  0.00  0.00     0.062 A 
ATOM      3  C2  UNL d   1       3.092  -1.141  -0.614  0.00  0.00     0.162 A 
ATOM      4  C3  UNL d   1       2.290  -2.075   0.042  0.00  0.00    -0.034 A 
ATOM      5  C4  UNL d   1       1.662  -3.076  -0.702  0.00  0.00     0.162 A 
ATOM      6  C5  UNL d   1       1.838  -3.140  -2.081  0.00  0.00     0.062 A 
ATOM      7  F   UNL d   1       1.232  -4.105  -2.787  0.00  0.00    -0.097 F 
ATOM      8  F1  UNL d   1       0.884  -3.990  -0.103  0.00  0.00    -0.096 F 
ATOM      9  I   UNL d   1       2.029  -1.977   2.105  0.00  0.00    -0.060 I 
ATOM     10  F2  UNL d   1       3.709  -0.166   0.069  0.00  0.00    -0.096 F 
ATOM     11  F3  UNL d   1       4.037  -0.307  -2.615  0.00  0.00    -0.097 F 
ATOM     12  F4  UNL d   1       2.805  -2.271  -4.054  0.00  0.00    -0.092 F 
ENDROOT
TORSDOF 0
ENDMDL
