MODEL 1
REMARK minimizedAffinity 32.7262306
REMARK minimizedRMSD -1
REMARK  0 active torsions:
REMARK  status: ('A' for Active; 'I' for Inactive)
ROOT
ATOM      1  C   UNL d   1       3.389   0.720   0.312  0.00  0.00     0.124 A 
ATOM      2  C1  UNL d   1       2.337  -0.019  -0.212  0.00  0.00     0.062 A 
ATOM      3  C2  UNL d   1       2.513  -0.758  -1.378  0.00  0.00     0.162 A 
ATOM      4  C3  UNL d   1       3.747  -0.762  -2.029  0.00  0.00    -0.034 A 
ATOM      5  C4  UNL d   1       4.800  -0.016  -1.497  0.00  0.00     0.162 A 
ATOM      6  C5  UNL d   1       4.619   0.721  -0.331  0.00  0.00     0.062 A 
ATOM      7  F   UNL d   1       5.636   1.435   0.173  0.00  0.00    -0.097 F 
ATOM      8  F1  UNL d   1       5.999   0.002  -2.097  0.00  0.00    -0.096 F 
ATOM      9  I   UNL d   1       4.014  -1.866  -3.773  0.00  0.00    -0.060 I 
ATOM     10  F2  UNL d   1       1.479  -1.463  -1.861  0.00  0.00    -0.096 F 
ATOM     11  F3  UNL d   1       1.148  -0.021   0.407  0.00  0.00    -0.097 F 
ATOM     12  F4  UNL d   1       3.216   1.431   1.434  0.00  0.00    -0.092 F 
ENDROOT
TORSDOF 0
ENDMDL
