MODEL 1
REMARK minimizedAffinity 23.4302788
REMARK minimizedRMSD -1
REMARK  0 active torsions:
REMARK  status: ('A' for Active; 'I' for Inactive)
ROOT
ATOM      1  C   UNL d   1       4.764  -2.082  -3.180  0.00  0.00     0.124 A 
ATOM      2  C1  UNL d   1       3.765  -3.018  -3.406  0.00  0.00     0.062 A 
ATOM      3  C2  UNL d   1       2.482  -2.806  -2.910  0.00  0.00     0.162 A 
ATOM      4  C3  UNL d   1       2.190  -1.651  -2.184  0.00  0.00    -0.034 A 
ATOM      5  C4  UNL d   1       3.201  -0.715  -1.960  0.00  0.00     0.162 A 
ATOM      6  C5  UNL d   1       4.481  -0.931  -2.458  0.00  0.00     0.062 A 
ATOM      7  F   UNL d   1       5.446  -0.026  -2.239  0.00  0.00    -0.097 F 
ATOM      8  F1  UNL d   1       2.954   0.406  -1.266  0.00  0.00    -0.096 F 
ATOM      9  I   UNL d   1       0.273  -1.330  -1.440  0.00  0.00    -0.060 I 
ATOM     10  F2  UNL d   1       1.536  -3.728  -3.143  0.00  0.00    -0.096 F 
ATOM     11  F3  UNL d   1       4.036  -4.131  -4.103  0.00  0.00    -0.097 F 
ATOM     12  F4  UNL d   1       5.998  -2.289  -3.658  0.00  0.00    -0.092 F 
ENDROOT
TORSDOF 0
ENDMDL
