MODEL 1
REMARK minimizedAffinity 16.1039257
REMARK minimizedRMSD -1
REMARK  0 active torsions:
REMARK  status: ('A' for Active; 'I' for Inactive)
ROOT
ATOM      1  C4' PXY d   1       4.565   1.462   3.071  0.00  0.00     0.077 C 
ATOM      2  C1' PXY d   1       1.790   0.349  -1.877  0.00  0.00     0.077 C 
ATOM      3  C1  PXY d   1       2.520   0.653  -0.583  0.00  0.00    -0.082 A 
ATOM      4  C2  PXY d   1       3.076  -0.333   0.102  0.00  0.00     0.003 A 
ATOM      5  C3  PXY d   1       3.712  -0.080   1.290  0.00  0.00     0.003 A 
ATOM      6  C4  PXY d   1       3.827   1.203   1.755  0.00  0.00    -0.082 A 
ATOM      7  C5  PXY d   1       3.272   2.216   1.056  0.00  0.00     0.003 A 
ATOM      8  C6  PXY d   1       2.595   1.933  -0.126  0.00  0.00     0.003 A 
ENDROOT
TORSDOF 0
ENDMDL
