MODEL 1
REMARK minimizedAffinity 16.9553146
REMARK minimizedRMSD -1
REMARK  0 active torsions:
REMARK  status: ('A' for Active; 'I' for Inactive)
ROOT
ATOM      1  C4' PXY d   1       4.456   3.678   0.955  0.00  0.00     0.077 C 
ATOM      2  C1' PXY d   1       2.324  -0.373  -2.574  0.00  0.00     0.077 C 
ATOM      3  C1  PXY d   1       2.871   0.695  -1.647  0.00  0.00    -0.082 A 
ATOM      4  C2  PXY d   1       4.154   1.013  -1.702  0.00  0.00     0.003 A 
ATOM      5  C3  PXY d   1       4.672   1.954  -0.850  0.00  0.00     0.003 A 
ATOM      6  C4  PXY d   1       3.858   2.613   0.032  0.00  0.00    -0.082 A 
ATOM      7  C5  PXY d   1       2.546   2.301   0.086  0.00  0.00     0.003 A 
ATOM      8  C6  PXY d   1       2.048   1.314  -0.759  0.00  0.00     0.003 A 
ENDROOT
TORSDOF 0
ENDMDL
