MODEL 1
REMARK minimizedAffinity 13.9496794
REMARK minimizedRMSD -1
REMARK  0 active torsions:
REMARK  status: ('A' for Active; 'I' for Inactive)
ROOT
ATOM      1  C4' PXY d   1       3.204   2.492   0.478  0.00  0.00     0.077 C 
ATOM      2  C1' PXY d   1       0.630  -0.991  -3.349  0.00  0.00     0.077 C 
ATOM      3  C1  PXY d   1       1.314  -0.074  -2.355  0.00  0.00    -0.082 A 
ATOM      4  C2  PXY d   1       1.159  -0.285  -1.058  0.00  0.00     0.003 A 
ATOM      5  C3  PXY d   1       1.745   0.553  -0.144  0.00  0.00     0.003 A 
ATOM      6  C4  PXY d   1       2.540   1.587  -0.562  0.00  0.00    -0.082 A 
ATOM      7  C5  PXY d   1       2.711   1.802  -1.884  0.00  0.00     0.003 A 
ATOM      8  C6  PXY d   1       2.075   0.964  -2.795  0.00  0.00     0.003 A 
ENDROOT
TORSDOF 0
ENDMDL
