MODEL 1
REMARK minimizedAffinity 12.3953199
REMARK minimizedRMSD -1
REMARK  0 active torsions:
REMARK  status: ('A' for Active; 'I' for Inactive)
ROOT
ATOM      1  C4' PXY d   1      -0.670  -1.722  -1.948  0.00  0.00     0.077 C 
ATOM      2  C1' PXY d   1      -2.643  -2.563   3.420  0.00  0.00     0.077 C 
ATOM      3  C1  PXY d   1      -2.114  -2.347   2.016  0.00  0.00    -0.082 A 
ATOM      4  C2  PXY d   1      -2.704  -1.467   1.223  0.00  0.00     0.003 A 
ATOM      5  C3  PXY d   1      -2.258  -1.282  -0.061  0.00  0.00     0.003 A 
ATOM      6  C4  PXY d   1      -1.164  -1.966  -0.520  0.00  0.00    -0.082 A 
ATOM      7  C5  PXY d   1      -0.550  -2.858   0.287  0.00  0.00     0.003 A 
ATOM      8  C6  PXY d   1      -1.043  -3.061   1.573  0.00  0.00     0.003 A 
ENDROOT
TORSDOF 0
ENDMDL
