MODEL 1
REMARK minimizedAffinity 10.4669437
REMARK minimizedRMSD -1
REMARK  0 active torsions:
REMARK  status: ('A' for Active; 'I' for Inactive)
ROOT
ATOM      1  C4' PXY d   1      -1.840   2.065  -4.269  0.00  0.00     0.077 C 
ATOM      2  C1' PXY d   1      -5.941   5.950  -5.496  0.00  0.00     0.077 C 
ATOM      3  C1  PXY d   1      -4.873   4.921  -5.178  0.00  0.00    -0.082 A 
ATOM      4  C2  PXY d   1      -3.948   5.197  -4.273  0.00  0.00     0.003 A 
ATOM      5  C3  PXY d   1      -2.957   4.291  -3.997  0.00  0.00     0.003 A 
ATOM      6  C4  PXY d   1      -2.943   3.069  -4.615  0.00  0.00    -0.082 A 
ATOM      7  C5  PXY d   1      -3.889   2.777  -5.532  0.00  0.00     0.003 A 
ATOM      8  C6  PXY d   1      -4.863   3.726  -5.828  0.00  0.00     0.003 A 
ENDROOT
TORSDOF 0
ENDMDL
