MODEL 1
REMARK minimizedAffinity 13.1170092
REMARK minimizedRMSD -1
REMARK  0 active torsions:
REMARK  status: ('A' for Active; 'I' for Inactive)
ROOT
ATOM      1  C4' PXY d   1      -3.990   5.890  -2.332  0.00  0.00     0.077 C 
ATOM      2  C1' PXY d   1      -5.979   3.785   2.670  0.00  0.00     0.077 C 
ATOM      3  C1  PXY d   1      -5.469   4.343   1.357  0.00  0.00    -0.082 A 
ATOM      4  C2  PXY d   1      -4.501   3.714   0.710  0.00  0.00     0.003 A 
ATOM      5  C3  PXY d   1      -4.005   4.223  -0.463  0.00  0.00     0.003 A 
ATOM      6  C4  PXY d   1      -4.543   5.358  -1.007  0.00  0.00    -0.082 A 
ATOM      7  C5  PXY d   1      -5.538   6.000  -0.360  0.00  0.00     0.003 A 
ATOM      8  C6  PXY d   1      -5.999   5.490   0.851  0.00  0.00     0.003 A 
ENDROOT
TORSDOF 0
ENDMDL
