MODEL 1
REMARK minimizedAffinity 18.1447163
REMARK minimizedRMSD -1
REMARK  0 active torsions:
REMARK  status: ('A' for Active; 'I' for Inactive)
ROOT
ATOM      1  C4' PXY d   1       4.865   5.999   1.197  0.00  0.00     0.077 C 
ATOM      2  C1' PXY d   1       5.329   1.680  -2.616  0.00  0.00     0.077 C 
ATOM      3  C1  PXY d   1       5.194   2.809  -1.614  0.00  0.00    -0.082 A 
ATOM      4  C2  PXY d   1       6.000   3.856  -1.696  0.00  0.00     0.003 A 
ATOM      5  C3  PXY d   1       5.914   4.871  -0.779  0.00  0.00     0.003 A 
ATOM      6  C4  PXY d   1       4.958   4.840   0.201  0.00  0.00    -0.082 A 
ATOM      7  C5  PXY d   1       4.125   3.781   0.285  0.00  0.00     0.003 A 
ATOM      8  C6  PXY d   1       4.256   2.741  -0.631  0.00  0.00     0.003 A 
ENDROOT
TORSDOF 0
ENDMDL
