MODEL 1
REMARK minimizedAffinity 10.486475
REMARK minimizedRMSD -1
REMARK  0 active torsions:
REMARK  status: ('A' for Active; 'I' for Inactive)
ROOT
ATOM      1  C4' PXY d   1      -2.705   1.397  -4.484  0.00  0.00     0.077 C 
ATOM      2  C1' PXY d   1      -5.994   6.000  -5.671  0.00  0.00     0.077 C 
ATOM      3  C1  PXY d   1      -5.141   4.785  -5.364  0.00  0.00    -0.082 A 
ATOM      4  C2  PXY d   1      -4.160   4.881  -4.482  0.00  0.00     0.003 A 
ATOM      5  C3  PXY d   1      -3.358   3.800  -4.215  0.00  0.00     0.003 A 
ATOM      6  C4  PXY d   1      -3.597   2.595  -4.819  0.00  0.00    -0.082 A 
ATOM      7  C5  PXY d   1      -4.603   2.486  -5.713  0.00  0.00     0.003 A 
ATOM      8  C6  PXY d   1      -5.379   3.606  -5.999  0.00  0.00     0.003 A 
ENDROOT
TORSDOF 0
ENDMDL
