MODEL 1
REMARK minimizedAffinity 20.4711838
REMARK minimizedRMSD -1
REMARK  0 active torsions:
REMARK  status: ('A' for Active; 'I' for Inactive)
ROOT
ATOM      1  C4' PXY d   1      -2.443  -1.528   2.424  0.00  0.00     0.077 C 
ATOM      2  C1' PXY d   1      -0.891  -2.348  -3.083  0.00  0.00     0.077 C 
ATOM      3  C1  PXY d   1      -1.306  -2.123  -1.643  0.00  0.00    -0.082 A 
ATOM      4  C2  PXY d   1      -0.499  -2.499  -0.664  0.00  0.00     0.003 A 
ATOM      5  C3  PXY d   1      -0.873  -2.333   0.645  0.00  0.00     0.003 A 
ATOM      6  C4  PXY d   1      -2.061  -1.727   0.955  0.00  0.00    -0.082 A 
ATOM      7  C5  PXY d   1      -2.885  -1.330  -0.038  0.00  0.00     0.003 A 
ATOM      8  C6  PXY d   1      -2.505  -1.546  -1.360  0.00  0.00     0.003 A 
ENDROOT
TORSDOF 0
ENDMDL
