MODEL 1
REMARK minimizedAffinity 4.35222626
REMARK minimizedRMSD -1
REMARK  0 active torsions:
REMARK  status: ('A' for Active; 'I' for Inactive)
ROOT
ATOM      1  C4' PXY d   1      -4.128   5.959  -2.845  0.00  0.00     0.077 C 
ATOM      2  C1' PXY d   1      -5.933   3.888   2.241  0.00  0.00     0.077 C 
ATOM      3  C1  PXY d   1      -5.448   4.425   0.909  0.00  0.00    -0.082 A 
ATOM      4  C2  PXY d   1      -5.997   5.518   0.405  0.00  0.00     0.003 A 
ATOM      5  C3  PXY d   1      -5.593   6.000  -0.814  0.00  0.00     0.003 A 
ATOM      6  C4  PXY d   1      -4.579   5.386  -1.499  0.00  0.00    -0.082 A 
ATOM      7  C5  PXY d   1      -4.006   4.276  -0.987  0.00  0.00     0.003 A 
ATOM      8  C6  PXY d   1      -4.459   3.780   0.232  0.00  0.00     0.003 A 
ENDROOT
TORSDOF 0
ENDMDL
