MODEL 1
REMARK minimizedAffinity 19.1184006
REMARK minimizedRMSD -1
REMARK  0 active torsions:
REMARK  status: ('A' for Active; 'I' for Inactive)
ROOT
ATOM      1  C4' PXY d   1       3.978   3.884   1.050  0.00  0.00     0.077 C 
ATOM      2  C1' PXY d   1       1.658   0.022  -2.571  0.00  0.00     0.077 C 
ATOM      3  C1  PXY d   1       2.276   1.026  -1.619  0.00  0.00    -0.082 A 
ATOM      4  C2  PXY d   1       1.524   1.981  -1.097  0.00  0.00     0.003 A 
ATOM      5  C3  PXY d   1       2.073   2.917  -0.259  0.00  0.00     0.003 A 
ATOM      6  C4  PXY d   1       3.395   2.843   0.091  0.00  0.00    -0.082 A 
ATOM      7  C5  PXY d   1       4.167   1.864  -0.429  0.00  0.00     0.003 A 
ATOM      8  C6  PXY d   1       3.599   0.949  -1.310  0.00  0.00     0.003 A 
ENDROOT
TORSDOF 0
ENDMDL
