MODEL 1
REMARK minimizedAffinity 13.198123
REMARK minimizedRMSD -1
REMARK  0 active torsions:
REMARK  status: ('A' for Active; 'I' for Inactive)
ROOT
ATOM      1  C4' PXY d   1      -2.700   1.170  -4.673  0.00  0.00     0.077 C 
ATOM      2  C1' PXY d   1      -5.798   6.000  -5.376  0.00  0.00     0.077 C 
ATOM      3  C1  PXY d   1      -4.976   4.740  -5.185  0.00  0.00    -0.082 A 
ATOM      4  C2  PXY d   1      -5.159   3.711  -5.997  0.00  0.00     0.003 A 
ATOM      5  C3  PXY d   1      -4.448   2.553  -5.819  0.00  0.00     0.003 A 
ATOM      6  C4  PXY d   1      -3.501   2.465  -4.834  0.00  0.00    -0.082 A 
ATOM      7  C5  PXY d   1      -3.300   3.515  -4.009  0.00  0.00     0.003 A 
ATOM      8  C6  PXY d   1      -4.062   4.667  -4.180  0.00  0.00     0.003 A 
ENDROOT
TORSDOF 0
ENDMDL
