MODEL 1
REMARK minimizedAffinity 13.4561901
REMARK minimizedRMSD -1
REMARK  0 active torsions:
REMARK  status: ('A' for Active; 'I' for Inactive)
ROOT
ATOM      1  C4' PXY d   1      -2.930  -0.284  -2.889  0.00  0.00     0.077 C 
ATOM      2  C1' PXY d   1       0.047  -3.551   0.836  0.00  0.00     0.077 C 
ATOM      3  C1  PXY d   1      -0.744  -2.695  -0.133  0.00  0.00    -0.082 A 
ATOM      4  C2  PXY d   1      -0.357  -2.608  -1.395  0.00  0.00     0.003 A 
ATOM      5  C3  PXY d   1      -1.042  -1.814  -2.278  0.00  0.00     0.003 A 
ATOM      6  C4  PXY d   1      -2.167  -1.144  -1.878  0.00  0.00    -0.082 A 
ATOM      7  C5  PXY d   1      -2.575  -1.236  -0.594  0.00  0.00     0.003 A 
ATOM      8  C6  PXY d   1      -1.842  -2.015   0.296  0.00  0.00     0.003 A 
ENDROOT
TORSDOF 0
ENDMDL
