MODEL 1
REMARK minimizedAffinity 5.68585396
REMARK minimizedRMSD -1
REMARK  0 active torsions:
REMARK  status: ('A' for Active; 'I' for Inactive)
ROOT
ATOM      1  C4' PXY d   1      -0.668   1.768  -4.900  0.00  0.00     0.077 C 
ATOM      2  C1' PXY d   1      -5.576   4.801  -5.255  0.00  0.00     0.077 C 
ATOM      3  C1  PXY d   1      -4.295   3.995  -5.167  0.00  0.00    -0.082 A 
ATOM      4  C2  PXY d   1      -3.370   4.332  -4.283  0.00  0.00     0.003 A 
ATOM      5  C3  PXY d   1      -2.192   3.634  -4.212  0.00  0.00     0.003 A 
ATOM      6  C4  PXY d   1      -1.981   2.547  -5.018  0.00  0.00    -0.082 A 
ATOM      7  C5  PXY d   1      -2.925   2.190  -5.914  0.00  0.00     0.003 A 
ATOM      8  C6  PXY d   1      -4.096   2.937  -5.999  0.00  0.00     0.003 A 
ENDROOT
TORSDOF 0
ENDMDL
