MODEL 1
REMARK minimizedAffinity 10.0977659
REMARK minimizedRMSD -1
REMARK  0 active torsions:
REMARK  status: ('A' for Active; 'I' for Inactive)
ROOT
ATOM      1  C4' PXY d   1      -2.212  -2.953   2.699  0.00  0.00     0.077 C 
ATOM      2  C1' PXY d   1      -0.410  -1.583  -2.620  0.00  0.00     0.077 C 
ATOM      3  C1  PXY d   1      -0.877  -1.954  -1.226  0.00  0.00    -0.082 A 
ATOM      4  C2  PXY d   1      -1.914  -1.326  -0.695  0.00  0.00     0.003 A 
ATOM      5  C3  PXY d   1      -2.329  -1.627   0.577  0.00  0.00     0.003 A 
ATOM      6  C4  PXY d   1      -1.711  -2.618   1.291  0.00  0.00    -0.082 A 
ATOM      7  C5  PXY d   1      -0.660  -3.271   0.752  0.00  0.00     0.003 A 
ATOM      8  C6  PXY d   1      -0.228  -2.922  -0.524  0.00  0.00     0.003 A 
ENDROOT
TORSDOF 0
ENDMDL
