MODEL 1
REMARK minimizedAffinity 11.925519
REMARK minimizedRMSD -1
REMARK  0 active torsions:
REMARK  status: ('A' for Active; 'I' for Inactive)
ROOT
ATOM      1  C4' PXY d   1      -0.218  -3.375   0.783  0.00  0.00     0.077 C 
ATOM      2  C1' PXY d   1      -2.811  -0.040  -3.163  0.00  0.00     0.077 C 
ATOM      3  C1  PXY d   1      -2.136  -0.907  -2.118  0.00  0.00    -0.082 A 
ATOM      4  C2  PXY d   1      -1.093  -1.647  -2.458  0.00  0.00     0.003 A 
ATOM      5  C3  PXY d   1      -0.490  -2.461  -1.534  0.00  0.00     0.003 A 
ATOM      6  C4  PXY d   1      -0.925  -2.478  -0.236  0.00  0.00    -0.082 A 
ATOM      7  C5  PXY d   1      -1.982  -1.717   0.121  0.00  0.00     0.003 A 
ATOM      8  C6  PXY d   1      -2.606  -0.929  -0.842  0.00  0.00     0.003 A 
ENDROOT
TORSDOF 0
ENDMDL
