MODEL 1
REMARK minimizedAffinity 9.31773949
REMARK minimizedRMSD -1
REMARK  0 active torsions:
REMARK  status: ('A' for Active; 'I' for Inactive)
ROOT
ATOM      1  C4' PXY d   1      -1.988  -1.265  -1.654  0.00  0.00     0.077 C 
ATOM      2  C1' PXY d   1       3.508   0.125  -2.786  0.00  0.00     0.077 C 
ATOM      3  C1  PXY d   1       2.064  -0.239  -2.502  0.00  0.00    -0.082 A 
ATOM      4  C2  PXY d   1       1.555  -0.010  -1.302  0.00  0.00     0.003 A 
ATOM      5  C3  PXY d   1       0.261  -0.362  -1.018  0.00  0.00     0.003 A 
ATOM      6  C4  PXY d   1      -0.538  -0.905  -1.989  0.00  0.00    -0.082 A 
ATOM      7  C5  PXY d   1      -0.030  -1.132  -3.219  0.00  0.00     0.003 A 
ATOM      8  C6  PXY d   1       1.299  -0.805  -3.475  0.00  0.00     0.003 A 
ENDROOT
TORSDOF 0
ENDMDL
