MODEL 1
REMARK minimizedAffinity 14.0357761
REMARK minimizedRMSD -1
REMARK  0 active torsions:
REMARK  status: ('A' for Active; 'I' for Inactive)
ROOT
ATOM      1  C4' PXY d   1      -2.592  -2.247   2.969  0.00  0.00     0.077 C 
ATOM      2  C1' PXY d   1      -0.661  -1.799  -2.461  0.00  0.00     0.077 C 
ATOM      3  C1  PXY d   1      -1.172  -1.904  -1.037  0.00  0.00    -0.082 A 
ATOM      4  C2  PXY d   1      -0.628  -2.783  -0.211  0.00  0.00     0.003 A 
ATOM      5  C3  PXY d   1      -1.100  -2.914   1.070  0.00  0.00     0.003 A 
ATOM      6  C4  PXY d   1      -2.102  -2.099   1.526  0.00  0.00    -0.082 A 
ATOM      7  C5  PXY d   1      -2.654  -1.193   0.692  0.00  0.00     0.003 A 
ATOM      8  C6  PXY d   1      -2.189  -1.104  -0.617  0.00  0.00     0.003 A 
ENDROOT
TORSDOF 0
ENDMDL
