MODEL 1
REMARK minimizedAffinity 4.91727781
REMARK minimizedRMSD -1
REMARK  0 active torsions:
REMARK  status: ('A' for Active; 'I' for Inactive)
ROOT
ATOM      1  C4' PXY d   1      -1.629  -2.217   3.167  0.00  0.00     0.077 C 
ATOM      2  C1' PXY d   1      -1.471  -1.842  -2.599  0.00  0.00     0.077 C 
ATOM      3  C1  PXY d   1      -1.506  -1.952  -1.088  0.00  0.00    -0.082 A 
ATOM      4  C2  PXY d   1      -2.430  -1.295  -0.405  0.00  0.00     0.003 A 
ATOM      5  C3  PXY d   1      -2.457  -1.357   0.964  0.00  0.00     0.003 A 
ATOM      6  C4  PXY d   1      -1.561  -2.143   1.639  0.00  0.00    -0.082 A 
ATOM      7  C5  PXY d   1      -0.623  -2.825   0.950  0.00  0.00     0.003 A 
ATOM      8  C6  PXY d   1      -0.587  -2.716  -0.437  0.00  0.00     0.003 A 
ENDROOT
TORSDOF 0
ENDMDL
