MODEL 1
REMARK minimizedAffinity 20.3511162
REMARK minimizedRMSD -1
REMARK  0 active torsions:
REMARK  status: ('A' for Active; 'I' for Inactive)
ROOT
ATOM      1  C4' PXY d   1       1.779   0.622   5.882  0.00  0.00     0.077 C 
ATOM      2  C1' PXY d   1       4.679   5.621   5.999  0.00  0.00     0.077 C 
ATOM      3  C1  PXY d   1       3.929   4.305   5.963  0.00  0.00    -0.082 A 
ATOM      4  C2  PXY d   1       2.606   4.304   6.000  0.00  0.00     0.003 A 
ATOM      5  C3  PXY d   1       1.913   3.121   6.000  0.00  0.00     0.003 A 
ATOM      6  C4  PXY d   1       2.578   1.928   5.908  0.00  0.00    -0.082 A 
ATOM      7  C5  PXY d   1       3.927   1.921   5.859  0.00  0.00     0.003 A 
ATOM      8  C6  PXY d   1       4.614   3.130   5.902  0.00  0.00     0.003 A 
ENDROOT
TORSDOF 0
ENDMDL
