MODEL 1
REMARK minimizedAffinity 13.4008598
REMARK minimizedRMSD -1
REMARK  0 active torsions:
REMARK  status: ('A' for Active; 'I' for Inactive)
ROOT
ATOM      1  O1  BZF d   1      -2.756  -0.333  -2.681  0.00  0.00    -0.204 OA
ATOM      2  C2  BZF d   1      -1.714  -1.202  -2.418  0.00  0.00     0.174 A 
ATOM      3  C3  BZF d   1      -0.551  -0.710  -2.890  0.00  0.00    -0.012 A 
ATOM      4  C3A BZF d   1      -0.871   0.587  -3.404  0.00  0.00    -0.107 A 
ATOM      5  C4  BZF d   1      -0.131   1.574  -3.990  0.00  0.00     0.055 A 
ATOM      6  C5  BZF d   1      -0.760   2.689  -4.444  0.00  0.00    -0.016 A 
ATOM      7  C6  BZF d   1      -2.126   2.849  -4.333  0.00  0.00     0.022 A 
ATOM      8  C7  BZF d   1      -2.901   1.900  -3.754  0.00  0.00     0.029 A 
ATOM      9  C7A BZF d   1      -2.264   0.786  -3.265  0.00  0.00     0.058 A 
ENDROOT
TORSDOF 0
ENDMDL
