MODEL 1
REMARK minimizedAffinity 23.034893
REMARK minimizedRMSD -1
REMARK  0 active torsions:
REMARK  status: ('A' for Active; 'I' for Inactive)
ROOT
ATOM      1  O1  BZF d   1      -2.695   1.579  -3.514  0.00  0.00    -0.204 OA
ATOM      2  C2  BZF d   1      -3.078   2.754  -4.132  0.00  0.00     0.174 A 
ATOM      3  C3  BZF d   1      -1.999   3.481  -4.487  0.00  0.00    -0.012 A 
ATOM      4  C3A BZF d   1      -0.870   2.670  -4.148  0.00  0.00    -0.107 A 
ATOM      5  C4  BZF d   1       0.479   2.839  -4.274  0.00  0.00     0.055 A 
ATOM      6  C5  BZF d   1       1.313   1.888  -3.777  0.00  0.00    -0.016 A 
ATOM      7  C6  BZF d   1       0.833   0.760  -3.145  0.00  0.00     0.022 A 
ATOM      8  C7  BZF d   1      -0.498   0.546  -3.001  0.00  0.00     0.029 A 
ATOM      9  C7A BZF d   1      -1.344   1.489  -3.531  0.00  0.00     0.058 A 
ENDROOT
TORSDOF 0
ENDMDL
