MODEL 1
REMARK minimizedAffinity 19.5844517
REMARK minimizedRMSD -1
REMARK  0 active torsions:
REMARK  status: ('A' for Active; 'I' for Inactive)
ROOT
ATOM      1  O1  BZF d   1       4.602   5.143   2.148  0.00  0.00    -0.204 OA
ATOM      2  C2  BZF d   1       4.929   6.000   1.115  0.00  0.00     0.174 A 
ATOM      3  C3  BZF d   1       4.709   5.414  -0.080  0.00  0.00    -0.012 A 
ATOM      4  C3A BZF d   1       4.127   4.143   0.226  0.00  0.00    -0.107 A 
ATOM      5  C4  BZF d   1       3.675   3.109  -0.542  0.00  0.00     0.055 A 
ATOM      6  C5  BZF d   1       3.232   1.978   0.067  0.00  0.00    -0.016 A 
ATOM      7  C6  BZF d   1       3.232   1.845   1.440  0.00  0.00     0.022 A 
ATOM      8  C7  BZF d   1       3.667   2.846   2.244  0.00  0.00     0.029 A 
ATOM      9  C7A BZF d   1       4.084   4.003   1.632  0.00  0.00     0.058 A 
ENDROOT
TORSDOF 0
ENDMDL
