MODEL 1
REMARK minimizedAffinity 7.55274677
REMARK minimizedRMSD -1
REMARK  0 active torsions:
REMARK  status: ('A' for Active; 'I' for Inactive)
ROOT
ATOM      1  O1  BZF d   1       5.218   5.156   2.493  0.00  0.00    -0.204 OA
ATOM      2  C2  BZF d   1       5.419   5.947   1.378  0.00  0.00     0.174 A 
ATOM      3  C3  BZF d   1       5.043   5.298   0.257  0.00  0.00    -0.012 A 
ATOM      4  C3A BZF d   1       4.492   4.057   0.707  0.00  0.00    -0.107 A 
ATOM      5  C4  BZF d   1       3.935   2.989   0.064  0.00  0.00     0.055 A 
ATOM      6  C5  BZF d   1       3.562   1.902   0.790  0.00  0.00    -0.016 A 
ATOM      7  C6  BZF d   1       3.736   1.848   2.157  0.00  0.00     0.022 A 
ATOM      8  C7  BZF d   1       4.279   2.884   2.840  0.00  0.00     0.029 A 
ATOM      9  C7A BZF d   1       4.627   3.997   2.114  0.00  0.00     0.058 A 
ENDROOT
TORSDOF 0
ENDMDL
