MODEL 1
REMARK minimizedAffinity 18.8619118
REMARK minimizedRMSD -1
REMARK  0 active torsions:
REMARK  status: ('A' for Active; 'I' for Inactive)
ROOT
ATOM      1  O1  BZF d   1      -0.409  -4.925  -0.924  0.00  0.00    -0.204 OA
ATOM      2  C2  BZF d   1      -0.302  -4.600   0.414  0.00  0.00     0.174 A 
ATOM      3  C3  BZF d   1      -0.576  -3.294   0.612  0.00  0.00    -0.012 A 
ATOM      4  C3A BZF d   1      -0.963  -2.792  -0.670  0.00  0.00    -0.107 A 
ATOM      5  C4  BZF d   1      -1.367  -1.566  -1.116  0.00  0.00     0.055 A 
ATOM      6  C5  BZF d   1      -1.601  -1.390  -2.443  0.00  0.00    -0.016 A 
ATOM      7  C6  BZF d   1      -1.437  -2.414  -3.351  0.00  0.00     0.022 A 
ATOM      8  C7  BZF d   1      -1.042  -3.649  -2.956  0.00  0.00     0.029 A 
ATOM      9  C7A BZF d   1      -0.837  -3.840  -1.612  0.00  0.00     0.058 A 
ENDROOT
TORSDOF 0
ENDMDL
