MODEL 1
REMARK minimizedAffinity 16.7928391
REMARK minimizedRMSD -1
REMARK  0 active torsions:
REMARK  status: ('A' for Active; 'I' for Inactive)
ROOT
ATOM      1  O1  BZF d   1       2.175   0.915  -3.498  0.00  0.00    -0.204 OA
ATOM      2  C2  BZF d   1       1.835  -0.363  -3.097  0.00  0.00     0.174 A 
ATOM      3  C3  BZF d   1       0.496  -0.525  -3.103  0.00  0.00    -0.012 A 
ATOM      4  C3A BZF d   1      -0.030   0.700  -3.624  0.00  0.00    -0.107 A 
ATOM      5  C4  BZF d   1      -1.295   1.143  -3.885  0.00  0.00     0.055 A 
ATOM      6  C5  BZF d   1      -1.471   2.418  -4.321  0.00  0.00    -0.016 A 
ATOM      7  C6  BZF d   1      -0.407   3.277  -4.501  0.00  0.00     0.022 A 
ATOM      8  C7  BZF d   1       0.867   2.882  -4.260  0.00  0.00     0.029 A 
ATOM      9  C7A BZF d   1       1.051   1.583  -3.851  0.00  0.00     0.058 A 
ENDROOT
TORSDOF 0
ENDMDL
