MODEL 1
REMARK minimizedAffinity 23.7525997
REMARK minimizedRMSD -1
REMARK  0 active torsions:
REMARK  status: ('A' for Active; 'I' for Inactive)
ROOT
ATOM      1  O1  BZF d   1      -5.940   4.832  -5.759  0.00  0.00    -0.204 OA
ATOM      2  C2  BZF d   1      -5.887   5.996  -5.017  0.00  0.00     0.174 A 
ATOM      3  C3  BZF d   1      -4.807   6.000  -4.209  0.00  0.00    -0.012 A 
ATOM      4  C3A BZF d   1      -4.093   4.802  -4.530  0.00  0.00    -0.107 A 
ATOM      5  C4  BZF d   1      -2.929   4.253  -4.074  0.00  0.00     0.055 A 
ATOM      6  C5  BZF d   1      -2.546   3.035  -4.541  0.00  0.00    -0.016 A 
ATOM      7  C6  BZF d   1      -3.304   2.338  -5.459  0.00  0.00     0.022 A 
ATOM      8  C7  BZF d   1      -4.464   2.845  -5.944  0.00  0.00     0.029 A 
ATOM      9  C7A BZF d   1      -4.837   4.089  -5.498  0.00  0.00     0.058 A 
ENDROOT
TORSDOF 0
ENDMDL
