MODEL 1
REMARK minimizedAffinity 13.0642033
REMARK minimizedRMSD -1
REMARK  0 active torsions:
REMARK  status: ('A' for Active; 'I' for Inactive)
ROOT
ATOM      1  O1  BZF d   1      -1.980   2.508  -4.078  0.00  0.00    -0.204 OA
ATOM      2  C2  BZF d   1      -0.979   3.255  -4.669  0.00  0.00     0.174 A 
ATOM      3  C3  BZF d   1       0.201   2.605  -4.613  0.00  0.00    -0.012 A 
ATOM      4  C3A BZF d   1      -0.098   1.334  -4.027  0.00  0.00    -0.107 A 
ATOM      5  C4  BZF d   1       0.659   0.238  -3.724  0.00  0.00     0.055 A 
ATOM      6  C5  BZF d   1       0.076  -0.813  -3.091  0.00  0.00    -0.016 A 
ATOM      7  C6  BZF d   1      -1.259  -0.801  -2.742  0.00  0.00     0.022 A 
ATOM      8  C7  BZF d   1      -2.051   0.261  -3.027  0.00  0.00     0.029 A 
ATOM      9  C7A BZF d   1      -1.473   1.312  -3.696  0.00  0.00     0.058 A 
ENDROOT
TORSDOF 0
ENDMDL
