MODEL 1
REMARK minimizedAffinity 11.4105349
REMARK minimizedRMSD -1
REMARK  0 active torsions:
REMARK  status: ('A' for Active; 'I' for Inactive)
ROOT
ATOM      1  O1  BZF d   1      -0.383  -5.760  -1.064  0.00  0.00    -0.204 OA
ATOM      2  C2  BZF d   1      -0.293  -6.000   0.293  0.00  0.00     0.174 A 
ATOM      3  C3  BZF d   1      -0.557  -4.879   0.996  0.00  0.00    -0.012 A 
ATOM      4  C3A BZF d   1      -0.919  -3.899   0.018  0.00  0.00    -0.107 A 
ATOM      5  C4  BZF d   1      -1.304  -2.591   0.098  0.00  0.00     0.055 A 
ATOM      6  C5  BZF d   1      -1.516  -1.894  -1.049  0.00  0.00    -0.016 A 
ATOM      7  C6  BZF d   1      -1.348  -2.471  -2.291  0.00  0.00     0.022 A 
ATOM      8  C7  BZF d   1      -0.972  -3.766  -2.420  0.00  0.00     0.029 A 
ATOM      9  C7A BZF d   1      -0.789  -4.483  -1.263  0.00  0.00     0.058 A 
ENDROOT
TORSDOF 0
ENDMDL
