MODEL 1
REMARK minimizedAffinity 15.1870623
REMARK minimizedRMSD -1
REMARK  0 active torsions:
REMARK  status: ('A' for Active; 'I' for Inactive)
ROOT
ATOM      1  O1  BZF d   1      -2.677   4.308  -5.957  0.00  0.00    -0.204 OA
ATOM      2  C2  BZF d   1      -3.762   4.129  -5.121  0.00  0.00     0.174 A 
ATOM      3  C3  BZF d   1      -3.477   3.234  -4.152  0.00  0.00    -0.012 A 
ATOM      4  C3A BZF d   1      -2.100   2.898  -4.343  0.00  0.00    -0.107 A 
ATOM      5  C4  BZF d   1      -1.235   2.071  -3.686  0.00  0.00     0.055 A 
ATOM      6  C5  BZF d   1       0.024   1.911  -4.170  0.00  0.00    -0.016 A 
ATOM      7  C6  BZF d   1       0.450   2.559  -5.312  0.00  0.00     0.022 A 
ATOM      8  C7  BZF d   1      -0.370   3.393  -5.996  0.00  0.00     0.029 A 
ATOM      9  C7A BZF d   1      -1.633   3.582  -5.490  0.00  0.00     0.058 A 
ENDROOT
TORSDOF 0
ENDMDL
