MODEL 1
REMARK minimizedAffinity 7.98602486
REMARK minimizedRMSD -1
REMARK  0 active torsions:
REMARK  status: ('A' for Active; 'I' for Inactive)
ROOT
ATOM      1  O1  BZF d   1      -1.131  -5.384   1.901  0.00  0.00    -0.204 OA
ATOM      2  C2  BZF d   1      -0.586  -5.948   0.764  0.00  0.00     0.174 A 
ATOM      3  C3  BZF d   1      -0.635  -5.083  -0.270  0.00  0.00    -0.012 A 
ATOM      4  C3A BZF d   1      -1.166  -3.872   0.277  0.00  0.00    -0.107 A 
ATOM      5  C4  BZF d   1      -1.437  -2.643  -0.251  0.00  0.00     0.055 A 
ATOM      6  C5  BZF d   1      -2.019  -1.699   0.535  0.00  0.00    -0.016 A 
ATOM      7  C6  BZF d   1      -2.347  -1.953   1.851  0.00  0.00     0.022 A 
ATOM      8  C7  BZF d   1      -2.093  -3.155   2.421  0.00  0.00     0.029 A 
ATOM      9  C7A BZF d   1      -1.475  -4.100   1.638  0.00  0.00     0.058 A 
ENDROOT
TORSDOF 0
ENDMDL
