MODEL 1
REMARK minimizedAffinity 4.69171906
REMARK minimizedRMSD -1
REMARK  0 active torsions:
REMARK  status: ('A' for Active; 'I' for Inactive)
ROOT
ATOM      1  O1  BZF d   1      -2.628   1.446  -3.711  0.00  0.00    -0.204 OA
ATOM      2  C2  BZF d   1      -1.568   0.723  -3.200  0.00  0.00     0.174 A 
ATOM      3  C3  BZF d   1      -0.399   1.168  -3.704  0.00  0.00    -0.012 A 
ATOM      4  C3A BZF d   1      -0.743   2.296  -4.514  0.00  0.00    -0.107 A 
ATOM      5  C4  BZF d   1      -0.012   3.172  -5.264  0.00  0.00     0.055 A 
ATOM      6  C5  BZF d   1      -0.660   4.118  -5.994  0.00  0.00    -0.016 A 
ATOM      7  C6  BZF d   1      -2.036   4.214  -5.999  0.00  0.00     0.022 A 
ATOM      8  C7  BZF d   1      -2.804   3.372  -5.267  0.00  0.00     0.029 A 
ATOM      9  C7A BZF d   1      -2.151   2.435  -4.503  0.00  0.00     0.058 A 
ENDROOT
TORSDOF 0
ENDMDL
