MODEL 1
REMARK minimizedAffinity 6.41924286
REMARK minimizedRMSD -1
REMARK  0 active torsions:
REMARK  status: ('A' for Active; 'I' for Inactive)
ROOT
ATOM      1  O1  BZF d   1       1.152  -5.999   2.079  0.00  0.00    -0.204 OA
ATOM      2  C2  BZF d   1       0.877  -6.000   3.432  0.00  0.00     0.174 A 
ATOM      3  C3  BZF d   1      -0.132  -5.151   3.716  0.00  0.00    -0.012 A 
ATOM      4  C3A BZF d   1      -0.572  -4.653   2.449  0.00  0.00    -0.107 A 
ATOM      5  C4  BZF d   1      -1.556  -3.784   2.072  0.00  0.00     0.055 A 
ATOM      6  C5  BZF d   1      -1.678  -3.453   0.760  0.00  0.00    -0.016 A 
ATOM      7  C6  BZF d   1      -0.832  -3.967  -0.200  0.00  0.00     0.022 A 
ATOM      8  C7  BZF d   1       0.156  -4.837   0.125  0.00  0.00     0.029 A 
ATOM      9  C7A BZF d   1       0.261  -5.198   1.446  0.00  0.00     0.058 A 
ENDROOT
TORSDOF 0
ENDMDL
