MODEL 1
REMARK minimizedAffinity 17.2668819
REMARK minimizedRMSD -1
REMARK  0 active torsions:
REMARK  status: ('A' for Active; 'I' for Inactive)
ROOT
ATOM      1  O1  BZF d   1       4.482   5.254   1.185  0.00  0.00    -0.204 OA
ATOM      2  C2  BZF d   1       4.839   6.000   0.078  0.00  0.00     0.174 A 
ATOM      3  C3  BZF d   1       4.534   5.343  -1.060  0.00  0.00    -0.012 A 
ATOM      4  C3A BZF d   1       3.867   4.150  -0.639  0.00  0.00    -0.107 A 
ATOM      5  C4  BZF d   1       3.311   3.099  -1.310  0.00  0.00     0.055 A 
ATOM      6  C5  BZF d   1       2.803   2.056  -0.601  0.00  0.00    -0.016 A 
ATOM      7  C6  BZF d   1       2.840   2.030   0.778  0.00  0.00     0.022 A 
ATOM      8  C7  BZF d   1       3.377   3.052   1.488  0.00  0.00     0.029 A 
ATOM      9  C7A BZF d   1       3.861   4.121   0.775  0.00  0.00     0.058 A 
ENDROOT
TORSDOF 0
ENDMDL
