MODEL 1
REMARK minimizedAffinity 21.5088806
REMARK minimizedRMSD -1
REMARK  0 active torsions:
REMARK  status: ('A' for Active; 'I' for Inactive)
ROOT
ATOM      1  O1  BZF d   1       3.123   3.354   1.051  0.00  0.00    -0.204 OA
ATOM      2  C2  BZF d   1       3.372   2.031   0.739  0.00  0.00     0.174 A 
ATOM      3  C3  BZF d   1       4.382   1.931  -0.149  0.00  0.00    -0.012 A 
ATOM      4  C3A BZF d   1       4.851   3.269  -0.338  0.00  0.00    -0.107 A 
ATOM      5  C4  BZF d   1       5.850   3.817  -1.092  0.00  0.00     0.055 A 
ATOM      6  C5  BZF d   1       6.000   5.167  -1.109  0.00  0.00    -0.016 A 
ATOM      7  C6  BZF d   1       5.167   5.999  -0.390  0.00  0.00     0.022 A 
ATOM      8  C7  BZF d   1       4.166   5.503   0.376  0.00  0.00     0.029 A 
ATOM      9  C7A BZF d   1       4.032   4.136   0.422  0.00  0.00     0.058 A 
ENDROOT
TORSDOF 0
ENDMDL
