MODEL 1
REMARK minimizedAffinity 6.09435606
REMARK minimizedRMSD -1
REMARK  0 active torsions:
REMARK  status: ('A' for Active; 'I' for Inactive)
ROOT
ATOM      1  O1  BZF d   1       1.117  -5.959   0.191  0.00  0.00    -0.204 OA
ATOM      2  C2  BZF d   1      -0.109  -5.947  -0.446  0.00  0.00     0.174 A 
ATOM      3  C3  BZF d   1      -1.115  -5.998   0.452  0.00  0.00    -0.012 A 
ATOM      4  C3A BZF d   1      -0.479  -5.952   1.732  0.00  0.00    -0.107 A 
ATOM      5  C4  BZF d   1      -0.949  -5.955   3.015  0.00  0.00     0.055 A 
ATOM      6  C5  BZF d   1      -0.061  -5.976   4.043  0.00  0.00    -0.016 A 
ATOM      7  C6  BZF d   1       1.301  -6.000   3.827  0.00  0.00     0.022 A 
ATOM      8  C7  BZF d   1       1.815  -5.993   2.573  0.00  0.00     0.029 A 
ATOM      9  C7A BZF d   1       0.921  -5.939   1.531  0.00  0.00     0.058 A 
ENDROOT
TORSDOF 0
ENDMDL
