MODEL 1
REMARK minimizedAffinity 9.24844933
REMARK minimizedRMSD -1
REMARK  0 active torsions:
REMARK  status: ('A' for Active; 'I' for Inactive)
ROOT
ATOM      1  O1  BZF d   1      -1.722  -4.287   2.928  0.00  0.00    -0.204 OA
ATOM      2  C2  BZF d   1      -2.568  -3.560   3.742  0.00  0.00     0.174 A 
ATOM      3  C3  BZF d   1      -2.977  -2.434   3.123  0.00  0.00    -0.012 A 
ATOM      4  C3A BZF d   1      -2.420  -2.505   1.806  0.00  0.00    -0.107 A 
ATOM      5  C4  BZF d   1      -2.483  -1.688   0.714  0.00  0.00     0.055 A 
ATOM      6  C5  BZF d   1      -1.766  -2.009  -0.394  0.00  0.00    -0.016 A 
ATOM      7  C6  BZF d   1      -0.972  -3.136  -0.443  0.00  0.00     0.022 A 
ATOM      8  C7  BZF d   1      -0.881  -3.980   0.613  0.00  0.00     0.029 A 
ATOM      9  C7A BZF d   1      -1.631  -3.675   1.723  0.00  0.00     0.058 A 
ENDROOT
TORSDOF 0
ENDMDL
