MODEL 1
REMARK minimizedAffinity 10.9602232
REMARK minimizedRMSD -1
REMARK  0 active torsions:
REMARK  status: ('A' for Active; 'I' for Inactive)
ROOT
ATOM      1  O1  BZF d   1      -0.854  -3.018  -3.202  0.00  0.00    -0.204 OA
ATOM      2  C2  BZF d   1      -1.290  -1.780  -3.632  0.00  0.00     0.174 A 
ATOM      3  C3  BZF d   1      -1.822  -1.079  -2.610  0.00  0.00    -0.012 A 
ATOM      4  C3A BZF d   1      -1.628  -1.896  -1.452  0.00  0.00    -0.107 A 
ATOM      5  C4  BZF d   1      -1.930  -1.737  -0.130  0.00  0.00     0.055 A 
ATOM      6  C5  BZF d   1      -1.673  -2.754   0.734  0.00  0.00    -0.016 A 
ATOM      7  C6  BZF d   1      -1.121  -3.945   0.309  0.00  0.00     0.022 A 
ATOM      8  C7  BZF d   1      -0.799  -4.147  -0.992  0.00  0.00     0.029 A 
ATOM      9  C7A BZF d   1      -1.027  -3.109  -1.861  0.00  0.00     0.058 A 
ENDROOT
TORSDOF 0
ENDMDL
