MODEL 1
REMARK minimizedAffinity 9.31191349
REMARK minimizedRMSD -1
REMARK  0 active torsions:
REMARK  status: ('A' for Active; 'I' for Inactive)
ROOT
ATOM      1  C   UNL d   1       5.999  -1.503   1.859  0.00  0.00     0.077 C 
ATOM      2  C1  UNL d   1       4.767  -1.059   1.127  0.00  0.00    -0.074 A 
ATOM      3  C2  UNL d   1       3.666  -1.909   0.990  0.00  0.00    -0.005 A 
ATOM      4  C3  UNL d   1       2.524  -1.479   0.315  0.00  0.00     0.006 A 
ATOM      5  C4  UNL d   1       2.472  -0.195  -0.230  0.00  0.00    -0.005 A 
ATOM      6  C5  UNL d   1       3.563   0.670  -0.102  0.00  0.00    -0.074 A 
ATOM      7  C6  UNL d   1       3.520   2.056  -0.673  0.00  0.00     0.077 C 
ATOM      8  C7  UNL d   1       4.704   0.232   0.584  0.00  0.00    -0.001 A 
ENDROOT
TORSDOF 0
ENDMDL
