MODEL 1
REMARK minimizedAffinity 16.6058388
REMARK minimizedRMSD -1
REMARK  0 active torsions:
REMARK  status: ('A' for Active; 'I' for Inactive)
ROOT
ATOM      1  C   UNL d   1      -6.000   4.126  -3.393  0.00  0.00     0.077 C 
ATOM      2  C1  UNL d   1      -5.482   3.814  -2.021  0.00  0.00    -0.074 A 
ATOM      3  C2  UNL d   1      -5.251   4.832  -1.090  0.00  0.00    -0.005 A 
ATOM      4  C3  UNL d   1      -4.778   4.525   0.185  0.00  0.00     0.006 A 
ATOM      5  C4  UNL d   1      -4.531   3.200   0.543  0.00  0.00    -0.005 A 
ATOM      6  C5  UNL d   1      -4.757   2.168  -0.373  0.00  0.00    -0.074 A 
ATOM      7  C6  UNL d   1      -4.507   0.736  -0.001  0.00  0.00     0.077 C 
ATOM      8  C7  UNL d   1      -5.239   2.483  -1.651  0.00  0.00    -0.001 A 
ENDROOT
TORSDOF 0
ENDMDL
