MODEL 1
REMARK minimizedAffinity 9.0004425
REMARK minimizedRMSD -1
REMARK  0 active torsions:
REMARK  status: ('A' for Active; 'I' for Inactive)
ROOT
ATOM      1  C   UNL d   1       4.119   1.546  -0.735  0.00  0.00     0.077 C 
ATOM      2  C1  UNL d   1       3.366   0.315  -0.328  0.00  0.00    -0.074 A 
ATOM      3  C2  UNL d   1       3.590  -0.287   0.915  0.00  0.00    -0.005 A 
ATOM      4  C3  UNL d   1       2.875  -1.427   1.283  0.00  0.00     0.006 A 
ATOM      5  C4  UNL d   1       1.930  -1.975   0.415  0.00  0.00    -0.005 A 
ATOM      6  C5  UNL d   1       1.692  -1.386  -0.831  0.00  0.00    -0.074 A 
ATOM      7  C6  UNL d   1       0.673  -1.957  -1.772  0.00  0.00     0.077 C 
ATOM      8  C7  UNL d   1       2.409  -0.237  -1.191  0.00  0.00    -0.001 A 
ENDROOT
TORSDOF 0
ENDMDL
