MODEL 1
REMARK minimizedAffinity 5.56797552
REMARK minimizedRMSD -1
REMARK  0 active torsions:
REMARK  status: ('A' for Active; 'I' for Inactive)
ROOT
ATOM      1  C   UNL d   1       2.005  -0.019  -0.892  0.00  0.00     0.077 C 
ATOM      2  C1  UNL d   1       3.068   0.405   0.077  0.00  0.00    -0.074 A 
ATOM      3  C2  UNL d   1       3.130   1.721   0.546  0.00  0.00    -0.005 A 
ATOM      4  C3  UNL d   1       4.118   2.099   1.455  0.00  0.00     0.006 A 
ATOM      5  C4  UNL d   1       5.054   1.165   1.903  0.00  0.00    -0.005 A 
ATOM      6  C5  UNL d   1       5.008  -0.156   1.446  0.00  0.00    -0.074 A 
ATOM      7  C6  UNL d   1       5.999  -1.174   1.925  0.00  0.00     0.077 C 
ATOM      8  C7  UNL d   1       4.007  -0.529   0.538  0.00  0.00    -0.001 A 
ENDROOT
TORSDOF 0
ENDMDL
