MODEL 1
REMARK minimizedAffinity 18.1942711
REMARK minimizedRMSD -1
REMARK  0 active torsions:
REMARK  status: ('A' for Active; 'I' for Inactive)
ROOT
ATOM      1  C   UNL d   1      -1.566  -4.245  -1.703  0.00  0.00     0.077 C 
ATOM      2  C1  UNL d   1      -1.509  -2.750  -1.810  0.00  0.00    -0.074 A 
ATOM      3  C2  UNL d   1      -0.449  -2.116  -2.465  0.00  0.00    -0.005 A 
ATOM      4  C3  UNL d   1      -0.415  -0.725  -2.564  0.00  0.00     0.006 A 
ATOM      5  C4  UNL d   1      -1.438   0.045  -2.010  0.00  0.00    -0.005 A 
ATOM      6  C5  UNL d   1      -2.507  -0.572  -1.352  0.00  0.00    -0.074 A 
ATOM      7  C6  UNL d   1      -3.621   0.240  -0.760  0.00  0.00     0.077 C 
ATOM      8  C7  UNL d   1      -2.538  -1.970  -1.263  0.00  0.00    -0.001 A 
ENDROOT
TORSDOF 0
ENDMDL
