MODEL 1
REMARK minimizedAffinity 8.4838028
REMARK minimizedRMSD -1
REMARK  0 active torsions:
REMARK  status: ('A' for Active; 'I' for Inactive)
ROOT
ATOM      1  C   UNL d   1      -4.155   2.881   0.682  0.00  0.00     0.077 C 
ATOM      2  C1  UNL d   1      -4.450   3.726   1.885  0.00  0.00    -0.074 A 
ATOM      3  C2  UNL d   1      -5.742   3.795   2.415  0.00  0.00    -0.005 A 
ATOM      4  C3  UNL d   1      -6.000   4.578   3.541  0.00  0.00     0.006 A 
ATOM      5  C4  UNL d   1      -4.969   5.298   4.146  0.00  0.00    -0.005 A 
ATOM      6  C5  UNL d   1      -3.671   5.240   3.631  0.00  0.00    -0.074 A 
ATOM      7  C6  UNL d   1      -2.550   6.000   4.275  0.00  0.00     0.077 C 
ATOM      8  C7  UNL d   1      -3.419   4.446   2.504  0.00  0.00    -0.001 A 
ENDROOT
TORSDOF 0
ENDMDL
