MODEL 1
REMARK minimizedAffinity 5.99773121
REMARK minimizedRMSD -1
REMARK  0 active torsions:
REMARK  status: ('A' for Active; 'I' for Inactive)
ROOT
ATOM      1  C   UNL d   1       4.878   2.999  -1.880  0.00  0.00     0.077 C 
ATOM      2  C1  UNL d   1       4.004   1.907  -1.339  0.00  0.00    -0.074 A 
ATOM      3  C2  UNL d   1       2.780   1.601  -1.941  0.00  0.00    -0.005 A 
ATOM      4  C3  UNL d   1       1.982   0.576  -1.432  0.00  0.00     0.006 A 
ATOM      5  C4  UNL d   1       2.401  -0.153  -0.318  0.00  0.00    -0.005 A 
ATOM      6  C5  UNL d   1       3.623   0.138   0.296  0.00  0.00    -0.074 A 
ATOM      7  C6  UNL d   1       4.092  -0.642   1.489  0.00  0.00     0.077 C 
ATOM      8  C7  UNL d   1       4.422   1.165  -0.225  0.00  0.00    -0.001 A 
ENDROOT
TORSDOF 0
ENDMDL
