MODEL 1
REMARK minimizedAffinity 6.28443432
REMARK minimizedRMSD -1
REMARK  0 active torsions:
REMARK  status: ('A' for Active; 'I' for Inactive)
ROOT
ATOM      1  C   UNL d   1       3.752  -1.478   1.537  0.00  0.00     0.077 C 
ATOM      2  C1  UNL d   1       3.500  -0.400   0.524  0.00  0.00    -0.074 A 
ATOM      3  C2  UNL d   1       2.201  -0.094   0.108  0.00  0.00    -0.005 A 
ATOM      4  C3  UNL d   1       1.981   0.917  -0.827  0.00  0.00     0.006 A 
ATOM      5  C4  UNL d   1       3.058   1.630  -1.356  0.00  0.00    -0.005 A 
ATOM      6  C5  UNL d   1       4.364   1.339  -0.952  0.00  0.00    -0.074 A 
ATOM      7  C6  UNL d   1       5.531   2.103  -1.502  0.00  0.00     0.077 C 
ATOM      8  C7  UNL d   1       4.576   0.326  -0.006  0.00  0.00    -0.001 A 
ENDROOT
TORSDOF 0
ENDMDL
