MODEL 1
REMARK minimizedAffinity 12.498539
REMARK minimizedRMSD -1
REMARK  0 active torsions:
REMARK  status: ('A' for Active; 'I' for Inactive)
ROOT
ATOM      1  C   UNL d   1      -3.769   2.329   1.142  0.00  0.00     0.077 C 
ATOM      2  C1  UNL d   1      -3.768   1.371  -0.011  0.00  0.00    -0.074 A 
ATOM      3  C2  UNL d   1      -4.930   0.682  -0.375  0.00  0.00    -0.005 A 
ATOM      4  C3  UNL d   1      -4.915  -0.199  -1.456  0.00  0.00     0.006 A 
ATOM      5  C4  UNL d   1      -3.742  -0.401  -2.183  0.00  0.00    -0.005 A 
ATOM      6  C5  UNL d   1      -2.571   0.280  -1.835  0.00  0.00    -0.074 A 
ATOM      7  C6  UNL d   1      -1.303   0.082  -2.612  0.00  0.00     0.077 C 
ATOM      8  C7  UNL d   1      -2.594   1.169  -0.752  0.00  0.00    -0.001 A 
ENDROOT
TORSDOF 0
ENDMDL
