MODEL 1
REMARK minimizedAffinity 12.8401022
REMARK minimizedRMSD -1
REMARK  0 active torsions:
REMARK  status: ('A' for Active; 'I' for Inactive)
ROOT
ATOM      1  C   UNL d   1      -3.687   2.232   1.603  0.00  0.00     0.077 C 
ATOM      2  C1  UNL d   1      -4.045   1.436   0.383  0.00  0.00    -0.074 A 
ATOM      3  C2  UNL d   1      -5.379   1.139   0.084  0.00  0.00    -0.005 A 
ATOM      4  C3  UNL d   1      -5.697   0.406  -1.059  0.00  0.00     0.006 A 
ATOM      5  C4  UNL d   1      -4.686  -0.036  -1.914  0.00  0.00    -0.005 A 
ATOM      6  C5  UNL d   1      -3.347   0.252  -1.632  0.00  0.00    -0.074 A 
ATOM      7  C6  UNL d   1      -2.249  -0.207  -2.545  0.00  0.00     0.077 C 
ATOM      8  C7  UNL d   1      -3.036   0.995  -0.484  0.00  0.00    -0.001 A 
ENDROOT
TORSDOF 0
ENDMDL
