MODEL 1
REMARK minimizedAffinity 17.2129879
REMARK minimizedRMSD -1
REMARK  0 active torsions:
REMARK  status: ('A' for Active; 'I' for Inactive)
ROOT
ATOM      1  C   UNL d   1       5.754   3.770   3.131  0.00  0.00     0.077 C 
ATOM      2  C1  UNL d   1       4.322   3.938   3.546  0.00  0.00    -0.074 A 
ATOM      3  C2  UNL d   1       3.691   5.183   3.461  0.00  0.00    -0.005 A 
ATOM      4  C3  UNL d   1       2.356   5.321   3.841  0.00  0.00     0.006 A 
ATOM      5  C4  UNL d   1       1.640   4.219   4.309  0.00  0.00    -0.005 A 
ATOM      6  C5  UNL d   1       2.255   2.966   4.400  0.00  0.00    -0.074 A 
ATOM      7  C6  UNL d   1       1.497   1.768   4.891  0.00  0.00     0.077 C 
ATOM      8  C7  UNL d   1       3.594   2.833   4.009  0.00  0.00    -0.001 A 
ENDROOT
TORSDOF 0
ENDMDL
