MODEL 1
REMARK minimizedAffinity 0.0517744198
REMARK minimizedRMSD -1
REMARK  0 active torsions:
REMARK  status: ('A' for Active; 'I' for Inactive)
ROOT
ATOM      1  C   UNL d   1       1.440  -2.418  -0.943  0.00  0.00     0.077 C 
ATOM      2  C1  UNL d   1       2.298  -1.313  -0.404  0.00  0.00    -0.074 A 
ATOM      3  C2  UNL d   1       2.882  -1.409   0.863  0.00  0.00    -0.005 A 
ATOM      4  C3  UNL d   1       3.685  -0.377   1.348  0.00  0.00     0.006 A 
ATOM      5  C4  UNL d   1       3.913   0.760   0.572  0.00  0.00    -0.005 A 
ATOM      6  C5  UNL d   1       3.338   0.874  -0.698  0.00  0.00    -0.074 A 
ATOM      7  C6  UNL d   1       3.580   2.085  -1.550  0.00  0.00     0.077 C 
ATOM      8  C7  UNL d   1       2.538  -0.171  -1.181  0.00  0.00    -0.001 A 
ENDROOT
TORSDOF 0
ENDMDL
