MODEL 1
REMARK minimizedAffinity 2.12581992
REMARK minimizedRMSD -1
REMARK  0 active torsions:
REMARK  status: ('A' for Active; 'I' for Inactive)
ROOT
ATOM      1  C   UNL d   1      -5.999   0.271  -4.291  0.00  0.00     0.077 C 
ATOM      2  C1  UNL d   1      -5.165   0.373  -3.049  0.00  0.00    -0.074 A 
ATOM      3  C2  UNL d   1      -3.775   0.233  -3.103  0.00  0.00    -0.005 A 
ATOM      4  C3  UNL d   1      -3.011   0.340  -1.941  0.00  0.00     0.006 A 
ATOM      5  C4  UNL d   1      -3.629   0.587  -0.714  0.00  0.00    -0.005 A 
ATOM      6  C5  UNL d   1      -5.018   0.730  -0.640  0.00  0.00    -0.074 A 
ATOM      7  C6  UNL d   1      -5.698   1.006   0.668  0.00  0.00     0.077 C 
ATOM      8  C7  UNL d   1      -5.778   0.629  -1.814  0.00  0.00    -0.001 A 
ENDROOT
TORSDOF 0
ENDMDL
