MODEL 1
REMARK minimizedAffinity 1.70956671
REMARK minimizedRMSD -1
REMARK  0 active torsions:
REMARK  status: ('A' for Active; 'I' for Inactive)
ROOT
ATOM      1  C   UNL d   1       4.876   3.835   6.000  0.00  0.00     0.077 C 
ATOM      2  C1  UNL d   1       3.982   3.388   4.882  0.00  0.00    -0.074 A 
ATOM      3  C2  UNL d   1       4.255   3.743   3.557  0.00  0.00    -0.005 A 
ATOM      4  C3  UNL d   1       3.420   3.311   2.527  0.00  0.00     0.006 A 
ATOM      5  C4  UNL d   1       2.304   2.523   2.810  0.00  0.00    -0.005 A 
ATOM      6  C5  UNL d   1       2.015   2.157   4.129  0.00  0.00    -0.074 A 
ATOM      7  C6  UNL d   1       0.826   1.302   4.450  0.00  0.00     0.077 C 
ATOM      8  C7  UNL d   1       2.863   2.589   5.158  0.00  0.00    -0.001 A 
ENDROOT
TORSDOF 0
ENDMDL
