MODEL 1
REMARK minimizedAffinity -3.67679381
REMARK minimizedRMSD -1
REMARK  0 active torsions:
REMARK  status: ('A' for Active; 'I' for Inactive)
ROOT
ATOM      1  C1  DEN d   1      -1.611  -2.418  -2.506  0.00  0.00     0.130 A 
ATOM      2  C2  DEN d   1      -0.681  -3.543  -2.563  0.00  0.00    -0.031 A 
ATOM      3  C3  DEN d   1       0.359  -3.327  -1.536  0.00  0.00     0.027 A 
ATOM      4  C4  DEN d   1       0.614  -1.374   0.130  0.00  0.00     0.027 A 
ATOM      5  C5  DEN d   1       0.074  -0.178   0.548  0.00  0.00    -0.003 A 
ATOM      6  C6  DEN d   1      -1.036   0.367  -0.040  0.00  0.00     0.001 A 
ATOM      7  C7  DEN d   1      -1.669  -0.306  -1.050  0.00  0.00     0.017 A 
ATOM      8  C8  DEN d   1      -1.127  -1.509  -1.483  0.00  0.00    -0.094 A 
ATOM      9  C9  DEN d   1      -0.011  -2.051  -0.867  0.00  0.00    -0.072 A 
ENDROOT
TORSDOF 0
ENDMDL
