MODEL 1
REMARK minimizedAffinity 0.233873099
REMARK minimizedRMSD -1
REMARK  0 active torsions:
REMARK  status: ('A' for Active; 'I' for Inactive)
ROOT
ATOM      1  C1  DEN d   1      -1.439  -0.759   0.654  0.00  0.00     0.130 A 
ATOM      2  C2  DEN d   1      -0.358   0.150   1.024  0.00  0.00    -0.031 A 
ATOM      3  C3  DEN d   1       0.776  -0.094   0.110  0.00  0.00     0.027 A 
ATOM      4  C4  DEN d   1       0.961  -1.778  -1.834  0.00  0.00     0.027 A 
ATOM      5  C5  DEN d   1       0.303  -2.774  -2.523  0.00  0.00    -0.003 A 
ATOM      6  C6  DEN d   1      -0.957  -3.188  -2.183  0.00  0.00     0.001 A 
ATOM      7  C7  DEN d   1      -1.619  -2.572  -1.153  0.00  0.00     0.017 A 
ATOM      8  C8  DEN d   1      -0.960  -1.573  -0.449  0.00  0.00    -0.094 A 
ATOM      9  C9  DEN d   1       0.310  -1.160  -0.816  0.00  0.00    -0.072 A 
ENDROOT
TORSDOF 0
ENDMDL
