MODEL 1
REMARK minimizedAffinity -5.31285858
REMARK minimizedRMSD -1
REMARK  0 active torsions:
REMARK  status: ('A' for Active; 'I' for Inactive)
ROOT
ATOM      1  C1  DEN d   1       2.242   2.033   0.229  0.00  0.00     0.130 A 
ATOM      2  C2  DEN d   1       3.054   0.819   0.239  0.00  0.00    -0.031 A 
ATOM      3  C3  DEN d   1       2.142  -0.339   0.334  0.00  0.00     0.027 A 
ATOM      4  C4  DEN d   1      -0.434  -0.370   0.460  0.00  0.00     0.027 A 
ATOM      5  C5  DEN d   1      -1.565   0.415   0.495  0.00  0.00    -0.003 A 
ATOM      6  C6  DEN d   1      -1.506   1.783   0.479  0.00  0.00     0.001 A 
ATOM      7  C7  DEN d   1      -0.291   2.409   0.380  0.00  0.00     0.017 A 
ATOM      8  C8  DEN d   1       0.854   1.625   0.351  0.00  0.00    -0.094 A 
ATOM      9  C9  DEN d   1       0.773   0.242   0.357  0.00  0.00    -0.072 A 
ENDROOT
TORSDOF 0
ENDMDL
