MODEL 1
REMARK minimizedAffinity -1.7955277
REMARK minimizedRMSD -1
REMARK  0 active torsions:
REMARK  status: ('A' for Active; 'I' for Inactive)
ROOT
ATOM      1  C1  DEN d   1      -1.591   1.007   0.300  0.00  0.00     0.130 A 
ATOM      2  C2  DEN d   1      -1.251   2.425   0.371  0.00  0.00    -0.031 A 
ATOM      3  C3  DEN d   1       0.216   2.537   0.496  0.00  0.00     0.027 A 
ATOM      4  C4  DEN d   1       1.985   0.661   0.580  0.00  0.00     0.027 A 
ATOM      5  C5  DEN d   1       2.176  -0.703   0.565  0.00  0.00    -0.003 A 
ATOM      6  C6  DEN d   1       1.131  -1.586   0.496  0.00  0.00     0.001 A 
ATOM      7  C7  DEN d   1      -0.151  -1.114   0.393  0.00  0.00     0.017 A 
ATOM      8  C8  DEN d   1      -0.352   0.260   0.415  0.00  0.00    -0.094 A 
ATOM      9  C9  DEN d   1       0.718   1.136   0.473  0.00  0.00    -0.072 A 
ENDROOT
TORSDOF 0
ENDMDL
