MODEL 1
REMARK minimizedAffinity -5.18090248
REMARK minimizedRMSD -1
REMARK  0 active torsions:
REMARK  status: ('A' for Active; 'I' for Inactive)
ROOT
ATOM      1  C1  DEN d   1      -1.806   0.654   1.081  0.00  0.00     0.130 A 
ATOM      2  C2  DEN d   1      -1.678   2.104   0.963  0.00  0.00    -0.031 A 
ATOM      3  C3  DEN d   1      -0.252   2.420   0.740  0.00  0.00     0.027 A 
ATOM      4  C4  DEN d   1       1.757   0.813   0.563  0.00  0.00     0.027 A 
ATOM      5  C5  DEN d   1       2.146  -0.508   0.610  0.00  0.00    -0.003 A 
ATOM      6  C6  DEN d   1       1.257  -1.522   0.850  0.00  0.00     0.001 A 
ATOM      7  C7  DEN d   1      -0.073  -1.237   1.006  0.00  0.00     0.017 A 
ATOM      8  C8  DEN d   1      -0.472   0.093   0.967  0.00  0.00    -0.094 A 
ATOM      9  C9  DEN d   1       0.440   1.103   0.712  0.00  0.00    -0.072 A 
ENDROOT
TORSDOF 0
ENDMDL
