MODEL 1
REMARK minimizedAffinity -4.86804199
REMARK minimizedRMSD -1
REMARK  0 active torsions:
REMARK  status: ('A' for Active; 'I' for Inactive)
ROOT
ATOM      1  C1  DEN d   1      -0.394  -0.571   0.650  0.00  0.00     0.130 A 
ATOM      2  C2  DEN d   1       0.731   0.260   0.229  0.00  0.00    -0.031 A 
ATOM      3  C3  DEN d   1       1.430  -0.438  -0.868  0.00  0.00     0.027 A 
ATOM      4  C4  DEN d   1       0.880  -2.711  -1.955  0.00  0.00     0.027 A 
ATOM      5  C5  DEN d   1       0.025  -3.791  -1.928  0.00  0.00    -0.003 A 
ATOM      6  C6  DEN d   1      -1.000  -3.889  -1.024  0.00  0.00     0.001 A 
ATOM      7  C7  DEN d   1      -1.224  -2.867  -0.140  0.00  0.00     0.017 A 
ATOM      8  C8  DEN d   1      -0.362  -1.778  -0.157  0.00  0.00    -0.094 A 
ATOM      9  C9  DEN d   1       0.661  -1.693  -1.086  0.00  0.00    -0.072 A 
ENDROOT
TORSDOF 0
ENDMDL
