MODEL 1
REMARK minimizedAffinity -1.83958566
REMARK minimizedRMSD -1
REMARK  0 active torsions:
REMARK  status: ('A' for Active; 'I' for Inactive)
ROOT
ATOM      1  C1  DEN d   1       0.398   0.345  -0.236  0.00  0.00     0.130 A 
ATOM      2  C2  DEN d   1      -0.600   0.674   0.778  0.00  0.00    -0.031 A 
ATOM      3  C3  DEN d   1      -1.502  -0.487   0.923  0.00  0.00     0.027 A 
ATOM      4  C4  DEN d   1      -1.447  -2.749  -0.314  0.00  0.00     0.027 A 
ATOM      5  C5  DEN d   1      -0.791  -3.488  -1.273  0.00  0.00    -0.003 A 
ATOM      6  C6  DEN d   1       0.277  -2.993  -1.973  0.00  0.00     0.001 A 
ATOM      7  C7  DEN d   1       0.750  -1.738  -1.691  0.00  0.00     0.017 A 
ATOM      8  C8  DEN d   1       0.089  -0.984  -0.730  0.00  0.00    -0.094 A 
ATOM      9  C9  DEN d   1      -0.982  -1.508  -0.025  0.00  0.00    -0.072 A 
ENDROOT
TORSDOF 0
ENDMDL
