MODEL 1
REMARK minimizedAffinity 0.967661142
REMARK minimizedRMSD -1
REMARK  0 active torsions:
REMARK  status: ('A' for Active; 'I' for Inactive)
ROOT
ATOM      1  C1  DEN d   1       1.858   2.750   1.423  0.00  0.00     0.130 A 
ATOM      2  C2  DEN d   1       3.133   2.039   1.405  0.00  0.00    -0.031 A 
ATOM      3  C3  DEN d   1       2.887   0.673   0.902  0.00  0.00     0.027 A 
ATOM      4  C4  DEN d   1       0.667  -0.403   0.149  0.00  0.00     0.027 A 
ATOM      5  C5  DEN d   1      -0.686  -0.196  -0.004  0.00  0.00    -0.003 A 
ATOM      6  C6  DEN d   1      -1.287   0.987   0.337  0.00  0.00     0.001 A 
ATOM      7  C7  DEN d   1      -0.525   2.025   0.807  0.00  0.00     0.017 A 
ATOM      8  C8  DEN d   1       0.839   1.820   0.971  0.00  0.00    -0.094 A 
ATOM      9  C9  DEN d   1       1.429   0.621   0.609  0.00  0.00    -0.072 A 
ENDROOT
TORSDOF 0
ENDMDL
