MODEL 1
REMARK minimizedAffinity -1.91294134
REMARK minimizedRMSD -1
REMARK  0 active torsions:
REMARK  status: ('A' for Active; 'I' for Inactive)
ROOT
ATOM      1  C1  DEN d   1       1.171  -0.528   0.048  0.00  0.00     0.130 A 
ATOM      2  C2  DEN d   1      -0.262  -0.720  -0.159  0.00  0.00    -0.031 A 
ATOM      3  C3  DEN d   1      -0.957   0.497   0.305  0.00  0.00     0.027 A 
ATOM      4  C4  DEN d   1       0.041   2.651   1.313  0.00  0.00     0.027 A 
ATOM      5  C5  DEN d   1       1.208   3.276   1.695  0.00  0.00    -0.003 A 
ATOM      6  C6  DEN d   1       2.431   2.668   1.588  0.00  0.00     0.001 A 
ATOM      7  C7  DEN d   1       2.520   1.414   1.043  0.00  0.00     0.017 A 
ATOM      8  C8  DEN d   1       1.347   0.775   0.663  0.00  0.00    -0.094 A 
ATOM      9  C9  DEN d   1       0.122   1.411   0.768  0.00  0.00    -0.072 A 
ENDROOT
TORSDOF 0
ENDMDL
