MODEL 1
REMARK minimizedAffinity -2.89742088
REMARK minimizedRMSD -1
REMARK  0 active torsions:
REMARK  status: ('A' for Active; 'I' for Inactive)
ROOT
ATOM      1  C1  DEN d   1       0.282  -0.762   0.177  0.00  0.00     0.130 A 
ATOM      2  C2  DEN d   1      -1.165  -0.564   0.159  0.00  0.00    -0.031 A 
ATOM      3  C3  DEN d   1      -1.441   0.824   0.578  0.00  0.00     0.027 A 
ATOM      4  C4  DEN d   1       0.222   2.680   1.244  0.00  0.00     0.027 A 
ATOM      5  C5  DEN d   1       1.554   2.982   1.424  0.00  0.00    -0.003 A 
ATOM      6  C6  DEN d   1       2.545   2.056   1.235  0.00  0.00     0.001 A 
ATOM      7  C7  DEN d   1       2.222   0.794   0.811  0.00  0.00     0.017 A 
ATOM      8  C8  DEN d   1       0.881   0.479   0.635  0.00  0.00    -0.094 A 
ATOM      9  C9  DEN d   1      -0.105   1.433   0.819  0.00  0.00    -0.072 A 
ENDROOT
TORSDOF 0
ENDMDL
