MODEL 1
REMARK minimizedAffinity -4.82167387
REMARK minimizedRMSD -1
REMARK  0 active torsions:
REMARK  status: ('A' for Active; 'I' for Inactive)
ROOT
ATOM      1  C1  DEN d   1       1.488   1.956   0.961  0.00  0.00     0.130 A 
ATOM      2  C2  DEN d   1       0.609   3.122   0.961  0.00  0.00    -0.031 A 
ATOM      3  C3  DEN d   1      -0.732   2.682   0.524  0.00  0.00     0.027 A 
ATOM      4  C4  DEN d   1      -1.527   0.322  -0.145  0.00  0.00     0.027 A 
ATOM      5  C5  DEN d   1      -1.137  -0.989  -0.313  0.00  0.00    -0.003 A 
ATOM      6  C6  DEN d   1       0.152  -1.399  -0.103  0.00  0.00     0.001 A 
ATOM      7  C7  DEN d   1       1.089  -0.499   0.331  0.00  0.00     0.017 A 
ATOM      8  C8  DEN d   1       0.705   0.825   0.496  0.00  0.00    -0.094 A 
ATOM      9  C9  DEN d   1      -0.606   1.218   0.290  0.00  0.00    -0.072 A 
ENDROOT
TORSDOF 0
ENDMDL
