MODEL 1
REMARK minimizedAffinity -2.57974529
REMARK minimizedRMSD -1
REMARK  0 active torsions:
REMARK  status: ('A' for Active; 'I' for Inactive)
ROOT
ATOM      1  C1  DEN d   1       0.749  -0.442   0.038  0.00  0.00     0.130 A 
ATOM      2  C2  DEN d   1      -0.661  -0.735  -0.206  0.00  0.00    -0.031 A 
ATOM      3  C3  DEN d   1      -1.439   0.485   0.093  0.00  0.00     0.027 A 
ATOM      4  C4  DEN d   1      -0.601   2.786   0.903  0.00  0.00     0.027 A 
ATOM      5  C5  DEN d   1       0.513   3.511   1.263  0.00  0.00    -0.003 A 
ATOM      6  C6  DEN d   1       1.769   2.965   1.273  0.00  0.00     0.001 A 
ATOM      7  C7  DEN d   1       1.948   1.667   0.872  0.00  0.00     0.017 A 
ATOM      8  C8  DEN d   1       0.829   0.927   0.515  0.00  0.00    -0.094 A 
ATOM      9  C9  DEN d   1      -0.431   1.501   0.499  0.00  0.00    -0.072 A 
ENDROOT
TORSDOF 0
ENDMDL
