MODEL 1
REMARK minimizedAffinity -0.53637749
REMARK minimizedRMSD -1
REMARK  0 active torsions:
REMARK  status: ('A' for Active; 'I' for Inactive)
ROOT
ATOM      1  C1  DEN d   1      -1.798   2.045   0.849  0.00  0.00     0.130 A 
ATOM      2  C2  DEN d   1      -1.050   2.638  -0.256  0.00  0.00    -0.031 A 
ATOM      3  C3  DEN d   1      -0.128   1.613  -0.785  0.00  0.00     0.027 A 
ATOM      4  C4  DEN d   1       0.208  -0.823  -0.007  0.00  0.00     0.027 A 
ATOM      5  C5  DEN d   1      -0.192  -1.777   0.903  0.00  0.00    -0.003 A 
ATOM      6  C6  DEN d   1      -1.124  -1.515   1.872  0.00  0.00     0.001 A 
ATOM      7  C7  DEN d   1      -1.719  -0.282   1.926  0.00  0.00     0.017 A 
ATOM      8  C8  DEN d   1      -1.316   0.686   1.016  0.00  0.00    -0.094 A 
ATOM      9  C9  DEN d   1      -0.381   0.398   0.036  0.00  0.00    -0.072 A 
ENDROOT
TORSDOF 0
ENDMDL
