MODEL 1
REMARK minimizedAffinity 7.54882526
REMARK minimizedRMSD -1
REMARK  0 active torsions:
REMARK  status: ('A' for Active; 'I' for Inactive)
ROOT
ATOM      1  C2' OXE d   1       1.919  -0.348   2.561  0.00  0.00     0.078 C 
ATOM      2  C1' OXE d   1      -0.332  -1.610   3.665  0.00  0.00     0.078 C 
ATOM      3  C1  OXE d   1      -0.508  -0.220   3.106  0.00  0.00    -0.078 A 
ATOM      4  C2  OXE d   1       0.609   0.408   2.610  0.00  0.00    -0.078 A 
ATOM      5  C3  OXE d   1       0.491   1.669   2.032  0.00  0.00     0.003 A 
ATOM      6  C4  OXE d   1      -0.722   2.365   2.091  0.00  0.00    -0.002 A 
ATOM      7  C5  OXE d   1      -1.863   1.759   2.628  0.00  0.00    -0.002 A 
ATOM      8  C6  OXE d   1      -1.783   0.454   3.100  0.00  0.00     0.003 A 
ENDROOT
TORSDOF 0
ENDMDL
