MODEL 1
REMARK minimizedAffinity -0.59479785
REMARK minimizedRMSD -1
REMARK  0 active torsions:
REMARK  status: ('A' for Active; 'I' for Inactive)
ROOT
ATOM      1  C2' OXE d   1       0.558  -0.618  -0.054  0.00  0.00     0.078 C 
ATOM      2  C1' OXE d   1       2.044  -0.127   2.276  0.00  0.00     0.078 C 
ATOM      3  C1  OXE d   1       0.579   0.232   2.287  0.00  0.00    -0.078 A 
ATOM      4  C2  OXE d   1      -0.130   0.031   1.128  0.00  0.00    -0.078 A 
ATOM      5  C3  OXE d   1      -1.497   0.294   1.101  0.00  0.00     0.003 A 
ATOM      6  C4  OXE d   1      -2.122   0.903   2.195  0.00  0.00    -0.002 A 
ATOM      7  C5  OXE d   1      -1.409   1.153   3.373  0.00  0.00    -0.002 A 
ATOM      8  C6  OXE d   1      -0.071   0.785   3.450  0.00  0.00     0.003 A 
ENDROOT
TORSDOF 0
ENDMDL
