MODEL 1
REMARK minimizedAffinity 2.36469054
REMARK minimizedRMSD -1
REMARK  0 active torsions:
REMARK  status: ('A' for Active; 'I' for Inactive)
ROOT
ATOM      1  C2' OXE d   1      -0.583   0.312   2.572  0.00  0.00     0.078 C 
ATOM      2  C1' OXE d   1      -2.001  -1.728   1.266  0.00  0.00     0.078 C 
ATOM      3  C1  OXE d   1      -2.398  -0.302   0.980  0.00  0.00    -0.078 A 
ATOM      4  C2  OXE d   1      -1.730   0.689   1.659  0.00  0.00    -0.078 A 
ATOM      5  C3  OXE d   1      -2.020   2.024   1.392  0.00  0.00     0.003 A 
ATOM      6  C4  OXE d   1      -3.089   2.363   0.555  0.00  0.00    -0.002 A 
ATOM      7  C5  OXE d   1      -3.809   1.369  -0.116  0.00  0.00    -0.002 A 
ATOM      8  C6  OXE d   1      -3.449   0.036   0.052  0.00  0.00     0.003 A 
ENDROOT
TORSDOF 0
ENDMDL
