MODEL 1
REMARK minimizedAffinity 1.28421414
REMARK minimizedRMSD -1
REMARK  0 active torsions:
REMARK  status: ('A' for Active; 'I' for Inactive)
ROOT
ATOM      1  C2' OXE d   1       2.122  -1.053   0.599  0.00  0.00     0.078 C 
ATOM      2  C1' OXE d   1       2.139  -0.251   3.289  0.00  0.00     0.078 C 
ATOM      3  C1  OXE d   1       0.836  -0.158   2.536  0.00  0.00    -0.078 A 
ATOM      4  C2  OXE d   1       0.847  -0.509   1.207  0.00  0.00    -0.078 A 
ATOM      5  C3  OXE d   1      -0.340  -0.494   0.480  0.00  0.00     0.003 A 
ATOM      6  C4  OXE d   1      -1.512   0.020   1.047  0.00  0.00    -0.002 A 
ATOM      7  C5  OXE d   1      -1.536   0.420   2.388  0.00  0.00    -0.002 A 
ATOM      8  C6  OXE d   1      -0.384   0.297   3.156  0.00  0.00     0.003 A 
ENDROOT
TORSDOF 0
ENDMDL
