MODEL 1
REMARK minimizedAffinity 4.42702532
REMARK minimizedRMSD -1
REMARK  0 active torsions:
REMARK  status: ('A' for Active; 'I' for Inactive)
ROOT
ATOM      1  C2' OXE d   1       3.468  -0.579   2.453  0.00  0.00     0.078 C 
ATOM      2  C1' OXE d   1       2.267  -0.042  -0.027  0.00  0.00     0.078 C 
ATOM      3  C1  OXE d   1       1.476   0.266   1.220  0.00  0.00    -0.078 A 
ATOM      4  C2  OXE d   1       2.053  -0.043   2.428  0.00  0.00    -0.078 A 
ATOM      5  C3  OXE d   1       1.389   0.271   3.610  0.00  0.00     0.003 A 
ATOM      6  C4  OXE d   1       0.076   0.757   3.578  0.00  0.00    -0.002 A 
ATOM      7  C5  OXE d   1      -0.546   1.042   2.357  0.00  0.00    -0.002 A 
ATOM      8  C6  OXE d   1       0.155   0.843   1.173  0.00  0.00     0.003 A 
ENDROOT
TORSDOF 0
ENDMDL
