MODEL 1
REMARK minimizedAffinity 2.45240593
REMARK minimizedRMSD -1
REMARK  0 active torsions:
REMARK  status: ('A' for Active; 'I' for Inactive)
ROOT
ATOM      1  C2' OXE d   1      -0.157  -2.310  -1.033  0.00  0.00     0.078 C 
ATOM      2  C1' OXE d   1       2.312  -1.596   0.097  0.00  0.00     0.078 C 
ATOM      3  C1  OXE d   1       1.061  -1.060   0.746  0.00  0.00    -0.078 A 
ATOM      4  C2  OXE d   1      -0.141  -1.376   0.159  0.00  0.00    -0.078 A 
ATOM      5  C3  OXE d   1      -1.329  -0.953   0.748  0.00  0.00     0.003 A 
ATOM      6  C4  OXE d   1      -1.305  -0.082   1.844  0.00  0.00    -0.002 A 
ATOM      7  C5  OXE d   1      -0.090   0.285   2.433  0.00  0.00    -0.002 A 
ATOM      8  C6  OXE d   1       1.097  -0.229   1.923  0.00  0.00     0.003 A 
ENDROOT
TORSDOF 0
ENDMDL
