MODEL 1
REMARK minimizedAffinity 1.50414872
REMARK minimizedRMSD -1
REMARK  1 active torsions:
REMARK  status: ('A' for Active; 'I' for Inactive)
REMARK    1  A    between atoms: C1_2  and  C2_3 
ROOT
ATOM      1  C2  UNL d   1      -5.442  -3.465   3.256  0.00  0.00    -0.077 A 
ATOM      2  C3  UNL d   1      -4.327  -3.436   4.106  0.00  0.00     0.002 A 
ATOM      3  C4  UNL d   1      -3.783  -4.624   4.599  0.00  0.00     0.002 A 
ATOM      4  C5  UNL d   1      -4.344  -5.849   4.244  0.00  0.00    -0.004 A 
ATOM      5  C6  UNL d   1      -5.454  -5.888   3.400  0.00  0.00     0.002 A 
ATOM      6  C7  UNL d   1      -6.000  -4.702   2.908  0.00  0.00     0.002 A 
ENDROOT
BRANCH   1   7
ATOM      7  C1  UNL d   1      -6.000  -2.188   2.685  0.00  0.00     0.055 C 
ATOM      8  C   UNL d   1      -4.938  -1.100   2.621  0.00  0.00     0.019 C 
ENDBRANCH   1   7
TORSDOF 1
ENDMDL
