MODEL 1
REMARK minimizedAffinity 6.79524136
REMARK minimizedRMSD -1
REMARK  1 active torsions:
REMARK  status: ('A' for Active; 'I' for Inactive)
REMARK    1  A    between atoms: C1_2  and  C2_3 
ROOT
ATOM      1  C2  UNL d   1       3.340  -4.528  -1.493  0.00  0.00    -0.077 A 
ATOM      2  C3  UNL d   1       4.178  -5.118  -2.450  0.00  0.00     0.002 A 
ATOM      3  C4  UNL d   1       3.860  -5.047  -3.807  0.00  0.00     0.002 A 
ATOM      4  C5  UNL d   1       2.707  -4.383  -4.221  0.00  0.00    -0.004 A 
ATOM      5  C6  UNL d   1       1.867  -3.794  -3.277  0.00  0.00     0.002 A 
ATOM      6  C7  UNL d   1       2.182  -3.866  -1.919  0.00  0.00     0.002 A 
ENDROOT
BRANCH   1   7
ATOM      7  C1  UNL d   1       3.707  -4.561  -0.032  0.00  0.00     0.055 C 
ATOM      8  C   UNL d   1       4.889  -5.485   0.221  0.00  0.00     0.019 C 
ENDBRANCH   1   7
TORSDOF 1
ENDMDL
