MODEL 1
REMARK minimizedAffinity -0.579063356
REMARK minimizedRMSD -1
REMARK  1 active torsions:
REMARK  status: ('A' for Active; 'I' for Inactive)
REMARK    1  A    between atoms: C1_2  and  C2_3 
ROOT
ATOM      1  C2  UNL d   1       3.935  -4.714  -1.949  0.00  0.00    -0.077 A 
ATOM      2  C3  UNL d   1       4.783  -4.958  -3.039  0.00  0.00     0.002 A 
ATOM      3  C4  UNL d   1       4.438  -4.509  -4.315  0.00  0.00     0.002 A 
ATOM      4  C5  UNL d   1       3.249  -3.810  -4.513  0.00  0.00    -0.004 A 
ATOM      5  C6  UNL d   1       2.398  -3.565  -3.435  0.00  0.00     0.002 A 
ATOM      6  C7  UNL d   1       2.740  -4.015  -2.159  0.00  0.00     0.002 A 
ENDROOT
BRANCH   1   7
ATOM      7  C1  UNL d   1       4.328  -5.155  -0.563  0.00  0.00     0.055 C 
ATOM      8  C   UNL d   1       4.567  -3.961   0.350  0.00  0.00     0.019 C 
ENDBRANCH   1   7
TORSDOF 1
ENDMDL
