MODEL 1
REMARK minimizedAffinity 0.518826187
REMARK minimizedRMSD -1
REMARK  1 active torsions:
REMARK  status: ('A' for Active; 'I' for Inactive)
REMARK    1  A    between atoms: C1_2  and  C2_3 
ROOT
ATOM      1  C2  UNL d   1       2.859  -3.481  -2.135  0.00  0.00    -0.077 A 
ATOM      2  C3  UNL d   1       3.052  -3.367  -0.751  0.00  0.00     0.002 A 
ATOM      3  C4  UNL d   1       4.063  -4.092  -0.116  0.00  0.00     0.002 A 
ATOM      4  C5  UNL d   1       4.891  -4.931  -0.858  0.00  0.00    -0.004 A 
ATOM      5  C6  UNL d   1       4.706  -5.053  -2.235  0.00  0.00     0.002 A 
ATOM      6  C7  UNL d   1       3.695  -4.330  -2.870  0.00  0.00     0.002 A 
ENDROOT
BRANCH   1   7
ATOM      7  C1  UNL d   1       1.801  -2.663  -2.828  0.00  0.00     0.055 C 
ATOM      8  C   UNL d   1       1.738  -1.250  -2.266  0.00  0.00     0.019 C 
ENDBRANCH   1   7
TORSDOF 1
ENDMDL
