MODEL 1
REMARK minimizedAffinity 3.64353633
REMARK minimizedRMSD -1
REMARK  1 active torsions:
REMARK  status: ('A' for Active; 'I' for Inactive)
REMARK    1  A    between atoms: C1_2  and  C2_3 
ROOT
ATOM      1  C2  UNL d   1       3.463  -4.446  -1.982  0.00  0.00    -0.077 A 
ATOM      2  C3  UNL d   1       4.400  -4.665  -3.002  0.00  0.00     0.002 A 
ATOM      3  C4  UNL d   1       4.203  -4.120  -4.272  0.00  0.00     0.002 A 
ATOM      4  C5  UNL d   1       3.072  -3.349  -4.533  0.00  0.00    -0.004 A 
ATOM      5  C6  UNL d   1       2.133  -3.127  -3.527  0.00  0.00     0.002 A 
ATOM      6  C7  UNL d   1       2.328  -3.672  -2.257  0.00  0.00     0.002 A 
ENDROOT
BRANCH   1   7
ATOM      7  C1  UNL d   1       3.698  -4.992  -0.598  0.00  0.00     0.055 C 
ATOM      8  C   UNL d   1       3.671  -3.885   0.445  0.00  0.00     0.019 C 
ENDBRANCH   1   7
TORSDOF 1
ENDMDL
