MODEL 1
REMARK minimizedAffinity 4.98249435
REMARK minimizedRMSD -1
REMARK  1 active torsions:
REMARK  status: ('A' for Active; 'I' for Inactive)
REMARK    1  A    between atoms: C1_2  and  C2_3 
ROOT
ATOM      1  C2  UNL d   1       3.157  -4.692  -2.440  0.00  0.00    -0.077 A 
ATOM      2  C3  UNL d   1       4.282  -4.847  -3.262  0.00  0.00     0.002 A 
ATOM      3  C4  UNL d   1       4.330  -4.236  -4.517  0.00  0.00     0.002 A 
ATOM      4  C5  UNL d   1       3.258  -3.464  -4.958  0.00  0.00    -0.004 A 
ATOM      5  C6  UNL d   1       2.133  -3.305  -4.149  0.00  0.00     0.002 A 
ATOM      6  C7  UNL d   1       2.084  -3.916  -2.895  0.00  0.00     0.002 A 
ENDROOT
BRANCH   1   7
ATOM      7  C1  UNL d   1       3.125  -5.310  -1.066  0.00  0.00     0.055 C 
ATOM      8  C   UNL d   1       3.640  -4.341  -0.012  0.00  0.00     0.019 C 
ENDBRANCH   1   7
TORSDOF 1
ENDMDL
