MODEL 1
REMARK minimizedAffinity 3.13714337
REMARK minimizedRMSD -1
REMARK  1 active torsions:
REMARK  status: ('A' for Active; 'I' for Inactive)
REMARK    1  A    between atoms: C1_2  and  C2_3 
ROOT
ATOM      1  C2  UNL d   1       2.604  -3.687  -2.301  0.00  0.00    -0.077 A 
ATOM      2  C3  UNL d   1       2.634  -3.732  -0.900  0.00  0.00     0.002 A 
ATOM      3  C4  UNL d   1       3.575  -4.523  -0.239  0.00  0.00     0.002 A 
ATOM      4  C5  UNL d   1       4.496  -5.271  -0.969  0.00  0.00    -0.004 A 
ATOM      5  C6  UNL d   1       4.473  -5.235  -2.363  0.00  0.00     0.002 A 
ATOM      6  C7  UNL d   1       3.533  -4.446  -3.026  0.00  0.00     0.002 A 
ENDROOT
BRANCH   1   7
ATOM      7  C1  UNL d   1       1.622  -2.797  -3.016  0.00  0.00     0.055 C 
ATOM      8  C   UNL d   1       1.569  -1.413  -2.386  0.00  0.00     0.019 C 
ENDBRANCH   1   7
TORSDOF 1
ENDMDL
