MODEL 1
REMARK minimizedAffinity -2.62670302
REMARK minimizedRMSD -1
REMARK  1 active torsions:
REMARK  status: ('A' for Active; 'I' for Inactive)
REMARK    1  A    between atoms: C1_2  and  C2_3 
ROOT
ATOM      1  C2  UNL d   1       3.465  -4.212  -1.323  0.00  0.00    -0.077 A 
ATOM      2  C3  UNL d   1       4.236  -4.453  -2.469  0.00  0.00     0.002 A 
ATOM      3  C4  UNL d   1       3.777  -4.051  -3.725  0.00  0.00     0.002 A 
ATOM      4  C5  UNL d   1       2.550  -3.402  -3.846  0.00  0.00    -0.004 A 
ATOM      5  C6  UNL d   1       1.776  -3.160  -2.712  0.00  0.00     0.002 A 
ATOM      6  C7  UNL d   1       2.232  -3.562  -1.456  0.00  0.00     0.002 A 
ENDROOT
BRANCH   1   7
ATOM      7  C1  UNL d   1       3.980  -4.601   0.039  0.00  0.00     0.055 C 
ATOM      8  C   UNL d   1       5.384  -4.061   0.275  0.00  0.00     0.019 C 
ENDBRANCH   1   7
TORSDOF 1
ENDMDL
