MODEL 1
REMARK minimizedAffinity 3.48757982
REMARK minimizedRMSD -1
REMARK  1 active torsions:
REMARK  status: ('A' for Active; 'I' for Inactive)
REMARK    1  A    between atoms: C1_2  and  C2_3 
ROOT
ATOM      1  C2  UNL d   1       3.537  -4.920  -1.567  0.00  0.00    -0.077 A 
ATOM      2  C3  UNL d   1       4.389  -5.041  -2.674  0.00  0.00     0.002 A 
ATOM      3  C4  UNL d   1       3.934  -4.718  -3.953  0.00  0.00     0.002 A 
ATOM      4  C5  UNL d   1       2.629  -4.267  -4.138  0.00  0.00    -0.004 A 
ATOM      5  C6  UNL d   1       1.773  -4.145  -3.043  0.00  0.00     0.002 A 
ATOM      6  C7  UNL d   1       2.226  -4.469  -1.764  0.00  0.00     0.002 A 
ENDROOT
BRANCH   1   7
ATOM      7  C1  UNL d   1       4.041  -5.221  -0.179  0.00  0.00     0.055 C 
ATOM      8  C   UNL d   1       5.265  -4.383   0.159  0.00  0.00     0.019 C 
ENDBRANCH   1   7
TORSDOF 1
ENDMDL
