MODEL 1
REMARK minimizedAffinity 5.5011692
REMARK minimizedRMSD -1
REMARK  1 active torsions:
REMARK  status: ('A' for Active; 'I' for Inactive)
REMARK    1  A    between atoms: C1_2  and  C2_3 
ROOT
ATOM      1  C2  UNL d   1      -3.740  -3.223  -5.972  0.00  0.00    -0.077 A 
ATOM      2  C3  UNL d   1      -4.628  -4.308  -5.988  0.00  0.00     0.002 A 
ATOM      3  C4  UNL d   1      -4.144  -5.617  -6.000  0.00  0.00     0.002 A 
ATOM      4  C5  UNL d   1      -2.771  -5.854  -5.991  0.00  0.00    -0.004 A 
ATOM      5  C6  UNL d   1      -1.879  -4.782  -5.977  0.00  0.00     0.002 A 
ATOM      6  C7  UNL d   1      -2.361  -3.473  -5.966  0.00  0.00     0.002 A 
ENDROOT
BRANCH   1   7
ATOM      7  C1  UNL d   1      -4.260  -1.811  -5.909  0.00  0.00     0.055 C 
ATOM      8  C   UNL d   1      -5.781  -1.780  -5.942  0.00  0.00     0.019 C 
ENDBRANCH   1   7
TORSDOF 1
ENDMDL
