MODEL 1
REMARK minimizedAffinity 15.2579317
REMARK minimizedRMSD -1
REMARK  1 active torsions:
REMARK  status: ('A' for Active; 'I' for Inactive)
REMARK    1  A    between atoms: C1_2  and  C2_3 
ROOT
ATOM      1  C2  UNL d   1       1.819   3.613  -0.616  0.00  0.00    -0.077 A 
ATOM      2  C3  UNL d   1       1.349   3.680   0.703  0.00  0.00     0.002 A 
ATOM      3  C4  UNL d   1       0.717   4.835   1.170  0.00  0.00     0.002 A 
ATOM      4  C5  UNL d   1       0.547   5.928   0.323  0.00  0.00    -0.004 A 
ATOM      5  C6  UNL d   1       1.013   5.872  -0.990  0.00  0.00     0.002 A 
ATOM      6  C7  UNL d   1       1.645   4.720  -1.458  0.00  0.00     0.002 A 
ENDROOT
BRANCH   1   7
ATOM      7  C1  UNL d   1       2.457   2.352  -1.136  0.00  0.00     0.055 C 
ATOM      8  C   UNL d   1       2.593   1.307  -0.038  0.00  0.00     0.019 C 
ENDBRANCH   1   7
TORSDOF 1
ENDMDL
