MODEL 1
REMARK minimizedAffinity 12.7696724
REMARK minimizedRMSD -1
REMARK  1 active torsions:
REMARK  status: ('A' for Active; 'I' for Inactive)
REMARK    1  A    between atoms: C1_2  and  C2_3 
ROOT
ATOM      1  C2  UNL d   1      -2.453  -4.053  -3.998  0.00  0.00    -0.077 A 
ATOM      2  C3  UNL d   1      -2.910  -4.901  -2.979  0.00  0.00     0.002 A 
ATOM      3  C4  UNL d   1      -2.005  -5.501  -2.101  0.00  0.00     0.002 A 
ATOM      4  C5  UNL d   1      -0.640  -5.258  -2.231  0.00  0.00    -0.004 A 
ATOM      5  C6  UNL d   1      -0.175  -4.418  -3.243  0.00  0.00     0.002 A 
ATOM      6  C7  UNL d   1      -1.078  -3.818  -4.122  0.00  0.00     0.002 A 
ENDROOT
BRANCH   1   7
ATOM      7  C1  UNL d   1      -3.431  -3.366  -4.915  0.00  0.00     0.055 C 
ATOM      8  C   UNL d   1      -4.113  -4.360  -5.843  0.00  0.00     0.019 C 
ENDBRANCH   1   7
TORSDOF 1
ENDMDL
