MODEL 1
REMARK minimizedAffinity 19.2548523
REMARK minimizedRMSD -1
REMARK  1 active torsions:
REMARK  status: ('A' for Active; 'I' for Inactive)
REMARK    1  A    between atoms: C1_2  and  C2_3 
ROOT
ATOM      1  C2  UNL d   1      -3.292   1.335   3.622  0.00  0.00    -0.077 A 
ATOM      2  C3  UNL d   1      -4.334   2.273   3.608  0.00  0.00     0.002 A 
ATOM      3  C4  UNL d   1      -5.032   2.571   4.780  0.00  0.00     0.002 A 
ATOM      4  C5  UNL d   1      -4.693   1.940   5.974  0.00  0.00    -0.004 A 
ATOM      5  C6  UNL d   1      -3.660   1.004   5.998  0.00  0.00     0.002 A 
ATOM      6  C7  UNL d   1      -2.962   0.704   4.828  0.00  0.00     0.002 A 
ENDROOT
BRANCH   1   7
ATOM      7  C1  UNL d   1      -2.506   1.048   2.370  0.00  0.00     0.055 C 
ATOM      8  C   UNL d   1      -1.037   1.404   2.545  0.00  0.00     0.019 C 
ENDBRANCH   1   7
TORSDOF 1
ENDMDL
