MODEL 1
REMARK minimizedAffinity 4.1852994
REMARK minimizedRMSD -1
REMARK  2 active torsions:
REMARK  status: ('A' for Active; 'I' for Inactive)
REMARK    1  A    between atoms: C2'_3  and  C1'_4 
REMARK    2  A    between atoms: C1'_4  and  C1_5 
ROOT
ATOM      1  C1  I4B d   1       4.608   1.939  -3.609  0.00  0.00    -0.075 A 
ATOM      2  C2  I4B d   1       3.958   2.274  -4.771  0.00  0.00     0.003 A 
ATOM      3  C3  I4B d   1       4.285   1.621  -5.984  0.00  0.00     0.002 A 
ATOM      4  C4  I4B d   1       5.295   0.681  -5.999  0.00  0.00    -0.004 A 
ATOM      5  C5  I4B d   1       5.936   0.326  -4.816  0.00  0.00     0.002 A 
ATOM      6  C6  I4B d   1       5.582   0.950  -3.611  0.00  0.00     0.003 A 
ENDROOT
BRANCH   1   7
ATOM      7  C1' I4B d   1       4.261   2.672  -2.352  0.00  0.00     0.060 C 
BRANCH   7   8
ATOM      8  C2' I4B d   1       3.783   1.655  -1.335  0.00  0.00    -0.013 C 
ATOM      9  C4' I4B d   1       4.943   0.940  -0.693  0.00  0.00     0.013 C 
ATOM     10  C3' I4B d   1       2.958   2.376  -0.312  0.00  0.00     0.013 C 
ENDBRANCH   7   8
ENDBRANCH   1   7
TORSDOF 2
ENDMDL
