MODEL 1
REMARK minimizedAffinity 9.89527416
REMARK minimizedRMSD -1
REMARK  2 active torsions:
REMARK  status: ('A' for Active; 'I' for Inactive)
REMARK    1  A    between atoms: C2'_3  and  C1'_4 
REMARK    2  A    between atoms: C1'_4  and  C1_5 
ROOT
ATOM      1  C1  I4B d   1       5.867   1.785  -5.270  0.00  0.00    -0.075 A 
ATOM      2  C2  I4B d   1       5.828   1.798  -3.898  0.00  0.00     0.003 A 
ATOM      3  C3  I4B d   1       5.673   0.588  -3.178  0.00  0.00     0.002 A 
ATOM      4  C4  I4B d   1       5.510  -0.596  -3.866  0.00  0.00    -0.004 A 
ATOM      5  C5  I4B d   1       5.573  -0.611  -5.257  0.00  0.00     0.002 A 
ATOM      6  C6  I4B d   1       5.765   0.586  -5.963  0.00  0.00     0.003 A 
ENDROOT
BRANCH   1   7
ATOM      7  C1' I4B d   1       5.999   3.084  -6.000  0.00  0.00     0.060 C 
BRANCH   7   8
ATOM      8  C2' I4B d   1       4.719   3.868  -5.792  0.00  0.00    -0.013 C 
ATOM      9  C4' I4B d   1       3.520   2.957  -5.763  0.00  0.00     0.013 C 
ATOM     10  C3' I4B d   1       4.848   4.634  -4.509  0.00  0.00     0.013 C 
ENDBRANCH   7   8
ENDBRANCH   1   7
TORSDOF 2
ENDMDL
