MODEL 1
REMARK minimizedAffinity 3.41648817
REMARK minimizedRMSD -1
REMARK  2 active torsions:
REMARK  status: ('A' for Active; 'I' for Inactive)
REMARK    1  A    between atoms: C2'_3  and  C1'_4 
REMARK    2  A    between atoms: C1'_4  and  C1_5 
ROOT
ATOM      1  C1  I4B d   1       4.993   1.772  -5.363  0.00  0.00    -0.075 A 
ATOM      2  C2  I4B d   1       3.710   2.126  -5.699  0.00  0.00     0.003 A 
ATOM      3  C3  I4B d   1       3.398   3.475  -5.998  0.00  0.00     0.002 A 
ATOM      4  C4  I4B d   1       4.382   4.438  -5.901  0.00  0.00    -0.004 A 
ATOM      5  C5  I4B d   1       5.687   4.073  -5.582  0.00  0.00     0.002 A 
ATOM      6  C6  I4B d   1       5.998   2.731  -5.323  0.00  0.00     0.003 A 
ENDROOT
BRANCH   1   7
ATOM      7  C1' I4B d   1       5.281   0.345  -5.020  0.00  0.00     0.060 C 
BRANCH   7   8
ATOM      8  C2' I4B d   1       5.741   0.294  -3.578  0.00  0.00    -0.013 C 
ATOM      9  C4' I4B d   1       4.813   1.072  -2.682  0.00  0.00     0.013 C 
ATOM     10  C3' I4B d   1       5.811  -1.146  -3.165  0.00  0.00     0.013 C 
ENDBRANCH   7   8
ENDBRANCH   1   7
TORSDOF 2
ENDMDL
