MODEL 1
REMARK minimizedAffinity 7.56654119
REMARK minimizedRMSD -1
REMARK  2 active torsions:
REMARK  status: ('A' for Active; 'I' for Inactive)
REMARK    1  A    between atoms: C2'_3  and  C1'_4 
REMARK    2  A    between atoms: C1'_4  and  C1_5 
ROOT
ATOM      1  C1  I4B d   1      -1.764  -3.382   1.557  0.00  0.00    -0.075 A 
ATOM      2  C2  I4B d   1      -2.126  -4.216   0.529  0.00  0.00     0.003 A 
ATOM      3  C3  I4B d   1      -1.588  -4.026  -0.767  0.00  0.00     0.002 A 
ATOM      4  C4  I4B d   1      -0.737  -2.966  -1.000  0.00  0.00    -0.004 A 
ATOM      5  C5  I4B d   1      -0.353  -2.135   0.048  0.00  0.00     0.002 A 
ATOM      6  C6  I4B d   1      -0.859  -2.351   1.338  0.00  0.00     0.003 A 
ENDROOT
BRANCH   1   7
ATOM      7  C1' I4B d   1      -2.376  -3.592   2.906  0.00  0.00     0.060 C 
BRANCH   7   8
ATOM      8  C2' I4B d   1      -2.098  -5.020   3.328  0.00  0.00    -0.013 C 
ATOM      9  C4' I4B d   1      -1.779  -5.101   4.798  0.00  0.00     0.013 C 
ATOM     10  C3' I4B d   1      -3.302  -5.846   2.988  0.00  0.00     0.013 C 
ENDBRANCH   7   8
ENDBRANCH   1   7
TORSDOF 2
ENDMDL
