MODEL 1
REMARK minimizedAffinity 1.66600013
REMARK minimizedRMSD -1
REMARK  2 active torsions:
REMARK  status: ('A' for Active; 'I' for Inactive)
REMARK    1  A    between atoms: C2'_3  and  C1'_4 
REMARK    2  A    between atoms: C1'_4  and  C1_5 
ROOT
ATOM      1  C1  I4B d   1       3.669   3.121   2.061  0.00  0.00    -0.075 A 
ATOM      2  C2  I4B d   1       2.859   2.101   2.493  0.00  0.00     0.003 A 
ATOM      3  C3  I4B d   1       1.804   1.632   1.672  0.00  0.00     0.002 A 
ATOM      4  C4  I4B d   1       1.567   2.242   0.457  0.00  0.00    -0.004 A 
ATOM      5  C5  I4B d   1       2.404   3.260   0.011  0.00  0.00     0.002 A 
ATOM      6  C6  I4B d   1       3.470   3.695   0.812  0.00  0.00     0.003 A 
ENDROOT
BRANCH   1   7
ATOM      7  C1' I4B d   1       4.753   3.614   2.967  0.00  0.00     0.060 C 
BRANCH   7   8
ATOM      8  C2' I4B d   1       4.504   3.040   4.347  0.00  0.00    -0.013 C 
ATOM      9  C4' I4B d   1       5.664   2.195   4.804  0.00  0.00     0.013 C 
ATOM     10  C3' I4B d   1       4.263   4.183   5.288  0.00  0.00     0.013 C 
ENDBRANCH   7   8
ENDBRANCH   1   7
TORSDOF 2
ENDMDL
