MODEL 1
REMARK minimizedAffinity -1.1445812
REMARK minimizedRMSD -1
REMARK  2 active torsions:
REMARK  status: ('A' for Active; 'I' for Inactive)
REMARK    1  A    between atoms: C2'_3  and  C1'_4 
REMARK    2  A    between atoms: C1'_4  and  C1_5 
ROOT
ATOM      1  C1  I4B d   1      -1.361  -4.612   1.497  0.00  0.00    -0.075 A 
ATOM      2  C2  I4B d   1      -1.440  -5.613   2.433  0.00  0.00     0.003 A 
ATOM      3  C3  I4B d   1      -1.662  -5.300   3.796  0.00  0.00     0.002 A 
ATOM      4  C4  I4B d   1      -1.748  -3.978   4.183  0.00  0.00    -0.004 A 
ATOM      5  C5  I4B d   1      -1.690  -2.965   3.230  0.00  0.00     0.002 A 
ATOM      6  C6  I4B d   1      -1.508  -3.285   1.877  0.00  0.00     0.003 A 
ENDROOT
BRANCH   1   7
ATOM      7  C1' I4B d   1      -1.093  -4.978   0.071  0.00  0.00     0.060 C 
BRANCH   7   8
ATOM      8  C2' I4B d   1      -1.692  -3.898  -0.807  0.00  0.00    -0.013 C 
ATOM      9  C4' I4B d   1      -0.638  -3.242  -1.659  0.00  0.00     0.013 C 
ATOM     10  C3' I4B d   1      -2.757  -4.529  -1.654  0.00  0.00     0.013 C 
ENDBRANCH   7   8
ENDBRANCH   1   7
TORSDOF 2
ENDMDL
