MODEL 1
REMARK minimizedAffinity 5.18268013
REMARK minimizedRMSD -1
REMARK  2 active torsions:
REMARK  status: ('A' for Active; 'I' for Inactive)
REMARK    1  A    between atoms: C2'_3  and  C1'_4 
REMARK    2  A    between atoms: C1'_4  and  C1_5 
ROOT
ATOM      1  C1  I4B d   1       3.224   2.436   1.226  0.00  0.00    -0.075 A 
ATOM      2  C2  I4B d   1       2.792   1.296   1.857  0.00  0.00     0.003 A 
ATOM      3  C3  I4B d   1       1.531   0.737   1.534  0.00  0.00     0.002 A 
ATOM      4  C4  I4B d   1       0.719   1.375   0.619  0.00  0.00    -0.004 A 
ATOM      5  C5  I4B d   1       1.168   2.518  -0.036  0.00  0.00     0.002 A 
ATOM      6  C6  I4B d   1       2.434   3.045   0.259  0.00  0.00     0.003 A 
ENDROOT
BRANCH   1   7
ATOM      7  C1' I4B d   1       4.546   3.018   1.614  0.00  0.00     0.060 C 
BRANCH   7   8
ATOM      8  C2' I4B d   1       4.378   3.706   2.953  0.00  0.00    -0.013 C 
ATOM      9  C4' I4B d   1       4.834   2.821   4.083  0.00  0.00     0.013 C 
ATOM     10  C3' I4B d   1       5.161   4.985   2.918  0.00  0.00     0.013 C 
ENDBRANCH   7   8
ENDBRANCH   1   7
TORSDOF 2
ENDMDL
