MODEL 1
REMARK minimizedAffinity 4.17155361
REMARK minimizedRMSD -1
REMARK  2 active torsions:
REMARK  status: ('A' for Active; 'I' for Inactive)
REMARK    1  A    between atoms: C2'_3  and  C1'_4 
REMARK    2  A    between atoms: C1'_4  and  C1_5 
ROOT
ATOM      1  C1  I4B d   1       3.729   2.748   1.123  0.00  0.00    -0.075 A 
ATOM      2  C2  I4B d   1       2.979   3.401   0.177  0.00  0.00     0.003 A 
ATOM      3  C3  I4B d   1       1.598   3.121   0.044  0.00  0.00     0.002 A 
ATOM      4  C4  I4B d   1       1.022   2.150   0.838  0.00  0.00    -0.004 A 
ATOM      5  C5  I4B d   1       1.778   1.504   1.812  0.00  0.00     0.002 A 
ATOM      6  C6  I4B d   1       3.138   1.814   1.964  0.00  0.00     0.003 A 
ENDROOT
BRANCH   1   7
ATOM      7  C1' I4B d   1       5.192   3.045   1.215  0.00  0.00     0.060 C 
BRANCH   7   8
ATOM      8  C2' I4B d   1       5.461   3.654   2.575  0.00  0.00    -0.013 C 
ATOM      9  C4' I4B d   1       4.799   5.001   2.710  0.00  0.00     0.013 C 
ATOM     10  C3' I4B d   1       4.961   2.699   3.617  0.00  0.00     0.013 C 
ENDBRANCH   7   8
ENDBRANCH   1   7
TORSDOF 2
ENDMDL
