MODEL 1
REMARK minimizedAffinity 0.93668282
REMARK minimizedRMSD -1
REMARK  2 active torsions:
REMARK  status: ('A' for Active; 'I' for Inactive)
REMARK    1  A    between atoms: C2'_3  and  C1'_4 
REMARK    2  A    between atoms: C1'_4  and  C1_5 
ROOT
ATOM      1  C1  I4B d   1      -0.492   3.009   2.642  0.00  0.00    -0.075 A 
ATOM      2  C2  I4B d   1      -1.787   3.083   3.090  0.00  0.00     0.003 A 
ATOM      3  C3  I4B d   1      -2.078   3.697   4.332  0.00  0.00     0.002 A 
ATOM      4  C4  I4B d   1      -1.045   4.175   5.112  0.00  0.00    -0.004 A 
ATOM      5  C5  I4B d   1       0.266   4.120   4.646  0.00  0.00     0.002 A 
ATOM      6  C6  I4B d   1       0.543   3.545   3.397  0.00  0.00     0.003 A 
ENDROOT
BRANCH   1   7
ATOM      7  C1' I4B d   1      -0.217   2.325   1.340  0.00  0.00     0.060 C 
BRANCH   7   8
ATOM      8  C2' I4B d   1      -1.118   1.109   1.253  0.00  0.00    -0.013 C 
ATOM      9  C4' I4B d   1      -1.927   1.121  -0.017  0.00  0.00     0.013 C 
ATOM     10  C3' I4B d   1      -0.254  -0.114   1.334  0.00  0.00     0.013 C 
ENDBRANCH   7   8
ENDBRANCH   1   7
TORSDOF 2
ENDMDL
