MODEL 1
REMARK minimizedAffinity 3.48800969
REMARK minimizedRMSD -1
REMARK  0 active torsions:
REMARK  status: ('A' for Active; 'I' for Inactive)
ROOT
ATOM      1  C2' OXE d   1      -0.078  -1.013  -2.725  0.00  0.00     0.078 C 
ATOM      2  C1' OXE d   1      -2.000   0.960  -2.181  0.00  0.00     0.078 C 
ATOM      3  C1  OXE d   1      -0.898   0.754  -1.172  0.00  0.00    -0.078 A 
ATOM      4  C2  OXE d   1       0.011  -0.245  -1.423  0.00  0.00    -0.078 A 
ATOM      5  C3  OXE d   1       1.079  -0.441  -0.552  0.00  0.00     0.003 A 
ATOM      6  C4  OXE d   1       1.148   0.266   0.654  0.00  0.00    -0.002 A 
ATOM      7  C5  OXE d   1       0.210   1.261   0.949  0.00  0.00    -0.002 A 
ATOM      8  C6  OXE d   1      -0.792   1.546   0.028  0.00  0.00     0.003 A 
ENDROOT
TORSDOF 0
ENDMDL
