MODEL 1
REMARK minimizedAffinity -1.55395961
REMARK minimizedRMSD -1
REMARK  0 active torsions:
REMARK  status: ('A' for Active; 'I' for Inactive)
ROOT
ATOM      1  C2' OXE d   1       5.828   3.103  -5.933  0.00  0.00     0.078 C 
ATOM      2  C1' OXE d   1       5.473   5.887  -5.990  0.00  0.00     0.078 C 
ATOM      3  C1  OXE d   1       4.239   5.021  -5.970  0.00  0.00    -0.078 A 
ATOM      4  C2  OXE d   1       4.422   3.659  -5.989  0.00  0.00    -0.078 A 
ATOM      5  C3  OXE d   1       3.318   2.814  -5.916  0.00  0.00     0.003 A 
ATOM      6  C4  OXE d   1       2.020   3.336  -5.979  0.00  0.00    -0.002 A 
ATOM      7  C5  OXE d   1       1.812   4.720  -5.999  0.00  0.00    -0.002 A 
ATOM      8  C6  OXE d   1       2.907   5.575  -5.953  0.00  0.00     0.003 A 
ENDROOT
TORSDOF 0
ENDMDL
