MODEL 1
REMARK minimizedAffinity -1.04839003
REMARK minimizedRMSD -1
REMARK  0 active torsions:
REMARK  status: ('A' for Active; 'I' for Inactive)
ROOT
ATOM      1  C2' OXE d   1       2.835   1.801  -5.879  0.00  0.00     0.078 C 
ATOM      2  C1' OXE d   1       1.731   4.380  -5.989  0.00  0.00     0.078 C 
ATOM      3  C1  OXE d   1       3.234   4.259  -5.952  0.00  0.00    -0.078 A 
ATOM      4  C2  OXE d   1       3.764   2.996  -5.851  0.00  0.00    -0.078 A 
ATOM      5  C3  OXE d   1       5.146   2.825  -5.868  0.00  0.00     0.003 A 
ATOM      6  C4  OXE d   1       5.998   3.936  -5.832  0.00  0.00    -0.002 A 
ATOM      7  C5  OXE d   1       5.477   5.232  -5.894  0.00  0.00    -0.002 A 
ATOM      8  C6  OXE d   1       4.102   5.410  -5.997  0.00  0.00     0.003 A 
ENDROOT
TORSDOF 0
ENDMDL
