MODEL 1
REMARK minimizedAffinity -0.825356126
REMARK minimizedRMSD -1
REMARK  0 active torsions:
REMARK  status: ('A' for Active; 'I' for Inactive)
ROOT
ATOM      1  C2' OXE d   1       0.783   1.742  -5.996  0.00  0.00     0.078 C 
ATOM      2  C1' OXE d   1      -1.880   2.631  -5.976  0.00  0.00     0.078 C 
ATOM      3  C1  OXE d   1      -0.790   3.674  -5.980  0.00  0.00    -0.078 A 
ATOM      4  C2  OXE d   1       0.510   3.230  -5.942  0.00  0.00    -0.078 A 
ATOM      5  C3  OXE d   1       1.554   4.148  -6.000  0.00  0.00     0.003 A 
ATOM      6  C4  OXE d   1       1.293   5.523  -5.940  0.00  0.00    -0.002 A 
ATOM      7  C5  OXE d   1      -0.023   5.996  -5.937  0.00  0.00    -0.002 A 
ATOM      8  C6  OXE d   1      -1.074   5.087  -6.000  0.00  0.00     0.003 A 
ENDROOT
TORSDOF 0
ENDMDL
