MODEL 1
REMARK minimizedAffinity -3.86671209
REMARK minimizedRMSD -1
REMARK  0 active torsions:
REMARK  status: ('A' for Active; 'I' for Inactive)
ROOT
ATOM      1  C2' OXE d   1       0.569   2.489  -5.998  0.00  0.00     0.078 C 
ATOM      2  C1' OXE d   1       1.125   5.241  -5.999  0.00  0.00     0.078 C 
ATOM      3  C1  OXE d   1      -0.322   4.815  -5.953  0.00  0.00    -0.078 A 
ATOM      4  C2  OXE d   1      -0.586   3.467  -6.000  0.00  0.00    -0.078 A 
ATOM      5  C3  OXE d   1      -1.900   3.019  -5.904  0.00  0.00     0.003 A 
ATOM      6  C4  OXE d   1      -2.963   3.930  -5.916  0.00  0.00    -0.002 A 
ATOM      7  C5  OXE d   1      -2.717   5.307  -5.908  0.00  0.00    -0.002 A 
ATOM      8  C6  OXE d   1      -1.404   5.765  -5.883  0.00  0.00     0.003 A 
ENDROOT
TORSDOF 0
ENDMDL
