MODEL 1
REMARK minimizedAffinity 5.70088148
REMARK minimizedRMSD -1
REMARK  0 active torsions:
REMARK  status: ('A' for Active; 'I' for Inactive)
ROOT
ATOM      1  C2' OXE d   1       4.320  -0.041  -2.015  0.00  0.00     0.078 C 
ATOM      2  C1' OXE d   1       2.139  -0.910  -0.475  0.00  0.00     0.078 C 
ATOM      3  C1  OXE d   1       2.475  -1.689  -1.723  0.00  0.00    -0.078 A 
ATOM      4  C2  OXE d   1       3.514  -1.229  -2.495  0.00  0.00    -0.078 A 
ATOM      5  C3  OXE d   1       3.901  -1.942  -3.626  0.00  0.00     0.003 A 
ATOM      6  C4  OXE d   1       3.144  -3.034  -4.069  0.00  0.00    -0.002 A 
ATOM      7  C5  OXE d   1       2.057  -3.495  -3.319  0.00  0.00    -0.002 A 
ATOM      8  C6  OXE d   1       1.736  -2.861  -2.123  0.00  0.00     0.003 A 
ENDROOT
TORSDOF 0
ENDMDL
