MODEL 1
REMARK minimizedAffinity -0.274930805
REMARK minimizedRMSD -1
REMARK  0 active torsions:
REMARK  status: ('A' for Active; 'I' for Inactive)
ROOT
ATOM      1  C2' OXE d   1      -3.306   5.666  -5.953  0.00  0.00     0.078 C 
ATOM      2  C1' OXE d   1      -2.904   2.888  -5.985  0.00  0.00     0.078 C 
ATOM      3  C1  OXE d   1      -1.685   3.775  -5.965  0.00  0.00    -0.078 A 
ATOM      4  C2  OXE d   1      -1.890   5.134  -5.997  0.00  0.00    -0.078 A 
ATOM      5  C3  OXE d   1      -0.801   5.997  -5.925  0.00  0.00     0.003 A 
ATOM      6  C4  OXE d   1       0.506   5.497  -5.976  0.00  0.00    -0.002 A 
ATOM      7  C5  OXE d   1       0.737   4.117  -5.985  0.00  0.00    -0.002 A 
ATOM      8  C6  OXE d   1      -0.344   3.244  -5.936  0.00  0.00     0.003 A 
ENDROOT
TORSDOF 0
ENDMDL
