MODEL 1
REMARK minimizedAffinity -1.3955096
REMARK minimizedRMSD -1
REMARK  0 active torsions:
REMARK  status: ('A' for Active; 'I' for Inactive)
ROOT
ATOM      1  C2' OXE d   1       0.911   2.863  -5.951  0.00  0.00     0.078 C 
ATOM      2  C1' OXE d   1       1.038   5.667  -5.985  0.00  0.00     0.078 C 
ATOM      3  C1  OXE d   1      -0.327   5.025  -5.967  0.00  0.00    -0.078 A 
ATOM      4  C2  OXE d   1      -0.380   3.652  -5.998  0.00  0.00    -0.078 A 
ATOM      5  C3  OXE d   1      -1.612   3.008  -5.928  0.00  0.00     0.003 A 
ATOM      6  C4  OXE d   1      -2.801   3.745  -5.981  0.00  0.00    -0.002 A 
ATOM      7  C5  OXE d   1      -2.770   5.143  -5.991  0.00  0.00    -0.002 A 
ATOM      8  C6  OXE d   1      -1.544   5.798  -5.941  0.00  0.00     0.003 A 
ENDROOT
TORSDOF 0
ENDMDL
