MODEL 1
REMARK minimizedAffinity 1.31341982
REMARK minimizedRMSD -1
REMARK  0 active torsions:
REMARK  status: ('A' for Active; 'I' for Inactive)
ROOT
ATOM      1  C2' OXE d   1       5.980   5.941  -5.884  0.00  0.00     0.078 C 
ATOM      2  C1' OXE d   1       5.987   3.133  -5.870  0.00  0.00     0.078 C 
ATOM      3  C1  OXE d   1       4.652   3.833  -5.927  0.00  0.00    -0.078 A 
ATOM      4  C2  OXE d   1       4.656   5.207  -5.887  0.00  0.00    -0.078 A 
ATOM      5  C3  OXE d   1       3.456   5.903  -5.992  0.00  0.00     0.003 A 
ATOM      6  C4  OXE d   1       2.235   5.217  -5.983  0.00  0.00    -0.002 A 
ATOM      7  C5  OXE d   1       2.207   3.818  -5.984  0.00  0.00    -0.002 A 
ATOM      8  C6  OXE d   1       3.405   3.113  -6.000  0.00  0.00     0.003 A 
ENDROOT
TORSDOF 0
ENDMDL
