MODEL 1
REMARK minimizedAffinity 1.02364194
REMARK minimizedRMSD -1
REMARK  0 active torsions:
REMARK  status: ('A' for Active; 'I' for Inactive)
ROOT
ATOM      1  C2' OXE d   1      -0.684   2.384  -5.968  0.00  0.00     0.078 C 
ATOM      2  C1' OXE d   1       0.409   4.970  -6.000  0.00  0.00     0.078 C 
ATOM      3  C1  OXE d   1      -1.093   4.841  -5.968  0.00  0.00    -0.078 A 
ATOM      4  C2  OXE d   1      -1.620   3.573  -5.999  0.00  0.00    -0.078 A 
ATOM      5  C3  OXE d   1      -2.998   3.396  -5.916  0.00  0.00     0.003 A 
ATOM      6  C4  OXE d   1      -3.858   4.501  -5.956  0.00  0.00    -0.002 A 
ATOM      7  C5  OXE d   1      -3.343   5.802  -5.964  0.00  0.00    -0.002 A 
ATOM      8  C6  OXE d   1      -1.965   5.989  -5.927  0.00  0.00     0.003 A 
ENDROOT
TORSDOF 0
ENDMDL
