MODEL 1
REMARK minimizedAffinity 6.53495407
REMARK minimizedRMSD -1
REMARK  0 active torsions:
REMARK  status: ('A' for Active; 'I' for Inactive)
ROOT
ATOM      1  C2' OXE d   1      -0.006   4.860  -5.946  0.00  0.00     0.078 C 
ATOM      2  C1' OXE d   1       2.673   4.022  -5.999  0.00  0.00     0.078 C 
ATOM      3  C1  OXE d   1       1.604   2.959  -5.973  0.00  0.00    -0.078 A 
ATOM      4  C2  OXE d   1       0.297   3.378  -5.900  0.00  0.00    -0.078 A 
ATOM      5  C3  OXE d   1      -0.730   2.439  -5.928  0.00  0.00     0.003 A 
ATOM      6  C4  OXE d   1      -0.441   1.070  -5.874  0.00  0.00    -0.002 A 
ATOM      7  C5  OXE d   1       0.883   0.622  -5.908  0.00  0.00    -0.002 A 
ATOM      8  C6  OXE d   1       1.914   1.551  -6.000  0.00  0.00     0.003 A 
ENDROOT
TORSDOF 0
ENDMDL
