MODEL 1
REMARK minimizedAffinity 11.4804306
REMARK minimizedRMSD -1
REMARK  0 active torsions:
REMARK  status: ('A' for Active; 'I' for Inactive)
ROOT
ATOM      1  C2' OXE d   1      -5.250   5.946   0.134  0.00  0.00     0.078 C 
ATOM      2  C1' OXE d   1      -5.947   6.000  -2.584  0.00  0.00     0.078 C 
ATOM      3  C1  OXE d   1      -5.784   4.652  -1.926  0.00  0.00    -0.078 A 
ATOM      4  C2  OXE d   1      -5.398   4.636  -0.608  0.00  0.00    -0.078 A 
ATOM      5  C3  OXE d   1      -5.287   3.421   0.063  0.00  0.00     0.003 A 
ATOM      6  C4  OXE d   1      -5.415   2.213  -0.633  0.00  0.00    -0.002 A 
ATOM      7  C5  OXE d   1      -5.770   2.207  -1.987  0.00  0.00    -0.002 A 
ATOM      8  C6  OXE d   1      -5.999   3.416  -2.636  0.00  0.00     0.003 A 
ENDROOT
TORSDOF 0
ENDMDL
