MODEL 1
REMARK minimizedAffinity -1.30887008
REMARK minimizedRMSD -1
REMARK  0 active torsions:
REMARK  status: ('A' for Active; 'I' for Inactive)
ROOT
ATOM      1  C2' OXE d   1       1.940   4.047  -5.781  0.00  0.00     0.078 C 
ATOM      2  C1' OXE d   1       1.318   3.375  -3.128  0.00  0.00     0.078 C 
ATOM      3  C1  OXE d   1       0.284   4.134  -3.922  0.00  0.00    -0.078 A 
ATOM      4  C2  OXE d   1       0.616   4.500  -5.204  0.00  0.00    -0.078 A 
ATOM      5  C3  OXE d   1      -0.322   5.154  -5.999  0.00  0.00     0.003 A 
ATOM      6  C4  OXE d   1      -1.540   5.578  -5.455  0.00  0.00    -0.002 A 
ATOM      7  C5  OXE d   1      -1.881   5.250  -4.138  0.00  0.00    -0.002 A 
ATOM      8  C6  OXE d   1      -1.000   4.494  -3.374  0.00  0.00     0.003 A 
ENDROOT
TORSDOF 0
ENDMDL
