MODEL 1
REMARK minimizedAffinity 2.33756781
REMARK minimizedRMSD -1
REMARK  0 active torsions:
REMARK  status: ('A' for Active; 'I' for Inactive)
ROOT
ATOM      1  C2' OXE d   1      -5.638  -4.129  -1.400  0.00  0.00     0.078 C 
ATOM      2  C1' OXE d   1      -3.373  -4.872   0.082  0.00  0.00     0.078 C 
ATOM      3  C1  OXE d   1      -3.359  -5.136  -1.403  0.00  0.00    -0.078 A 
ATOM      4  C2  OXE d   1      -4.490  -4.812  -2.113  0.00  0.00    -0.078 A 
ATOM      5  C3  OXE d   1      -4.510  -4.984  -3.494  0.00  0.00     0.003 A 
ATOM      6  C4  OXE d   1      -3.449  -5.626  -4.143  0.00  0.00    -0.002 A 
ATOM      7  C5  OXE d   1      -2.303  -6.000  -3.433  0.00  0.00    -0.002 A 
ATOM      8  C6  OXE d   1      -2.225  -5.724  -2.072  0.00  0.00     0.003 A 
ENDROOT
TORSDOF 0
ENDMDL
