MODEL 1
REMARK minimizedAffinity 8.87796783
REMARK minimizedRMSD -1
REMARK  0 active torsions:
REMARK  status: ('A' for Active; 'I' for Inactive)
ROOT
ATOM      1  C2' OXE d   1      -4.786   4.939  -5.151  0.00  0.00     0.078 C 
ATOM      2  C1' OXE d   1      -3.318   2.925  -3.859  0.00  0.00     0.078 C 
ATOM      3  C1  OXE d   1      -2.549   3.999  -4.588  0.00  0.00    -0.078 A 
ATOM      4  C2  OXE d   1      -3.276   4.954  -5.256  0.00  0.00    -0.078 A 
ATOM      5  C3  OXE d   1      -2.617   5.998  -5.899  0.00  0.00     0.003 A 
ATOM      6  C4  OXE d   1      -1.220   5.999  -6.000  0.00  0.00    -0.002 A 
ATOM      7  C5  OXE d   1      -0.462   5.013  -5.359  0.00  0.00    -0.002 A 
ATOM      8  C6  OXE d   1      -1.108   4.032  -4.615  0.00  0.00     0.003 A 
ENDROOT
TORSDOF 0
ENDMDL
