MODEL 1
REMARK minimizedAffinity 3.83181119
REMARK minimizedRMSD -1
REMARK  0 active torsions:
REMARK  status: ('A' for Active; 'I' for Inactive)
ROOT
ATOM      1  C2' OXE d   1      -0.921  -2.912   2.792  0.00  0.00     0.078 C 
ATOM      2  C1' OXE d   1      -0.504  -0.602   1.252  0.00  0.00     0.078 C 
ATOM      3  C1  OXE d   1      -1.864  -0.798   1.873  0.00  0.00    -0.078 A 
ATOM      4  C2  OXE d   1      -2.074  -1.953   2.586  0.00  0.00    -0.078 A 
ATOM      5  C3  OXE d   1      -3.294  -2.158   3.224  0.00  0.00     0.003 A 
ATOM      6  C4  OXE d   1      -4.358  -1.272   3.020  0.00  0.00    -0.002 A 
ATOM      7  C5  OXE d   1      -4.178  -0.108   2.264  0.00  0.00    -0.002 A 
ATOM      8  C6  OXE d   1      -2.928   0.164   1.720  0.00  0.00     0.003 A 
ENDROOT
TORSDOF 0
ENDMDL
