MODEL 1
REMARK minimizedAffinity 2.96518397
REMARK minimizedRMSD -1
REMARK  0 active torsions:
REMARK  status: ('A' for Active; 'I' for Inactive)
ROOT
ATOM      1  C2' OXE d   1      -1.085   1.737   0.769  0.00  0.00     0.078 C 
ATOM      2  C1' OXE d   1       0.243   3.763  -0.649  0.00  0.00     0.078 C 
ATOM      3  C1  OXE d   1       0.614   2.333  -0.953  0.00  0.00    -0.078 A 
ATOM      4  C2  OXE d   1      -0.007   1.349  -0.221  0.00  0.00    -0.078 A 
ATOM      5  C3  OXE d   1       0.258   0.012  -0.499  0.00  0.00     0.003 A 
ATOM      6  C4  OXE d   1       1.263  -0.338  -1.409  0.00  0.00    -0.002 A 
ATOM      7  C5  OXE d   1       1.936   0.650  -2.136  0.00  0.00    -0.002 A 
ATOM      8  C6  OXE d   1       1.595   1.985  -1.951  0.00  0.00     0.003 A 
ENDROOT
TORSDOF 0
ENDMDL
