MODEL 1
REMARK minimizedAffinity 5.49050665
REMARK minimizedRMSD -1
REMARK  0 active torsions:
REMARK  status: ('A' for Active; 'I' for Inactive)
ROOT
ATOM      1  C2' OXE d   1       1.671  -0.880  -4.846  0.00  0.00     0.078 C 
ATOM      2  C1' OXE d   1       0.870   0.415  -2.488  0.00  0.00     0.078 C 
ATOM      3  C1  OXE d   1       1.875  -0.703  -2.370  0.00  0.00    -0.078 A 
ATOM      4  C2  OXE d   1       2.226  -1.362  -3.523  0.00  0.00    -0.078 A 
ATOM      5  C3  OXE d   1       3.191  -2.365  -3.478  0.00  0.00     0.003 A 
ATOM      6  C4  OXE d   1       3.692  -2.812  -2.249  0.00  0.00    -0.002 A 
ATOM      7  C5  OXE d   1       3.318  -2.180  -1.058  0.00  0.00    -0.002 A 
ATOM      8  C6  OXE d   1       2.445  -1.099  -1.105  0.00  0.00     0.003 A 
ENDROOT
TORSDOF 0
ENDMDL
