MODEL 1
REMARK minimizedAffinity 6.40628815
REMARK minimizedRMSD -1
REMARK  0 active torsions:
REMARK  status: ('A' for Active; 'I' for Inactive)
ROOT
ATOM      1  C2' OXE d   1      -1.391  -2.721   2.771  0.00  0.00     0.078 C 
ATOM      2  C1' OXE d   1      -1.398  -0.374   1.231  0.00  0.00     0.078 C 
ATOM      3  C1  OXE d   1      -2.666  -0.740   1.961  0.00  0.00    -0.078 A 
ATOM      4  C2  OXE d   1      -2.668  -1.914   2.674  0.00  0.00    -0.078 A 
ATOM      5  C3  OXE d   1      -3.794  -2.272   3.410  0.00  0.00     0.003 A 
ATOM      6  C4  OXE d   1      -4.974  -1.526   3.307  0.00  0.00    -0.002 A 
ATOM      7  C5  OXE d   1      -5.006  -0.347   2.554  0.00  0.00    -0.002 A 
ATOM      8  C6  OXE d   1      -3.850   0.081   1.910  0.00  0.00     0.003 A 
ENDROOT
TORSDOF 0
ENDMDL
