MODEL 1
REMARK minimizedAffinity -2.72639608
REMARK minimizedRMSD -1
REMARK  0 active torsions:
REMARK  status: ('A' for Active; 'I' for Inactive)
ROOT
ATOM      1  C   UNL d   1       6.000  -0.968   2.214  0.00  0.00     0.077 C 
ATOM      2  C1  UNL d   1       5.992  -0.059   3.407  0.00  0.00    -0.074 A 
ATOM      3  C2  UNL d   1       5.997  -0.578   4.706  0.00  0.00    -0.005 A 
ATOM      4  C3  UNL d   1       5.999   0.280   5.806  0.00  0.00     0.006 A 
ATOM      5  C4  UNL d   1       5.996   1.663   5.618  0.00  0.00    -0.005 A 
ATOM      6  C5  UNL d   1       5.992   2.200   4.327  0.00  0.00    -0.074 A 
ATOM      7  C6  UNL d   1       6.000   3.683   4.108  0.00  0.00     0.077 C 
ATOM      8  C7  UNL d   1       5.997   1.331   3.227  0.00  0.00    -0.001 A 
ENDROOT
TORSDOF 0
ENDMDL
