MODEL 1
REMARK minimizedAffinity -2.56824803
REMARK minimizedRMSD -1
REMARK  0 active torsions:
REMARK  status: ('A' for Active; 'I' for Inactive)
ROOT
ATOM      1  C   UNL d   1       6.000   4.317   5.661  0.00  0.00     0.077 C 
ATOM      2  C1  UNL d   1       5.930   2.979   4.988  0.00  0.00    -0.074 A 
ATOM      3  C2  UNL d   1       5.959   2.874   3.593  0.00  0.00    -0.005 A 
ATOM      4  C3  UNL d   1       5.902   1.622   2.981  0.00  0.00     0.006 A 
ATOM      5  C4  UNL d   1       5.816   0.464   3.756  0.00  0.00    -0.005 A 
ATOM      6  C5  UNL d   1       5.787   0.550   5.151  0.00  0.00    -0.074 A 
ATOM      7  C6  UNL d   1       5.705  -0.685   5.999  0.00  0.00     0.077 C 
ATOM      8  C7  UNL d   1       5.852   1.811   5.759  0.00  0.00    -0.001 A 
ENDROOT
TORSDOF 0
ENDMDL
