MODEL 1
REMARK minimizedAffinity -3.23525858
REMARK minimizedRMSD -1
REMARK  0 active torsions:
REMARK  status: ('A' for Active; 'I' for Inactive)
ROOT
ATOM      1  C   UNL d   1       4.878  -0.765   2.559  0.00  0.00     0.077 C 
ATOM      2  C1  UNL d   1       5.263   0.154   3.681  0.00  0.00    -0.074 A 
ATOM      3  C2  UNL d   1       5.491  -0.341   4.969  0.00  0.00    -0.005 A 
ATOM      4  C3  UNL d   1       5.858   0.524   6.000  0.00  0.00     0.006 A 
ATOM      5  C4  UNL d   1       5.999   1.890   5.754  0.00  0.00    -0.005 A 
ATOM      6  C5  UNL d   1       5.775   2.403   4.472  0.00  0.00    -0.074 A 
ATOM      7  C6  UNL d   1       5.932   3.867   4.188  0.00  0.00     0.077 C 
ATOM      8  C7  UNL d   1       5.414   1.526   3.440  0.00  0.00    -0.001 A 
ENDROOT
TORSDOF 0
ENDMDL
