MODEL 1
REMARK minimizedAffinity -2.7898035
REMARK minimizedRMSD -1
REMARK  0 active torsions:
REMARK  status: ('A' for Active; 'I' for Inactive)
ROOT
ATOM      1  C   UNL d   1       5.988   0.371   6.000  0.00  0.00     0.077 C 
ATOM      2  C1  UNL d   1       5.998   1.179   4.736  0.00  0.00    -0.074 A 
ATOM      3  C2  UNL d   1       6.000   0.555   3.484  0.00  0.00    -0.005 A 
ATOM      4  C3  UNL d   1       6.000   1.320   2.318  0.00  0.00     0.006 A 
ATOM      5  C4  UNL d   1       5.998   2.713   2.391  0.00  0.00    -0.005 A 
ATOM      6  C5  UNL d   1       5.996   3.354   3.634  0.00  0.00    -0.074 A 
ATOM      7  C6  UNL d   1       5.984   4.851   3.730  0.00  0.00     0.077 C 
ATOM      8  C7  UNL d   1       5.988   2.579   4.801  0.00  0.00    -0.001 A 
ENDROOT
TORSDOF 0
ENDMDL
