MODEL 1
REMARK minimizedAffinity 4.21725035
REMARK minimizedRMSD -1
REMARK  0 active torsions:
REMARK  status: ('A' for Active; 'I' for Inactive)
ROOT
ATOM      1  C   UNL d   1       5.981   5.894   0.274  0.00  0.00     0.077 C 
ATOM      2  C1  UNL d   1       5.991   5.205   1.606  0.00  0.00    -0.074 A 
ATOM      3  C2  UNL d   1       5.981   5.941   2.795  0.00  0.00    -0.005 A 
ATOM      4  C3  UNL d   1       5.980   5.286   4.027  0.00  0.00     0.006 A 
ATOM      5  C4  UNL d   1       5.990   3.891   4.081  0.00  0.00    -0.005 A 
ATOM      6  C5  UNL d   1       5.999   3.139   2.902  0.00  0.00    -0.074 A 
ATOM      7  C6  UNL d   1       5.999   1.640   2.943  0.00  0.00     0.077 C 
ATOM      8  C7  UNL d   1       5.992   3.805   1.669  0.00  0.00    -0.001 A 
ENDROOT
TORSDOF 0
ENDMDL
