MODEL 1
REMARK minimizedAffinity -0.317146331
REMARK minimizedRMSD -1
REMARK  0 active torsions:
REMARK  status: ('A' for Active; 'I' for Inactive)
ROOT
ATOM      1  C   UNL d   1       5.985  -0.587   5.997  0.00  0.00     0.077 C 
ATOM      2  C1  UNL d   1       5.997   0.102   4.665  0.00  0.00    -0.074 A 
ATOM      3  C2  UNL d   1       5.996  -0.633   3.475  0.00  0.00    -0.005 A 
ATOM      4  C3  UNL d   1       5.998   0.023   2.243  0.00  0.00     0.006 A 
ATOM      5  C4  UNL d   1       6.000   1.417   2.189  0.00  0.00    -0.005 A 
ATOM      6  C5  UNL d   1       6.000   2.169   3.369  0.00  0.00    -0.074 A 
ATOM      7  C6  UNL d   1       5.992   3.668   3.329  0.00  0.00     0.077 C 
ATOM      8  C7  UNL d   1       5.991   1.503   4.602  0.00  0.00    -0.001 A 
ENDROOT
TORSDOF 0
ENDMDL
