MODEL 1
REMARK minimizedAffinity -0.420468301
REMARK minimizedRMSD -1
REMARK  0 active torsions:
REMARK  status: ('A' for Active; 'I' for Inactive)
ROOT
ATOM      1  C   UNL d   1       5.977   0.023   5.990  0.00  0.00     0.077 C 
ATOM      2  C1  UNL d   1       5.992   0.780   4.696  0.00  0.00    -0.074 A 
ATOM      3  C2  UNL d   1       5.992   0.107   3.469  0.00  0.00    -0.005 A 
ATOM      4  C3  UNL d   1       5.996   0.825   2.274  0.00  0.00     0.006 A 
ATOM      5  C4  UNL d   1       5.999   2.220   2.292  0.00  0.00    -0.005 A 
ATOM      6  C5  UNL d   1       5.998   2.910   3.508  0.00  0.00    -0.074 A 
ATOM      7  C6  UNL d   1       5.992   4.410   3.545  0.00  0.00     0.077 C 
ATOM      8  C7  UNL d   1       5.987   2.182   4.706  0.00  0.00    -0.001 A 
ENDROOT
TORSDOF 0
ENDMDL
