MODEL 1
REMARK minimizedAffinity 14.5747681
REMARK minimizedRMSD -1
REMARK  0 active torsions:
REMARK  status: ('A' for Active; 'I' for Inactive)
ROOT
ATOM      1  C   UNL d   1       4.157   1.417   1.047  0.00  0.00     0.077 C 
ATOM      2  C1  UNL d   1       4.792   1.950   2.297  0.00  0.00    -0.074 A 
ATOM      3  C2  UNL d   1       5.110   1.099   3.361  0.00  0.00    -0.005 A 
ATOM      4  C3  UNL d   1       5.709   1.608   4.513  0.00  0.00     0.006 A 
ATOM      5  C4  UNL d   1       5.997   2.969   4.613  0.00  0.00    -0.005 A 
ATOM      6  C5  UNL d   1       5.688   3.835   3.559  0.00  0.00    -0.074 A 
ATOM      7  C6  UNL d   1       6.000   5.299   3.646  0.00  0.00     0.077 C 
ATOM      8  C7  UNL d   1       5.092   3.315   2.402  0.00  0.00    -0.001 A 
ENDROOT
TORSDOF 0
ENDMDL
