MODEL 1
REMARK minimizedAffinity -2.26464939
REMARK minimizedRMSD -1
REMARK  0 active torsions:
REMARK  status: ('A' for Active; 'I' for Inactive)
ROOT
ATOM      1  C   UNL d   1       5.250   0.000   5.236  0.00  0.00     0.077 C 
ATOM      2  C1  UNL d   1       5.513   1.197   4.372  0.00  0.00    -0.074 A 
ATOM      3  C2  UNL d   1       5.767   1.055   3.004  0.00  0.00    -0.005 A 
ATOM      4  C3  UNL d   1       6.000   2.178   2.211  0.00  0.00     0.006 A 
ATOM      5  C4  UNL d   1       5.981   3.454   2.777  0.00  0.00    -0.005 A 
ATOM      6  C5  UNL d   1       5.728   3.616   4.143  0.00  0.00    -0.074 A 
ATOM      7  C6  UNL d   1       5.694   4.980   4.765  0.00  0.00     0.077 C 
ATOM      8  C7  UNL d   1       5.488   2.483   4.932  0.00  0.00    -0.001 A 
ENDROOT
TORSDOF 0
ENDMDL
