MODEL 1
REMARK minimizedAffinity -3.79833126
REMARK minimizedRMSD -1
REMARK  0 active torsions:
REMARK  status: ('A' for Active; 'I' for Inactive)
ROOT
ATOM      1  C   UNL d   1       5.997  -1.030   1.728  0.00  0.00     0.077 C 
ATOM      2  C1  UNL d   1       5.756  -0.125   2.899  0.00  0.00    -0.074 A 
ATOM      3  C2  UNL d   1       5.452  -0.647   4.160  0.00  0.00    -0.005 A 
ATOM      4  C3  UNL d   1       5.240   0.208   5.242  0.00  0.00     0.006 A 
ATOM      5  C4  UNL d   1       5.330   1.590   5.074  0.00  0.00    -0.005 A 
ATOM      6  C5  UNL d   1       5.634   2.130   3.820  0.00  0.00    -0.074 A 
ATOM      7  C6  UNL d   1       5.745   3.613   3.625  0.00  0.00     0.077 C 
ATOM      8  C7  UNL d   1       5.853   1.265   2.740  0.00  0.00    -0.001 A 
ENDROOT
TORSDOF 0
ENDMDL
