MODEL 1
REMARK minimizedAffinity -1.31472278
REMARK minimizedRMSD -1
REMARK  0 active torsions:
REMARK  status: ('A' for Active; 'I' for Inactive)
ROOT
ATOM      1  C   UNL d   1       5.994   2.170   2.290  0.00  0.00     0.077 C 
ATOM      2  C1  UNL d   1       5.999   1.347   3.544  0.00  0.00    -0.074 A 
ATOM      3  C2  UNL d   1       6.000   1.956   4.803  0.00  0.00    -0.005 A 
ATOM      4  C3  UNL d   1       5.995   1.177   5.960  0.00  0.00     0.006 A 
ATOM      5  C4  UNL d   1       5.991  -0.215   5.870  0.00  0.00    -0.005 A 
ATOM      6  C5  UNL d   1       5.990  -0.841   4.620  0.00  0.00    -0.074 A 
ATOM      7  C6  UNL d   1       5.975  -2.337   4.505  0.00  0.00     0.077 C 
ATOM      8  C7  UNL d   1       5.987  -0.052   3.461  0.00  0.00    -0.001 A 
ENDROOT
TORSDOF 0
ENDMDL
