MODEL 1
REMARK minimizedAffinity 0.191822603
REMARK minimizedRMSD -1
REMARK  0 active torsions:
REMARK  status: ('A' for Active; 'I' for Inactive)
ROOT
ATOM      1  C   UNL d   1       5.988  -0.608   5.910  0.00  0.00     0.077 C 
ATOM      2  C1  UNL d   1       5.999   0.230   4.666  0.00  0.00    -0.074 A 
ATOM      3  C2  UNL d   1       6.000  -0.363   3.399  0.00  0.00    -0.005 A 
ATOM      4  C3  UNL d   1       6.000   0.430   2.252  0.00  0.00     0.006 A 
ATOM      5  C4  UNL d   1       5.999   1.821   2.358  0.00  0.00    -0.005 A 
ATOM      6  C5  UNL d   1       5.997   2.432   3.616  0.00  0.00    -0.074 A 
ATOM      7  C6  UNL d   1       5.986   3.926   3.749  0.00  0.00     0.077 C 
ATOM      8  C7  UNL d   1       5.990   1.629   4.765  0.00  0.00    -0.001 A 
ENDROOT
TORSDOF 0
ENDMDL
