MODEL 1
REMARK minimizedAffinity -1.63379836
REMARK minimizedRMSD -1
REMARK  0 active torsions:
REMARK  status: ('A' for Active; 'I' for Inactive)
ROOT
ATOM      1  C   UNL d   1       5.981   0.791   2.187  0.00  0.00     0.077 C 
ATOM      2  C1  UNL d   1       5.994   0.106   3.521  0.00  0.00    -0.074 A 
ATOM      3  C2  UNL d   1       5.996   0.844   4.709  0.00  0.00    -0.005 A 
ATOM      4  C3  UNL d   1       5.998   0.192   5.942  0.00  0.00     0.006 A 
ATOM      5  C4  UNL d   1       6.000  -1.202   6.000  0.00  0.00    -0.005 A 
ATOM      6  C5  UNL d   1       5.997  -1.957   4.823  0.00  0.00    -0.074 A 
ATOM      7  C6  UNL d   1       5.989  -3.456   4.867  0.00  0.00     0.077 C 
ATOM      8  C7  UNL d   1       5.988  -1.295   3.587  0.00  0.00    -0.001 A 
ENDROOT
TORSDOF 0
ENDMDL
