MODEL 1
REMARK minimizedAffinity 0.0898082331
REMARK minimizedRMSD -1
REMARK  0 active torsions:
REMARK  status: ('A' for Active; 'I' for Inactive)
ROOT
ATOM      1  C   UNL d   1       5.979   1.698   3.018  0.00  0.00     0.077 C 
ATOM      2  C1  UNL d   1       5.992   3.197   3.032  0.00  0.00    -0.074 A 
ATOM      3  C2  UNL d   1       5.993   3.927   1.839  0.00  0.00    -0.005 A 
ATOM      4  C3  UNL d   1       5.996   5.322   1.868  0.00  0.00     0.006 A 
ATOM      5  C4  UNL d   1       5.998   6.000   3.088  0.00  0.00    -0.005 A 
ATOM      6  C5  UNL d   1       5.996   5.286   4.291  0.00  0.00    -0.074 A 
ATOM      7  C6  UNL d   1       5.989   5.999   5.611  0.00  0.00     0.077 C 
ATOM      8  C7  UNL d   1       5.986   3.885   4.254  0.00  0.00    -0.001 A 
ENDROOT
TORSDOF 0
ENDMDL
