MODEL 1
REMARK minimizedAffinity 0.12741594
REMARK minimizedRMSD -1
REMARK  0 active torsions:
REMARK  status: ('A' for Active; 'I' for Inactive)
ROOT
ATOM      1  C   UNL d   1       5.565   5.249   3.426  0.00  0.00     0.077 C 
ATOM      2  C1  UNL d   1       5.233   5.257   1.963  0.00  0.00    -0.074 A 
ATOM      3  C2  UNL d   1       6.000   5.994   1.056  0.00  0.00    -0.005 A 
ATOM      4  C3  UNL d   1       5.684   5.985  -0.303  0.00  0.00     0.006 A 
ATOM      5  C4  UNL d   1       4.601   5.238  -0.767  0.00  0.00    -0.005 A 
ATOM      6  C5  UNL d   1       3.823   4.494   0.125  0.00  0.00    -0.074 A 
ATOM      7  C6  UNL d   1       2.661   3.678  -0.358  0.00  0.00     0.077 C 
ATOM      8  C7  UNL d   1       4.151   4.503   1.488  0.00  0.00    -0.001 A 
ENDROOT
TORSDOF 0
ENDMDL
