MODEL 1
REMARK minimizedAffinity -2.60787106
REMARK minimizedRMSD -1
REMARK  0 active torsions:
REMARK  status: ('A' for Active; 'I' for Inactive)
ROOT
ATOM      1  C   UNL d   1       5.713  -1.889   4.516  0.00  0.00     0.077 C 
ATOM      2  C1  UNL d   1       5.657  -0.396   4.646  0.00  0.00    -0.074 A 
ATOM      3  C2  UNL d   1       5.439   0.210   5.887  0.00  0.00    -0.005 A 
ATOM      4  C3  UNL d   1       5.399   1.600   5.993  0.00  0.00     0.006 A 
ATOM      5  C4  UNL d   1       5.576   2.397   4.861  0.00  0.00    -0.005 A 
ATOM      6  C5  UNL d   1       5.796   1.809   3.612  0.00  0.00    -0.074 A 
ATOM      7  C6  UNL d   1       5.998   2.650   2.387  0.00  0.00     0.077 C 
ATOM      8  C7  UNL d   1       5.842   0.411   3.514  0.00  0.00    -0.001 A 
ENDROOT
TORSDOF 0
ENDMDL
