MODEL 1
REMARK minimizedAffinity -2.32389259
REMARK minimizedRMSD -1
REMARK  0 active torsions:
REMARK  status: ('A' for Active; 'I' for Inactive)
ROOT
ATOM      1  C   UNL d   1       5.971   2.191   2.273  0.00  0.00     0.077 C 
ATOM      2  C1  UNL d   1       5.986   1.438   3.570  0.00  0.00    -0.074 A 
ATOM      3  C2  UNL d   1       5.996   2.115   4.794  0.00  0.00    -0.005 A 
ATOM      4  C3  UNL d   1       6.000   1.401   5.992  0.00  0.00     0.006 A 
ATOM      5  C4  UNL d   1       5.994   0.006   5.979  0.00  0.00    -0.005 A 
ATOM      6  C5  UNL d   1       5.984  -0.688   4.765  0.00  0.00    -0.074 A 
ATOM      7  C6  UNL d   1       5.967  -2.187   4.734  0.00  0.00     0.077 C 
ATOM      8  C7  UNL d   1       5.973   0.036   3.565  0.00  0.00    -0.001 A 
ENDROOT
TORSDOF 0
ENDMDL
