MODEL 1
REMARK minimizedAffinity 6.87491226
REMARK minimizedRMSD -1
REMARK  0 active torsions:
REMARK  status: ('A' for Active; 'I' for Inactive)
ROOT
ATOM      1  C   UNL d   1      -1.146   1.084   2.498  0.00  0.00     0.077 C 
ATOM      2  C1  UNL d   1      -1.282   2.458   3.084  0.00  0.00    -0.074 A 
ATOM      3  C2  UNL d   1      -0.236   3.382   3.000  0.00  0.00    -0.005 A 
ATOM      4  C3  UNL d   1      -0.380   4.659   3.542  0.00  0.00     0.006 A 
ATOM      5  C4  UNL d   1      -1.570   5.024   4.172  0.00  0.00    -0.005 A 
ATOM      6  C5  UNL d   1      -2.627   4.114   4.265  0.00  0.00    -0.074 A 
ATOM      7  C6  UNL d   1      -3.917   4.494   4.931  0.00  0.00     0.077 C 
ATOM      8  C7  UNL d   1      -2.477   2.835   3.713  0.00  0.00    -0.001 A 
ENDROOT
TORSDOF 0
ENDMDL
