MODEL 1
REMARK minimizedAffinity -2.31617475
REMARK minimizedRMSD -1
REMARK  0 active torsions:
REMARK  status: ('A' for Active; 'I' for Inactive)
ROOT
ATOM      1  C   UNL d   1       5.992   5.479   0.495  0.00  0.00     0.077 C 
ATOM      2  C1  UNL d   1       5.991   5.012   1.921  0.00  0.00    -0.074 A 
ATOM      3  C2  UNL d   1       5.968   5.928   2.977  0.00  0.00    -0.005 A 
ATOM      4  C3  UNL d   1       5.957   5.478   4.298  0.00  0.00     0.006 A 
ATOM      5  C4  UNL d   1       5.971   4.111   4.574  0.00  0.00    -0.005 A 
ATOM      6  C5  UNL d   1       5.994   3.180   3.531  0.00  0.00    -0.074 A 
ATOM      7  C6  UNL d   1       5.999   1.706   3.811  0.00  0.00     0.077 C 
ATOM      8  C7  UNL d   1       5.997   3.639   2.207  0.00  0.00    -0.001 A 
ENDROOT
TORSDOF 0
ENDMDL
