MODEL 1
REMARK minimizedAffinity 1.89708877
REMARK minimizedRMSD -1
REMARK  0 active torsions:
REMARK  status: ('A' for Active; 'I' for Inactive)
ROOT
ATOM      1  C   UNL d   1       0.695   0.540  -0.896  0.00  0.00     0.172 C 
ATOM      2  N   UNL d   1      -0.117   1.621  -0.389  0.00  0.00    -0.070 N 
ATOM      3  C1  UNL d   1       0.340   2.695   0.327  0.00  0.00    -0.004 A 
ATOM      4  C2  UNL d   1      -0.741   3.496   0.622  0.00  0.00    -0.047 A 
ATOM      5  C3  UNL d   1      -1.888   2.883   0.065  0.00  0.00    -0.047 A 
ATOM      6  C4  UNL d   1      -1.473   1.723  -0.555  0.00  0.00    -0.004 A 
ENDROOT
TORSDOF 0
ENDMDL
