MODEL 1
REMARK minimizedAffinity 1.67140138
REMARK minimizedRMSD -1
REMARK  0 active torsions:
REMARK  status: ('A' for Active; 'I' for Inactive)
ROOT
ATOM      1  C   UNL d   1       3.414   0.636  -3.008  0.00  0.00     0.172 C 
ATOM      2  N   UNL d   1       2.969   0.550  -1.637  0.00  0.00    -0.070 N 
ATOM      3  C1  UNL d   1       1.688   0.289  -1.229  0.00  0.00    -0.004 A 
ATOM      4  C2  UNL d   1       1.677   0.291   0.149  0.00  0.00    -0.047 A 
ATOM      5  C3  UNL d   1       2.996   0.562   0.584  0.00  0.00    -0.047 A 
ATOM      6  C4  UNL d   1       3.775   0.718  -0.542  0.00  0.00    -0.004 A 
ENDROOT
TORSDOF 0
ENDMDL
