MODEL 1
REMARK minimizedAffinity 3.10261846
REMARK minimizedRMSD -1
REMARK  0 active torsions:
REMARK  status: ('A' for Active; 'I' for Inactive)
ROOT
ATOM      1  C   UNL d   1      -3.180   2.150  -0.002  0.00  0.00     0.172 C 
ATOM      2  N   UNL d   1      -4.284   1.577   0.733  0.00  0.00    -0.070 N 
ATOM      3  C1  UNL d   1      -4.936   2.167   1.783  0.00  0.00    -0.004 A 
ATOM      4  C2  UNL d   1      -5.923   1.304   2.205  0.00  0.00    -0.047 A 
ATOM      5  C3  UNL d   1      -5.862   0.155   1.381  0.00  0.00    -0.047 A 
ATOM      6  C4  UNL d   1      -4.839   0.351   0.478  0.00  0.00    -0.004 A 
ENDROOT
TORSDOF 0
ENDMDL
