MODEL 1
REMARK minimizedAffinity -2.12336445
REMARK minimizedRMSD -1
REMARK  0 active torsions:
REMARK  status: ('A' for Active; 'I' for Inactive)
ROOT
ATOM      1  C   UNL d   1      -0.228   3.291   0.208  0.00  0.00     0.172 C 
ATOM      2  N   UNL d   1       0.249   2.032  -0.314  0.00  0.00    -0.070 N 
ATOM      3  C1  UNL d   1       1.246   1.268   0.233  0.00  0.00    -0.004 A 
ATOM      4  C2  UNL d   1       1.401   0.149  -0.557  0.00  0.00    -0.047 A 
ATOM      5  C3  UNL d   1       0.466   0.245  -1.616  0.00  0.00    -0.047 A 
ATOM      6  C4  UNL d   1      -0.234   1.420  -1.440  0.00  0.00    -0.004 A 
ENDROOT
TORSDOF 0
ENDMDL
