MODEL 1
REMARK minimizedAffinity -0.864001334
REMARK minimizedRMSD -1
REMARK  0 active torsions:
REMARK  status: ('A' for Active; 'I' for Inactive)
ROOT
ATOM      1  C   UNL d   1       3.327  -0.099  -2.708  0.00  0.00     0.172 C 
ATOM      2  N   UNL d   1       2.757   0.070  -1.393  0.00  0.00    -0.070 N 
ATOM      3  C1  UNL d   1       3.451   0.395  -0.258  0.00  0.00    -0.004 A 
ATOM      4  C2  UNL d   1       2.551   0.461   0.783  0.00  0.00    -0.047 A 
ATOM      5  C3  UNL d   1       1.271   0.164   0.256  0.00  0.00    -0.047 A 
ATOM      6  C4  UNL d   1       1.428  -0.074  -1.093  0.00  0.00    -0.004 A 
ENDROOT
TORSDOF 0
ENDMDL
