MODEL 1
REMARK minimizedAffinity -2.29287148
REMARK minimizedRMSD -1
REMARK  0 active torsions:
REMARK  status: ('A' for Active; 'I' for Inactive)
ROOT
ATOM      1  C   UNL d   1       4.402  -0.493  -4.407  0.00  0.00     0.172 C 
ATOM      2  N   UNL d   1       4.509   0.106  -3.097  0.00  0.00    -0.070 N 
ATOM      3  C1  UNL d   1       5.577   0.827  -2.635  0.00  0.00    -0.004 A 
ATOM      4  C2  UNL d   1       5.293   1.223  -1.346  0.00  0.00    -0.047 A 
ATOM      5  C3  UNL d   1       4.009   0.722  -1.022  0.00  0.00    -0.047 A 
ATOM      6  C4  UNL d   1       3.547   0.034  -2.125  0.00  0.00    -0.004 A 
ENDROOT
TORSDOF 0
ENDMDL
