MODEL 1
REMARK minimizedAffinity 6.53389311
REMARK minimizedRMSD -1
REMARK  0 active torsions:
REMARK  status: ('A' for Active; 'I' for Inactive)
ROOT
ATOM      1  C   UNL d   1       3.380   0.360  -2.681  0.00  0.00     0.172 C 
ATOM      2  N   UNL d   1       2.753   0.231  -1.386  0.00  0.00    -0.070 N 
ATOM      3  C1  UNL d   1       1.439  -0.084  -1.164  0.00  0.00    -0.004 A 
ATOM      4  C2  UNL d   1       1.236  -0.109   0.199  0.00  0.00    -0.047 A 
ATOM      5  C3  UNL d   1       2.470   0.203   0.817  0.00  0.00    -0.047 A 
ATOM      6  C4  UNL d   1       3.392   0.409  -0.188  0.00  0.00    -0.004 A 
ENDROOT
TORSDOF 0
ENDMDL
