MODEL 1
REMARK minimizedAffinity 1.02897739
REMARK minimizedRMSD -1
REMARK  0 active torsions:
REMARK  status: ('A' for Active; 'I' for Inactive)
ROOT
ATOM      1  C   UNL d   1       1.402   0.662   1.249  0.00  0.00     0.172 C 
ATOM      2  N   UNL d   1       0.503   0.979   0.165  0.00  0.00    -0.070 N 
ATOM      3  C1  UNL d   1       0.270   0.196  -0.934  0.00  0.00    -0.004 A 
ATOM      4  C2  UNL d   1      -0.648   0.848  -1.729  0.00  0.00    -0.047 A 
ATOM      5  C3  UNL d   1      -0.977   2.065  -1.086  0.00  0.00    -0.047 A 
ATOM      6  C4  UNL d   1      -0.251   2.120   0.084  0.00  0.00    -0.004 A 
ENDROOT
TORSDOF 0
ENDMDL
