MODEL 1
REMARK minimizedAffinity 7.47997379
REMARK minimizedRMSD -1
REMARK  0 active torsions:
REMARK  status: ('A' for Active; 'I' for Inactive)
ROOT
ATOM      1  C   UNL d   1       3.340  -0.362   1.694  0.00  0.00     0.172 C 
ATOM      2  N   UNL d   1       3.169   0.112   0.341  0.00  0.00    -0.070 N 
ATOM      3  C1  UNL d   1       3.941   1.059  -0.277  0.00  0.00    -0.004 A 
ATOM      4  C2  UNL d   1       3.456   1.229  -1.556  0.00  0.00    -0.047 A 
ATOM      5  C3  UNL d   1       2.355   0.355  -1.711  0.00  0.00    -0.047 A 
ATOM      6  C4  UNL d   1       2.199  -0.325  -0.522  0.00  0.00    -0.004 A 
ENDROOT
TORSDOF 0
ENDMDL
