MODEL 1
REMARK minimizedAffinity 5.47677279
REMARK minimizedRMSD -1
REMARK  0 active torsions:
REMARK  status: ('A' for Active; 'I' for Inactive)
ROOT
ATOM      1  C   UNL d   1      -1.139   1.914  -1.104  0.00  0.00     0.172 C 
ATOM      2  N   UNL d   1      -1.278   3.078  -0.260  0.00  0.00    -0.070 N 
ATOM      3  C1  UNL d   1      -2.358   3.919  -0.231  0.00  0.00    -0.004 A 
ATOM      4  C2  UNL d   1      -2.104   4.901   0.702  0.00  0.00    -0.047 A 
ATOM      5  C3  UNL d   1      -0.826   4.641   1.252  0.00  0.00    -0.047 A 
ATOM      6  C4  UNL d   1      -0.337   3.507   0.639  0.00  0.00    -0.004 A 
ENDROOT
TORSDOF 0
ENDMDL
