MODEL 1
REMARK minimizedAffinity 9.607234
REMARK minimizedRMSD -1
REMARK  0 active torsions:
REMARK  status: ('A' for Active; 'I' for Inactive)
ROOT
ATOM      1  C   UNL d   1       3.037  -2.391  -3.982  0.00  0.00     0.078 C 
ATOM      2  C1  UNL d   1       2.393  -1.925  -2.711  0.00  0.00    -0.077 A 
ATOM      3  C2  UNL d   1       2.160  -0.564  -2.477  0.00  0.00    -0.001 A 
ATOM      4  C3  UNL d   1       1.569  -0.144  -1.284  0.00  0.00     0.003 A 
ATOM      5  C4  UNL d   1       1.207  -1.078  -0.316  0.00  0.00    -0.005 A 
ATOM      6  C5  UNL d   1       1.437  -2.434  -0.538  0.00  0.00     0.003 A 
ATOM      7  C6  UNL d   1       2.028  -2.856  -1.730  0.00  0.00    -0.001 A 
ENDROOT
TORSDOF 0
ENDMDL
