MODEL 1
REMARK minimizedAffinity 8.00898743
REMARK minimizedRMSD -1
REMARK  0 active torsions:
REMARK  status: ('A' for Active; 'I' for Inactive)
ROOT
ATOM      1  C   UNL d   1      -4.130  -1.824   5.632  0.00  0.00     0.078 C 
ATOM      2  C1  UNL d   1      -3.967  -0.428   5.110  0.00  0.00    -0.077 A 
ATOM      3  C2  UNL d   1      -4.063  -0.154   3.741  0.00  0.00    -0.001 A 
ATOM      4  C3  UNL d   1      -3.899   1.150   3.269  0.00  0.00     0.003 A 
ATOM      5  C4  UNL d   1      -3.639   2.189   4.159  0.00  0.00    -0.005 A 
ATOM      6  C5  UNL d   1      -3.540   1.925   5.524  0.00  0.00     0.003 A 
ATOM      7  C6  UNL d   1      -3.702   0.623   5.998  0.00  0.00    -0.001 A 
ENDROOT
TORSDOF 0
ENDMDL
