MODEL 1
REMARK minimizedAffinity 9.2806673
REMARK minimizedRMSD -1
REMARK  0 active torsions:
REMARK  status: ('A' for Active; 'I' for Inactive)
ROOT
ATOM      1  C   UNL d   1      -1.133   2.675  -4.146  0.00  0.00     0.078 C 
ATOM      2  C1  UNL d   1      -2.035   3.825  -4.479  0.00  0.00    -0.077 A 
ATOM      3  C2  UNL d   1      -2.747   3.858  -5.684  0.00  0.00    -0.001 A 
ATOM      4  C3  UNL d   1      -3.576   4.940  -5.985  0.00  0.00     0.003 A 
ATOM      5  C4  UNL d   1      -3.699   5.998  -5.087  0.00  0.00    -0.005 A 
ATOM      6  C5  UNL d   1      -2.993   5.976  -3.887  0.00  0.00     0.003 A 
ATOM      7  C6  UNL d   1      -2.163   4.895  -3.584  0.00  0.00    -0.001 A 
ENDROOT
TORSDOF 0
ENDMDL
