MODEL 1
REMARK minimizedAffinity 1.16735566
REMARK minimizedRMSD -1
REMARK  0 active torsions:
REMARK  status: ('A' for Active; 'I' for Inactive)
ROOT
ATOM      1  C   UNL d   1      -1.270  -5.348  -3.375  0.00  0.00     0.078 C 
ATOM      2  C1  UNL d   1      -2.351  -4.859  -4.292  0.00  0.00    -0.077 A 
ATOM      3  C2  UNL d   1      -2.734  -3.512  -4.301  0.00  0.00    -0.001 A 
ATOM      4  C3  UNL d   1      -3.749  -3.072  -5.153  0.00  0.00     0.003 A 
ATOM      5  C4  UNL d   1      -4.391  -3.973  -6.000  0.00  0.00    -0.005 A 
ATOM      6  C5  UNL d   1      -4.018  -5.316  -5.996  0.00  0.00     0.003 A 
ATOM      7  C6  UNL d   1      -3.003  -5.757  -5.145  0.00  0.00    -0.001 A 
ENDROOT
TORSDOF 0
ENDMDL
