MODEL 1
REMARK minimizedAffinity 3.80215096
REMARK minimizedRMSD -1
REMARK  0 active torsions:
REMARK  status: ('A' for Active; 'I' for Inactive)
ROOT
ATOM      1  C   UNL d   1      -3.532   4.446  -5.998  0.00  0.00     0.078 C 
ATOM      2  C1  UNL d   1      -2.713   3.410  -5.288  0.00  0.00    -0.077 A 
ATOM      3  C2  UNL d   1      -2.872   3.179  -3.916  0.00  0.00    -0.001 A 
ATOM      4  C3  UNL d   1      -2.096   2.218  -3.267  0.00  0.00     0.003 A 
ATOM      5  C4  UNL d   1      -1.154   1.480  -3.982  0.00  0.00    -0.005 A 
ATOM      6  C5  UNL d   1      -0.987   1.704  -5.347  0.00  0.00     0.003 A 
ATOM      7  C6  UNL d   1      -1.763   2.665  -5.998  0.00  0.00    -0.001 A 
ENDROOT
TORSDOF 0
ENDMDL
