MODEL 1
REMARK minimizedAffinity 6.46032286
REMARK minimizedRMSD -1
REMARK  0 active torsions:
REMARK  status: ('A' for Active; 'I' for Inactive)
ROOT
ATOM      1  C   UNL d   1      -1.096  -4.824  -3.682  0.00  0.00     0.078 C 
ATOM      2  C1  UNL d   1      -2.265  -4.345  -4.490  0.00  0.00    -0.077 A 
ATOM      3  C2  UNL d   1      -2.638  -2.995  -4.489  0.00  0.00    -0.001 A 
ATOM      4  C3  UNL d   1      -3.734  -2.565  -5.238  0.00  0.00     0.003 A 
ATOM      5  C4  UNL d   1      -4.467  -3.478  -5.994  0.00  0.00    -0.005 A 
ATOM      6  C5  UNL d   1      -4.105  -4.823  -6.000  0.00  0.00     0.003 A 
ATOM      7  C6  UNL d   1      -3.009  -5.255  -5.251  0.00  0.00    -0.001 A 
ENDROOT
TORSDOF 0
ENDMDL
