MODEL 1
REMARK minimizedAffinity 0.227786377
REMARK minimizedRMSD -1
REMARK  0 active torsions:
REMARK  status: ('A' for Active; 'I' for Inactive)
ROOT
ATOM      1  C   UNL d   1      -4.535  -6.000  -6.000  0.00  0.00     0.078 C 
ATOM      2  C1  UNL d   1      -3.386  -5.350  -5.288  0.00  0.00    -0.077 A 
ATOM      3  C2  UNL d   1      -2.367  -4.706  -6.000  0.00  0.00    -0.001 A 
ATOM      4  C3  UNL d   1      -1.299  -4.114  -5.324  0.00  0.00     0.003 A 
ATOM      5  C4  UNL d   1      -1.238  -4.162  -3.933  0.00  0.00    -0.005 A 
ATOM      6  C5  UNL d   1      -2.246  -4.804  -3.216  0.00  0.00     0.003 A 
ATOM      7  C6  UNL d   1      -3.315  -5.396  -3.890  0.00  0.00    -0.001 A 
ENDROOT
TORSDOF 0
ENDMDL
