MODEL 1
REMARK minimizedAffinity -2.3094337
REMARK minimizedRMSD -1
REMARK  0 active torsions:
REMARK  status: ('A' for Active; 'I' for Inactive)
ROOT
ATOM      1  C   UNL d   1      -0.121  -4.175  -4.574  0.00  0.00     0.078 C 
ATOM      2  C1  UNL d   1      -1.536  -4.110  -5.066  0.00  0.00    -0.077 A 
ATOM      3  C2  UNL d   1      -2.190  -5.255  -5.535  0.00  0.00    -0.001 A 
ATOM      4  C3  UNL d   1      -3.504  -5.177  -5.999  0.00  0.00     0.003 A 
ATOM      5  C4  UNL d   1      -4.175  -3.956  -5.999  0.00  0.00    -0.005 A 
ATOM      6  C5  UNL d   1      -3.531  -2.810  -5.536  0.00  0.00     0.003 A 
ATOM      7  C6  UNL d   1      -2.217  -2.886  -5.072  0.00  0.00    -0.001 A 
ENDROOT
TORSDOF 0
ENDMDL
