MODEL 1
REMARK minimizedAffinity 2.8085053
REMARK minimizedRMSD -1
REMARK  0 active torsions:
REMARK  status: ('A' for Active; 'I' for Inactive)
ROOT
ATOM      1  C   UNL d   1      -0.877  -5.252  -2.943  0.00  0.00     0.078 C 
ATOM      2  C1  UNL d   1      -1.873  -4.802  -3.969  0.00  0.00    -0.077 A 
ATOM      3  C2  UNL d   1      -2.500  -3.554  -3.868  0.00  0.00    -0.001 A 
ATOM      4  C3  UNL d   1      -3.433  -3.152  -4.825  0.00  0.00     0.003 A 
ATOM      5  C4  UNL d   1      -3.748  -3.993  -5.890  0.00  0.00    -0.005 A 
ATOM      6  C5  UNL d   1      -3.132  -5.238  -5.999  0.00  0.00     0.003 A 
ATOM      7  C6  UNL d   1      -2.199  -5.641  -5.042  0.00  0.00    -0.001 A 
ENDROOT
TORSDOF 0
ENDMDL
