MODEL 1
REMARK minimizedAffinity 8.44146824
REMARK minimizedRMSD -1
REMARK  0 active torsions:
REMARK  status: ('A' for Active; 'I' for Inactive)
ROOT
ATOM      1  C   UNL d   1       1.526  -0.105  -2.854  0.00  0.00     0.078 C 
ATOM      2  C1  UNL d   1       1.854  -1.458  -2.297  0.00  0.00    -0.077 A 
ATOM      3  C2  UNL d   1       2.932  -1.636  -1.422  0.00  0.00    -0.001 A 
ATOM      4  C3  UNL d   1       3.231  -2.903  -0.918  0.00  0.00     0.003 A 
ATOM      5  C4  UNL d   1       2.457  -4.002  -1.285  0.00  0.00    -0.005 A 
ATOM      6  C5  UNL d   1       1.383  -3.835  -2.156  0.00  0.00     0.003 A 
ATOM      7  C6  UNL d   1       1.082  -2.569  -2.661  0.00  0.00    -0.001 A 
ENDROOT
TORSDOF 0
ENDMDL
