MODEL 1
REMARK minimizedAffinity 0.973011434
REMARK minimizedRMSD -1
REMARK  0 active torsions:
REMARK  status: ('A' for Active; 'I' for Inactive)
ROOT
ATOM      1  C   UNL d   1      -1.106  -5.236  -2.716  0.00  0.00     0.078 C 
ATOM      2  C1  UNL d   1      -1.944  -4.718  -3.847  0.00  0.00    -0.077 A 
ATOM      3  C2  UNL d   1      -2.467  -3.420  -3.822  0.00  0.00    -0.001 A 
ATOM      4  C3  UNL d   1      -3.253  -2.955  -4.877  0.00  0.00     0.003 A 
ATOM      5  C4  UNL d   1      -3.525  -3.783  -5.965  0.00  0.00    -0.005 A 
ATOM      6  C5  UNL d   1      -3.011  -5.077  -5.997  0.00  0.00     0.003 A 
ATOM      7  C6  UNL d   1      -2.225  -5.544  -4.943  0.00  0.00    -0.001 A 
ENDROOT
TORSDOF 0
ENDMDL
