MODEL 1
REMARK minimizedAffinity 7.66038132
REMARK minimizedRMSD -1
REMARK  0 active torsions:
REMARK  status: ('A' for Active; 'I' for Inactive)
ROOT
ATOM      1  C   UNL d   1       3.173   2.540  -1.508  0.00  0.00     0.078 C 
ATOM      2  C1  UNL d   1       3.379   1.111  -1.101  0.00  0.00    -0.077 A 
ATOM      3  C2  UNL d   1       2.438   0.126  -1.422  0.00  0.00    -0.001 A 
ATOM      4  C3  UNL d   1       2.638  -1.198  -1.028  0.00  0.00     0.003 A 
ATOM      5  C4  UNL d   1       3.779  -1.548  -0.309  0.00  0.00    -0.005 A 
ATOM      6  C5  UNL d   1       4.721  -0.575   0.018  0.00  0.00     0.003 A 
ATOM      7  C6  UNL d   1       4.522   0.750  -0.376  0.00  0.00    -0.001 A 
ENDROOT
TORSDOF 0
ENDMDL
