MODEL 1
REMARK minimizedAffinity -4.76267529
REMARK minimizedRMSD -1
REMARK  2 active torsions:
REMARK  status: ('A' for Active; 'I' for Inactive)
REMARK    1  A    between atoms: C1_2  and  C2_3 
REMARK    2  A    between atoms: C2_3  and  C3_4 
ROOT
ATOM      1  C3  UNL d   1       0.025   0.057   0.044  0.00  0.00    -0.075 A 
ATOM      2  C4  UNL d   1       1.081  -0.096   0.955  0.00  0.00     0.002 A 
ATOM      3  C5  UNL d   1       0.877  -0.744   2.173  0.00  0.00     0.002 A 
ATOM      4  C6  UNL d   1      -0.384  -1.237   2.501  0.00  0.00    -0.004 A 
ATOM      5  C7  UNL d   1      -1.444  -1.077   1.611  0.00  0.00     0.002 A 
ATOM      6  C8  UNL d   1      -1.242  -0.432   0.390  0.00  0.00     0.002 A 
ENDROOT
BRANCH   1   7
ATOM      7  C2  UNL d   1       0.245   0.732  -1.289  0.00  0.00     0.056 C 
BRANCH   7   8
ATOM      8  C1  UNL d   1      -0.994   1.444  -1.840  0.00  0.00     0.007 C 
ATOM      9  C   UNL d   1      -0.666   2.733  -2.582  0.00  0.00     0.009 C 
ENDBRANCH   7   8
ENDBRANCH   1   7
TORSDOF 2
ENDMDL
