MODEL 1
REMARK minimizedAffinity -4.89047337
REMARK minimizedRMSD -1
REMARK  2 active torsions:
REMARK  status: ('A' for Active; 'I' for Inactive)
REMARK    1  A    between atoms: C1_2  and  C2_3 
REMARK    2  A    between atoms: C2_3  and  C3_4 
ROOT
ATOM      1  C3  UNL d   1       0.494  -0.397   0.527  0.00  0.00    -0.075 A 
ATOM      2  C4  UNL d   1       1.682  -1.090   0.252  0.00  0.00     0.002 A 
ATOM      3  C5  UNL d   1       2.440  -1.636   1.288  0.00  0.00     0.002 A 
ATOM      4  C6  UNL d   1       2.027  -1.488   2.610  0.00  0.00    -0.004 A 
ATOM      5  C7  UNL d   1       0.857  -0.787   2.896  0.00  0.00     0.002 A 
ATOM      6  C8  UNL d   1       0.095  -0.243   1.861  0.00  0.00     0.002 A 
ENDROOT
BRANCH   1   7
ATOM      7  C2  UNL d   1      -0.346   0.171  -0.592  0.00  0.00     0.056 C 
BRANCH   7   8
ATOM      8  C1  UNL d   1       0.422   0.386  -1.901  0.00  0.00     0.007 C 
ATOM      9  C   UNL d   1       0.320   1.811  -2.429  0.00  0.00     0.009 C 
ENDBRANCH   7   8
ENDBRANCH   1   7
TORSDOF 2
ENDMDL
