MODEL 1
REMARK minimizedAffinity -2.79991508
REMARK minimizedRMSD -1
REMARK  2 active torsions:
REMARK  status: ('A' for Active; 'I' for Inactive)
REMARK    1  A    between atoms: C1_2  and  C2_3 
REMARK    2  A    between atoms: C2_3  and  C3_4 
ROOT
ATOM      1  C3  UNL d   1      -0.020   0.195   0.318  0.00  0.00    -0.075 A 
ATOM      2  C4  UNL d   1       1.345   0.506   0.403  0.00  0.00     0.002 A 
ATOM      3  C5  UNL d   1       2.120   0.014   1.453  0.00  0.00     0.002 A 
ATOM      4  C6  UNL d   1       1.540  -0.786   2.436  0.00  0.00    -0.004 A 
ATOM      5  C7  UNL d   1       0.181  -1.087   2.371  0.00  0.00     0.002 A 
ATOM      6  C8  UNL d   1      -0.596  -0.600   1.318  0.00  0.00     0.002 A 
ENDROOT
BRANCH   1   7
ATOM      7  C2  UNL d   1      -0.858   0.700  -0.832  0.00  0.00     0.056 C 
BRANCH   7   8
ATOM      8  C1  UNL d   1      -0.220   1.858  -1.607  0.00  0.00     0.007 C 
ATOM      9  C   UNL d   1      -1.236   2.711  -2.355  0.00  0.00     0.009 C 
ENDBRANCH   7   8
ENDBRANCH   1   7
TORSDOF 2
ENDMDL
