MODEL 1
REMARK minimizedAffinity -6.56576204
REMARK minimizedRMSD -1
REMARK  2 active torsions:
REMARK  status: ('A' for Active; 'I' for Inactive)
REMARK    1  A    between atoms: C1_2  and  C2_3 
REMARK    2  A    between atoms: C2_3  and  C3_4 
ROOT
ATOM      1  C3  UNL d   1       0.248  -0.551   0.631  0.00  0.00    -0.075 A 
ATOM      2  C4  UNL d   1       1.492  -1.113   0.312  0.00  0.00     0.002 A 
ATOM      3  C5  UNL d   1       2.323  -1.611   1.317  0.00  0.00     0.002 A 
ATOM      4  C6  UNL d   1       1.925  -1.545   2.650  0.00  0.00    -0.004 A 
ATOM      5  C7  UNL d   1       0.698  -0.974   2.980  0.00  0.00     0.002 A 
ATOM      6  C8  UNL d   1      -0.137  -0.479   1.977  0.00  0.00     0.002 A 
ENDROOT
BRANCH   1   7
ATOM      7  C2  UNL d   1      -0.669  -0.038  -0.453  0.00  0.00     0.056 C 
BRANCH   7   8
ATOM      8  C1  UNL d   1       0.060   0.662  -1.606  0.00  0.00     0.007 C 
ATOM      9  C   UNL d   1      -0.703   1.858  -2.160  0.00  0.00     0.009 C 
ENDBRANCH   7   8
ENDBRANCH   1   7
TORSDOF 2
ENDMDL
