MODEL 1
REMARK minimizedAffinity -4.8442359
REMARK minimizedRMSD -1
REMARK  2 active torsions:
REMARK  status: ('A' for Active; 'I' for Inactive)
REMARK    1  A    between atoms: C1_2  and  C2_3 
REMARK    2  A    between atoms: C2_3  and  C3_4 
ROOT
ATOM      1  C3  UNL d   1      -1.056   0.651  -0.896  0.00  0.00    -0.075 A 
ATOM      2  C4  UNL d   1      -1.747   0.869   0.305  0.00  0.00     0.002 A 
ATOM      3  C5  UNL d   1      -1.262   0.349   1.505  0.00  0.00     0.002 A 
ATOM      4  C6  UNL d   1      -0.090  -0.404   1.519  0.00  0.00    -0.004 A 
ATOM      5  C7  UNL d   1       0.596  -0.641   0.329  0.00  0.00     0.002 A 
ATOM      6  C8  UNL d   1       0.116  -0.117  -0.872  0.00  0.00     0.002 A 
ENDROOT
BRANCH   1   7
ATOM      7  C2  UNL d   1      -1.559   1.237  -2.194  0.00  0.00     0.056 C 
BRANCH   7   8
ATOM      8  C1  UNL d   1      -1.415   2.760  -2.288  0.00  0.00     0.007 C 
ATOM      9  C   UNL d   1       0.018   3.213  -2.534  0.00  0.00     0.009 C 
ENDBRANCH   7   8
ENDBRANCH   1   7
TORSDOF 2
ENDMDL
