MODEL 1
REMARK minimizedAffinity -3.61676407
REMARK minimizedRMSD -1
REMARK  2 active torsions:
REMARK  status: ('A' for Active; 'I' for Inactive)
REMARK    1  A    between atoms: C1_2  and  C2_3 
REMARK    2  A    between atoms: C2_3  and  C3_4 
ROOT
ATOM      1  C3  UNL d   1      -0.436   0.114  -0.714  0.00  0.00    -0.075 A 
ATOM      2  C4  UNL d   1      -0.984   0.013   0.573  0.00  0.00     0.002 A 
ATOM      3  C5  UNL d   1      -0.383  -0.795   1.538  0.00  0.00     0.002 A 
ATOM      4  C6  UNL d   1       0.766  -1.519   1.226  0.00  0.00    -0.004 A 
ATOM      5  C7  UNL d   1       1.310  -1.439  -0.054  0.00  0.00     0.002 A 
ATOM      6  C8  UNL d   1       0.712  -0.628  -1.020  0.00  0.00     0.002 A 
ENDROOT
BRANCH   1   7
ATOM      7  C2  UNL d   1      -1.066   1.010  -1.754  0.00  0.00     0.056 C 
BRANCH   7   8
ATOM      8  C1  UNL d   1      -0.212   2.226  -2.129  0.00  0.00     0.007 C 
ATOM      9  C   UNL d   1      -0.991   3.534  -2.115  0.00  0.00     0.009 C 
ENDBRANCH   7   8
ENDBRANCH   1   7
TORSDOF 2
ENDMDL
