MODEL 1
REMARK minimizedAffinity -1.3394202
REMARK minimizedRMSD -1
REMARK  2 active torsions:
REMARK  status: ('A' for Active; 'I' for Inactive)
REMARK    1  A    between atoms: C1_2  and  C2_3 
REMARK    2  A    between atoms: C2_3  and  C3_4 
ROOT
ATOM      1  C3  UNL d   1      -0.834   0.135   0.213  0.00  0.00    -0.075 A 
ATOM      2  C4  UNL d   1      -0.249  -1.140   0.224  0.00  0.00     0.002 A 
ATOM      3  C5  UNL d   1       0.012  -1.788   1.432  0.00  0.00     0.002 A 
ATOM      4  C6  UNL d   1      -0.299  -1.169   2.640  0.00  0.00    -0.004 A 
ATOM      5  C7  UNL d   1      -0.866   0.104   2.641  0.00  0.00     0.002 A 
ATOM      6  C8  UNL d   1      -1.132   0.753   1.434  0.00  0.00     0.002 A 
ENDROOT
BRANCH   1   7
ATOM      7  C2  UNL d   1      -1.146   0.830  -1.091  0.00  0.00     0.056 C 
BRANCH   7   8
ATOM      8  C1  UNL d   1      -0.921   2.345  -1.059  0.00  0.00     0.007 C 
ATOM      9  C   UNL d   1      -0.032   2.844  -2.190  0.00  0.00     0.009 C 
ENDBRANCH   7   8
ENDBRANCH   1   7
TORSDOF 2
ENDMDL
