MODEL 1
REMARK minimizedAffinity 1.91350222
REMARK minimizedRMSD -1
REMARK  2 active torsions:
REMARK  status: ('A' for Active; 'I' for Inactive)
REMARK    1  A    between atoms: C2'_3  and  C1'_4 
REMARK    2  A    between atoms: C1'_4  and  C1_5 
ROOT
ATOM      1  C1  I4B d   1      -2.243   0.059   2.131  0.00  0.00    -0.075 A 
ATOM      2  C2  I4B d   1      -3.536   0.335   1.763  0.00  0.00     0.003 A 
ATOM      3  C3  I4B d   1      -4.148  -0.391   0.712  0.00  0.00     0.002 A 
ATOM      4  C4  I4B d   1      -3.418  -1.342   0.028  0.00  0.00    -0.004 A 
ATOM      5  C5  I4B d   1      -2.115  -1.636   0.419  0.00  0.00     0.002 A 
ATOM      6  C6  I4B d   1      -1.527  -0.940   1.485  0.00  0.00     0.003 A 
ENDROOT
BRANCH   1   7
ATOM      7  C1' I4B d   1      -1.617   0.868   3.223  0.00  0.00     0.060 C 
BRANCH   7   8
ATOM      8  C2' I4B d   1      -0.567   1.763   2.598  0.00  0.00    -0.013 C 
ATOM      9  C4' I4B d   1      -1.201   2.875   1.804  0.00  0.00     0.013 C 
ATOM     10  C3' I4B d   1       0.293   2.307   3.700  0.00  0.00     0.013 C 
ENDBRANCH   7   8
ENDBRANCH   1   7
TORSDOF 2
ENDMDL
