MODEL 1
REMARK minimizedAffinity 10.2167034
REMARK minimizedRMSD -1
REMARK  2 active torsions:
REMARK  status: ('A' for Active; 'I' for Inactive)
REMARK    1  A    between atoms: C2'_3  and  C1'_4 
REMARK    2  A    between atoms: C1'_4  and  C1_5 
ROOT
ATOM      1  C1  I4B d   1      -1.862  -3.979   1.102  0.00  0.00    -0.075 A 
ATOM      2  C2  I4B d   1      -1.332  -5.181   1.498  0.00  0.00     0.003 A 
ATOM      3  C3  I4B d   1      -0.644  -5.998   0.568  0.00  0.00     0.002 A 
ATOM      4  C4  I4B d   1      -0.555  -5.600  -0.750  0.00  0.00    -0.004 A 
ATOM      5  C5  I4B d   1      -1.073  -4.370  -1.145  0.00  0.00     0.002 A 
ATOM      6  C6  I4B d   1      -1.720  -3.548  -0.211  0.00  0.00     0.003 A 
ENDROOT
BRANCH   1   7
ATOM      7  C1' I4B d   1      -2.610  -3.156   2.103  0.00  0.00     0.060 C 
BRANCH   7   8
ATOM      8  C2' I4B d   1      -1.944  -1.798   2.182  0.00  0.00    -0.013 C 
ATOM      9  C4' I4B d   1      -2.816  -0.727   1.582  0.00  0.00     0.013 C 
ATOM     10  C3' I4B d   1      -1.648  -1.511   3.624  0.00  0.00     0.013 C 
ENDBRANCH   7   8
ENDBRANCH   1   7
TORSDOF 2
ENDMDL
