MODEL 1
REMARK minimizedAffinity 5.40665722
REMARK minimizedRMSD -1
REMARK  2 active torsions:
REMARK  status: ('A' for Active; 'I' for Inactive)
REMARK    1  A    between atoms: C2'_3  and  C1'_4 
REMARK    2  A    between atoms: C1'_4  and  C1_5 
ROOT
ATOM      1  C1  I4B d   1      -2.159  -0.620   2.675  0.00  0.00    -0.075 A 
ATOM      2  C2  I4B d   1      -1.361   0.458   2.382  0.00  0.00     0.003 A 
ATOM      3  C3  I4B d   1      -0.588   1.069   3.399  0.00  0.00     0.002 A 
ATOM      4  C4  I4B d   1      -0.680   0.605   4.695  0.00  0.00    -0.004 A 
ATOM      5  C5  I4B d   1      -1.471  -0.503   4.985  0.00  0.00     0.002 A 
ATOM      6  C6  I4B d   1      -2.206  -1.127   3.967  0.00  0.00     0.003 A 
ENDROOT
BRANCH   1   7
ATOM      7  C1' I4B d   1      -2.988  -1.220   1.584  0.00  0.00     0.060 C 
BRANCH   7   8
ATOM      8  C2' I4B d   1      -4.341  -0.538   1.597  0.00  0.00    -0.013 C 
ATOM      9  C4' I4B d   1      -4.233   0.894   1.141  0.00  0.00     0.013 C 
ATOM     10  C3' I4B d   1      -5.262  -1.321   0.710  0.00  0.00     0.013 C 
ENDBRANCH   7   8
ENDBRANCH   1   7
TORSDOF 2
ENDMDL
