MODEL 1
REMARK minimizedAffinity 10.1595821
REMARK minimizedRMSD -1
REMARK  2 active torsions:
REMARK  status: ('A' for Active; 'I' for Inactive)
REMARK    1  A    between atoms: C2'_3  and  C1'_4 
REMARK    2  A    between atoms: C1'_4  and  C1_5 
ROOT
ATOM      1  C1  I4B d   1      -1.162  -5.939   3.229  0.00  0.00    -0.075 A 
ATOM      2  C2  I4B d   1      -2.132  -5.979   4.199  0.00  0.00     0.003 A 
ATOM      3  C3  I4B d   1      -1.771  -5.979   5.568  0.00  0.00     0.002 A 
ATOM      4  C4  I4B d   1      -0.437  -5.989   5.920  0.00  0.00    -0.004 A 
ATOM      5  C5  I4B d   1       0.545  -5.925   4.935  0.00  0.00     0.002 A 
ATOM      6  C6  I4B d   1       0.180  -5.887   3.581  0.00  0.00     0.003 A 
ENDROOT
BRANCH   1   7
ATOM      7  C1' I4B d   1      -1.577  -5.974   1.792  0.00  0.00     0.060 C 
BRANCH   7   8
ATOM      8  C2' I4B d   1      -0.477  -5.332   0.972  0.00  0.00    -0.013 C 
ATOM      9  C4' I4B d   1      -0.424  -5.911  -0.417  0.00  0.00     0.013 C 
ATOM     10  C3' I4B d   1      -0.729  -3.854   0.934  0.00  0.00     0.013 C 
ENDBRANCH   7   8
ENDBRANCH   1   7
TORSDOF 2
ENDMDL
