MODEL 1
REMARK minimizedAffinity 8.16440487
REMARK minimizedRMSD -1
REMARK  2 active torsions:
REMARK  status: ('A' for Active; 'I' for Inactive)
REMARK    1  A    between atoms: C2'_3  and  C1'_4 
REMARK    2  A    between atoms: C1'_4  and  C1_5 
ROOT
ATOM      1  C1  I4B d   1      -0.288  -3.258   5.959  0.00  0.00    -0.075 A 
ATOM      2  C2  I4B d   1       0.760  -4.145   5.971  0.00  0.00     0.003 A 
ATOM      3  C3  I4B d   1       0.512  -5.540   5.966  0.00  0.00     0.002 A 
ATOM      4  C4  I4B d   1      -0.788  -5.999   6.000  0.00  0.00    -0.004 A 
ATOM      5  C5  I4B d   1      -1.849  -5.098   5.964  0.00  0.00     0.002 A 
ATOM      6  C6  I4B d   1      -1.597  -3.719   5.931  0.00  0.00     0.003 A 
ENDROOT
BRANCH   1   7
ATOM      7  C1' I4B d   1       0.009  -1.792   5.998  0.00  0.00     0.060 C 
BRANCH   7   8
ATOM      8  C2' I4B d   1       1.310  -1.560   5.257  0.00  0.00    -0.013 C 
ATOM      9  C4' I4B d   1       1.221  -2.045   3.834  0.00  0.00     0.013 C 
ATOM     10  C3' I4B d   1       1.617  -0.093   5.310  0.00  0.00     0.013 C 
ENDBRANCH   7   8
ENDBRANCH   1   7
TORSDOF 2
ENDMDL
