MODEL 1
REMARK minimizedAffinity 11.6916571
REMARK minimizedRMSD -1
REMARK  2 active torsions:
REMARK  status: ('A' for Active; 'I' for Inactive)
REMARK    1  A    between atoms: C2'_3  and  C1'_4 
REMARK    2  A    between atoms: C1'_4  and  C1_5 
ROOT
ATOM      1  C1  I4B d   1       1.909  -1.585  -0.654  0.00  0.00    -0.075 A 
ATOM      2  C2  I4B d   1       2.490  -0.437  -0.175  0.00  0.00     0.003 A 
ATOM      3  C3  I4B d   1       1.685   0.657   0.224  0.00  0.00     0.002 A 
ATOM      4  C4  I4B d   1       0.315   0.581   0.080  0.00  0.00    -0.004 A 
ATOM      5  C5  I4B d   1      -0.274  -0.591  -0.385  0.00  0.00     0.002 A 
ATOM      6  C6  I4B d   1       0.526  -1.686  -0.743  0.00  0.00     0.003 A 
ENDROOT
BRANCH   1   7
ATOM      7  C1' I4B d   1       2.791  -2.709  -1.097  0.00  0.00     0.060 C 
BRANCH   7   8
ATOM      8  C2' I4B d   1       2.962  -2.604  -2.599  0.00  0.00    -0.013 C 
ATOM      9  C4' I4B d   1       3.754  -1.380  -2.973  0.00  0.00     0.013 C 
ATOM     10  C3' I4B d   1       3.639  -3.854  -3.075  0.00  0.00     0.013 C 
ENDBRANCH   7   8
ENDBRANCH   1   7
TORSDOF 2
ENDMDL
