MODEL 1
REMARK minimizedAffinity 3.59735584
REMARK minimizedRMSD -1
REMARK  2 active torsions:
REMARK  status: ('A' for Active; 'I' for Inactive)
REMARK    1  A    between atoms: C2'_3  and  C1'_4 
REMARK    2  A    between atoms: C1'_4  and  C1_5 
ROOT
ATOM      1  C1  I4B d   1       3.333   3.461  -5.986  0.00  0.00    -0.075 A 
ATOM      2  C2  I4B d   1       3.617   4.804  -5.975  0.00  0.00     0.003 A 
ATOM      3  C3  I4B d   1       4.961   5.248  -5.932  0.00  0.00     0.002 A 
ATOM      4  C4  I4B d   1       5.980   4.321  -5.851  0.00  0.00    -0.004 A 
ATOM      5  C5  I4B d   1       5.691   2.960  -5.885  0.00  0.00     0.002 A 
ATOM      6  C6  I4B d   1       4.360   2.527  -5.966  0.00  0.00     0.003 A 
ENDROOT
BRANCH   1   7
ATOM      7  C1' I4B d   1       1.901   3.027  -5.998  0.00  0.00     0.060 C 
BRANCH   7   8
ATOM      8  C2' I4B d   1       1.100   4.039  -5.203  0.00  0.00    -0.013 C 
ATOM      9  C4' I4B d   1       0.865   5.295  -6.000  0.00  0.00     0.013 C 
ATOM     10  C3' I4B d   1      -0.197   3.396  -4.810  0.00  0.00     0.013 C 
ENDBRANCH   7   8
ENDBRANCH   1   7
TORSDOF 2
ENDMDL
