MODEL 1
REMARK minimizedAffinity -0.608026147
REMARK minimizedRMSD -1
REMARK  2 active torsions:
REMARK  status: ('A' for Active; 'I' for Inactive)
REMARK    1  A    between atoms: C2'_3  and  C1'_4 
REMARK    2  A    between atoms: C1'_4  and  C1_5 
ROOT
ATOM      1  C1  I4B d   1       3.528   4.467   3.547  0.00  0.00    -0.075 A 
ATOM      2  C2  I4B d   1       2.269   4.810   3.122  0.00  0.00     0.003 A 
ATOM      3  C3  I4B d   1       1.434   5.610   3.940  0.00  0.00     0.002 A 
ATOM      4  C4  I4B d   1       1.876   5.999   5.187  0.00  0.00    -0.004 A 
ATOM      5  C5  I4B d   1       3.161   5.670   5.607  0.00  0.00     0.002 A 
ATOM      6  C6  I4B d   1       3.998   4.910   4.777  0.00  0.00     0.003 A 
ENDROOT
BRANCH   1   7
ATOM      7  C1' I4B d   1       4.371   3.594   2.673  0.00  0.00     0.060 C 
BRANCH   7   8
ATOM      8  C2' I4B d   1       3.470   2.976   1.623  0.00  0.00    -0.013 C 
ATOM      9  C4' I4B d   1       4.266   2.491   0.440  0.00  0.00     0.013 C 
ATOM     10  C3' I4B d   1       2.715   1.851   2.265  0.00  0.00     0.013 C 
ENDBRANCH   7   8
ENDBRANCH   1   7
TORSDOF 2
ENDMDL
