MODEL 1
REMARK minimizedAffinity 11.0284185
REMARK minimizedRMSD -1
REMARK  2 active torsions:
REMARK  status: ('A' for Active; 'I' for Inactive)
REMARK    1  A    between atoms: C2'_3  and  C1'_4 
REMARK    2  A    between atoms: C1'_4  and  C1_5 
ROOT
ATOM      1  C1  I4B d   1       2.488   4.667   3.376  0.00  0.00    -0.075 A 
ATOM      2  C2  I4B d   1       3.741   4.645   3.935  0.00  0.00     0.003 A 
ATOM      3  C3  I4B d   1       3.982   5.298   5.169  0.00  0.00     0.002 A 
ATOM      4  C4  I4B d   1       2.960   5.998   5.778  0.00  0.00    -0.004 A 
ATOM      5  C5  I4B d   1       1.685   5.999   5.221  0.00  0.00     0.002 A 
ATOM      6  C6  I4B d   1       1.444   5.319   4.018  0.00  0.00     0.003 A 
ENDROOT
BRANCH   1   7
ATOM      7  C1' I4B d   1       2.276   3.995   2.056  0.00  0.00     0.060 C 
BRANCH   7   8
ATOM      8  C2' I4B d   1       3.370   2.962   1.877  0.00  0.00    -0.013 C 
ATOM      9  C4' I4B d   1       2.803   1.568   1.843  0.00  0.00     0.013 C 
ATOM     10  C3' I4B d   1       4.104   3.279   0.608  0.00  0.00     0.013 C 
ENDBRANCH   7   8
ENDBRANCH   1   7
TORSDOF 2
ENDMDL
