MODEL 1
REMARK minimizedAffinity -2.54922366
REMARK minimizedRMSD -1
REMARK  2 active torsions:
REMARK  status: ('A' for Active; 'I' for Inactive)
REMARK    1  A    between atoms: C2'_3  and  C1'_4 
REMARK    2  A    between atoms: C1'_4  and  C1_5 
ROOT
ATOM      1  C1  I4B d   1       1.923   4.458   3.679  0.00  0.00    -0.075 A 
ATOM      2  C2  I4B d   1       3.015   4.490   4.510  0.00  0.00     0.003 A 
ATOM      3  C3  I4B d   1       2.980   5.251   5.704  0.00  0.00     0.002 A 
ATOM      4  C4  I4B d   1       1.860   6.000   6.000  0.00  0.00    -0.004 A 
ATOM      5  C5  I4B d   1       0.745   5.948   5.168  0.00  0.00     0.002 A 
ATOM      6  C6  I4B d   1       0.772   5.163   4.006  0.00  0.00     0.003 A 
ENDROOT
BRANCH   1   7
ATOM      7  C1' I4B d   1       2.006   3.671   2.410  0.00  0.00     0.060 C 
BRANCH   7   8
ATOM      8  C2' I4B d   1       3.005   2.551   2.620  0.00  0.00    -0.013 C 
ATOM      9  C4' I4B d   1       2.327   1.207   2.614  0.00  0.00     0.013 C 
ATOM     10  C3' I4B d   1       4.037   2.642   1.535  0.00  0.00     0.013 C 
ENDBRANCH   7   8
ENDBRANCH   1   7
TORSDOF 2
ENDMDL
