MODEL 1
REMARK minimizedAffinity 1.96040988
REMARK minimizedRMSD -1
REMARK  2 active torsions:
REMARK  status: ('A' for Active; 'I' for Inactive)
REMARK    1  A    between atoms: C2'_3  and  C1'_4 
REMARK    2  A    between atoms: C1'_4  and  C1_5 
ROOT
ATOM      1  C1  I4B d   1       1.963   4.894   3.162  0.00  0.00    -0.075 A 
ATOM      2  C2  I4B d   1       0.724   5.284   3.606  0.00  0.00     0.003 A 
ATOM      3  C3  I4B d   1       0.578   5.869   4.887  0.00  0.00     0.002 A 
ATOM      4  C4  I4B d   1       1.682   6.000   5.705  0.00  0.00    -0.004 A 
ATOM      5  C5  I4B d   1       2.941   5.626   5.243  0.00  0.00     0.002 A 
ATOM      6  C6  I4B d   1       3.085   5.081   3.959  0.00  0.00     0.003 A 
ENDROOT
BRANCH   1   7
ATOM      7  C1' I4B d   1       2.076   4.249   1.817  0.00  0.00     0.060 C 
BRANCH   7   8
ATOM      8  C2' I4B d   1       3.264   3.309   1.849  0.00  0.00    -0.013 C 
ATOM      9  C4' I4B d   1       2.821   1.870   1.849  0.00  0.00     0.013 C 
ATOM     10  C3' I4B d   1       4.125   3.610   0.658  0.00  0.00     0.013 C 
ENDBRANCH   7   8
ENDBRANCH   1   7
TORSDOF 2
ENDMDL
