MODEL 1
REMARK minimizedAffinity 8.75721264
REMARK minimizedRMSD -1
REMARK  2 active torsions:
REMARK  status: ('A' for Active; 'I' for Inactive)
REMARK    1  A    between atoms: C2'_3  and  C1'_4 
REMARK    2  A    between atoms: C1'_4  and  C1_5 
ROOT
ATOM      1  C1  I4B d   1       3.307   3.367   2.576  0.00  0.00    -0.075 A 
ATOM      2  C2  I4B d   1       4.640   3.125   2.352  0.00  0.00     0.003 A 
ATOM      3  C3  I4B d   1       5.092   2.771   1.058  0.00  0.00     0.002 A 
ATOM      4  C4  I4B d   1       4.177   2.622   0.035  0.00  0.00    -0.004 A 
ATOM      5  C5  I4B d   1       2.830   2.890   0.259  0.00  0.00     0.002 A 
ATOM      6  C6  I4B d   1       2.393   3.277   1.534  0.00  0.00     0.003 A 
ENDROOT
BRANCH   1   7
ATOM      7  C1' I4B d   1       2.860   3.706   3.962  0.00  0.00     0.060 C 
BRANCH   7   8
ATOM      8  C2' I4B d   1       2.306   5.116   3.942  0.00  0.00    -0.013 C 
ATOM      9  C4' I4B d   1       0.914   5.164   4.517  0.00  0.00     0.013 C 
ATOM     10  C3' I4B d   1       3.242   5.993   4.718  0.00  0.00     0.013 C 
ENDBRANCH   7   8
ENDBRANCH   1   7
TORSDOF 2
ENDMDL
