MODEL 1
REMARK minimizedAffinity 12.2081118
REMARK minimizedRMSD -1
REMARK  0 active torsions:
REMARK  status: ('A' for Active; 'I' for Inactive)
ROOT
ATOM      1  C   UNL d   1       4.056  -5.999  -1.117  0.00  0.00     0.077 C 
ATOM      2  C1  UNL d   1       2.773  -5.317  -1.491  0.00  0.00    -0.074 A 
ATOM      3  C2  UNL d   1       1.941  -4.764  -0.513  0.00  0.00    -0.005 A 
ATOM      4  C3  UNL d   1       0.756  -4.125  -0.877  0.00  0.00     0.006 A 
ATOM      5  C4  UNL d   1       0.392  -4.033  -2.221  0.00  0.00    -0.005 A 
ATOM      6  C5  UNL d   1       1.212  -4.579  -3.213  0.00  0.00    -0.074 A 
ATOM      7  C6  UNL d   1       0.840  -4.479  -4.663  0.00  0.00     0.077 C 
ATOM      8  C7  UNL d   1       2.405  -5.213  -2.840  0.00  0.00    -0.001 A 
ENDROOT
TORSDOF 0
ENDMDL
