MODEL 1
REMARK minimizedAffinity 17.4825001
REMARK minimizedRMSD -1
REMARK  0 active torsions:
REMARK  status: ('A' for Active; 'I' for Inactive)
ROOT
ATOM      1  C   UNL d   1       2.485   1.593   2.007  0.00  0.00     0.077 C 
ATOM      2  C1  UNL d   1       1.715   0.656   2.890  0.00  0.00    -0.074 A 
ATOM      3  C2  UNL d   1       0.488   1.036   3.444  0.00  0.00    -0.005 A 
ATOM      4  C3  UNL d   1      -0.220   0.151   4.257  0.00  0.00     0.006 A 
ATOM      5  C4  UNL d   1       0.290  -1.121   4.522  0.00  0.00    -0.005 A 
ATOM      6  C5  UNL d   1       1.514  -1.518   3.976  0.00  0.00    -0.074 A 
ATOM      7  C6  UNL d   1       2.072  -2.885   4.244  0.00  0.00     0.077 C 
ATOM      8  C7  UNL d   1       2.217  -0.625   3.156  0.00  0.00    -0.001 A 
ENDROOT
TORSDOF 0
ENDMDL
