MODEL 1
REMARK minimizedAffinity 12.0429468
REMARK minimizedRMSD -1
REMARK  0 active torsions:
REMARK  status: ('A' for Active; 'I' for Inactive)
ROOT
ATOM      1  C   UNL d   1       1.329   1.378   1.949  0.00  0.00     0.077 C 
ATOM      2  C1  UNL d   1       0.569   2.140   0.904  0.00  0.00    -0.074 A 
ATOM      3  C2  UNL d   1      -0.819   2.289   0.991  0.00  0.00    -0.005 A 
ATOM      4  C3  UNL d   1      -1.511   3.010   0.017  0.00  0.00     0.006 A 
ATOM      5  C4  UNL d   1      -0.823   3.587  -1.051  0.00  0.00    -0.005 A 
ATOM      6  C5  UNL d   1       0.564   3.449  -1.154  0.00  0.00    -0.074 A 
ATOM      7  C6  UNL d   1       1.320   4.071  -2.290  0.00  0.00     0.077 C 
ATOM      8  C7  UNL d   1       1.253   2.730  -0.168  0.00  0.00    -0.001 A 
ENDROOT
TORSDOF 0
ENDMDL
