MODEL 1
REMARK minimizedAffinity 10.5093908
REMARK minimizedRMSD -1
REMARK  0 active torsions:
REMARK  status: ('A' for Active; 'I' for Inactive)
ROOT
ATOM      1  C   UNL d   1       3.059  -4.121   6.000  0.00  0.00     0.077 C 
ATOM      2  C1  UNL d   1       2.259  -3.005   5.395  0.00  0.00    -0.074 A 
ATOM      3  C2  UNL d   1       1.080  -2.556   5.999  0.00  0.00    -0.005 A 
ATOM      4  C3  UNL d   1       0.352  -1.512   5.430  0.00  0.00     0.006 A 
ATOM      5  C4  UNL d   1       0.794  -0.907   4.253  0.00  0.00    -0.005 A 
ATOM      6  C5  UNL d   1       1.971  -1.342   3.635  0.00  0.00    -0.074 A 
ATOM      7  C6  UNL d   1       2.465  -0.696   2.375  0.00  0.00     0.077 C 
ATOM      8  C7  UNL d   1       2.701  -2.387   4.217  0.00  0.00    -0.001 A 
ENDROOT
TORSDOF 0
ENDMDL
