MODEL 1
REMARK minimizedAffinity 17.4186363
REMARK minimizedRMSD -1
REMARK  0 active torsions:
REMARK  status: ('A' for Active; 'I' for Inactive)
ROOT
ATOM      1  C   UNL d   1      -4.414   1.055  -5.687  0.00  0.00     0.077 C 
ATOM      2  C1  UNL d   1      -4.072   2.221  -4.807  0.00  0.00    -0.074 A 
ATOM      3  C2  UNL d   1      -2.812   2.824  -4.870  0.00  0.00    -0.005 A 
ATOM      4  C3  UNL d   1      -2.512   3.913  -4.052  0.00  0.00     0.006 A 
ATOM      5  C4  UNL d   1      -3.467   4.409  -3.164  0.00  0.00    -0.005 A 
ATOM      6  C5  UNL d   1      -4.733   3.819  -3.087  0.00  0.00    -0.074 A 
ATOM      7  C6  UNL d   1      -5.774   4.346  -2.145  0.00  0.00     0.077 C 
ATOM      8  C7  UNL d   1      -5.029   2.730  -3.917  0.00  0.00    -0.001 A 
ENDROOT
TORSDOF 0
ENDMDL
