MODEL 1
REMARK minimizedAffinity 12.3971653
REMARK minimizedRMSD -1
REMARK  0 active torsions:
REMARK  status: ('A' for Active; 'I' for Inactive)
ROOT
ATOM      1  C   UNL d   1       1.563   1.693   2.020  0.00  0.00     0.077 C 
ATOM      2  C1  UNL d   1       0.896   2.360   0.854  0.00  0.00    -0.074 A 
ATOM      3  C2  UNL d   1      -0.483   2.243   0.652  0.00  0.00    -0.005 A 
ATOM      4  C3  UNL d   1      -1.091   2.877  -0.432  0.00  0.00     0.006 A 
ATOM      5  C4  UNL d   1      -0.327   3.632  -1.324  0.00  0.00    -0.005 A 
ATOM      6  C5  UNL d   1       1.053   3.760  -1.137  0.00  0.00    -0.074 A 
ATOM      7  C6  UNL d   1       1.886   4.576  -2.080  0.00  0.00     0.077 C 
ATOM      8  C7  UNL d   1       1.655   3.127  -0.042  0.00  0.00    -0.001 A 
ENDROOT
TORSDOF 0
ENDMDL
