MODEL 1
REMARK minimizedAffinity 12.0433254
REMARK minimizedRMSD -1
REMARK  0 active torsions:
REMARK  status: ('A' for Active; 'I' for Inactive)
ROOT
ATOM      1  C   UNL d   1       1.329  -3.441  -1.130  0.00  0.00     0.077 C 
ATOM      2  C1  UNL d   1       2.708  -3.125  -0.633  0.00  0.00    -0.074 A 
ATOM      3  C2  UNL d   1       3.038  -1.838  -0.198  0.00  0.00    -0.005 A 
ATOM      4  C3  UNL d   1       4.323  -1.561   0.271  0.00  0.00     0.006 A 
ATOM      5  C4  UNL d   1       5.288  -2.568   0.309  0.00  0.00    -0.005 A 
ATOM      6  C5  UNL d   1       4.977  -3.861  -0.121  0.00  0.00    -0.074 A 
ATOM      7  C6  UNL d   1       6.000  -4.957  -0.077  0.00  0.00     0.077 C 
ATOM      8  C7  UNL d   1       3.682  -4.133  -0.584  0.00  0.00    -0.001 A 
ENDROOT
TORSDOF 0
ENDMDL
