MODEL 1
REMARK minimizedAffinity 12.1745882
REMARK minimizedRMSD -1
REMARK  0 active torsions:
REMARK  status: ('A' for Active; 'I' for Inactive)
ROOT
ATOM      1  C   UNL d   1       0.816   3.187  -1.404  0.00  0.00     0.077 C 
ATOM      2  C1  UNL d   1      -0.066   2.690  -0.297  0.00  0.00    -0.074 A 
ATOM      3  C2  UNL d   1      -1.451   2.877  -0.343  0.00  0.00    -0.005 A 
ATOM      4  C3  UNL d   1      -2.260   2.400   0.689  0.00  0.00     0.006 A 
ATOM      5  C4  UNL d   1      -1.692   1.734   1.775  0.00  0.00    -0.005 A 
ATOM      6  C5  UNL d   1      -0.309   1.537   1.838  0.00  0.00    -0.074 A 
ATOM      7  C6  UNL d   1       0.316   0.814   2.994  0.00  0.00     0.077 C 
ATOM      8  C7  UNL d   1       0.496   2.012   0.794  0.00  0.00    -0.001 A 
ENDROOT
TORSDOF 0
ENDMDL
