MODEL 1
REMARK minimizedAffinity 8.12764454
REMARK minimizedRMSD -1
REMARK  0 active torsions:
REMARK  status: ('A' for Active; 'I' for Inactive)
ROOT
ATOM      1  C   UNL d   1       0.754   1.105   3.167  0.00  0.00     0.077 C 
ATOM      2  C1  UNL d   1       0.059   1.880   2.088  0.00  0.00    -0.074 A 
ATOM      3  C2  UNL d   1      -1.314   2.138   2.158  0.00  0.00    -0.005 A 
ATOM      4  C3  UNL d   1      -1.945   2.869   1.151  0.00  0.00     0.006 A 
ATOM      5  C4  UNL d   1      -1.210   3.349   0.065  0.00  0.00    -0.005 A 
ATOM      6  C5  UNL d   1       0.163   3.101  -0.021  0.00  0.00    -0.074 A 
ATOM      7  C6  UNL d   1       0.969   3.618  -1.176  0.00  0.00     0.077 C 
ATOM      8  C7  UNL d   1       0.791   2.372   0.998  0.00  0.00    -0.001 A 
ENDROOT
TORSDOF 0
ENDMDL
