MODEL 1
REMARK minimizedAffinity 23.5164318
REMARK minimizedRMSD -1
REMARK  0 active torsions:
REMARK  status: ('A' for Active; 'I' for Inactive)
ROOT
ATOM      1  C   UNL d   1      -1.879  -2.663   6.000  0.00  0.00     0.077 C 
ATOM      2  C1  UNL d   1      -0.845  -1.919   5.209  0.00  0.00    -0.074 A 
ATOM      3  C2  UNL d   1       0.485  -2.353   5.176  0.00  0.00    -0.005 A 
ATOM      4  C3  UNL d   1       1.434  -1.656   4.429  0.00  0.00     0.006 A 
ATOM      5  C4  UNL d   1       1.064  -0.519   3.708  0.00  0.00    -0.005 A 
ATOM      6  C5  UNL d   1      -0.261  -0.071   3.729  0.00  0.00    -0.074 A 
ATOM      7  C6  UNL d   1      -0.677   1.143   2.952  0.00  0.00     0.077 C 
ATOM      8  C7  UNL d   1      -1.210  -0.781   4.476  0.00  0.00    -0.001 A 
ENDROOT
TORSDOF 0
ENDMDL
