MODEL 1
REMARK minimizedAffinity 12.1159496
REMARK minimizedRMSD -1
REMARK  0 active torsions:
REMARK  status: ('A' for Active; 'I' for Inactive)
ROOT
ATOM      1  C   UNL d   1       5.768  -1.737  -0.373  0.00  0.00     0.077 C 
ATOM      2  C1  UNL d   1       5.852  -3.219  -0.586  0.00  0.00    -0.074 A 
ATOM      3  C2  UNL d   1       5.879  -4.101   0.499  0.00  0.00    -0.005 A 
ATOM      4  C3  UNL d   1       5.948  -5.477   0.285  0.00  0.00     0.006 A 
ATOM      5  C4  UNL d   1       5.991  -5.985  -1.014  0.00  0.00    -0.005 A 
ATOM      6  C5  UNL d   1       5.964  -5.119  -2.112  0.00  0.00    -0.074 A 
ATOM      7  C6  UNL d   1       6.000  -5.649  -3.514  0.00  0.00     0.077 C 
ATOM      8  C7  UNL d   1       5.888  -3.737  -1.889  0.00  0.00    -0.001 A 
ENDROOT
TORSDOF 0
ENDMDL
