MODEL 1
REMARK minimizedAffinity 12.4359789
REMARK minimizedRMSD -1
REMARK  0 active torsions:
REMARK  status: ('A' for Active; 'I' for Inactive)
ROOT
ATOM      1  C   UNL d   1       1.570   4.611  -2.854  0.00  0.00     0.077 C 
ATOM      2  C1  UNL d   1       1.529   3.649  -1.704  0.00  0.00    -0.074 A 
ATOM      3  C2  UNL d   1       2.675   3.383  -0.948  0.00  0.00    -0.005 A 
ATOM      4  C3  UNL d   1       2.620   2.493   0.124  0.00  0.00     0.006 A 
ATOM      5  C4  UNL d   1       1.420   1.860   0.451  0.00  0.00    -0.005 A 
ATOM      6  C5  UNL d   1       0.263   2.114  -0.293  0.00  0.00    -0.074 A 
ATOM      7  C6  UNL d   1      -1.037   1.450   0.051  0.00  0.00     0.077 C 
ATOM      8  C7  UNL d   1       0.325   3.015  -1.365  0.00  0.00    -0.001 A 
ENDROOT
TORSDOF 0
ENDMDL
