MODEL 1
REMARK minimizedAffinity 7.59658909
REMARK minimizedRMSD -1
REMARK  0 active torsions:
REMARK  status: ('A' for Active; 'I' for Inactive)
ROOT
ATOM      1  N1  IND d   1       5.957  -0.246  -2.094  0.00  0.00    -0.196 N 
ATOM      2  C2  IND d   1       5.434   0.987  -1.817  0.00  0.00     0.054 A 
ATOM      3  C3  IND d   1       4.837   1.502  -2.916  0.00  0.00    -0.031 A 
ATOM      4  C4  IND d   1       4.510   0.452  -5.243  0.00  0.00     0.051 A 
ATOM      5  C5  IND d   1       4.845  -0.644  -5.987  0.00  0.00    -0.031 A 
ATOM      6  C6  IND d   1       5.580  -1.686  -5.460  0.00  0.00     0.015 A 
ATOM      7  C7  IND d   1       6.000  -1.676  -4.160  0.00  0.00    -0.016 A 
ATOM      8  C8  IND d   1       5.668  -0.561  -3.404  0.00  0.00    -0.047 A 
ATOM      9  C9  IND d   1       4.959   0.519  -3.945  0.00  0.00    -0.096 A 
ATOM     10  HN1 IND d   1       6.393  -0.741  -1.543  0.00  0.00     0.298 HD
ENDROOT
TORSDOF 0
ENDMDL
