MODEL 1
REMARK minimizedAffinity 11.8345833
REMARK minimizedRMSD -1
REMARK  0 active torsions:
REMARK  status: ('A' for Active; 'I' for Inactive)
ROOT
ATOM      1  N1  IND d   1      -5.975   5.701   5.109  0.00  0.00    -0.196 N 
ATOM      2  C2  IND d   1      -4.981   5.998   5.999  0.00  0.00     0.054 A 
ATOM      3  C3  IND d   1      -3.779   5.991   5.381  0.00  0.00    -0.031 A 
ATOM      4  C4  IND d   1      -3.219   5.617   2.896  0.00  0.00     0.051 A 
ATOM      5  C5  IND d   1      -3.791   5.276   1.703  0.00  0.00    -0.031 A 
ATOM      6  C6  IND d   1      -5.148   5.057   1.581  0.00  0.00     0.015 A 
ATOM      7  C7  IND d   1      -5.989   5.183   2.650  0.00  0.00    -0.016 A 
ATOM      8  C8  IND d   1      -5.411   5.523   3.865  0.00  0.00    -0.047 A 
ATOM      9  C9  IND d   1      -4.029   5.704   4.004  0.00  0.00    -0.096 A 
ATOM     10  HN1 IND d   1      -6.812   5.637   5.295  0.00  0.00     0.298 HD
ENDROOT
TORSDOF 0
ENDMDL
