MODEL 1
REMARK minimizedAffinity 7.11301994
REMARK minimizedRMSD -1
REMARK  0 active torsions:
REMARK  status: ('A' for Active; 'I' for Inactive)
ROOT
ATOM      1  N1  IND d   1       0.787   1.171  -2.665  0.00  0.00    -0.196 N 
ATOM      2  C2  IND d   1       0.517   1.248  -1.327  0.00  0.00     0.054 A 
ATOM      3  C3  IND d   1       0.580   0.021  -0.763  0.00  0.00    -0.031 A 
ATOM      4  C4  IND d   1       1.210  -2.237  -1.827  0.00  0.00     0.051 A 
ATOM      5  C5  IND d   1       1.502  -2.817  -3.029  0.00  0.00    -0.031 A 
ATOM      6  C6  IND d   1       1.575  -2.082  -4.195  0.00  0.00     0.015 A 
ATOM      7  C7  IND d   1       1.369  -0.732  -4.199  0.00  0.00    -0.016 A 
ATOM      8  C8  IND d   1       1.065  -0.140  -2.981  0.00  0.00    -0.047 A 
ATOM      9  C9  IND d   1       0.948  -0.888  -1.802  0.00  0.00    -0.096 A 
ATOM     10  HN1 IND d   1       0.784   1.831  -3.216  0.00  0.00     0.298 HD
ENDROOT
TORSDOF 0
ENDMDL
