MODEL 1
REMARK minimizedAffinity 7.14453936
REMARK minimizedRMSD -1
REMARK  0 active torsions:
REMARK  status: ('A' for Active; 'I' for Inactive)
ROOT
ATOM      1  N1  IND d   1       5.999   1.231   4.923  0.00  0.00    -0.196 N 
ATOM      2  C2  IND d   1       6.000  -0.060   5.372  0.00  0.00     0.054 A 
ATOM      3  C3  IND d   1       5.138  -0.810   4.649  0.00  0.00    -0.031 A 
ATOM      4  C4  IND d   1       3.701  -0.149   2.618  0.00  0.00     0.051 A 
ATOM      5  C5  IND d   1       3.336   0.929   1.862  0.00  0.00    -0.031 A 
ATOM      6  C6  IND d   1       3.853   2.188   2.090  0.00  0.00     0.015 A 
ATOM      7  C7  IND d   1       4.767   2.414   3.080  0.00  0.00    -0.016 A 
ATOM      8  C8  IND d   1       5.134   1.323   3.855  0.00  0.00    -0.047 A 
ATOM      9  C9  IND d   1       4.581   0.051   3.656  0.00  0.00    -0.096 A 
ATOM     10  HN1 IND d   1       6.461   1.877   5.252  0.00  0.00     0.298 HD
ENDROOT
TORSDOF 0
ENDMDL
