MODEL 1
REMARK minimizedAffinity 1.10396743
REMARK minimizedRMSD -1
REMARK  0 active torsions:
REMARK  status: ('A' for Active; 'I' for Inactive)
ROOT
ATOM      1  N1  IND d   1       1.002  -2.549  -2.772  0.00  0.00    -0.196 N 
ATOM      2  C2  IND d   1       0.851  -2.526  -4.131  0.00  0.00     0.054 A 
ATOM      3  C3  IND d   1       0.662  -1.259  -4.562  0.00  0.00    -0.031 A 
ATOM      4  C4  IND d   1       0.665   0.941  -3.224  0.00  0.00     0.051 A 
ATOM      5  C5  IND d   1       0.727   1.425  -1.948  0.00  0.00    -0.031 A 
ATOM      6  C6  IND d   1       0.891   0.593  -0.859  0.00  0.00     0.015 A 
ATOM      7  C7  IND d   1       1.010  -0.760  -1.008  0.00  0.00    -0.016 A 
ATOM      8  C8  IND d   1       0.939  -1.256  -2.302  0.00  0.00    -0.047 A 
ATOM      9  C9  IND d   1       0.731  -0.420  -3.407  0.00  0.00    -0.096 A 
ATOM     10  HN1 IND d   1       1.116  -3.253  -2.292  0.00  0.00     0.298 HD
ENDROOT
TORSDOF 0
ENDMDL
