MODEL 1
REMARK minimizedAffinity 1.14675283
REMARK minimizedRMSD -1
REMARK  0 active torsions:
REMARK  status: ('A' for Active; 'I' for Inactive)
ROOT
ATOM      1  N1  IND d   1      -5.985   5.525   4.648  0.00  0.00    -0.196 N 
ATOM      2  C2  IND d   1      -4.990   5.993   5.460  0.00  0.00     0.054 A 
ATOM      3  C3  IND d   1      -3.786   5.839   4.865  0.00  0.00    -0.031 A 
ATOM      4  C4  IND d   1      -3.224   4.938   2.519  0.00  0.00     0.051 A 
ATOM      5  C5  IND d   1      -3.797   4.358   1.423  0.00  0.00    -0.031 A 
ATOM      6  C6  IND d   1      -5.156   4.136   1.342  0.00  0.00     0.015 A 
ATOM      7  C7  IND d   1      -5.998   4.497   2.355  0.00  0.00    -0.016 A 
ATOM      8  C8  IND d   1      -5.419   5.079   3.474  0.00  0.00    -0.047 A 
ATOM      9  C9  IND d   1      -4.035   5.269   3.579  0.00  0.00    -0.096 A 
ATOM     10  HN1 IND d   1      -6.823   5.512   4.839  0.00  0.00     0.298 HD
ENDROOT
TORSDOF 0
ENDMDL
