MODEL 1
REMARK minimizedAffinity 1.97618008
REMARK minimizedRMSD -1
REMARK  0 active torsions:
REMARK  status: ('A' for Active; 'I' for Inactive)
ROOT
ATOM      1  N1  IND d   1       1.502  -1.665  -2.031  0.00  0.00    -0.196 N 
ATOM      2  C2  IND d   1       1.113  -1.668  -0.721  0.00  0.00     0.054 A 
ATOM      3  C3  IND d   1       0.702  -0.434  -0.350  0.00  0.00    -0.031 A 
ATOM      4  C4  IND d   1       0.487   1.710  -1.759  0.00  0.00     0.051 A 
ATOM      5  C5  IND d   1       0.756   2.215  -3.000  0.00  0.00    -0.031 A 
ATOM      6  C6  IND d   1       1.296   1.436  -4.003  0.00  0.00     0.015 A 
ATOM      7  C7  IND d   1       1.578   0.114  -3.804  0.00  0.00    -0.016 A 
ATOM      8  C8  IND d   1       1.312  -0.401  -2.543  0.00  0.00    -0.047 A 
ATOM      9  C9  IND d   1       0.804   0.396  -1.509  0.00  0.00    -0.096 A 
ATOM     10  HN1 IND d   1       1.813  -2.341  -2.464  0.00  0.00     0.298 HD
ENDROOT
TORSDOF 0
ENDMDL
