MODEL 1
REMARK minimizedAffinity 1.81689966
REMARK minimizedRMSD -1
REMARK  0 active torsions:
REMARK  status: ('A' for Active; 'I' for Inactive)
ROOT
ATOM      1  N1  IND d   1       0.814   1.164  -2.813  0.00  0.00    -0.196 N 
ATOM      2  C2  IND d   1       0.480   1.234  -1.490  0.00  0.00     0.054 A 
ATOM      3  C3  IND d   1       0.492   0.001  -0.935  0.00  0.00    -0.031 A 
ATOM      4  C4  IND d   1       1.132  -2.259  -1.988  0.00  0.00     0.051 A 
ATOM      5  C5  IND d   1       1.472  -2.834  -3.180  0.00  0.00    -0.031 A 
ATOM      6  C6  IND d   1       1.617  -2.091  -4.334  0.00  0.00     0.015 A 
ATOM      7  C7  IND d   1       1.436  -0.736  -4.335  0.00  0.00    -0.016 A 
ATOM      8  C8  IND d   1       1.083  -0.150  -3.128  0.00  0.00    -0.047 A 
ATOM      9  C9  IND d   1       0.894  -0.905  -1.964  0.00  0.00    -0.096 A 
ATOM     10  HN1 IND d   1       0.851   1.828  -3.357  0.00  0.00     0.298 HD
ENDROOT
TORSDOF 0
ENDMDL
