MODEL 1
REMARK minimizedAffinity 7.34390879
REMARK minimizedRMSD -1
REMARK  0 active torsions:
REMARK  status: ('A' for Active; 'I' for Inactive)
ROOT
ATOM      1  N1  IND d   1       6.000   1.113  -3.900  0.00  0.00    -0.196 N 
ATOM      2  C2  IND d   1       5.882   0.317  -5.005  0.00  0.00     0.054 A 
ATOM      3  C3  IND d   1       5.188   0.957  -5.973  0.00  0.00    -0.031 A 
ATOM      4  C4  IND d   1       4.241   3.351  -5.996  0.00  0.00     0.051 A 
ATOM      5  C5  IND d   1       4.069   4.449  -5.201  0.00  0.00    -0.031 A 
ATOM      6  C6  IND d   1       4.543   4.493  -3.906  0.00  0.00     0.015 A 
ATOM      7  C7  IND d   1       5.220   3.440  -3.359  0.00  0.00    -0.016 A 
ATOM      8  C8  IND d   1       5.391   2.321  -4.162  0.00  0.00    -0.047 A 
ATOM      9  C9  IND d   1       4.875   2.254  -5.462  0.00  0.00    -0.096 A 
ATOM     10  HN1 IND d   1       6.389   0.895  -3.164  0.00  0.00     0.298 HD
ENDROOT
TORSDOF 0
ENDMDL
