MODEL 1
REMARK minimizedAffinity 9.45417213
REMARK minimizedRMSD -1
REMARK  0 active torsions:
REMARK  status: ('A' for Active; 'I' for Inactive)
ROOT
ATOM      1  N1  IND d   1       5.868   4.961  -3.114  0.00  0.00    -0.196 N 
ATOM      2  C2  IND d   1       4.865   5.783  -2.682  0.00  0.00     0.054 A 
ATOM      3  C3  IND d   1       3.735   5.557  -3.390  0.00  0.00    -0.031 A 
ATOM      4  C4  IND d   1       3.279   3.815  -5.230  0.00  0.00     0.051 A 
ATOM      5  C5  IND d   1       3.898   2.863  -5.990  0.00  0.00    -0.031 A 
ATOM      6  C6  IND d   1       5.233   2.553  -5.824  0.00  0.00     0.015 A 
ATOM      7  C7  IND d   1       5.998   3.179  -4.881  0.00  0.00    -0.016 A 
ATOM      8  C8  IND d   1       5.373   4.152  -4.113  0.00  0.00    -0.047 A 
ATOM      9  C9  IND d   1       4.030   4.500  -4.305  0.00  0.00    -0.096 A 
ATOM     10  HN1 IND d   1       6.673   4.951  -2.812  0.00  0.00     0.298 HD
ENDROOT
TORSDOF 0
ENDMDL
