MODEL 1
REMARK minimizedAffinity 1.31822503
REMARK minimizedRMSD -1
REMARK  0 active torsions:
REMARK  status: ('A' for Active; 'I' for Inactive)
ROOT
ATOM      1  N1  IND d   1       0.705  -2.726  -1.535  0.00  0.00    -0.196 N 
ATOM      2  C2  IND d   1      -0.102  -2.794  -0.434  0.00  0.00     0.054 A 
ATOM      3  C3  IND d   1      -0.416  -1.551  -0.004  0.00  0.00    -0.031 A 
ATOM      4  C4  IND d   1       0.201   0.734  -1.016  0.00  0.00     0.051 A 
ATOM      5  C5  IND d   1       0.953   1.308  -2.003  0.00  0.00    -0.031 A 
ATOM      6  C6  IND d   1       1.672   0.550  -2.905  0.00  0.00     0.015 A 
ATOM      7  C7  IND d   1       1.658  -0.815  -2.860  0.00  0.00    -0.016 A 
ATOM      8  C8  IND d   1       0.902  -1.400  -1.854  0.00  0.00    -0.047 A 
ATOM      9  C9  IND d   1       0.204  -0.636  -0.910  0.00  0.00    -0.096 A 
ATOM     10  HN1 IND d   1       1.034  -3.399  -1.958  0.00  0.00     0.298 HD
ENDROOT
TORSDOF 0
ENDMDL
