MODEL 1
REMARK minimizedAffinity 2.10302258
REMARK minimizedRMSD -1
REMARK  0 active torsions:
REMARK  status: ('A' for Active; 'I' for Inactive)
ROOT
ATOM      1  N1  IND d   1       1.148  -2.176  -2.077  0.00  0.00    -0.196 N 
ATOM      2  C2  IND d   1       1.609  -2.608  -3.289  0.00  0.00     0.054 A 
ATOM      3  C3  IND d   1       1.721  -1.570  -4.147  0.00  0.00    -0.031 A 
ATOM      4  C4  IND d   1       1.297   0.937  -3.745  0.00  0.00     0.051 A 
ATOM      5  C5  IND d   1       0.829   1.814  -2.807  0.00  0.00    -0.031 A 
ATOM      6  C6  IND d   1       0.439   1.397  -1.551  0.00  0.00     0.015 A 
ATOM      7  C7  IND d   1       0.512   0.084  -1.181  0.00  0.00    -0.016 A 
ATOM      8  C8  IND d   1       0.980  -0.810  -2.134  0.00  0.00    -0.047 A 
ATOM      9  C9  IND d   1       1.338  -0.399  -3.424  0.00  0.00    -0.096 A 
ATOM     10  HN1 IND d   1       0.989  -2.673  -1.394  0.00  0.00     0.298 HD
ENDROOT
TORSDOF 0
ENDMDL
