MODEL 1
REMARK minimizedAffinity 4.90384912
REMARK minimizedRMSD -1
REMARK  0 active torsions:
REMARK  status: ('A' for Active; 'I' for Inactive)
ROOT
ATOM      1  N1  IND d   1      -3.866   2.389   5.994  0.00  0.00    -0.196 N 
ATOM      2  C2  IND d   1      -3.440   1.467   5.079  0.00  0.00     0.054 A 
ATOM      3  C3  IND d   1      -2.995   2.084   3.962  0.00  0.00    -0.031 A 
ATOM      4  C4  IND d   1      -2.781   4.599   3.456  0.00  0.00     0.051 A 
ATOM      5  C5  IND d   1      -3.077   5.830   3.971  0.00  0.00    -0.031 A 
ATOM      6  C6  IND d   1      -3.659   5.980   5.213  0.00  0.00     0.015 A 
ATOM      7  C7  IND d   1      -3.959   4.900   5.995  0.00  0.00    -0.016 A 
ATOM      8  C8  IND d   1      -3.667   3.649   5.472  0.00  0.00    -0.047 A 
ATOM      9  C9  IND d   1      -3.115   3.488   4.194  0.00  0.00    -0.096 A 
ATOM     10  HN1 IND d   1      -4.202   2.213   6.766  0.00  0.00     0.298 HD
ENDROOT
TORSDOF 0
ENDMDL
