MODEL 1
REMARK minimizedAffinity 2.14686728
REMARK minimizedRMSD -1
REMARK  0 active torsions:
REMARK  status: ('A' for Active; 'I' for Inactive)
ROOT
ATOM      1  N1  IND d   1       1.293  -2.033  -2.450  0.00  0.00    -0.196 N 
ATOM      2  C2  IND d   1       0.829  -2.211  -1.176  0.00  0.00     0.054 A 
ATOM      3  C3  IND d   1       0.554  -1.016  -0.606  0.00  0.00    -0.031 A 
ATOM      4  C4  IND d   1       0.694   1.349  -1.613  0.00  0.00     0.051 A 
ATOM      5  C5  IND d   1       1.099   2.021  -2.732  0.00  0.00    -0.031 A 
ATOM      6  C6  IND d   1       1.596   1.362  -3.838  0.00  0.00     0.015 A 
ATOM      7  C7  IND d   1       1.697  -0.000  -3.870  0.00  0.00    -0.016 A 
ATOM      8  C8  IND d   1       1.294  -0.685  -2.732  0.00  0.00    -0.047 A 
ATOM      9  C9  IND d   1       0.828  -0.019  -1.591  0.00  0.00    -0.096 A 
ATOM     10  HN1 IND d   1       1.542  -2.659  -2.985  0.00  0.00     0.298 HD
ENDROOT
TORSDOF 0
ENDMDL
