MODEL 1
REMARK minimizedAffinity 4.46662426
REMARK minimizedRMSD -1
REMARK  0 active torsions:
REMARK  status: ('A' for Active; 'I' for Inactive)
ROOT
ATOM      1  N1  IND d   1       0.933  -2.708  -2.048  0.00  0.00    -0.196 N 
ATOM      2  C2  IND d   1       1.312  -2.929  -3.343  0.00  0.00     0.054 A 
ATOM      3  C3  IND d   1       1.446  -1.755  -4.000  0.00  0.00    -0.031 A 
ATOM      4  C4  IND d   1       1.194   0.651  -3.119  0.00  0.00     0.051 A 
ATOM      5  C5  IND d   1       0.823   1.359  -2.011  0.00  0.00    -0.031 A 
ATOM      6  C6  IND d   1       0.466   0.735  -0.833  0.00  0.00     0.015 A 
ATOM      7  C7  IND d   1       0.477  -0.627  -0.716  0.00  0.00    -0.016 A 
ATOM      8  C8  IND d   1       0.845  -1.349  -1.842  0.00  0.00    -0.047 A 
ATOM      9  C9  IND d   1       1.168  -0.722  -3.053  0.00  0.00    -0.096 A 
ATOM     10  HN1 IND d   1       0.776  -3.316  -1.460  0.00  0.00     0.298 HD
ENDROOT
TORSDOF 0
ENDMDL
