MODEL 1
REMARK minimizedAffinity -1.01376891
REMARK minimizedRMSD -1
REMARK  0 active torsions:
REMARK  status: ('A' for Active; 'I' for Inactive)
ROOT
ATOM      1  N1  IND d   1       3.487   4.443  -5.091  0.00  0.00    -0.196 N 
ATOM      2  C2  IND d   1       2.240   4.190  -5.590  0.00  0.00     0.054 A 
ATOM      3  C3  IND d   1       2.147   2.903  -5.995  0.00  0.00    -0.031 A 
ATOM      4  C4  IND d   1       3.885   1.010  -5.837  0.00  0.00     0.051 A 
ATOM      5  C5  IND d   1       5.184   0.767  -5.488  0.00  0.00    -0.031 A 
ATOM      6  C6  IND d   1       5.999   1.755  -4.976  0.00  0.00     0.015 A 
ATOM      7  C7  IND d   1       5.540   3.027  -4.783  0.00  0.00    -0.016 A 
ATOM      8  C8  IND d   1       4.224   3.280  -5.142  0.00  0.00    -0.047 A 
ATOM      9  C9  IND d   1       3.405   2.291  -5.702  0.00  0.00    -0.096 A 
ATOM     10  HN1 IND d   1       3.764   5.201  -4.795  0.00  0.00     0.298 HD
ENDROOT
TORSDOF 0
ENDMDL
