MODEL 1
REMARK minimizedAffinity 6.17821026
REMARK minimizedRMSD -1
REMARK  0 active torsions:
REMARK  status: ('A' for Active; 'I' for Inactive)
ROOT
ATOM      1  N1  IND d   1       1.062  -0.967  -4.188  0.00  0.00    -0.196 N 
ATOM      2  C2  IND d   1       1.242  -2.320  -4.118  0.00  0.00     0.054 A 
ATOM      3  C3  IND d   1       1.234  -2.730  -2.830  0.00  0.00    -0.031 A 
ATOM      4  C4  IND d   1       0.841  -1.365  -0.682  0.00  0.00     0.051 A 
ATOM      5  C5  IND d   1       0.668  -0.085  -0.236  0.00  0.00    -0.031 A 
ATOM      6  C6  IND d   1       0.614   0.988  -1.102  0.00  0.00     0.015 A 
ATOM      7  C7  IND d   1       0.719   0.818  -2.454  0.00  0.00    -0.016 A 
ATOM      8  C8  IND d   1       0.902  -0.479  -2.910  0.00  0.00    -0.047 A 
ATOM      9  C9  IND d   1       1.001  -1.567  -2.033  0.00  0.00    -0.096 A 
ATOM     10  HN1 IND d   1       1.050  -0.499  -4.910  0.00  0.00     0.298 HD
ENDROOT
TORSDOF 0
ENDMDL
