MODEL 1
REMARK minimizedAffinity 1.37682498
REMARK minimizedRMSD -1
REMARK  0 active torsions:
REMARK  status: ('A' for Active; 'I' for Inactive)
ROOT
ATOM      1  N1  IND d   1       1.086   1.786  -2.986  0.00  0.00    -0.196 N 
ATOM      2  C2  IND d   1       0.857   2.373  -1.773  0.00  0.00     0.054 A 
ATOM      3  C3  IND d   1       0.644   1.431  -0.827  0.00  0.00    -0.031 A 
ATOM      4  C4  IND d   1       0.725  -1.135  -1.026  0.00  0.00     0.051 A 
ATOM      5  C5  IND d   1       0.861  -2.140  -1.942  0.00  0.00    -0.031 A 
ATOM      6  C6  IND d   1       1.086  -1.883  -3.279  0.00  0.00     0.015 A 
ATOM      7  C7  IND d   1       1.195  -0.606  -3.750  0.00  0.00    -0.016 A 
ATOM      8  C8  IND d   1       1.051   0.418  -2.824  0.00  0.00    -0.047 A 
ATOM      9  C9  IND d   1       0.780   0.164  -1.474  0.00  0.00    -0.096 A 
ATOM     10  HN1 IND d   1       1.227   2.201  -3.725  0.00  0.00     0.298 HD
ENDROOT
TORSDOF 0
ENDMDL
