MODEL 1
REMARK minimizedAffinity -3.22175169
REMARK minimizedRMSD -1
REMARK  0 active torsions:
REMARK  status: ('A' for Active; 'I' for Inactive)
ROOT
ATOM      1  C   UNL d   1       0.120   0.505  -0.680  0.00  0.00     0.172 C 
ATOM      2  N   UNL d   1       0.527   0.041   0.625  0.00  0.00    -0.070 N 
ATOM      3  C1  UNL d   1      -0.207  -0.770   1.449  0.00  0.00    -0.004 A 
ATOM      4  C2  UNL d   1       0.527  -0.982   2.596  0.00  0.00    -0.047 A 
ATOM      5  C3  UNL d   1       1.744  -0.273   2.457  0.00  0.00    -0.047 A 
ATOM      6  C4  UNL d   1       1.718   0.351   1.228  0.00  0.00    -0.004 A 
ENDROOT
TORSDOF 0
ENDMDL
