MODEL 1
REMARK minimizedAffinity -3.48281336
REMARK minimizedRMSD -1
REMARK  0 active torsions:
REMARK  status: ('A' for Active; 'I' for Inactive)
ROOT
ATOM      1  C   UNL d   1       1.952  -0.418   2.649  0.00  0.00     0.172 C 
ATOM      2  N   UNL d   1       1.429  -0.360   1.304  0.00  0.00    -0.070 N 
ATOM      3  C1  UNL d   1       0.115  -0.176   0.965  0.00  0.00    -0.004 A 
ATOM      4  C2  UNL d   1       0.029  -0.180  -0.410  0.00  0.00    -0.047 A 
ATOM      5  C3  UNL d   1       1.336  -0.373  -0.916  0.00  0.00    -0.047 A 
ATOM      6  C4  UNL d   1       2.184  -0.482   0.167  0.00  0.00    -0.004 A 
ENDROOT
TORSDOF 0
ENDMDL
