MODEL 1
REMARK minimizedAffinity -3.48246193
REMARK minimizedRMSD -1
REMARK  0 active torsions:
REMARK  status: ('A' for Active; 'I' for Inactive)
ROOT
ATOM      1  C   UNL d   1      -2.055  -0.752   0.845  0.00  0.00     0.172 C 
ATOM      2  N   UNL d   1      -0.692  -0.644   1.309  0.00  0.00    -0.070 N 
ATOM      3  C1  UNL d   1      -0.169  -1.275   2.406  0.00  0.00    -0.004 A 
ATOM      4  C2  UNL d   1       1.157  -0.914   2.508  0.00  0.00    -0.047 A 
ATOM      5  C3  UNL d   1       1.441  -0.036   1.435  0.00  0.00    -0.047 A 
ATOM      6  C4  UNL d   1       0.279   0.114   0.709  0.00  0.00    -0.004 A 
ENDROOT
TORSDOF 0
ENDMDL
