MODEL 1
REMARK minimizedAffinity -1.83038294
REMARK minimizedRMSD -1
REMARK  0 active torsions:
REMARK  status: ('A' for Active; 'I' for Inactive)
ROOT
ATOM      1  C   UNL d   1      -0.059  -0.390  -0.367  0.00  0.00     0.172 C 
ATOM      2  N   UNL d   1       0.212  -0.705   1.016  0.00  0.00    -0.070 N 
ATOM      3  C1  UNL d   1      -0.007   0.127   2.082  0.00  0.00    -0.004 A 
ATOM      4  C2  UNL d   1       0.378  -0.541   3.224  0.00  0.00    -0.047 A 
ATOM      5  C3  UNL d   1       0.845  -1.818   2.831  0.00  0.00    -0.047 A 
ATOM      6  C4  UNL d   1       0.731  -1.893   1.459  0.00  0.00    -0.004 A 
ENDROOT
TORSDOF 0
ENDMDL
