MODEL 1
REMARK minimizedAffinity -3.05335498
REMARK minimizedRMSD -1
REMARK  0 active torsions:
REMARK  status: ('A' for Active; 'I' for Inactive)
ROOT
ATOM      1  C   UNL d   1      -0.181  -0.005  -0.732  0.00  0.00     0.172 C 
ATOM      2  N   UNL d   1       0.256  -0.355   0.599  0.00  0.00    -0.070 N 
ATOM      3  C1  UNL d   1       1.504  -0.128   1.115  0.00  0.00    -0.004 A 
ATOM      4  C2  UNL d   1       1.519  -0.606   2.407  0.00  0.00    -0.047 A 
ATOM      5  C3  UNL d   1       0.237  -1.139   2.677  0.00  0.00    -0.047 A 
ATOM      6  C4  UNL d   1      -0.525  -0.971   1.540  0.00  0.00    -0.004 A 
ENDROOT
TORSDOF 0
ENDMDL
