MODEL 1
REMARK minimizedAffinity -3.86112595
REMARK minimizedRMSD -1
REMARK  0 active torsions:
REMARK  status: ('A' for Active; 'I' for Inactive)
ROOT
ATOM      1  C   UNL d   1       0.380   0.607  -0.499  0.00  0.00     0.172 C 
ATOM      2  N   UNL d   1       0.489  -0.065   0.775  0.00  0.00    -0.070 N 
ATOM      3  C1  UNL d   1       1.659  -0.415   1.395  0.00  0.00    -0.004 A 
ATOM      4  C2  UNL d   1       1.338  -1.034   2.584  0.00  0.00    -0.047 A 
ATOM      5  C3  UNL d   1      -0.074  -1.056   2.681  0.00  0.00    -0.047 A 
ATOM      6  C4  UNL d   1      -0.574  -0.450   1.548  0.00  0.00    -0.004 A 
ENDROOT
TORSDOF 0
ENDMDL
