MODEL 1
REMARK minimizedAffinity -1.82200241
REMARK minimizedRMSD -1
REMARK  0 active torsions:
REMARK  status: ('A' for Active; 'I' for Inactive)
ROOT
ATOM      1  C   UNL d   1      -1.714  -0.778   0.590  0.00  0.00     0.172 C 
ATOM      2  N   UNL d   1      -0.295  -0.632   0.811  0.00  0.00    -0.070 N 
ATOM      3  C1  UNL d   1       0.345  -0.776   2.013  0.00  0.00    -0.004 A 
ATOM      4  C2  UNL d   1       1.690  -0.558   1.803  0.00  0.00    -0.047 A 
ATOM      5  C3  UNL d   1       1.864  -0.273   0.428  0.00  0.00    -0.047 A 
ATOM      6  C4  UNL d   1       0.619  -0.325  -0.163  0.00  0.00    -0.004 A 
ENDROOT
TORSDOF 0
ENDMDL
