MODEL 1
REMARK minimizedAffinity -1.13546741
REMARK minimizedRMSD -1
REMARK  0 active torsions:
REMARK  status: ('A' for Active; 'I' for Inactive)
ROOT
ATOM      1  C   UNL d   1       0.082  -1.462   3.019  0.00  0.00     0.172 C 
ATOM      2  N   UNL d   1      -0.104  -0.859   1.720  0.00  0.00    -0.070 N 
ATOM      3  C1  UNL d   1      -1.203  -0.145   1.321  0.00  0.00    -0.004 A 
ATOM      4  C2  UNL d   1      -0.994   0.258   0.020  0.00  0.00    -0.047 A 
ATOM      5  C3  UNL d   1       0.273  -0.231  -0.377  0.00  0.00    -0.047 A 
ATOM      6  C4  UNL d   1       0.802  -0.919   0.694  0.00  0.00    -0.004 A 
ENDROOT
TORSDOF 0
ENDMDL
