MODEL 1
REMARK minimizedAffinity -2.15350199
REMARK minimizedRMSD -1
REMARK  0 active torsions:
REMARK  status: ('A' for Active; 'I' for Inactive)
ROOT
ATOM      1  C   UNL d   1      -0.135   0.129  -0.874  0.00  0.00     0.172 C 
ATOM      2  N   UNL d   1       0.181  -0.208   0.495  0.00  0.00    -0.070 N 
ATOM      3  C1  UNL d   1       1.417  -0.567   0.963  0.00  0.00    -0.004 A 
ATOM      4  C2  UNL d   1       1.302  -0.806   2.315  0.00  0.00    -0.047 A 
ATOM      5  C3  UNL d   1      -0.049  -0.584   2.672  0.00  0.00    -0.047 A 
ATOM      6  C4  UNL d   1      -0.721  -0.214   1.526  0.00  0.00    -0.004 A 
ENDROOT
TORSDOF 0
ENDMDL
