MODEL 1
REMARK minimizedAffinity -4.22914457
REMARK minimizedRMSD -1
REMARK  0 active torsions:
REMARK  status: ('A' for Active; 'I' for Inactive)
ROOT
ATOM      1  C1  BNZ d   1       0.770  -0.084   2.391  0.00  0.00     0.000 A 
ATOM      2  C2  BNZ d   1       1.373   0.202   1.195  0.00  0.00     0.000 A 
ATOM      3  C3  BNZ d   1       0.692   0.063   0.018  0.00  0.00     0.000 A 
ATOM      4  C4  BNZ d   1      -0.575  -0.399   0.035  0.00  0.00     0.000 A 
ATOM      5  C5  BNZ d   1      -1.193  -0.700   1.232  0.00  0.00     0.000 A 
ATOM      6  C6  BNZ d   1      -0.518  -0.521   2.418  0.00  0.00     0.000 A 
ENDROOT
TORSDOF 0
ENDMDL
