MODEL 1
REMARK minimizedAffinity -2.06541967
REMARK minimizedRMSD -1
REMARK  0 active torsions:
REMARK  status: ('A' for Active; 'I' for Inactive)
ROOT
ATOM      1  C1  BNZ d   1       0.322   0.909  -0.809  0.00  0.00     0.000 A 
ATOM      2  C2  BNZ d   1       1.109   0.685   0.289  0.00  0.00     0.000 A 
ATOM      3  C3  BNZ d   1       0.552   0.379   1.499  0.00  0.00     0.000 A 
ATOM      4  C4  BNZ d   1      -0.791   0.336   1.619  0.00  0.00     0.000 A 
ATOM      5  C5  BNZ d   1      -1.598   0.569   0.523  0.00  0.00     0.000 A 
ATOM      6  C6  BNZ d   1      -1.033   0.838  -0.702  0.00  0.00     0.000 A 
ENDROOT
TORSDOF 0
ENDMDL
