MODEL 1
REMARK minimizedAffinity -3.26101613
REMARK minimizedRMSD -1
REMARK  0 active torsions:
REMARK  status: ('A' for Active; 'I' for Inactive)
ROOT
ATOM      1  C1  BNZ d   1      -0.510  -0.351   0.393  0.00  0.00     0.000 A 
ATOM      2  C2  BNZ d   1      -0.831  -0.784   1.652  0.00  0.00     0.000 A 
ATOM      3  C3  BNZ d   1       0.080  -0.715   2.669  0.00  0.00     0.000 A 
ATOM      4  C4  BNZ d   1       1.321  -0.250   2.417  0.00  0.00     0.000 A 
ATOM      5  C5  BNZ d   1       1.662   0.181   1.151  0.00  0.00     0.000 A 
ATOM      6  C6  BNZ d   1       0.731   0.147   0.139  0.00  0.00     0.000 A 
ENDROOT
TORSDOF 0
ENDMDL
