MODEL 1
REMARK minimizedAffinity -4.88201427
REMARK minimizedRMSD -1
REMARK  0 active torsions:
REMARK  status: ('A' for Active; 'I' for Inactive)
ROOT
ATOM      1  C1  BNZ d   1       0.675  -0.339   0.612  0.00  0.00     0.000 A 
ATOM      2  C2  BNZ d   1       0.121  -1.534   0.985  0.00  0.00     0.000 A 
ATOM      3  C3  BNZ d   1      -0.394  -1.707   2.239  0.00  0.00     0.000 A 
ATOM      4  C4  BNZ d   1      -0.318  -0.698   3.131  0.00  0.00     0.000 A 
ATOM      5  C5  BNZ d   1       0.246   0.511   2.773  0.00  0.00     0.000 A 
ATOM      6  C6  BNZ d   1       0.728   0.693   1.498  0.00  0.00     0.000 A 
ENDROOT
TORSDOF 0
ENDMDL
