MODEL 1
REMARK minimizedAffinity -1.73178399
REMARK minimizedRMSD -1
REMARK  0 active torsions:
REMARK  status: ('A' for Active; 'I' for Inactive)
ROOT
ATOM      1  C1  BNZ d   1      -1.390  -0.576   1.194  0.00  0.00     0.000 A 
ATOM      2  C2  BNZ d   1      -1.192  -0.202  -0.108  0.00  0.00     0.000 A 
ATOM      3  C3  BNZ d   1       0.049   0.160  -0.552  0.00  0.00     0.000 A 
ATOM      4  C4  BNZ d   1       1.082   0.185   0.315  0.00  0.00     0.000 A 
ATOM      5  C5  BNZ d   1       0.897  -0.181   1.634  0.00  0.00     0.000 A 
ATOM      6  C6  BNZ d   1      -0.346  -0.581   2.068  0.00  0.00     0.000 A 
ENDROOT
TORSDOF 0
ENDMDL
