MODEL 1
REMARK minimizedAffinity -4.68328905
REMARK minimizedRMSD -1
REMARK  0 active torsions:
REMARK  status: ('A' for Active; 'I' for Inactive)
ROOT
ATOM      1  C1  BNZ d   1       0.689  -0.328   2.476  0.00  0.00     0.000 A 
ATOM      2  C2  BNZ d   1       1.384  -0.308   1.297  0.00  0.00     0.000 A 
ATOM      3  C3  BNZ d   1       0.740  -0.099   0.109  0.00  0.00     0.000 A 
ATOM      4  C4  BNZ d   1      -0.600   0.048   0.098  0.00  0.00     0.000 A 
ATOM      5  C5  BNZ d   1      -1.316   0.021   1.278  0.00  0.00     0.000 A 
ATOM      6  C6  BNZ d   1      -0.660  -0.151   2.476  0.00  0.00     0.000 A 
ENDROOT
TORSDOF 0
ENDMDL
