MODEL 1
REMARK minimizedAffinity -3.96838427
REMARK minimizedRMSD -1
REMARK  0 active torsions:
REMARK  status: ('A' for Active; 'I' for Inactive)
ROOT
ATOM      1  C1  BNZ d   1      -3.172   0.503   1.803  0.00  0.00     0.000 A 
ATOM      2  C2  BNZ d   1      -2.542   0.834   2.973  0.00  0.00     0.000 A 
ATOM      3  C3  BNZ d   1      -1.251   0.449   3.207  0.00  0.00     0.000 A 
ATOM      4  C4  BNZ d   1      -0.607  -0.301   2.289  0.00  0.00     0.000 A 
ATOM      5  C5  BNZ d   1      -1.232  -0.651   1.109  0.00  0.00     0.000 A 
ATOM      6  C6  BNZ d   1      -2.517  -0.228   0.860  0.00  0.00     0.000 A 
ENDROOT
TORSDOF 0
ENDMDL
