MODEL 1
REMARK minimizedAffinity -4.32819605
REMARK minimizedRMSD -1
REMARK  0 active torsions:
REMARK  status: ('A' for Active; 'I' for Inactive)
ROOT
ATOM      1  C1  BNZ d   1       0.489   0.123   1.861  0.00  0.00     0.000 A 
ATOM      2  C2  BNZ d   1       0.294   0.249   3.210  0.00  0.00     0.000 A 
ATOM      3  C3  BNZ d   1      -0.960   0.169   3.747  0.00  0.00     0.000 A 
ATOM      4  C4  BNZ d   1      -2.021   0.005   2.932  0.00  0.00     0.000 A 
ATOM      5  C5  BNZ d   1      -1.843  -0.114   1.568  0.00  0.00     0.000 A 
ATOM      6  C6  BNZ d   1      -0.575  -0.073   1.035  0.00  0.00     0.000 A 
ENDROOT
TORSDOF 0
ENDMDL
