MODEL 1
REMARK minimizedAffinity -3.70644975
REMARK minimizedRMSD -1
REMARK  0 active torsions:
REMARK  status: ('A' for Active; 'I' for Inactive)
ROOT
ATOM      1  C1  BNZ d   1      -2.012   0.262   0.006  0.00  0.00     0.000 A 
ATOM      2  C2  BNZ d   1      -1.632  -0.387   1.150  0.00  0.00     0.000 A 
ATOM      3  C3  BNZ d   1      -0.311  -0.615   1.419  0.00  0.00     0.000 A 
ATOM      4  C4  BNZ d   1       0.624  -0.229   0.527  0.00  0.00     0.000 A 
ATOM      5  C5  BNZ d   1       0.256   0.418  -0.635  0.00  0.00     0.000 A 
ATOM      6  C6  BNZ d   1      -1.072   0.681  -0.885  0.00  0.00     0.000 A 
ENDROOT
TORSDOF 0
ENDMDL
