MODEL 1
REMARK minimizedAffinity -2.1322968
REMARK minimizedRMSD -1
REMARK  0 active torsions:
REMARK  status: ('A' for Active; 'I' for Inactive)
ROOT
ATOM      1  C1  BNZ d   1      -0.948  -0.640   0.462  0.00  0.00     0.000 A 
ATOM      2  C2  BNZ d   1      -0.795  -0.662   1.823  0.00  0.00     0.000 A 
ATOM      3  C3  BNZ d   1       0.187   0.071   2.428  0.00  0.00     0.000 A 
ATOM      4  C4  BNZ d   1       1.038   0.793   1.670  0.00  0.00     0.000 A 
ATOM      5  C5  BNZ d   1       0.901   0.819   0.297  0.00  0.00     0.000 A 
ATOM      6  C6  BNZ d   1      -0.112   0.110  -0.306  0.00  0.00     0.000 A 
ENDROOT
TORSDOF 0
ENDMDL
