MODEL 1
REMARK minimizedAffinity -0.970249534
REMARK minimizedRMSD -1
REMARK  0 active torsions:
REMARK  status: ('A' for Active; 'I' for Inactive)
ROOT
ATOM      1  C1  BNZ d   1       0.178  -0.014  -0.797  0.00  0.00     0.000 A 
ATOM      2  C2  BNZ d   1       0.252  -0.739   0.362  0.00  0.00     0.000 A 
ATOM      3  C3  BNZ d   1      -0.879  -1.067   1.056  0.00  0.00     0.000 A 
ATOM      4  C4  BNZ d   1      -2.077  -0.635   0.612  0.00  0.00     0.000 A 
ATOM      5  C5  BNZ d   1      -2.167   0.105  -0.549  0.00  0.00     0.000 A 
ATOM      6  C6  BNZ d   1      -1.030   0.400  -1.266  0.00  0.00     0.000 A 
ENDROOT
TORSDOF 0
ENDMDL
