MODEL 1
REMARK minimizedAffinity -3.85084629
REMARK minimizedRMSD -1
REMARK  0 active torsions:
REMARK  status: ('A' for Active; 'I' for Inactive)
ROOT
ATOM      1  C1  BNZ d   1      -0.523  -0.101   0.006  0.00  0.00     0.000 A 
ATOM      2  C2  BNZ d   1      -1.215  -0.296   1.171  0.00  0.00     0.000 A 
ATOM      3  C3  BNZ d   1      -0.558  -0.412   2.364  0.00  0.00     0.000 A 
ATOM      4  C4  BNZ d   1       0.789  -0.373   2.386  0.00  0.00     0.000 A 
ATOM      5  C5  BNZ d   1       1.502  -0.186   1.218  0.00  0.00     0.000 A 
ATOM      6  C6  BNZ d   1       0.835  -0.031   0.024  0.00  0.00     0.000 A 
ENDROOT
TORSDOF 0
ENDMDL
