MODEL 1
REMARK minimizedAffinity -4.76522112
REMARK minimizedRMSD -1
REMARK  0 active torsions:
REMARK  status: ('A' for Active; 'I' for Inactive)
ROOT
ATOM      1  C1  BNZ d   1      -1.507  -0.865   1.459  0.00  0.00     0.000 A 
ATOM      2  C2  BNZ d   1      -0.755  -0.759   2.598  0.00  0.00     0.000 A 
ATOM      3  C3  BNZ d   1       0.508  -0.237   2.558  0.00  0.00     0.000 A 
ATOM      4  C4  BNZ d   1       1.032   0.140   1.373  0.00  0.00     0.000 A 
ATOM      5  C5  BNZ d   1       0.290   0.030   0.214  0.00  0.00     0.000 A 
ATOM      6  C6  BNZ d   1      -0.995  -0.459   0.265  0.00  0.00     0.000 A 
ENDROOT
TORSDOF 0
ENDMDL
