MODEL 1
REMARK minimizedAffinity -5.05560923
REMARK minimizedRMSD -1
REMARK  0 active torsions:
REMARK  status: ('A' for Active; 'I' for Inactive)
ROOT
ATOM      1  C1  BNZ d   1       0.647   0.232   1.334  0.00  0.00     0.000 A 
ATOM      2  C2  BNZ d   1      -0.278   0.137   0.329  0.00  0.00     0.000 A 
ATOM      3  C3  BNZ d   1      -1.570  -0.219   0.599  0.00  0.00     0.000 A 
ATOM      4  C4  BNZ d   1      -1.925  -0.518   1.865  0.00  0.00     0.000 A 
ATOM      5  C5  BNZ d   1      -1.001  -0.436   2.888  0.00  0.00     0.000 A 
ATOM      6  C6  BNZ d   1       0.289  -0.039   2.618  0.00  0.00     0.000 A 
ENDROOT
TORSDOF 0
ENDMDL
