MODEL 1
REMARK minimizedAffinity -3.02568626
REMARK minimizedRMSD -1
REMARK  0 active torsions:
REMARK  status: ('A' for Active; 'I' for Inactive)
ROOT
ATOM      1  C1  BNZ d   1       0.778   1.111  -1.191  0.00  0.00     0.000 A 
ATOM      2  C2  BNZ d   1      -0.322   0.295  -1.165  0.00  0.00     0.000 A 
ATOM      3  C3  BNZ d   1      -0.609  -0.458  -0.061  0.00  0.00     0.000 A 
ATOM      4  C4  BNZ d   1       0.224  -0.423   0.999  0.00  0.00     0.000 A 
ATOM      5  C5  BNZ d   1       1.341   0.388   0.985  0.00  0.00     0.000 A 
ATOM      6  C6  BNZ d   1       1.606   1.173  -0.113  0.00  0.00     0.000 A 
ENDROOT
TORSDOF 0
ENDMDL
