MODEL 1
REMARK minimizedAffinity -4.90022182
REMARK minimizedRMSD -1
REMARK  0 active torsions:
REMARK  status: ('A' for Active; 'I' for Inactive)
ROOT
ATOM      1  C1  BNZ d   1       1.040   0.630   1.108  0.00  0.00     0.000 A 
ATOM      2  C2  BNZ d   1       0.519   0.573   2.373  0.00  0.00     0.000 A 
ATOM      3  C3  BNZ d   1      -0.679  -0.039   2.609  0.00  0.00     0.000 A 
ATOM      4  C4  BNZ d   1      -1.374  -0.558   1.576  0.00  0.00     0.000 A 
ATOM      5  C5  BNZ d   1      -0.867  -0.501   0.294  0.00  0.00     0.000 A 
ATOM      6  C6  BNZ d   1       0.359   0.082   0.065  0.00  0.00     0.000 A 
ENDROOT
TORSDOF 0
ENDMDL
