MODEL 1
REMARK minimizedAffinity -2.81093621
REMARK minimizedRMSD -1
REMARK  0 active torsions:
REMARK  status: ('A' for Active; 'I' for Inactive)
ROOT
ATOM      1  C1  BNZ d   1       1.129   0.441   0.593  0.00  0.00     0.000 A 
ATOM      2  C2  BNZ d   1       0.608   0.042   1.795  0.00  0.00     0.000 A 
ATOM      3  C3  BNZ d   1      -0.678  -0.414   1.883  0.00  0.00     0.000 A 
ATOM      4  C4  BNZ d   1      -1.452  -0.432   0.779  0.00  0.00     0.000 A 
ATOM      5  C5  BNZ d   1      -0.944  -0.024  -0.438  0.00  0.00     0.000 A 
ATOM      6  C6  BNZ d   1       0.362   0.398  -0.530  0.00  0.00     0.000 A 
ENDROOT
TORSDOF 0
ENDMDL
