MODEL 1
REMARK minimizedAffinity -3.74592495
REMARK minimizedRMSD -1
REMARK  0 active torsions:
REMARK  status: ('A' for Active; 'I' for Inactive)
ROOT
ATOM      1  C1  BNZ d   1      -1.868  -0.876   1.752  0.00  0.00     0.000 A 
ATOM      2  C2  BNZ d   1      -1.053  -0.857   2.852  0.00  0.00     0.000 A 
ATOM      3  C3  BNZ d   1       0.239  -0.420   2.758  0.00  0.00     0.000 A 
ATOM      4  C4  BNZ d   1       0.725  -0.041   1.559  0.00  0.00     0.000 A 
ATOM      5  C5  BNZ d   1      -0.082  -0.062   0.439  0.00  0.00     0.000 A 
ATOM      6  C6  BNZ d   1      -1.393  -0.466   0.545  0.00  0.00     0.000 A 
ENDROOT
TORSDOF 0
ENDMDL
