MODEL 1
REMARK minimizedAffinity -3.24800849
REMARK minimizedRMSD -1
REMARK  0 active torsions:
REMARK  status: ('A' for Active; 'I' for Inactive)
ROOT
ATOM      1  C1  BNZ d   1      -1.274  -0.413   1.478  0.00  0.00     0.000 A 
ATOM      2  C2  BNZ d   1       0.093  -0.492   1.485  0.00  0.00     0.000 A 
ATOM      3  C3  BNZ d   1       0.825  -0.056   0.416  0.00  0.00     0.000 A 
ATOM      4  C4  BNZ d   1       0.188   0.420  -0.673  0.00  0.00     0.000 A 
ATOM      5  C5  BNZ d   1      -1.190   0.498  -0.700  0.00  0.00     0.000 A 
ATOM      6  C6  BNZ d   1      -1.922   0.095   0.394  0.00  0.00     0.000 A 
ENDROOT
TORSDOF 0
ENDMDL
