MODEL 1
REMARK minimizedAffinity -2.33971977
REMARK minimizedRMSD -1
REMARK  1 active torsions:
REMARK  status: ('A' for Active; 'I' for Inactive)
REMARK    1  A    between atoms: N_2  and  C1_3 
ROOT
ATOM      1  C1  UNL d   1       0.858   5.625   4.824  0.00  0.00     0.143 A 
ATOM      2  C2  UNL d   1       0.239   5.119   5.973  0.00  0.00    -0.057 A 
ATOM      3  C3  UNL d   1      -1.136   4.855   6.000  0.00  0.00     0.033 A 
ATOM      4  C4  UNL d   1      -1.923   5.122   4.885  0.00  0.00    -0.042 A 
ATOM      5  C5  UNL d   1      -1.334   5.648   3.741  0.00  0.00     0.033 A 
ATOM      6  C6  UNL d   1       0.041   5.903   3.718  0.00  0.00    -0.057 A 
ENDROOT
BRANCH   1   7
ATOM      7  N   UNL d   1       2.203   6.000   4.767  0.00  0.00    -0.732 N 
ATOM      8  C   UNL d   1       3.066   5.830   5.916  0.00  0.00     0.284 C 
ATOM      9  H3  UNL d   1       2.637   5.753   3.881  0.00  0.00     0.395 HD
ENDBRANCH   1   7
TORSDOF 1
ENDMDL
