MODEL 1
REMARK minimizedAffinity -2.60072613
REMARK minimizedRMSD -1
REMARK  1 active torsions:
REMARK  status: ('A' for Active; 'I' for Inactive)
REMARK    1  A    between atoms: N_2  and  C1_3 
ROOT
ATOM      1  C1  UNL d   1      -0.813   5.454   4.730  0.00  0.00     0.143 A 
ATOM      2  C2  UNL d   1      -2.102   5.998   4.717  0.00  0.00    -0.057 A 
ATOM      3  C3  UNL d   1      -3.169   5.353   5.355  0.00  0.00     0.033 A 
ATOM      4  C4  UNL d   1      -2.970   4.134   5.996  0.00  0.00    -0.042 A 
ATOM      5  C5  UNL d   1      -1.702   3.563   6.000  0.00  0.00     0.033 A 
ATOM      6  C6  UNL d   1      -0.640   4.215   5.366  0.00  0.00    -0.057 A 
ENDROOT
BRANCH   1   7
ATOM      7  N   UNL d   1       0.267   5.997   4.030  0.00  0.00    -0.732 N 
ATOM      8  C   UNL d   1       1.597   5.981   4.600  0.00  0.00     0.284 C 
ATOM      9  H3  UNL d   1       0.237   5.776   3.037  0.00  0.00     0.395 HD
ENDBRANCH   1   7
TORSDOF 1
ENDMDL
