MODEL 1
REMARK minimizedAffinity -2.73097253
REMARK minimizedRMSD -1
REMARK  1 active torsions:
REMARK  status: ('A' for Active; 'I' for Inactive)
REMARK    1  A    between atoms: N_2  and  C1_3 
ROOT
ATOM      1  C1  UNL d   1      -2.636   3.349   5.117  0.00  0.00     0.143 A 
ATOM      2  C2  UNL d   1      -2.871   4.468   4.311  0.00  0.00    -0.057 A 
ATOM      3  C3  UNL d   1      -2.004   5.567   4.325  0.00  0.00     0.033 A 
ATOM      4  C4  UNL d   1      -0.899   5.579   5.170  0.00  0.00    -0.042 A 
ATOM      5  C5  UNL d   1      -0.661   4.488   5.998  0.00  0.00     0.033 A 
ATOM      6  C6  UNL d   1      -1.526   3.390   5.975  0.00  0.00    -0.057 A 
ENDROOT
BRANCH   1   7
ATOM      7  N   UNL d   1      -3.514   2.267   5.220  0.00  0.00    -0.732 N 
ATOM      8  C   UNL d   1      -4.771   2.267   4.503  0.00  0.00     0.284 C 
ATOM      9  H3  UNL d   1      -3.031   1.372   5.212  0.00  0.00     0.395 HD
ENDBRANCH   1   7
TORSDOF 1
ENDMDL
