MODEL 1
REMARK minimizedAffinity -2.33281016
REMARK minimizedRMSD -1
REMARK  1 active torsions:
REMARK  status: ('A' for Active; 'I' for Inactive)
REMARK    1  A    between atoms: N_2  and  C1_3 
ROOT
ATOM      1  C1  UNL d   1       2.974  -3.638   1.537  0.00  0.00     0.143 A 
ATOM      2  C2  UNL d   1       3.829  -4.745   1.546  0.00  0.00    -0.057 A 
ATOM      3  C3  UNL d   1       5.221  -4.586   1.561  0.00  0.00     0.033 A 
ATOM      4  C4  UNL d   1       5.782  -3.314   1.538  0.00  0.00    -0.042 A 
ATOM      5  C5  UNL d   1       4.951  -2.200   1.504  0.00  0.00     0.033 A 
ATOM      6  C6  UNL d   1       3.563  -2.365   1.495  0.00  0.00    -0.057 A 
ENDROOT
BRANCH   1   7
ATOM      7  N   UNL d   1       1.584  -3.730   1.422  0.00  0.00    -0.732 N 
ATOM      8  C   UNL d   1       0.762  -2.539   1.445  0.00  0.00     0.284 C 
ATOM      9  H3  UNL d   1       1.297  -4.421   0.732  0.00  0.00     0.395 HD
ENDBRANCH   1   7
TORSDOF 1
ENDMDL
