MODEL 1
REMARK minimizedAffinity -2.73855853
REMARK minimizedRMSD -1
REMARK  1 active torsions:
REMARK  status: ('A' for Active; 'I' for Inactive)
REMARK    1  A    between atoms: N_2  and  C1_3 
ROOT
ATOM      1  C1  UNL d   1      -2.620   5.485   4.808  0.00  0.00     0.143 A 
ATOM      2  C2  UNL d   1      -1.869   4.971   3.746  0.00  0.00    -0.057 A 
ATOM      3  C3  UNL d   1      -0.471   4.927   3.799  0.00  0.00     0.033 A 
ATOM      4  C4  UNL d   1       0.205   5.426   4.908  0.00  0.00    -0.042 A 
ATOM      5  C5  UNL d   1      -0.520   5.965   5.965  0.00  0.00     0.033 A 
ATOM      6  C6  UNL d   1      -1.917   5.999   5.909  0.00  0.00    -0.057 A 
ENDROOT
BRANCH   1   7
ATOM      7  N   UNL d   1      -4.008   5.647   4.774  0.00  0.00    -0.732 N 
ATOM      8  C   UNL d   1      -4.775   5.691   6.000  0.00  0.00     0.284 C 
ATOM      9  H3  UNL d   1      -4.303   6.323   4.074  0.00  0.00     0.395 HD
ENDBRANCH   1   7
TORSDOF 1
ENDMDL
