MODEL 1
REMARK minimizedAffinity -2.91633224
REMARK minimizedRMSD -1
REMARK  1 active torsions:
REMARK  status: ('A' for Active; 'I' for Inactive)
REMARK    1  A    between atoms: N_2  and  C1_3 
ROOT
ATOM      1  C1  UNL d   1       3.257   4.295   5.292  0.00  0.00     0.143 A 
ATOM      2  C2  UNL d   1       4.268   3.382   4.976  0.00  0.00    -0.057 A 
ATOM      3  C3  UNL d   1       5.617   3.756   4.999  0.00  0.00     0.033 A 
ATOM      4  C4  UNL d   1       5.978   5.063   5.312  0.00  0.00    -0.042 A 
ATOM      5  C5  UNL d   1       4.987   5.994   5.604  0.00  0.00     0.033 A 
ATOM      6  C6  UNL d   1       3.642   5.613   5.586  0.00  0.00    -0.057 A 
ENDROOT
BRANCH   1   7
ATOM      7  N   UNL d   1       1.893   4.011   5.191  0.00  0.00    -0.732 N 
ATOM      8  C   UNL d   1       0.925   4.756   5.967  0.00  0.00     0.284 C 
ATOM      9  H3  UNL d   1       1.604   3.826   4.233  0.00  0.00     0.395 HD
ENDBRANCH   1   7
TORSDOF 1
ENDMDL
