MODEL 1
REMARK minimizedAffinity -4.10314083
REMARK minimizedRMSD -1
REMARK  1 active torsions:
REMARK  status: ('A' for Active; 'I' for Inactive)
REMARK    1  A    between atoms: N_2  and  C1_3 
ROOT
ATOM      1  C1  UNL d   1      -1.089   5.278   4.514  0.00  0.00     0.143 A 
ATOM      2  C2  UNL d   1      -1.126   3.989   5.058  0.00  0.00    -0.057 A 
ATOM      3  C3  UNL d   1      -2.326   3.424   5.505  0.00  0.00     0.033 A 
ATOM      4  C4  UNL d   1      -3.510   4.151   5.443  0.00  0.00    -0.042 A 
ATOM      5  C5  UNL d   1      -3.493   5.443   4.929  0.00  0.00     0.033 A 
ATOM      6  C6  UNL d   1      -2.292   6.000   4.478  0.00  0.00    -0.057 A 
ENDROOT
BRANCH   1   7
ATOM      7  N   UNL d   1       0.088   5.932   4.143  0.00  0.00    -0.732 N 
ATOM      8  C   UNL d   1       1.294   5.784   4.931  0.00  0.00     0.284 C 
ATOM      9  H3  UNL d   1       0.244   5.912   3.138  0.00  0.00     0.395 HD
ENDBRANCH   1   7
TORSDOF 1
ENDMDL
