MODEL 1
REMARK minimizedAffinity 5.32854223
REMARK minimizedRMSD -1
REMARK  1 active torsions:
REMARK  status: ('A' for Active; 'I' for Inactive)
REMARK    1  A    between atoms: N_2  and  C1_3 
ROOT
ATOM      1  C1  UNL d   1       0.430   5.598   4.483  0.00  0.00     0.143 A 
ATOM      2  C2  UNL d   1       1.413   5.993   5.397  0.00  0.00    -0.057 A 
ATOM      3  C3  UNL d   1       2.719   5.493   5.320  0.00  0.00     0.033 A 
ATOM      4  C4  UNL d   1       3.058   4.564   4.342  0.00  0.00    -0.042 A 
ATOM      5  C5  UNL d   1       2.091   4.138   3.438  0.00  0.00     0.033 A 
ATOM      6  C6  UNL d   1       0.791   4.647   3.516  0.00  0.00    -0.057 A 
ENDROOT
BRANCH   1   7
ATOM      7  N   UNL d   1      -0.910   5.984   4.567  0.00  0.00    -0.732 N 
ATOM      8  C   UNL d   1      -1.625   5.896   5.822  0.00  0.00     0.284 C 
ATOM      9  H3  UNL d   1      -1.104   6.829   4.035  0.00  0.00     0.395 HD
ENDBRANCH   1   7
TORSDOF 1
ENDMDL
