MODEL 1
REMARK minimizedAffinity 2.58013749
REMARK minimizedRMSD -1
REMARK  1 active torsions:
REMARK  status: ('A' for Active; 'I' for Inactive)
REMARK    1  A    between atoms: N_2  and  C1_3 
ROOT
ATOM      1  C1  UNL d   1       0.870  -2.923   1.373  0.00  0.00     0.143 A 
ATOM      2  C2  UNL d   1       0.774  -1.543   1.586  0.00  0.00    -0.057 A 
ATOM      3  C3  UNL d   1       1.820  -0.680   1.236  0.00  0.00     0.033 A 
ATOM      4  C4  UNL d   1       2.995  -1.188   0.691  0.00  0.00    -0.042 A 
ATOM      5  C5  UNL d   1       3.122  -2.558   0.494  0.00  0.00     0.033 A 
ATOM      6  C6  UNL d   1       2.071  -3.414   0.840  0.00  0.00    -0.057 A 
ENDROOT
BRANCH   1   7
ATOM      7  N   UNL d   1      -0.095  -3.842   1.791  0.00  0.00    -0.732 N 
ATOM      8  C   UNL d   1      -1.375  -3.391   2.294  0.00  0.00     0.284 C 
ATOM      9  H3  UNL d   1      -0.152  -4.652   1.176  0.00  0.00     0.395 HD
ENDBRANCH   1   7
TORSDOF 1
ENDMDL
