MODEL 1
REMARK minimizedAffinity -4.27387285
REMARK minimizedRMSD -1
REMARK  2 active torsions:
REMARK  status: ('A' for Active; 'I' for Inactive)
REMARK    1  A    between atoms: C1_2  and  C2_3 
REMARK    2  A    between atoms: C2_3  and  C3_4 
ROOT
ATOM      1  C3  UNL d   1       1.076   0.106   0.174  0.00  0.00    -0.075 A 
ATOM      2  C4  UNL d   1      -0.250   0.276  -0.252  0.00  0.00     0.002 A 
ATOM      3  C5  UNL d   1      -1.275  -0.494   0.298  0.00  0.00     0.002 A 
ATOM      4  C6  UNL d   1      -0.987  -1.449   1.271  0.00  0.00    -0.004 A 
ATOM      5  C7  UNL d   1       0.328  -1.638   1.689  0.00  0.00     0.002 A 
ATOM      6  C8  UNL d   1       1.355  -0.866   1.144  0.00  0.00     0.002 A 
ENDROOT
BRANCH   1   7
ATOM      7  C2  UNL d   1       2.186   0.957  -0.396  0.00  0.00     0.056 C 
BRANCH   7   8
ATOM      8  C1  UNL d   1       2.307   2.340   0.251  0.00  0.00     0.007 C 
ATOM      9  C   UNL d   1       3.017   3.357  -0.632  0.00  0.00     0.009 C 
ENDBRANCH   7   8
ENDBRANCH   1   7
TORSDOF 2
ENDMDL
