MODEL 1
REMARK minimizedAffinity -0.683864057
REMARK minimizedRMSD -1
REMARK  2 active torsions:
REMARK  status: ('A' for Active; 'I' for Inactive)
REMARK    1  A    between atoms: C1_2  and  C2_3 
REMARK    2  A    between atoms: C2_3  and  C3_4 
ROOT
ATOM      1  C3  UNL d   1       2.470   1.541   1.048  0.00  0.00    -0.075 A 
ATOM      2  C4  UNL d   1       2.373   1.852   2.412  0.00  0.00     0.002 A 
ATOM      3  C5  UNL d   1       2.755   3.109   2.881  0.00  0.00     0.002 A 
ATOM      4  C6  UNL d   1       3.247   4.066   1.996  0.00  0.00    -0.004 A 
ATOM      5  C7  UNL d   1       3.363   3.763   0.641  0.00  0.00     0.002 A 
ATOM      6  C8  UNL d   1       2.977   2.507   0.169  0.00  0.00     0.002 A 
ENDROOT
BRANCH   1   7
ATOM      7  C2  UNL d   1       2.030   0.193   0.530  0.00  0.00     0.056 C 
BRANCH   7   8
ATOM      8  C1  UNL d   1       0.525  -0.064   0.658  0.00  0.00     0.007 C 
ATOM      9  C   UNL d   1      -0.211   0.004  -0.674  0.00  0.00     0.009 C 
ENDBRANCH   7   8
ENDBRANCH   1   7
TORSDOF 2
ENDMDL
