MODEL 1
REMARK minimizedAffinity -5.07827997
REMARK minimizedRMSD -1
REMARK  2 active torsions:
REMARK  status: ('A' for Active; 'I' for Inactive)
REMARK    1  A    between atoms: C1_2  and  C2_3 
REMARK    2  A    between atoms: C2_3  and  C3_4 
ROOT
ATOM      1  C3  UNL d   1      -0.830  -0.142  -1.436  0.00  0.00    -0.075 A 
ATOM      2  C4  UNL d   1      -2.133  -0.642  -1.571  0.00  0.00     0.002 A 
ATOM      3  C5  UNL d   1      -2.934  -0.847  -0.447  0.00  0.00     0.002 A 
ATOM      4  C6  UNL d   1      -2.439  -0.564   0.825  0.00  0.00    -0.004 A 
ATOM      5  C7  UNL d   1      -1.141  -0.082   0.972  0.00  0.00     0.002 A 
ATOM      6  C8  UNL d   1      -0.339   0.127  -0.152  0.00  0.00     0.002 A 
ENDROOT
BRANCH   1   7
ATOM      7  C2  UNL d   1       0.030   0.110  -2.651  0.00  0.00     0.056 C 
BRANCH   7   8
ATOM      8  C1  UNL d   1       1.492  -0.318  -2.479  0.00  0.00     0.007 C 
ATOM      9  C   UNL d   1       2.153  -0.734  -3.786  0.00  0.00     0.009 C 
ENDBRANCH   7   8
ENDBRANCH   1   7
TORSDOF 2
ENDMDL
