MODEL 1
REMARK minimizedAffinity -2.70169353
REMARK minimizedRMSD -1
REMARK  2 active torsions:
REMARK  status: ('A' for Active; 'I' for Inactive)
REMARK    1  A    between atoms: C1_2  and  C2_3 
REMARK    2  A    between atoms: C2_3  and  C3_4 
ROOT
ATOM      1  C3  UNL d   1       0.505   0.161  -0.024  0.00  0.00    -0.075 A 
ATOM      2  C4  UNL d   1      -0.692   0.307  -0.740  0.00  0.00     0.002 A 
ATOM      3  C5  UNL d   1      -1.871  -0.276  -0.276  0.00  0.00     0.002 A 
ATOM      4  C6  UNL d   1      -1.867  -1.019   0.903  0.00  0.00    -0.004 A 
ATOM      5  C7  UNL d   1      -0.681  -1.184   1.614  0.00  0.00     0.002 A 
ATOM      6  C8  UNL d   1       0.500  -0.598   1.154  0.00  0.00     0.002 A 
ENDROOT
BRANCH   1   7
ATOM      7  C2  UNL d   1       1.779   0.814  -0.506  0.00  0.00     0.056 C 
BRANCH   7   8
ATOM      8  C1  UNL d   1       2.194   2.046   0.306  0.00  0.00     0.007 C 
ATOM      9  C   UNL d   1       2.451   3.274  -0.557  0.00  0.00     0.009 C 
ENDBRANCH   7   8
ENDBRANCH   1   7
TORSDOF 2
ENDMDL
