MODEL 1
REMARK minimizedAffinity -4.19598246
REMARK minimizedRMSD -1
REMARK  2 active torsions:
REMARK  status: ('A' for Active; 'I' for Inactive)
REMARK    1  A    between atoms: C1_2  and  C2_3 
REMARK    2  A    between atoms: C2_3  and  C3_4 
ROOT
ATOM      1  C3  UNL d   1       2.183   1.092   0.801  0.00  0.00    -0.075 A 
ATOM      2  C4  UNL d   1       2.108   2.085   1.789  0.00  0.00     0.002 A 
ATOM      3  C5  UNL d   1       2.791   3.292   1.634  0.00  0.00     0.002 A 
ATOM      4  C6  UNL d   1       3.565   3.516   0.497  0.00  0.00    -0.004 A 
ATOM      5  C7  UNL d   1       3.660   2.530  -0.483  0.00  0.00     0.002 A 
ATOM      6  C8  UNL d   1       2.974   1.324  -0.332  0.00  0.00     0.002 A 
ENDROOT
BRANCH   1   7
ATOM      7  C2  UNL d   1       1.422  -0.204   0.949  0.00  0.00     0.056 C 
BRANCH   7   8
ATOM      8  C1  UNL d   1      -0.018  -0.144   0.429  0.00  0.00     0.007 C 
ATOM      9  C   UNL d   1      -1.019  -0.824   1.354  0.00  0.00     0.009 C 
ENDBRANCH   7   8
ENDBRANCH   1   7
TORSDOF 2
ENDMDL
