MODEL 1
REMARK minimizedAffinity -3.69847059
REMARK minimizedRMSD -1
REMARK  2 active torsions:
REMARK  status: ('A' for Active; 'I' for Inactive)
REMARK    1  A    between atoms: C1_2  and  C2_3 
REMARK    2  A    between atoms: C2_3  and  C3_4 
ROOT
ATOM      1  C3  UNL d   1       2.428   1.011  -0.184  0.00  0.00    -0.075 A 
ATOM      2  C4  UNL d   1       2.124   1.244   1.165  0.00  0.00     0.002 A 
ATOM      3  C5  UNL d   1       2.551   2.413   1.796  0.00  0.00     0.002 A 
ATOM      4  C6  UNL d   1       3.293   3.357   1.091  0.00  0.00    -0.004 A 
ATOM      5  C7  UNL d   1       3.615   3.129  -0.245  0.00  0.00     0.002 A 
ATOM      6  C8  UNL d   1       3.186   1.962  -0.880  0.00  0.00     0.002 A 
ENDROOT
BRANCH   1   7
ATOM      7  C2  UNL d   1       1.945  -0.238  -0.881  0.00  0.00     0.056 C 
BRANCH   7   8
ATOM      8  C1  UNL d   1       2.879  -0.736  -1.989  0.00  0.00     0.007 C 
ATOM      9  C   UNL d   1       2.175  -0.929  -3.325  0.00  0.00     0.009 C 
ENDBRANCH   7   8
ENDBRANCH   1   7
TORSDOF 2
ENDMDL
