MODEL 1
REMARK minimizedAffinity -5.50690556
REMARK minimizedRMSD -1
REMARK  2 active torsions:
REMARK  status: ('A' for Active; 'I' for Inactive)
REMARK    1  A    between atoms: C1_2  and  C2_3 
REMARK    2  A    between atoms: C2_3  and  C3_4 
ROOT
ATOM      1  C3  UNL d   1       0.979  -0.144  -0.230  0.00  0.00    -0.075 A 
ATOM      2  C4  UNL d   1      -0.276   0.332  -0.638  0.00  0.00     0.002 A 
ATOM      3  C5  UNL d   1      -1.434  -0.056   0.036  0.00  0.00     0.002 A 
ATOM      4  C6  UNL d   1      -1.354  -0.930   1.117  0.00  0.00    -0.004 A 
ATOM      5  C7  UNL d   1      -0.115  -1.422   1.521  0.00  0.00     0.002 A 
ATOM      6  C8  UNL d   1       1.046  -1.033   0.851  0.00  0.00     0.002 A 
ENDROOT
BRANCH   1   7
ATOM      7  C2  UNL d   1       2.239   0.295  -0.937  0.00  0.00     0.056 C 
BRANCH   7   8
ATOM      8  C1  UNL d   1       2.727  -0.686  -2.008  0.00  0.00     0.007 C 
ATOM      9  C   UNL d   1       2.049  -0.488  -3.357  0.00  0.00     0.009 C 
ENDBRANCH   7   8
ENDBRANCH   1   7
TORSDOF 2
ENDMDL
