MODEL 1
REMARK minimizedAffinity -5.93449783
REMARK minimizedRMSD -1
REMARK  2 active torsions:
REMARK  status: ('A' for Active; 'I' for Inactive)
REMARK    1  A    between atoms: C1_2  and  C2_3 
REMARK    2  A    between atoms: C2_3  and  C3_4 
ROOT
ATOM      1  C3  UNL d   1      -0.536  -0.134  -0.254  0.00  0.00    -0.075 A 
ATOM      2  C4  UNL d   1      -1.148  -0.710   0.869  0.00  0.00     0.002 A 
ATOM      3  C5  UNL d   1      -2.311  -1.468   0.731  0.00  0.00     0.002 A 
ATOM      4  C6  UNL d   1      -2.882  -1.650  -0.527  0.00  0.00    -0.004 A 
ATOM      5  C7  UNL d   1      -2.293  -1.069  -1.647  0.00  0.00     0.002 A 
ATOM      6  C8  UNL d   1      -1.126  -0.313  -1.512  0.00  0.00     0.002 A 
ENDROOT
BRANCH   1   7
ATOM      7  C2  UNL d   1       0.739   0.663  -0.116  0.00  0.00     0.056 C 
BRANCH   7   8
ATOM      8  C1  UNL d   1       2.015  -0.179  -0.221  0.00  0.00     0.007 C 
ATOM      9  C   UNL d   1       2.600  -0.209  -1.627  0.00  0.00     0.009 C 
ENDBRANCH   7   8
ENDBRANCH   1   7
TORSDOF 2
ENDMDL
