MODEL 1
REMARK minimizedAffinity -4.10220385
REMARK minimizedRMSD -1
REMARK  2 active torsions:
REMARK  status: ('A' for Active; 'I' for Inactive)
REMARK    1  A    between atoms: C1_2  and  C2_3 
REMARK    2  A    between atoms: C2_3  and  C3_4 
ROOT
ATOM      1  C3  UNL d   1       0.806  -0.197   0.429  0.00  0.00    -0.075 A 
ATOM      2  C4  UNL d   1       0.863   0.066  -0.947  0.00  0.00     0.002 A 
ATOM      3  C5  UNL d   1      -0.242  -0.181  -1.762  0.00  0.00     0.002 A 
ATOM      4  C6  UNL d   1      -1.412  -0.703  -1.215  0.00  0.00    -0.004 A 
ATOM      5  C7  UNL d   1      -1.475  -0.984   0.148  0.00  0.00     0.002 A 
ATOM      6  C8  UNL d   1      -0.372  -0.733   0.967  0.00  0.00     0.002 A 
ENDROOT
BRANCH   1   7
ATOM      7  C2  UNL d   1       1.988   0.097   1.321  0.00  0.00     0.056 C 
BRANCH   7   8
ATOM      8  C1  UNL d   1       2.031   1.535   1.847  0.00  0.00     0.007 C 
ATOM      9  C   UNL d   1       3.038   2.413   1.115  0.00  0.00     0.009 C 
ENDBRANCH   7   8
ENDBRANCH   1   7
TORSDOF 2
ENDMDL
