MODEL 1
REMARK minimizedAffinity -2.3462286
REMARK minimizedRMSD -1
REMARK  2 active torsions:
REMARK  status: ('A' for Active; 'I' for Inactive)
REMARK    1  A    between atoms: C1_2  and  C2_3 
REMARK    2  A    between atoms: C2_3  and  C3_4 
ROOT
ATOM      1  C3  UNL d   1      -0.032  -0.081  -0.240  0.00  0.00    -0.075 A 
ATOM      2  C4  UNL d   1      -1.256  -0.594   0.212  0.00  0.00     0.002 A 
ATOM      3  C5  UNL d   1      -2.266  -0.920  -0.695  0.00  0.00     0.002 A 
ATOM      4  C6  UNL d   1      -2.068  -0.727  -2.060  0.00  0.00    -0.004 A 
ATOM      5  C7  UNL d   1      -0.862  -0.202  -2.519  0.00  0.00     0.002 A 
ATOM      6  C8  UNL d   1       0.151   0.120  -1.614  0.00  0.00     0.002 A 
ENDROOT
BRANCH   1   7
ATOM      7  C2  UNL d   1       1.075   0.246   0.734  0.00  0.00     0.056 C 
BRANCH   7   8
ATOM      8  C1  UNL d   1       2.228   1.048   0.121  0.00  0.00     0.007 C 
ATOM      9  C   UNL d   1       2.682   2.210   0.995  0.00  0.00     0.009 C 
ENDBRANCH   7   8
ENDBRANCH   1   7
TORSDOF 2
ENDMDL
