MODEL 1
REMARK minimizedAffinity -2.06076431
REMARK minimizedRMSD -1
REMARK  2 active torsions:
REMARK  status: ('A' for Active; 'I' for Inactive)
REMARK    1  A    between atoms: C1_2  and  C2_3 
REMARK    2  A    between atoms: C2_3  and  C3_4 
ROOT
ATOM      1  C3  UNL d   1       3.410   3.455   0.594  0.00  0.00    -0.075 A 
ATOM      2  C4  UNL d   1       3.666   2.244  -0.066  0.00  0.00     0.002 A 
ATOM      3  C5  UNL d   1       4.290   2.235  -1.313  0.00  0.00     0.002 A 
ATOM      4  C6  UNL d   1       4.657   3.434  -1.921  0.00  0.00    -0.004 A 
ATOM      5  C7  UNL d   1       4.392   4.644  -1.282  0.00  0.00     0.002 A 
ATOM      6  C8  UNL d   1       3.771   4.655  -0.032  0.00  0.00     0.002 A 
ENDROOT
BRANCH   1   7
ATOM      7  C2  UNL d   1       2.761   3.469   1.957  0.00  0.00     0.056 C 
BRANCH   7   8
ATOM      8  C1  UNL d   1       2.258   2.099   2.424  0.00  0.00     0.007 C 
ATOM      9  C   UNL d   1       3.232   1.386   3.352  0.00  0.00     0.009 C 
ENDBRANCH   7   8
ENDBRANCH   1   7
TORSDOF 2
ENDMDL
