MODEL 1
REMARK minimizedAffinity 6.46646929
REMARK minimizedRMSD -1
REMARK  2 active torsions:
REMARK  status: ('A' for Active; 'I' for Inactive)
REMARK    1  A    between atoms: C2'_3  and  C1'_4 
REMARK    2  A    between atoms: C1'_4  and  C1_5 
ROOT
ATOM      1  C1  I4B d   1      -2.222   0.160  -1.153  0.00  0.00    -0.075 A 
ATOM      2  C2  I4B d   1      -2.371   1.492  -1.445  0.00  0.00     0.003 A 
ATOM      3  C3  I4B d   1      -1.548   2.106  -2.420  0.00  0.00     0.002 A 
ATOM      4  C4  I4B d   1      -0.561   1.366  -3.039  0.00  0.00    -0.004 A 
ATOM      5  C5  I4B d   1      -0.426   0.009  -2.759  0.00  0.00     0.002 A 
ATOM      6  C6  I4B d   1      -1.269  -0.601  -1.819  0.00  0.00     0.003 A 
ENDROOT
BRANCH   1   7
ATOM      7  C1' I4B d   1      -3.086  -0.448  -0.094  0.00  0.00     0.060 C 
BRANCH   7   8
ATOM      8  C2' I4B d   1      -2.641   0.105   1.245  0.00  0.00    -0.013 C 
ATOM      9  C4' I4B d   1      -3.799   0.708   1.997  0.00  0.00     0.013 C 
ATOM     10  C3' I4B d   1      -2.015  -1.014   2.023  0.00  0.00     0.013 C 
ENDBRANCH   7   8
ENDBRANCH   1   7
TORSDOF 2
ENDMDL
