MODEL 1
REMARK minimizedAffinity 4.38602257
REMARK minimizedRMSD -1
REMARK  2 active torsions:
REMARK  status: ('A' for Active; 'I' for Inactive)
REMARK    1  A    between atoms: C2'_3  and  C1'_4 
REMARK    2  A    between atoms: C1'_4  and  C1_5 
ROOT
ATOM      1  C1  I4B d   1       4.620  -1.214   0.160  0.00  0.00    -0.075 A 
ATOM      2  C2  I4B d   1       4.852  -2.537   0.441  0.00  0.00     0.003 A 
ATOM      3  C3  I4B d   1       3.767  -3.429   0.617  0.00  0.00     0.002 A 
ATOM      4  C4  I4B d   1       2.475  -2.949   0.553  0.00  0.00    -0.004 A 
ATOM      5  C5  I4B d   1       2.241  -1.612   0.244  0.00  0.00     0.002 A 
ATOM      6  C6  I4B d   1       3.320  -0.741   0.034  0.00  0.00     0.003 A 
ENDROOT
BRANCH   1   7
ATOM      7  C1' I4B d   1       5.789  -0.292   0.013  0.00  0.00     0.060 C 
BRANCH   7   8
ATOM      8  C2' I4B d   1       5.280   1.023  -0.541  0.00  0.00    -0.013 C 
ATOM      9  C4' I4B d   1       5.568   2.160   0.404  0.00  0.00     0.013 C 
ATOM     10  C3' I4B d   1       5.932   1.248  -1.873  0.00  0.00     0.013 C 
ENDBRANCH   7   8
ENDBRANCH   1   7
TORSDOF 2
ENDMDL
