MODEL 1
REMARK minimizedAffinity 4.0267272
REMARK minimizedRMSD -1
REMARK  2 active torsions:
REMARK  status: ('A' for Active; 'I' for Inactive)
REMARK    1  A    between atoms: C2'_3  and  C1'_4 
REMARK    2  A    between atoms: C1'_4  and  C1_5 
ROOT
ATOM      1  C1  I4B d   1      -2.470   0.178   2.974  0.00  0.00    -0.075 A 
ATOM      2  C2  I4B d   1      -2.742  -0.868   2.128  0.00  0.00     0.003 A 
ATOM      3  C3  I4B d   1      -1.833  -1.948   2.015  0.00  0.00     0.002 A 
ATOM      4  C4  I4B d   1      -0.649  -1.917   2.724  0.00  0.00    -0.004 A 
ATOM      5  C5  I4B d   1      -0.386  -0.866   3.598  0.00  0.00     0.002 A 
ATOM      6  C6  I4B d   1      -1.307   0.182   3.734  0.00  0.00     0.003 A 
ENDROOT
BRANCH   1   7
ATOM      7  C1' I4B d   1      -3.436   1.318   3.044  0.00  0.00     0.060 C 
BRANCH   7   8
ATOM      8  C2' I4B d   1      -4.657   0.849   3.808  0.00  0.00    -0.013 C 
ATOM      9  C4' I4B d   1      -4.529   1.147   5.278  0.00  0.00     0.013 C 
ATOM     10  C3' I4B d   1      -5.859   1.527   3.221  0.00  0.00     0.013 C 
ENDBRANCH   7   8
ENDBRANCH   1   7
TORSDOF 2
ENDMDL
