MODEL 1
REMARK minimizedAffinity 7.48095608
REMARK minimizedRMSD -1
REMARK  2 active torsions:
REMARK  status: ('A' for Active; 'I' for Inactive)
REMARK    1  A    between atoms: C2'_3  and  C1'_4 
REMARK    2  A    between atoms: C1'_4  and  C1_5 
ROOT
ATOM      1  C1  I4B d   1      -2.352  -0.698   2.216  0.00  0.00    -0.075 A 
ATOM      2  C2  I4B d   1      -2.965   0.374   2.816  0.00  0.00     0.003 A 
ATOM      3  C3  I4B d   1      -3.824   1.215   2.067  0.00  0.00     0.002 A 
ATOM      4  C4  I4B d   1      -3.999   0.979   0.718  0.00  0.00    -0.004 A 
ATOM      5  C5  I4B d   1      -3.394  -0.121   0.117  0.00  0.00     0.002 A 
ATOM      6  C6  I4B d   1      -2.575  -0.972   0.873  0.00  0.00     0.003 A 
ENDROOT
BRANCH   1   7
ATOM      7  C1' I4B d   1      -1.426  -1.546   3.029  0.00  0.00     0.060 C 
BRANCH   7   8
ATOM      8  C2' I4B d   1      -0.006  -1.221   2.610  0.00  0.00    -0.013 C 
ATOM      9  C4' I4B d   1       0.774  -0.618   3.749  0.00  0.00     0.013 C 
ATOM     10  C3' I4B d   1       0.634  -2.487   2.125  0.00  0.00     0.013 C 
ENDBRANCH   7   8
ENDBRANCH   1   7
TORSDOF 2
ENDMDL
