MODEL 1
REMARK minimizedAffinity 4.53610754
REMARK minimizedRMSD -1
REMARK  2 active torsions:
REMARK  status: ('A' for Active; 'I' for Inactive)
REMARK    1  A    between atoms: C2'_3  and  C1'_4 
REMARK    2  A    between atoms: C1'_4  and  C1_5 
ROOT
ATOM      1  C1  I4B d   1       0.338  -1.337   2.551  0.00  0.00    -0.075 A 
ATOM      2  C2  I4B d   1       0.163  -0.082   3.078  0.00  0.00     0.003 A 
ATOM      3  C3  I4B d   1      -1.140   0.410   3.330  0.00  0.00     0.002 A 
ATOM      4  C4  I4B d   1      -2.234  -0.361   2.995  0.00  0.00    -0.004 A 
ATOM      5  C5  I4B d   1      -2.055  -1.643   2.482  0.00  0.00     0.002 A 
ATOM      6  C6  I4B d   1      -0.760  -2.139   2.270  0.00  0.00     0.003 A 
ENDROOT
BRANCH   1   7
ATOM      7  C1' I4B d   1       1.728  -1.812   2.267  0.00  0.00     0.060 C 
BRANCH   7   8
ATOM      8  C2' I4B d   1       1.694  -2.614   0.982  0.00  0.00    -0.013 C 
ATOM      9  C4' I4B d   1       2.045  -1.756  -0.205  0.00  0.00     0.013 C 
ATOM     10  C3' I4B d   1       2.651  -3.759   1.125  0.00  0.00     0.013 C 
ENDBRANCH   7   8
ENDBRANCH   1   7
TORSDOF 2
ENDMDL
