MODEL 1
REMARK minimizedAffinity 10.5357828
REMARK minimizedRMSD -1
REMARK  2 active torsions:
REMARK  status: ('A' for Active; 'I' for Inactive)
REMARK    1  A    between atoms: C2'_3  and  C1'_4 
REMARK    2  A    between atoms: C1'_4  and  C1_5 
ROOT
ATOM      1  C1  I4B d   1       0.128  -1.114  -0.182  0.00  0.00    -0.075 A 
ATOM      2  C2  I4B d   1      -0.611  -0.983   0.967  0.00  0.00     0.003 A 
ATOM      3  C3  I4B d   1      -0.169  -1.583   2.171  0.00  0.00     0.002 A 
ATOM      4  C4  I4B d   1       0.984  -2.340   2.170  0.00  0.00    -0.004 A 
ATOM      5  C5  I4B d   1       1.745  -2.452   1.009  0.00  0.00     0.002 A 
ATOM      6  C6  I4B d   1       1.321  -1.825  -0.171  0.00  0.00     0.003 A 
ENDROOT
BRANCH   1   7
ATOM      7  C1' I4B d   1      -0.385  -0.496  -1.444  0.00  0.00     0.060 C 
BRANCH   7   8
ATOM      8  C2' I4B d   1      -1.069   0.807  -1.081  0.00  0.00    -0.013 C 
ATOM      9  C4' I4B d   1      -0.648   1.919  -2.005  0.00  0.00     0.013 C 
ATOM     10  C3' I4B d   1      -2.551   0.584  -1.141  0.00  0.00     0.013 C 
ENDBRANCH   7   8
ENDBRANCH   1   7
TORSDOF 2
ENDMDL
