MODEL 1
REMARK minimizedAffinity 2.56031966
REMARK minimizedRMSD -1
REMARK  2 active torsions:
REMARK  status: ('A' for Active; 'I' for Inactive)
REMARK    1  A    between atoms: C2'_3  and  C1'_4 
REMARK    2  A    between atoms: C1'_4  and  C1_5 
ROOT
ATOM      1  C1  I4B d   1      -0.357  -1.803   3.021  0.00  0.00    -0.075 A 
ATOM      2  C2  I4B d   1       0.741  -1.142   3.511  0.00  0.00     0.003 A 
ATOM      3  C3  I4B d   1       0.669   0.243   3.800  0.00  0.00     0.002 A 
ATOM      4  C4  I4B d   1      -0.498   0.932   3.539  0.00  0.00    -0.004 A 
ATOM      5  C5  I4B d   1      -1.617   0.254   3.063  0.00  0.00     0.002 A 
ATOM      6  C6  I4B d   1      -1.550  -1.124   2.814  0.00  0.00     0.003 A 
ENDROOT
BRANCH   1   7
ATOM      7  C1' I4B d   1      -0.235  -3.258   2.695  0.00  0.00     0.060 C 
BRANCH   7   8
ATOM      8  C2' I4B d   1       0.947  -3.431   1.762  0.00  0.00    -0.013 C 
ATOM      9  C4' I4B d   1       1.044  -4.848   1.263  0.00  0.00     0.013 C 
ATOM     10  C3' I4B d   1       0.784  -2.466   0.626  0.00  0.00     0.013 C 
ENDBRANCH   7   8
ENDBRANCH   1   7
TORSDOF 2
ENDMDL
