MODEL 1
REMARK minimizedAffinity 12.5922165
REMARK minimizedRMSD -1
REMARK  2 active torsions:
REMARK  status: ('A' for Active; 'I' for Inactive)
REMARK    1  A    between atoms: C2'_3  and  C1'_4 
REMARK    2  A    between atoms: C1'_4  and  C1_5 
ROOT
ATOM      1  C1  I4B d   1       3.832  -1.828   0.878  0.00  0.00    -0.075 A 
ATOM      2  C2  I4B d   1       3.608  -2.993   1.570  0.00  0.00     0.003 A 
ATOM      3  C3  I4B d   1       2.285  -3.437   1.809  0.00  0.00     0.002 A 
ATOM      4  C4  I4B d   1       1.222  -2.665   1.386  0.00  0.00    -0.004 A 
ATOM      5  C5  I4B d   1       1.451  -1.497   0.665  0.00  0.00     0.002 A 
ATOM      6  C6  I4B d   1       2.763  -1.082   0.398  0.00  0.00     0.003 A 
ENDROOT
BRANCH   1   7
ATOM      7  C1' I4B d   1       5.241  -1.372   0.671  0.00  0.00     0.060 C 
BRANCH   7   8
ATOM      8  C2' I4B d   1       5.200  -0.057  -0.080  0.00  0.00    -0.013 C 
ATOM      9  C4' I4B d   1       6.000   1.003   0.631  0.00  0.00     0.013 C 
ATOM     10  C3' I4B d   1       5.729  -0.297  -1.463  0.00  0.00     0.013 C 
ENDBRANCH   7   8
ENDBRANCH   1   7
TORSDOF 2
ENDMDL
