MODEL 1
REMARK minimizedAffinity 5.80089521
REMARK minimizedRMSD -1
REMARK  2 active torsions:
REMARK  status: ('A' for Active; 'I' for Inactive)
REMARK    1  A    between atoms: C2'_3  and  C1'_4 
REMARK    2  A    between atoms: C1'_4  and  C1_5 
ROOT
ATOM      1  C1  I4B d   1       0.791  -1.058   0.682  0.00  0.00    -0.075 A 
ATOM      2  C2  I4B d   1       1.847  -1.865   0.339  0.00  0.00     0.003 A 
ATOM      3  C3  I4B d   1       2.223  -2.941   1.177  0.00  0.00     0.002 A 
ATOM      4  C4  I4B d   1       1.552  -3.143   2.367  0.00  0.00    -0.004 A 
ATOM      5  C5  I4B d   1       0.468  -2.338   2.702  0.00  0.00     0.002 A 
ATOM      6  C6  I4B d   1       0.076  -1.296   1.848  0.00  0.00     0.003 A 
ENDROOT
BRANCH   1   7
ATOM      7  C1' I4B d   1       0.441   0.090  -0.211  0.00  0.00     0.060 C 
BRANCH   7   8
ATOM      8  C2' I4B d   1      -0.859  -0.243  -0.913  0.00  0.00    -0.013 C 
ATOM      9  C4' I4B d   1      -1.503   0.992  -1.486  0.00  0.00     0.013 C 
ATOM     10  C3' I4B d   1      -0.561  -1.246  -1.988  0.00  0.00     0.013 C 
ENDBRANCH   7   8
ENDBRANCH   1   7
TORSDOF 2
ENDMDL
