MODEL 1
REMARK minimizedAffinity -2.18251991
REMARK minimizedRMSD -1
REMARK  0 active torsions:
REMARK  status: ('A' for Active; 'I' for Inactive)
ROOT
ATOM      1  C   UNL d   1       1.357   0.468  -0.424  0.00  0.00     0.020 A 
ATOM      2  C1  UNL d   1       0.464   0.705  -1.469  0.00  0.00     0.020 A 
ATOM      3  C2  UNL d   1      -0.829   0.181  -1.415  0.00  0.00     0.034 A 
ATOM      4  C3  UNL d   1      -1.234  -0.583  -0.314  0.00  0.00     0.017 A 
ATOM      5  C4  UNL d   1      -0.337  -0.820   0.735  0.00  0.00     0.017 A 
ATOM      6  C5  UNL d   1       0.957  -0.293   0.675  0.00  0.00     0.034 A 
ATOM      7 Cl   UNL d   1      -0.764  -1.752   2.126  0.00  0.00    -0.070 Cl
ATOM      8 Cl1  UNL d   1      -2.848  -1.199  -0.313  0.00  0.00    -0.070 Cl
ENDROOT
TORSDOF 0
ENDMDL
