MODEL 1
REMARK minimizedAffinity -1.16773427
REMARK minimizedRMSD -1
REMARK  0 active torsions:
REMARK  status: ('A' for Active; 'I' for Inactive)
ROOT
ATOM      1  C   UNL d   1       2.000   0.633   0.424  0.00  0.00     0.020 A 
ATOM      2  C1  UNL d   1       1.441   1.322  -0.652  0.00  0.00     0.020 A 
ATOM      3  C2  UNL d   1       0.231   0.895  -1.202  0.00  0.00     0.034 A 
ATOM      4  C3  UNL d   1      -0.425  -0.224  -0.677  0.00  0.00     0.017 A 
ATOM      5  C4  UNL d   1       0.136  -0.915   0.404  0.00  0.00     0.017 A 
ATOM      6  C5  UNL d   1       1.348  -0.483   0.950  0.00  0.00     0.034 A 
ATOM      7 Cl   UNL d   1      -0.614  -2.304   1.106  0.00  0.00    -0.070 Cl
ATOM      8 Cl1  UNL d   1      -1.919  -0.696  -1.406  0.00  0.00    -0.070 Cl
ENDROOT
TORSDOF 0
ENDMDL
