MODEL 1
REMARK minimizedAffinity -4.1552515
REMARK minimizedRMSD -1
REMARK  0 active torsions:
REMARK  status: ('A' for Active; 'I' for Inactive)
ROOT
ATOM      1  C   UNL d   1       1.040  -0.126   0.257  0.00  0.00     0.020 A 
ATOM      2  C1  UNL d   1       0.351   0.334  -0.864  0.00  0.00     0.020 A 
ATOM      3  C2  UNL d   1      -1.026   0.126  -0.973  0.00  0.00     0.034 A 
ATOM      4  C3  UNL d   1      -1.718  -0.545   0.042  0.00  0.00     0.017 A 
ATOM      5  C4  UNL d   1      -1.025  -1.008   1.167  0.00  0.00     0.017 A 
ATOM      6  C5  UNL d   1       0.353  -0.796   1.270  0.00  0.00     0.034 A 
ATOM      7 Cl   UNL d   1      -1.811  -1.844   2.460  0.00  0.00    -0.070 Cl
ATOM      8 Cl1  UNL d   1      -3.420  -0.768  -0.158  0.00  0.00    -0.070 Cl
ENDROOT
TORSDOF 0
ENDMDL
