MODEL 1
REMARK minimizedAffinity -3.86299062
REMARK minimizedRMSD -1
REMARK  0 active torsions:
REMARK  status: ('A' for Active; 'I' for Inactive)
ROOT
ATOM      1  C   UNL d   1       0.598   0.662  -1.357  0.00  0.00     0.020 A 
ATOM      2  C1  UNL d   1       1.501   0.091  -0.461  0.00  0.00     0.020 A 
ATOM      3  C2  UNL d   1       1.031  -0.622   0.644  0.00  0.00     0.034 A 
ATOM      4  C3  UNL d   1      -0.345  -0.767   0.856  0.00  0.00     0.017 A 
ATOM      5  C4  UNL d   1      -1.251  -0.193  -0.045  0.00  0.00     0.017 A 
ATOM      6  C5  UNL d   1      -0.775   0.520  -1.150  0.00  0.00     0.034 A 
ATOM      7 Cl   UNL d   1      -2.963  -0.329   0.149  0.00  0.00    -0.070 Cl
ATOM      8 Cl1  UNL d   1      -0.856  -1.662   2.243  0.00  0.00    -0.070 Cl
ENDROOT
TORSDOF 0
ENDMDL
