MODEL 1
REMARK minimizedAffinity -2.27603698
REMARK minimizedRMSD -1
REMARK  0 active torsions:
REMARK  status: ('A' for Active; 'I' for Inactive)
ROOT
ATOM      1  C   UNL d   1       0.048  -0.095  -0.299  0.00  0.00     0.020 A 
ATOM      2  C1  UNL d   1      -0.470   1.057   0.291  0.00  0.00     0.020 A 
ATOM      3  C2  UNL d   1       0.390   1.987   0.880  0.00  0.00     0.034 A 
ATOM      4  C3  UNL d   1       1.772   1.766   0.880  0.00  0.00     0.017 A 
ATOM      5  C4  UNL d   1       2.291   0.609   0.288  0.00  0.00     0.017 A 
ATOM      6  C5  UNL d   1       1.425  -0.319  -0.301  0.00  0.00     0.034 A 
ATOM      7 Cl   UNL d   1       3.985   0.267   0.249  0.00  0.00    -0.070 Cl
ATOM      8 Cl1  UNL d   1       2.776   2.958   1.626  0.00  0.00    -0.070 Cl
ENDROOT
TORSDOF 0
ENDMDL
