MODEL 1
REMARK minimizedAffinity -1.94656599
REMARK minimizedRMSD -1
REMARK  0 active torsions:
REMARK  status: ('A' for Active; 'I' for Inactive)
ROOT
ATOM      1  C   UNL d   1      -3.010  -1.179  -0.475  0.00  0.00     0.020 A 
ATOM      2  C1  UNL d   1      -2.516  -1.133   0.828  0.00  0.00     0.020 A 
ATOM      3  C2  UNL d   1      -1.222  -0.668   1.069  0.00  0.00     0.034 A 
ATOM      4  C3  UNL d   1      -0.417  -0.245   0.005  0.00  0.00     0.017 A 
ATOM      5  C4  UNL d   1      -0.913  -0.291  -1.303  0.00  0.00     0.017 A 
ATOM      6  C5  UNL d   1      -2.210  -0.758  -1.538  0.00  0.00     0.034 A 
ATOM      7 Cl   UNL d   1       0.020   0.214  -2.667  0.00  0.00    -0.070 Cl
ATOM      8 Cl1  UNL d   1       1.174   0.319   0.375  0.00  0.00    -0.070 Cl
ENDROOT
TORSDOF 0
ENDMDL
