MODEL 1
REMARK minimizedAffinity -3.03551912
REMARK minimizedRMSD -1
REMARK  0 active torsions:
REMARK  status: ('A' for Active; 'I' for Inactive)
ROOT
ATOM      1  C   UNL d   1      -0.102   0.300  -1.629  0.00  0.00     0.020 A 
ATOM      2  C1  UNL d   1       0.859   0.027  -0.656  0.00  0.00     0.020 A 
ATOM      3  C2  UNL d   1       0.489  -0.611   0.531  0.00  0.00     0.034 A 
ATOM      4  C3  UNL d   1      -0.845  -0.977   0.747  0.00  0.00     0.017 A 
ATOM      5  C4  UNL d   1      -1.808  -0.701  -0.231  0.00  0.00     0.017 A 
ATOM      6  C5  UNL d   1      -1.432  -0.063  -1.416  0.00  0.00     0.034 A 
ATOM      7 Cl   UNL d   1      -3.473  -1.123  -0.035  0.00  0.00    -0.070 Cl
ATOM      8 Cl1  UNL d   1      -1.231  -1.762   2.237  0.00  0.00    -0.070 Cl
ENDROOT
TORSDOF 0
ENDMDL
