MODEL 1
REMARK minimizedAffinity -1.7783134
REMARK minimizedRMSD -1
REMARK  0 active torsions:
REMARK  status: ('A' for Active; 'I' for Inactive)
ROOT
ATOM      1  C   UNL d   1      -2.569  -0.102  -0.752  0.00  0.00     0.020 A 
ATOM      2  C1  UNL d   1      -1.813   0.651  -1.650  0.00  0.00     0.020 A 
ATOM      3  C2  UNL d   1      -0.434   0.775  -1.469  0.00  0.00     0.034 A 
ATOM      4  C3  UNL d   1       0.194   0.145  -0.389  0.00  0.00     0.017 A 
ATOM      5  C4  UNL d   1      -0.565  -0.611   0.512  0.00  0.00     0.017 A 
ATOM      6  C5  UNL d   1      -1.946  -0.732   0.326  0.00  0.00     0.034 A 
ATOM      7 Cl   UNL d   1       0.139  -1.418   1.868  0.00  0.00    -0.070 Cl
ATOM      8 Cl1  UNL d   1       1.903   0.341  -0.227  0.00  0.00    -0.070 Cl
ENDROOT
TORSDOF 0
ENDMDL
