MODEL 1
REMARK minimizedAffinity -2.63606858
REMARK minimizedRMSD -1
REMARK  0 active torsions:
REMARK  status: ('A' for Active; 'I' for Inactive)
ROOT
ATOM      1  C   UNL d   1       2.845  -0.140   0.568  0.00  0.00     0.020 A 
ATOM      2  C1  UNL d   1       2.183  -0.894   1.536  0.00  0.00     0.020 A 
ATOM      3  C2  UNL d   1       0.795  -0.806   1.662  0.00  0.00     0.034 A 
ATOM      4  C3  UNL d   1       0.064   0.040   0.819  0.00  0.00     0.017 A 
ATOM      5  C4  UNL d   1       0.729   0.797  -0.152  0.00  0.00     0.017 A 
ATOM      6  C5  UNL d   1       2.119   0.704  -0.274  0.00  0.00     0.034 A 
ATOM      7 Cl   UNL d   1      -0.104   1.861  -1.228  0.00  0.00    -0.070 Cl
ATOM      8 Cl1  UNL d   1      -1.649   0.099   1.031  0.00  0.00    -0.070 Cl
ENDROOT
TORSDOF 0
ENDMDL
