MODEL 1
REMARK minimizedAffinity -3.9115963
REMARK minimizedRMSD -1
REMARK  0 active torsions:
REMARK  status: ('A' for Active; 'I' for Inactive)
ROOT
ATOM      1  C   UNL d   1      -2.886  -0.630   0.087  0.00  0.00     0.020 A 
ATOM      2  C1  UNL d   1      -2.166  -0.737   1.276  0.00  0.00     0.020 A 
ATOM      3  C2  UNL d   1      -0.779  -0.567   1.270  0.00  0.00     0.034 A 
ATOM      4  C3  UNL d   1      -0.110  -0.290   0.073  0.00  0.00     0.017 A 
ATOM      5  C4  UNL d   1      -0.834  -0.182  -1.120  0.00  0.00     0.017 A 
ATOM      6  C5  UNL d   1      -2.221  -0.353  -1.108  0.00  0.00     0.034 A 
ATOM      7 Cl   UNL d   1      -0.077   0.158  -2.636  0.00  0.00    -0.070 Cl
ATOM      8 Cl1  UNL d   1       1.606  -0.092   0.139  0.00  0.00    -0.070 Cl
ENDROOT
TORSDOF 0
ENDMDL
