MODEL 1
REMARK minimizedAffinity 6.11792612
REMARK minimizedRMSD -1
REMARK  0 active torsions:
REMARK  status: ('A' for Active; 'I' for Inactive)
ROOT
ATOM      1  C   UNL d   1      -5.822   5.569   1.074  0.00  0.00     0.020 A 
ATOM      2  C1  UNL d   1      -4.906   4.559   0.784  0.00  0.00     0.020 A 
ATOM      3  C2  UNL d   1      -4.161   3.976   1.811  0.00  0.00     0.034 A 
ATOM      4  C3  UNL d   1      -4.331   4.403   3.133  0.00  0.00     0.017 A 
ATOM      5  C4  UNL d   1      -5.251   5.417   3.423  0.00  0.00     0.017 A 
ATOM      6  C5  UNL d   1      -5.994   5.997   2.391  0.00  0.00     0.034 A 
ATOM      7 Cl   UNL d   1      -5.516   5.996   5.030  0.00  0.00    -0.070 Cl
ATOM      8 Cl1  UNL d   1      -3.377   3.637   4.353  0.00  0.00    -0.070 Cl
ENDROOT
TORSDOF 0
ENDMDL
