MODEL 1
REMARK minimizedAffinity -2.97352171
REMARK minimizedRMSD -1
REMARK  0 active torsions:
REMARK  status: ('A' for Active; 'I' for Inactive)
ROOT
ATOM      1  C   UNL d   1       0.699   0.604  -1.514  0.00  0.00     0.020 A 
ATOM      2  C1  UNL d   1       1.531   0.195  -0.472  0.00  0.00     0.020 A 
ATOM      3  C2  UNL d   1       0.988  -0.440   0.647  0.00  0.00     0.034 A 
ATOM      4  C3  UNL d   1      -0.391  -0.668   0.727  0.00  0.00     0.017 A 
ATOM      5  C4  UNL d   1      -1.225  -0.258  -0.319  0.00  0.00     0.017 A 
ATOM      6  C5  UNL d   1      -0.676   0.377  -1.437  0.00  0.00     0.034 A 
ATOM      7 Cl   UNL d   1      -2.936  -0.505  -0.293  0.00  0.00    -0.070 Cl
ATOM      8 Cl1  UNL d   1      -0.994  -1.459   2.140  0.00  0.00    -0.070 Cl
ENDROOT
TORSDOF 0
ENDMDL
