MODEL 1
REMARK minimizedAffinity -4.18612766
REMARK minimizedRMSD -1
REMARK  0 active torsions:
REMARK  status: ('A' for Active; 'I' for Inactive)
ROOT
ATOM      1  C   UNL d   1       3.664   4.290  -0.497  0.00  0.00     0.020 A 
ATOM      2  C1  UNL d   1       3.600   3.443  -1.602  0.00  0.00     0.020 A 
ATOM      3  C2  UNL d   1       2.972   2.200  -1.494  0.00  0.00     0.034 A 
ATOM      4  C3  UNL d   1       2.406   1.801  -0.277  0.00  0.00     0.017 A 
ATOM      5  C4  UNL d   1       2.471   2.653   0.832  0.00  0.00     0.017 A 
ATOM      6  C5  UNL d   1       3.100   3.896   0.717  0.00  0.00     0.034 A 
ATOM      7 Cl   UNL d   1       1.795   2.230   2.365  0.00  0.00    -0.070 Cl
ATOM      8 Cl1  UNL d   1       1.645   0.251  -0.215  0.00  0.00    -0.070 Cl
ENDROOT
TORSDOF 0
ENDMDL
