MODEL 1
REMARK minimizedAffinity -3.59343362
REMARK minimizedRMSD -1
REMARK  0 active torsions:
REMARK  status: ('A' for Active; 'I' for Inactive)
ROOT
ATOM      1  C   UNL d   1      -2.343  -1.705   0.653  0.00  0.00     0.020 A 
ATOM      2  C1  UNL d   1      -3.005  -1.430  -0.543  0.00  0.00     0.020 A 
ATOM      3  C2  UNL d   1      -2.399  -0.621  -1.506  0.00  0.00     0.034 A 
ATOM      4  C3  UNL d   1      -1.127  -0.085  -1.276  0.00  0.00     0.017 A 
ATOM      5  C4  UNL d   1      -0.463  -0.362  -0.075  0.00  0.00     0.017 A 
ATOM      6  C5  UNL d   1      -1.075  -1.172   0.886  0.00  0.00     0.034 A 
ATOM      7 Cl   UNL d   1       1.108   0.265   0.281  0.00  0.00    -0.070 Cl
ATOM      8 Cl1  UNL d   1      -0.438   0.907  -2.511  0.00  0.00    -0.070 Cl
ENDROOT
TORSDOF 0
ENDMDL
