MODEL 1
REMARK minimizedAffinity -1.98314977
REMARK minimizedRMSD -1
REMARK  0 active torsions:
REMARK  status: ('A' for Active; 'I' for Inactive)
ROOT
ATOM      1  C   UNL d   1      -2.075  -1.335   0.592  0.00  0.00     0.020 A 
ATOM      2  C1  UNL d   1      -2.899  -0.932  -0.458  0.00  0.00     0.020 A 
ATOM      3  C2  UNL d   1      -2.421  -0.037  -1.417  0.00  0.00     0.034 A 
ATOM      4  C3  UNL d   1      -1.114   0.458  -1.329  0.00  0.00     0.017 A 
ATOM      5  C4  UNL d   1      -0.287   0.052  -0.275  0.00  0.00     0.017 A 
ATOM      6  C5  UNL d   1      -0.772  -0.844   0.683  0.00  0.00     0.034 A 
ATOM      7 Cl   UNL d   1       1.336   0.619  -0.099  0.00  0.00    -0.070 Cl
ATOM      8 Cl1  UNL d   1      -0.589   1.561  -2.550  0.00  0.00    -0.070 Cl
ENDROOT
TORSDOF 0
ENDMDL
