MODEL 1
REMARK minimizedAffinity -4.46232605
REMARK minimizedRMSD -1
REMARK  0 active torsions:
REMARK  status: ('A' for Active; 'I' for Inactive)
ROOT
ATOM      1  C   UNL d   1       0.403  -1.439   1.576  0.00  0.00     0.020 A 
ATOM      2  C1  UNL d   1       1.404  -0.714   0.930  0.00  0.00     0.020 A 
ATOM      3  C2  UNL d   1       1.114  -0.020  -0.247  0.00  0.00     0.034 A 
ATOM      4  C3  UNL d   1      -0.179  -0.050  -0.782  0.00  0.00     0.017 A 
ATOM      5  C4  UNL d   1      -1.182  -0.779  -0.133  0.00  0.00     0.017 A 
ATOM      6  C5  UNL d   1      -0.887  -1.472   1.045  0.00  0.00     0.034 A 
ATOM      7 Cl   UNL d   1      -2.801  -0.863  -0.732  0.00  0.00    -0.070 Cl
ATOM      8 Cl1  UNL d   1      -0.466   0.831  -2.240  0.00  0.00    -0.070 Cl
ENDROOT
TORSDOF 0
ENDMDL
