MODEL 1
REMARK minimizedAffinity -1.86220539
REMARK minimizedRMSD -1
REMARK  0 active torsions:
REMARK  status: ('A' for Active; 'I' for Inactive)
ROOT
ATOM      1  C   UNL d   1       1.520   0.048   0.063  0.00  0.00     0.020 A 
ATOM      2  C1  UNL d   1       0.733   0.693  -0.890  0.00  0.00     0.020 A 
ATOM      3  C2  UNL d   1      -0.612   0.347  -1.035  0.00  0.00     0.034 A 
ATOM      4  C3  UNL d   1      -1.175  -0.646  -0.225  0.00  0.00     0.017 A 
ATOM      5  C4  UNL d   1      -0.384  -1.293   0.732  0.00  0.00     0.017 A 
ATOM      6  C5  UNL d   1       0.963  -0.942   0.873  0.00  0.00     0.034 A 
ATOM      7 Cl   UNL d   1      -1.007  -2.528   1.769  0.00  0.00    -0.070 Cl
ATOM      8 Cl1  UNL d   1      -2.845  -1.023  -0.458  0.00  0.00    -0.070 Cl
ENDROOT
TORSDOF 0
ENDMDL
