MODEL 1
REMARK minimizedAffinity -3.20785213
REMARK minimizedRMSD -1
REMARK  0 active torsions:
REMARK  status: ('A' for Active; 'I' for Inactive)
ROOT
ATOM      1  C   UNL d   1       1.274  -0.261  -0.833  0.00  0.00     0.020 A 
ATOM      2  C1  UNL d   1       0.341   0.112  -1.800  0.00  0.00     0.020 A 
ATOM      3  C2  UNL d   1      -1.017   0.153  -1.480  0.00  0.00     0.034 A 
ATOM      4  C3  UNL d   1      -1.448  -0.182  -0.191  0.00  0.00     0.017 A 
ATOM      5  C4  UNL d   1      -0.511  -0.557   0.779  0.00  0.00     0.017 A 
ATOM      6  C5  UNL d   1       0.849  -0.595   0.454  0.00  0.00     0.034 A 
ATOM      7 Cl   UNL d   1      -0.965  -0.982   2.391  0.00  0.00    -0.070 Cl
ATOM      8 Cl1  UNL d   1      -3.143  -0.110   0.135  0.00  0.00    -0.070 Cl
ENDROOT
TORSDOF 0
ENDMDL
