MODEL 1
REMARK minimizedAffinity -4.30798483
REMARK minimizedRMSD -1
REMARK  0 active torsions:
REMARK  status: ('A' for Active; 'I' for Inactive)
ROOT
ATOM      1  C1  DEN d   1       2.122  -0.577   0.936  0.00  0.00     0.130 A 
ATOM      2  C2  DEN d   1       2.768  -0.407   2.235  0.00  0.00    -0.031 A 
ATOM      3  C3  DEN d   1       1.769   0.141   3.174  0.00  0.00     0.027 A 
ATOM      4  C4  DEN d   1      -0.704   0.735   2.746  0.00  0.00     0.027 A 
ATOM      5  C5  DEN d   1      -1.701   0.775   1.797  0.00  0.00    -0.003 A 
ATOM      6  C6  DEN d   1      -1.487   0.402   0.497  0.00  0.00     0.001 A 
ATOM      7  C7  DEN d   1      -0.257  -0.070   0.120  0.00  0.00     0.017 A 
ATOM      8  C8  DEN d   1       0.755  -0.106   1.070  0.00  0.00    -0.094 A 
ATOM      9  C9  DEN d   1       0.515   0.264   2.382  0.00  0.00    -0.072 A 
ENDROOT
TORSDOF 0
ENDMDL
