MODEL 1
REMARK minimizedAffinity -4.80383301
REMARK minimizedRMSD -1
REMARK  0 active torsions:
REMARK  status: ('A' for Active; 'I' for Inactive)
ROOT
ATOM      1  C1  DEN d   1       0.900  -0.455  -0.469  0.00  0.00     0.130 A 
ATOM      2  C2  DEN d   1      -0.229  -1.039  -1.189  0.00  0.00    -0.031 A 
ATOM      3  C3  DEN d   1      -1.472  -0.506  -0.596  0.00  0.00     0.027 A 
ATOM      4  C4  DEN d   1      -1.756   1.161   1.352  0.00  0.00     0.027 A 
ATOM      5  C5  DEN d   1      -1.087   1.922   2.285  0.00  0.00    -0.003 A 
ATOM      6  C6  DEN d   1       0.279   1.918   2.387  0.00  0.00     0.001 A 
ATOM      7  C7  DEN d   1       1.023   1.172   1.511  0.00  0.00     0.017 A 
ATOM      8  C8  DEN d   1       0.355   0.396   0.572  0.00  0.00    -0.094 A 
ATOM      9  C9  DEN d   1      -1.026   0.423   0.478  0.00  0.00    -0.072 A 
ENDROOT
TORSDOF 0
ENDMDL
