MODEL 1
REMARK minimizedAffinity -2.81387734
REMARK minimizedRMSD -1
REMARK  0 active torsions:
REMARK  status: ('A' for Active; 'I' for Inactive)
ROOT
ATOM      1  C1  DEN d   1       0.607   1.442   2.749  0.00  0.00     0.130 A 
ATOM      2  C2  DEN d   1      -0.688   1.334   3.415  0.00  0.00    -0.031 A 
ATOM      3  C3  DEN d   1      -1.580   0.535   2.551  0.00  0.00     0.027 A 
ATOM      4  C4  DEN d   1      -1.084  -0.543   0.262  0.00  0.00     0.027 A 
ATOM      5  C5  DEN d   1      -0.127  -0.715  -0.715  0.00  0.00    -0.003 A 
ATOM      6  C6  DEN d   1       1.120  -0.156  -0.621  0.00  0.00     0.001 A 
ATOM      7  C7  DEN d   1       1.459   0.565   0.493  0.00  0.00     0.017 A 
ATOM      8  C8  DEN d   1       0.498   0.748   1.478  0.00  0.00    -0.094 A 
ATOM      9  C9  DEN d   1      -0.753   0.165   1.371  0.00  0.00    -0.072 A 
ENDROOT
TORSDOF 0
ENDMDL
