MODEL 1
REMARK minimizedAffinity -6.303339
REMARK minimizedRMSD -1
REMARK  0 active torsions:
REMARK  status: ('A' for Active; 'I' for Inactive)
ROOT
ATOM      1  C1  DEN d   1      -1.369   0.534   0.049  0.00  0.00     0.130 A 
ATOM      2  C2  DEN d   1      -0.444   0.061  -0.977  0.00  0.00    -0.031 A 
ATOM      3  C3  DEN d   1       0.845  -0.244  -0.324  0.00  0.00     0.027 A 
ATOM      4  C4  DEN d   1       1.493  -0.034   2.163  0.00  0.00     0.027 A 
ATOM      5  C5  DEN d   1       1.046   0.336   3.413  0.00  0.00    -0.003 A 
ATOM      6  C6  DEN d   1      -0.216   0.825   3.621  0.00  0.00     0.001 A 
ATOM      7  C7  DEN d   1      -1.091   0.916   2.571  0.00  0.00     0.017 A 
ATOM      8  C8  DEN d   1      -0.645   0.553   1.307  0.00  0.00    -0.094 A 
ATOM      9  C9  DEN d   1       0.631   0.049   1.119  0.00  0.00    -0.072 A 
ENDROOT
TORSDOF 0
ENDMDL
