MODEL 1
REMARK minimizedAffinity -6.01306534
REMARK minimizedRMSD -1
REMARK  0 active torsions:
REMARK  status: ('A' for Active; 'I' for Inactive)
ROOT
ATOM      1  C1  DEN d   1       0.566   0.737   2.708  0.00  0.00     0.130 A 
ATOM      2  C2  DEN d   1      -0.773   1.281   2.919  0.00  0.00    -0.031 A 
ATOM      3  C3  DEN d   1      -1.658   0.731   1.872  0.00  0.00     0.027 A 
ATOM      4  C4  DEN d   1      -1.090  -0.903  -0.040  0.00  0.00     0.027 A 
ATOM      5  C5  DEN d   1      -0.081  -1.631  -0.633  0.00  0.00    -0.003 A 
ATOM      6  C6  DEN d   1       1.210  -1.594  -0.177  0.00  0.00     0.001 A 
ATOM      7  C7  DEN d   1       1.519  -0.848   0.929  0.00  0.00     0.017 A 
ATOM      8  C8  DEN d   1       0.509  -0.106   1.528  0.00  0.00    -0.094 A 
ATOM      9  C9  DEN d   1      -0.793  -0.166   1.060  0.00  0.00    -0.072 A 
ENDROOT
TORSDOF 0
ENDMDL
