MODEL 1
REMARK minimizedAffinity -2.35036373
REMARK minimizedRMSD -1
REMARK  0 active torsions:
REMARK  status: ('A' for Active; 'I' for Inactive)
ROOT
ATOM      1  C1  DEN d   1       0.442   2.031   1.527  0.00  0.00     0.130 A 
ATOM      2  C2  DEN d   1      -0.519   1.825   2.608  0.00  0.00    -0.031 A 
ATOM      3  C3  DEN d   1      -1.302   0.612   2.297  0.00  0.00     0.027 A 
ATOM      4  C4  DEN d   1      -1.117  -0.961   0.262  0.00  0.00     0.027 A 
ATOM      5  C5  DEN d   1      -0.456  -1.189  -0.925  0.00  0.00    -0.003 A 
ATOM      6  C6  DEN d   1       0.519  -0.347  -1.390  0.00  0.00     0.001 A 
ATOM      7  C7  DEN d   1       0.893   0.738  -0.642  0.00  0.00     0.017 A 
ATOM      8  C8  DEN d   1       0.226   0.978   0.552  0.00  0.00    -0.094 A 
ATOM      9  C9  DEN d   1      -0.749   0.108   1.011  0.00  0.00    -0.072 A 
ENDROOT
TORSDOF 0
ENDMDL
