MODEL 1
REMARK minimizedAffinity -4.62514591
REMARK minimizedRMSD -1
REMARK  0 active torsions:
REMARK  status: ('A' for Active; 'I' for Inactive)
ROOT
ATOM      1  C1  DEN d   1      -0.184  -1.093  -1.969  0.00  0.00     0.130 A 
ATOM      2  C2  DEN d   1       0.244  -0.380  -0.769  0.00  0.00    -0.031 A 
ATOM      3  C3  DEN d   1       0.783   0.931  -1.185  0.00  0.00     0.027 A 
ATOM      4  C4  DEN d   1       0.992   1.920  -3.558  0.00  0.00     0.027 A 
ATOM      5  C5  DEN d   1       0.773   1.681  -4.897  0.00  0.00    -0.003 A 
ATOM      6  C6  DEN d   1       0.256   0.498  -5.352  0.00  0.00     0.001 A 
ATOM      7  C7  DEN d   1      -0.103  -0.476  -4.458  0.00  0.00     0.017 A 
ATOM      8  C8  DEN d   1       0.122  -0.245  -3.107  0.00  0.00    -0.094 A 
ATOM      9  C9  DEN d   1       0.635   0.962  -2.665  0.00  0.00    -0.072 A 
ENDROOT
TORSDOF 0
ENDMDL
