MODEL 1
REMARK minimizedAffinity -0.485696524
REMARK minimizedRMSD -1
REMARK  0 active torsions:
REMARK  status: ('A' for Active; 'I' for Inactive)
ROOT
ATOM      1  C1  DEN d   1      -2.540   0.369   0.682  0.00  0.00     0.130 A 
ATOM      2  C2  DEN d   1      -2.317  -0.859  -0.077  0.00  0.00    -0.031 A 
ATOM      3  C3  DEN d   1      -0.895  -1.230   0.063  0.00  0.00     0.027 A 
ATOM      4  C4  DEN d   1       0.973  -0.032   1.377  0.00  0.00     0.027 A 
ATOM      5  C5  DEN d   1       1.269   1.055   2.169  0.00  0.00    -0.003 A 
ATOM      6  C6  DEN d   1       0.331   2.000   2.491  0.00  0.00     0.001 A 
ATOM      7  C7  DEN d   1      -0.959   1.852   2.055  0.00  0.00     0.017 A 
ATOM      8  C8  DEN d   1      -1.263   0.762   1.249  0.00  0.00    -0.094 A 
ATOM      9  C9  DEN d   1      -0.304  -0.189   0.945  0.00  0.00    -0.072 A 
ENDROOT
TORSDOF 0
ENDMDL
