MODEL 1
REMARK minimizedAffinity 6.16918755
REMARK minimizedRMSD -1
REMARK  0 active torsions:
REMARK  status: ('A' for Active; 'I' for Inactive)
ROOT
ATOM      1  O1  BZF d   1      -3.261   1.048   0.994  0.00  0.00    -0.204 OA
ATOM      2  C2  BZF d   1      -4.598   0.706   0.938  0.00  0.00     0.174 A 
ATOM      3  C3  BZF d   1      -4.905   0.167  -0.260  0.00  0.00    -0.012 A 
ATOM      4  C3A BZF d   1      -3.663   0.090  -0.966  0.00  0.00    -0.107 A 
ATOM      5  C4  BZF d   1      -3.314  -0.370  -2.204  0.00  0.00     0.055 A 
ATOM      6  C5  BZF d   1      -2.027  -0.236  -2.619  0.00  0.00    -0.016 A 
ATOM      7  C6  BZF d   1      -1.066   0.358  -1.827  0.00  0.00     0.022 A 
ATOM      8  C7  BZF d   1      -1.364   0.824  -0.590  0.00  0.00     0.029 A 
ATOM      9  C7A BZF d   1      -2.656   0.660  -0.154  0.00  0.00     0.058 A 
ENDROOT
TORSDOF 0
ENDMDL
