MODEL 1
REMARK minimizedAffinity 2.01871419
REMARK minimizedRMSD -1
REMARK  0 active torsions:
REMARK  status: ('A' for Active; 'I' for Inactive)
ROOT
ATOM      1  O1  BZF d   1       2.092   5.820   4.553  0.00  0.00    -0.204 OA
ATOM      2  C2  BZF d   1       1.119   5.249   5.350  0.00  0.00     0.174 A 
ATOM      3  C3  BZF d   1       1.604   4.171   6.000  0.00  0.00    -0.012 A 
ATOM      4  C3A BZF d   1       2.992   4.117   5.654  0.00  0.00    -0.107 A 
ATOM      5  C4  BZF d   1       4.013   3.279   5.999  0.00  0.00     0.055 A 
ATOM      6  C5  BZF d   1       5.234   3.457   5.430  0.00  0.00    -0.016 A 
ATOM      7  C6  BZF d   1       5.467   4.457   4.509  0.00  0.00     0.022 A 
ATOM      8  C7  BZF d   1       4.487   5.316   4.139  0.00  0.00     0.029 A 
ATOM      9  C7A BZF d   1       3.260   5.160   4.738  0.00  0.00     0.058 A 
ENDROOT
TORSDOF 0
ENDMDL
