MODEL 1
REMARK minimizedAffinity 7.11426544
REMARK minimizedRMSD -1
REMARK  0 active torsions:
REMARK  status: ('A' for Active; 'I' for Inactive)
ROOT
ATOM      1  O1  BZF d   1      -5.873   2.441   1.732  0.00  0.00    -0.204 OA
ATOM      2  C2  BZF d   1      -4.898   3.087   2.467  0.00  0.00     0.174 A 
ATOM      3  C3  BZF d   1      -3.680   2.573   2.201  0.00  0.00    -0.012 A 
ATOM      4  C3A BZF d   1      -3.897   1.603   1.172  0.00  0.00    -0.107 A 
ATOM      5  C4  BZF d   1      -3.068   0.768   0.478  0.00  0.00     0.055 A 
ATOM      6  C5  BZF d   1      -3.606  -0.108  -0.410  0.00  0.00    -0.016 A 
ATOM      7  C6  BZF d   1      -4.966  -0.181  -0.626  0.00  0.00     0.022 A 
ATOM      8  C7  BZF d   1      -5.828   0.630   0.035  0.00  0.00     0.029 A 
ATOM      9  C7A BZF d   1      -5.285   1.540   0.909  0.00  0.00     0.058 A 
ENDROOT
TORSDOF 0
ENDMDL
