MODEL 1
REMARK minimizedAffinity 6.36986065
REMARK minimizedRMSD -1
REMARK  0 active torsions:
REMARK  status: ('A' for Active; 'I' for Inactive)
ROOT
ATOM      1  O1  BZF d   1      -1.632   0.382  -0.854  0.00  0.00    -0.204 OA
ATOM      2  C2  BZF d   1      -2.033  -0.407  -1.915  0.00  0.00     0.174 A 
ATOM      3  C3  BZF d   1      -3.367  -0.602  -1.890  0.00  0.00    -0.012 A 
ATOM      4  C3A BZF d   1      -3.841   0.186  -0.794  0.00  0.00    -0.107 A 
ATOM      5  C4  BZF d   1      -5.082   0.418  -0.272  0.00  0.00     0.055 A 
ATOM      6  C5  BZF d   1      -5.195   1.180   0.847  0.00  0.00    -0.016 A 
ATOM      7  C6  BZF d   1      -4.091   1.722   1.472  0.00  0.00     0.022 A 
ATOM      8  C7  BZF d   1      -2.841   1.524   0.988  0.00  0.00     0.029 A 
ATOM      9  C7A BZF d   1      -2.726   0.781  -0.161  0.00  0.00     0.058 A 
ENDROOT
TORSDOF 0
ENDMDL
