MODEL 1
REMARK minimizedAffinity 6.08368731
REMARK minimizedRMSD -1
REMARK  0 active torsions:
REMARK  status: ('A' for Active; 'I' for Inactive)
ROOT
ATOM      1  O1  BZF d   1       4.420   2.757   0.845  0.00  0.00    -0.204 OA
ATOM      2  C2  BZF d   1       5.482   3.506   0.377  0.00  0.00     0.174 A 
ATOM      3  C3  BZF d   1       5.968   2.984  -0.768  0.00  0.00    -0.012 A 
ATOM      4  C3A BZF d   1       5.100   1.890  -1.080  0.00  0.00    -0.107 A 
ATOM      5  C4  BZF d   1       5.056   0.990  -2.107  0.00  0.00     0.055 A 
ATOM      6  C5  BZF d   1       4.125   0.001  -2.078  0.00  0.00    -0.016 A 
ATOM      7  C6  BZF d   1       3.227  -0.122  -1.038  0.00  0.00     0.022 A 
ATOM      8  C7  BZF d   1       3.229   0.750  -0.000  0.00  0.00     0.029 A 
ATOM      9  C7A BZF d   1       4.147   1.771  -0.042  0.00  0.00     0.058 A 
ENDROOT
TORSDOF 0
ENDMDL
