MODEL 1
REMARK minimizedAffinity 5.29379416
REMARK minimizedRMSD -1
REMARK  0 active torsions:
REMARK  status: ('A' for Active; 'I' for Inactive)
ROOT
ATOM      1  O1  BZF d   1       1.542   3.674   6.000  0.00  0.00    -0.204 OA
ATOM      2  C2  BZF d   1       1.831   4.990   5.694  0.00  0.00     0.174 A 
ATOM      3  C3  BZF d   1       3.131   5.129   5.362  0.00  0.00    -0.012 A 
ATOM      4  C3A BZF d   1       3.667   3.803   5.376  0.00  0.00    -0.107 A 
ATOM      5  C4  BZF d   1       4.905   3.288   5.115  0.00  0.00     0.055 A 
ATOM      6  C5  BZF d   1       5.117   1.958   5.292  0.00  0.00    -0.016 A 
ATOM      7  C6  BZF d   1       4.118   1.115   5.733  0.00  0.00     0.022 A 
ATOM      8  C7  BZF d   1       2.872   1.579   6.000  0.00  0.00     0.029 A 
ATOM      9  C7A BZF d   1       2.646   2.917   5.791  0.00  0.00     0.058 A 
ENDROOT
TORSDOF 0
ENDMDL
