MODEL 1
REMARK minimizedAffinity 9.73477745
REMARK minimizedRMSD -1
REMARK  0 active torsions:
REMARK  status: ('A' for Active; 'I' for Inactive)
ROOT
ATOM      1  O1  BZF d   1       2.632   2.046   1.784  0.00  0.00    -0.204 OA
ATOM      2  C2  BZF d   1       1.861   1.209   1.000  0.00  0.00     0.174 A 
ATOM      3  C3  BZF d   1       2.517   0.875  -0.130  0.00  0.00    -0.012 A 
ATOM      4  C3A BZF d   1       3.813   1.469  -0.003  0.00  0.00    -0.107 A 
ATOM      5  C4  BZF d   1       4.923   1.480  -0.799  0.00  0.00     0.055 A 
ATOM      6  C5  BZF d   1       6.000   2.216  -0.420  0.00  0.00    -0.016 A 
ATOM      7  C6  BZF d   1       6.000   2.957   0.744  0.00  0.00     0.022 A 
ATOM      8  C7  BZF d   1       4.924   2.973   1.568  0.00  0.00     0.029 A 
ATOM      9  C7A BZF d   1       3.846   2.204   1.204  0.00  0.00     0.058 A 
ENDROOT
TORSDOF 0
ENDMDL
