MODEL 1
REMARK minimizedAffinity -0.453878164
REMARK minimizedRMSD -1
REMARK  0 active torsions:
REMARK  status: ('A' for Active; 'I' for Inactive)
ROOT
ATOM      1  O1  BZF d   1       3.851   0.382  -2.129  0.00  0.00    -0.204 OA
ATOM      2  C2  BZF d   1       2.995  -0.294  -1.281  0.00  0.00     0.174 A 
ATOM      3  C3  BZF d   1       3.135   0.142  -0.013  0.00  0.00    -0.012 A 
ATOM      4  C3A BZF d   1       4.075   1.219  -0.086  0.00  0.00    -0.107 A 
ATOM      5  C4  BZF d   1       4.609   2.064   0.843  0.00  0.00     0.055 A 
ATOM      6  C5  BZF d   1       5.556   2.958   0.456  0.00  0.00    -0.016 A 
ATOM      7  C6  BZF d   1       5.996   3.031  -0.849  0.00  0.00     0.022 A 
ATOM      8  C7  BZF d   1       5.491   2.216  -1.808  0.00  0.00     0.029 A 
ATOM      9  C7A BZF d   1       4.510   1.334  -1.427  0.00  0.00     0.058 A 
ENDROOT
TORSDOF 0
ENDMDL
