MODEL 1
REMARK minimizedAffinity 8.92718601
REMARK minimizedRMSD -1
REMARK  0 active torsions:
REMARK  status: ('A' for Active; 'I' for Inactive)
ROOT
ATOM      1  O1  BZF d   1      -3.351  -0.512  -1.334  0.00  0.00    -0.204 OA
ATOM      2  C2  BZF d   1      -4.585  -0.382  -0.727  0.00  0.00     0.174 A 
ATOM      3  C3  BZF d   1      -5.501   0.086  -1.599  0.00  0.00    -0.012 A 
ATOM      4  C3A BZF d   1      -4.817   0.172  -2.853  0.00  0.00    -0.107 A 
ATOM      5  C4  BZF d   1      -5.199   0.555  -4.107  0.00  0.00     0.055 A 
ATOM      6  C5  BZF d   1      -4.270   0.593  -5.098  0.00  0.00    -0.016 A 
ATOM      7  C6  BZF d   1      -2.951   0.261  -4.869  0.00  0.00     0.022 A 
ATOM      8  C7  BZF d   1      -2.525  -0.130  -3.643  0.00  0.00     0.029 A 
ATOM      9  C7A BZF d   1      -3.468  -0.201  -2.648  0.00  0.00     0.058 A 
ENDROOT
TORSDOF 0
ENDMDL
