MODEL 1
REMARK minimizedAffinity -0.931679249
REMARK minimizedRMSD -1
REMARK  0 active torsions:
REMARK  status: ('A' for Active; 'I' for Inactive)
ROOT
ATOM      1  O1  BZF d   1       5.200   2.743  -0.517  0.00  0.00    -0.204 OA
ATOM      2  C2  BZF d   1       5.755   2.754   0.748  0.00  0.00     0.174 A 
ATOM      3  C3  BZF d   1       5.372   1.666   1.448  0.00  0.00    -0.012 A 
ATOM      4  C3A BZF d   1       4.599   0.883   0.534  0.00  0.00    -0.107 A 
ATOM      5  C4  BZF d   1       3.958  -0.318   0.635  0.00  0.00     0.055 A 
ATOM      6  C5  BZF d   1       3.231  -0.770  -0.420  0.00  0.00    -0.016 A 
ATOM      7  C6  BZF d   1       3.119  -0.046  -1.589  0.00  0.00     0.022 A 
ATOM      8  C7  BZF d   1       3.741   1.149  -1.738  0.00  0.00     0.029 A 
ATOM      9  C7A BZF d   1       4.504   1.593  -0.686  0.00  0.00     0.058 A 
ENDROOT
TORSDOF 0
ENDMDL
