MODEL 1
REMARK minimizedAffinity 3.23450613
REMARK minimizedRMSD -1
REMARK  0 active torsions:
REMARK  status: ('A' for Active; 'I' for Inactive)
ROOT
ATOM      1  O1  BZF d   1       2.337   0.390  -0.749  0.00  0.00    -0.204 OA
ATOM      2  C2  BZF d   1       2.850  -0.729  -1.377  0.00  0.00     0.174 A 
ATOM      3  C3  BZF d   1       4.151  -0.898  -1.063  0.00  0.00    -0.012 A 
ATOM      4  C3A BZF d   1       4.446   0.129  -0.112  0.00  0.00    -0.107 A 
ATOM      5  C4  BZF d   1       5.571   0.471   0.582  0.00  0.00     0.055 A 
ATOM      6  C5  BZF d   1       5.548   1.573   1.377  0.00  0.00    -0.016 A 
ATOM      7  C6  BZF d   1       4.420   2.358   1.496  0.00  0.00     0.022 A 
ATOM      8  C7  BZF d   1       3.278   2.056   0.831  0.00  0.00     0.029 A 
ATOM      9  C7A BZF d   1       3.288   0.925   0.053  0.00  0.00     0.058 A 
ENDROOT
TORSDOF 0
ENDMDL
