MODEL 1
REMARK minimizedAffinity 10.2326822
REMARK minimizedRMSD -1
REMARK  0 active torsions:
REMARK  status: ('A' for Active; 'I' for Inactive)
ROOT
ATOM      1  O1  BZF d   1       2.032   1.724   5.954  0.00  0.00    -0.204 OA
ATOM      2  C2  BZF d   1       3.346   1.295   5.931  0.00  0.00     0.174 A 
ATOM      3  C3  BZF d   1       4.191   2.345   5.879  0.00  0.00    -0.012 A 
ATOM      4  C3A BZF d   1       3.356   3.504   5.964  0.00  0.00    -0.107 A 
ATOM      5  C4  BZF d   1       3.612   4.845   5.979  0.00  0.00     0.055 A 
ATOM      6  C5  BZF d   1       2.569   5.716   5.996  0.00  0.00    -0.016 A 
ATOM      7  C6  BZF d   1       1.260   5.281   5.993  0.00  0.00     0.022 A 
ATOM      8  C7  BZF d   1       0.957   3.960   5.983  0.00  0.00     0.029 A 
ATOM      9  C7A BZF d   1       2.009   3.077   5.999  0.00  0.00     0.058 A 
ENDROOT
TORSDOF 0
ENDMDL
