MODEL 1
REMARK minimizedAffinity 4.88013983
REMARK minimizedRMSD -1
REMARK  0 active torsions:
REMARK  status: ('A' for Active; 'I' for Inactive)
ROOT
ATOM      1  O1  BZF d   1       4.381   0.733  -2.189  0.00  0.00    -0.204 OA
ATOM      2  C2  BZF d   1       4.306   1.366  -0.963  0.00  0.00     0.174 A 
ATOM      3  C3  BZF d   1       3.716   0.569  -0.049  0.00  0.00    -0.012 A 
ATOM      4  C3A BZF d   1       3.487  -0.672  -0.723  0.00  0.00    -0.107 A 
ATOM      5  C4  BZF d   1       2.944  -1.864  -0.337  0.00  0.00     0.055 A 
ATOM      6  C5  BZF d   1       2.799  -2.852  -1.258  0.00  0.00    -0.016 A 
ATOM      7  C6  BZF d   1       3.181  -2.682  -2.573  0.00  0.00     0.022 A 
ATOM      8  C7  BZF d   1       3.729  -1.519  -3.002  0.00  0.00     0.029 A 
ATOM      9  C7A BZF d   1       3.907  -0.530  -2.066  0.00  0.00     0.058 A 
ENDROOT
TORSDOF 0
ENDMDL
