MODEL 1
REMARK minimizedAffinity 16.0632114
REMARK minimizedRMSD -1
REMARK  0 active torsions:
REMARK  status: ('A' for Active; 'I' for Inactive)
ROOT
ATOM      1  O1  BZF d   1      -4.839   4.136  -1.781  0.00  0.00    -0.204 OA
ATOM      2  C2  BZF d   1      -5.465   3.962  -3.000  0.00  0.00     0.174 A 
ATOM      3  C3  BZF d   1      -5.970   2.716  -3.104  0.00  0.00    -0.012 A 
ATOM      4  C3A BZF d   1      -5.719   2.101  -1.837  0.00  0.00    -0.107 A 
ATOM      5  C4  BZF d   1      -6.000   0.869  -1.319  0.00  0.00     0.055 A 
ATOM      6  C5  BZF d   1      -5.553   0.558  -0.074  0.00  0.00    -0.016 A 
ATOM      7  C6  BZF d   1      -4.820   1.452   0.679  0.00  0.00     0.022 A 
ATOM      8  C7  BZF d   1      -4.521   2.688   0.210  0.00  0.00     0.029 A 
ATOM      9  C7A BZF d   1      -4.999   3.017  -1.035  0.00  0.00     0.058 A 
ENDROOT
TORSDOF 0
ENDMDL
