MODEL 1
REMARK minimizedAffinity 7.00572443
REMARK minimizedRMSD -1
REMARK  0 active torsions:
REMARK  status: ('A' for Active; 'I' for Inactive)
ROOT
ATOM      1  O1  BZF d   1       2.622   0.700  -0.583  0.00  0.00    -0.204 OA
ATOM      2  C2  BZF d   1       2.998  -0.612  -0.372  0.00  0.00     0.174 A 
ATOM      3  C3  BZF d   1       4.282  -0.683   0.032  0.00  0.00    -0.012 A 
ATOM      4  C3A BZF d   1       4.711   0.676   0.165  0.00  0.00    -0.107 A 
ATOM      5  C4  BZF d   1       5.885   1.257   0.549  0.00  0.00     0.055 A 
ATOM      6  C5  BZF d   1       6.000   2.610   0.499  0.00  0.00    -0.016 A 
ATOM      7  C6  BZF d   1       4.963   3.411   0.067  0.00  0.00     0.022 A 
ATOM      8  C7  BZF d   1       3.777   2.881  -0.319  0.00  0.00     0.029 A 
ATOM      9  C7A BZF d   1       3.647   1.516  -0.239  0.00  0.00     0.058 A 
ENDROOT
TORSDOF 0
ENDMDL
