MODEL 1
REMARK minimizedAffinity 2.13330603
REMARK minimizedRMSD -1
REMARK  1 active torsions:
REMARK  status: ('A' for Active; 'I' for Inactive)
REMARK    1  A    between atoms: C3_4  and  O_7 
ROOT
ATOM      1  C   UNL d   1       2.011  -2.642   1.072  0.00  0.00    -0.033 A 
ATOM      2  C1  UNL d   1       1.588  -1.344   1.365  0.00  0.00     0.039 A 
ATOM      3  C2  UNL d   1       1.518  -0.913   2.691  0.00  0.00    -0.080 A 
ATOM      4  C3  UNL d   1       1.874  -1.788   3.714  0.00  0.00     0.150 A 
ATOM      5  C4  UNL d   1       2.300  -3.081   3.429  0.00  0.00    -0.007 A 
ATOM      6  C5  UNL d   1       2.369  -3.510   2.104  0.00  0.00     0.039 A 
ENDROOT
BRANCH   4   7
ATOM      7  O   UNL d   1       1.817  -1.414   5.024  0.00  0.00    -0.526 OA
ATOM      8  H5  UNL d   1       1.478  -0.505   5.070  0.00  0.00     0.418 HD
ENDBRANCH   4   7
TORSDOF 1
ENDMDL
