MODEL 1
REMARK minimizedAffinity 5.64709425
REMARK minimizedRMSD -1
REMARK  1 active torsions:
REMARK  status: ('A' for Active; 'I' for Inactive)
REMARK    1  A    between atoms: C3_4  and  O_7 
ROOT
ATOM      1  C   UNL d   1       0.136  -1.703   0.314  0.00  0.00    -0.033 A 
ATOM      2  C1  UNL d   1      -1.077  -1.043   0.523  0.00  0.00     0.039 A 
ATOM      3  C2  UNL d   1      -1.877  -0.687  -0.564  0.00  0.00    -0.080 A 
ATOM      4  C3  UNL d   1      -1.455  -0.997  -1.854  0.00  0.00     0.150 A 
ATOM      5  C4  UNL d   1      -0.250  -1.658  -2.070  0.00  0.00    -0.007 A 
ATOM      6  C5  UNL d   1       0.548  -2.012  -0.983  0.00  0.00     0.039 A 
ENDROOT
BRANCH   4   7
ATOM      7  O   UNL d   1      -2.200  -0.665  -2.946  0.00  0.00    -0.526 OA
ATOM      8  H5  UNL d   1      -2.991  -0.188  -2.646  0.00  0.00     0.418 HD
ENDBRANCH   4   7
TORSDOF 1
ENDMDL
