MODEL 1
REMARK minimizedAffinity -3.80030322
REMARK minimizedRMSD -1
REMARK  1 active torsions:
REMARK  status: ('A' for Active; 'I' for Inactive)
REMARK    1  A    between atoms: C3_4  and  O_7 
ROOT
ATOM      1  C   UNL d   1       2.192  -3.470   2.010  0.00  0.00    -0.033 A 
ATOM      2  C1  UNL d   1       1.763  -2.205   1.604  0.00  0.00     0.039 A 
ATOM      3  C2  UNL d   1       1.503  -1.216   2.555  0.00  0.00    -0.080 A 
ATOM      4  C3  UNL d   1       1.676  -1.504   3.906  0.00  0.00     0.150 A 
ATOM      5  C4  UNL d   1       2.107  -2.761   4.317  0.00  0.00    -0.007 A 
ATOM      6  C5  UNL d   1       2.365  -3.747   3.366  0.00  0.00     0.039 A 
ENDROOT
BRANCH   4   7
ATOM      7  O   UNL d   1       1.430  -0.572   4.870  0.00  0.00    -0.526 OA
ATOM      8  H5  UNL d   1       1.111   0.239   4.441  0.00  0.00     0.418 HD
ENDBRANCH   4   7
TORSDOF 1
ENDMDL
