MODEL 1
REMARK minimizedAffinity 6.26857519
REMARK minimizedRMSD -1
REMARK  1 active torsions:
REMARK  status: ('A' for Active; 'I' for Inactive)
REMARK    1  A    between atoms: C3_4  and  O_7 
ROOT
ATOM      1  C   UNL d   1      -0.213  -1.539  -0.392  0.00  0.00    -0.033 A 
ATOM      2  C1  UNL d   1       1.165  -1.656  -0.582  0.00  0.00     0.039 A 
ATOM      3  C2  UNL d   1       2.046  -1.299   0.440  0.00  0.00    -0.080 A 
ATOM      4  C3  UNL d   1       1.537  -0.828   1.648  0.00  0.00     0.150 A 
ATOM      5  C4  UNL d   1       0.165  -0.712   1.846  0.00  0.00    -0.007 A 
ATOM      6  C5  UNL d   1      -0.713  -1.068   0.823  0.00  0.00     0.039 A 
ENDROOT
BRANCH   4   7
ATOM      7  O   UNL d   1       2.357  -0.463   2.673  0.00  0.00    -0.526 OA
ATOM      8  H5  UNL d   1       3.279  -0.569   2.383  0.00  0.00     0.418 HD
ENDBRANCH   4   7
TORSDOF 1
ENDMDL
