MODEL 1
REMARK minimizedAffinity -2.60941982
REMARK minimizedRMSD -1
REMARK  1 active torsions:
REMARK  status: ('A' for Active; 'I' for Inactive)
REMARK    1  A    between atoms: C3_4  and  O_7 
ROOT
ATOM      1  C   UNL d   1       1.678  -0.840   2.933  0.00  0.00    -0.033 A 
ATOM      2  C1  UNL d   1       1.436  -1.118   4.280  0.00  0.00     0.039 A 
ATOM      3  C2  UNL d   1       2.094  -2.179   4.905  0.00  0.00    -0.080 A 
ATOM      4  C3  UNL d   1       2.992  -2.952   4.173  0.00  0.00     0.150 A 
ATOM      5  C4  UNL d   1       3.240  -2.679   2.832  0.00  0.00    -0.007 A 
ATOM      6  C5  UNL d   1       2.581  -1.620   2.209  0.00  0.00     0.039 A 
ENDROOT
BRANCH   4   7
ATOM      7  O   UNL d   1       3.654  -4.001   4.739  0.00  0.00    -0.526 OA
ATOM      8  H5  UNL d   1       3.362  -4.089   5.661  0.00  0.00     0.418 HD
ENDBRANCH   4   7
TORSDOF 1
ENDMDL
