MODEL 1
REMARK minimizedAffinity 1.03888917
REMARK minimizedRMSD -1
REMARK  1 active torsions:
REMARK  status: ('A' for Active; 'I' for Inactive)
REMARK    1  A    between atoms: C3_4  and  O_7 
ROOT
ATOM      1  C   UNL d   1       5.832  -5.986  -4.418  0.00  0.00    -0.033 A 
ATOM      2  C1  UNL d   1       4.918  -6.000  -3.363  0.00  0.00     0.039 A 
ATOM      3  C2  UNL d   1       3.547  -5.993  -3.624  0.00  0.00    -0.080 A 
ATOM      4  C3  UNL d   1       3.103  -5.973  -4.943  0.00  0.00     0.150 A 
ATOM      5  C4  UNL d   1       4.007  -5.964  -6.000  0.00  0.00    -0.007 A 
ATOM      6  C5  UNL d   1       5.376  -5.970  -5.737  0.00  0.00     0.039 A 
ENDROOT
BRANCH   4   7
ATOM      7  O   UNL d   1       1.774  -5.961  -5.248  0.00  0.00    -0.526 OA
ATOM      8  H5  UNL d   1       1.268  -5.941  -4.418  0.00  0.00     0.418 HD
ENDBRANCH   4   7
TORSDOF 1
ENDMDL
