MODEL 1
REMARK minimizedAffinity 6.75237131
REMARK minimizedRMSD -1
REMARK  1 active torsions:
REMARK  status: ('A' for Active; 'I' for Inactive)
REMARK    1  A    between atoms: C3_4  and  O_7 
ROOT
ATOM      1  C   UNL d   1      -3.976   3.233   0.061  0.00  0.00    -0.033 A 
ATOM      2  C1  UNL d   1      -5.363   3.349   0.172  0.00  0.00     0.039 A 
ATOM      3  C2  UNL d   1      -5.994   3.059   1.383  0.00  0.00    -0.080 A 
ATOM      4  C3  UNL d   1      -5.229   2.655   2.473  0.00  0.00     0.150 A 
ATOM      5  C4  UNL d   1      -3.846   2.541   2.371  0.00  0.00    -0.007 A 
ATOM      6  C5  UNL d   1      -3.218   2.830   1.160  0.00  0.00     0.039 A 
ENDROOT
BRANCH   4   7
ATOM      7  O   UNL d   1      -5.801   2.357   3.674  0.00  0.00    -0.526 OA
ATOM      8  H5  UNL d   1      -6.764   2.452   3.589  0.00  0.00     0.418 HD
ENDBRANCH   4   7
TORSDOF 1
ENDMDL
