MODEL 1
REMARK minimizedAffinity 8.02896595
REMARK minimizedRMSD -1
REMARK  1 active torsions:
REMARK  status: ('A' for Active; 'I' for Inactive)
REMARK    1  A    between atoms: C3_4  and  O_7 
ROOT
ATOM      1  C   UNL d   1       4.045  -3.471   4.966  0.00  0.00    -0.033 A 
ATOM      2  C1  UNL d   1       2.719  -3.839   4.726  0.00  0.00     0.039 A 
ATOM      3  C2  UNL d   1       1.839  -2.935   4.128  0.00  0.00    -0.080 A 
ATOM      4  C3  UNL d   1       2.296  -1.668   3.775  0.00  0.00     0.150 A 
ATOM      5  C4  UNL d   1       3.616  -1.296   4.008  0.00  0.00    -0.007 A 
ATOM      6  C5  UNL d   1       4.493  -2.200   4.606  0.00  0.00     0.039 A 
ENDROOT
BRANCH   4   7
ATOM      7  O   UNL d   1       1.473  -0.750   3.193  0.00  0.00    -0.526 OA
ATOM      8  H5  UNL d   1       0.584  -1.136   3.120  0.00  0.00     0.418 HD
ENDBRANCH   4   7
TORSDOF 1
ENDMDL
