MODEL 1
REMARK minimizedAffinity 2.08275151
REMARK minimizedRMSD -1
REMARK  1 active torsions:
REMARK  status: ('A' for Active; 'I' for Inactive)
REMARK    1  A    between atoms: C3_4  and  O_7 
ROOT
ATOM      1  C   UNL d   1      -5.904   2.516  -4.008  0.00  0.00    -0.033 A 
ATOM      2  C1  UNL d   1      -5.963   1.366  -3.218  0.00  0.00     0.039 A 
ATOM      3  C2  UNL d   1      -5.995   0.106  -3.818  0.00  0.00    -0.080 A 
ATOM      4  C3  UNL d   1      -5.966   0.009  -5.207  0.00  0.00     0.150 A 
ATOM      5  C4  UNL d   1      -5.903   1.150  -6.000  0.00  0.00    -0.007 A 
ATOM      6  C5  UNL d   1      -5.873   2.408  -5.399  0.00  0.00     0.039 A 
ENDROOT
BRANCH   4   7
ATOM      7  O   UNL d   1      -6.000  -1.199  -5.838  0.00  0.00    -0.526 OA
ATOM      8  H5  UNL d   1      -6.072  -1.896  -5.165  0.00  0.00     0.418 HD
ENDBRANCH   4   7
TORSDOF 1
ENDMDL
