MODEL 1
REMARK minimizedAffinity 5.16797066
REMARK minimizedRMSD -1
REMARK  1 active torsions:
REMARK  status: ('A' for Active; 'I' for Inactive)
REMARK    1  A    between atoms: C3_4  and  O_7 
ROOT
ATOM      1  C   UNL d   1      -6.000   3.594   0.651  0.00  0.00    -0.033 A 
ATOM      2  C1  UNL d   1      -5.998   2.967   1.899  0.00  0.00     0.039 A 
ATOM      3  C2  UNL d   1      -4.850   2.312   2.351  0.00  0.00    -0.080 A 
ATOM      4  C3  UNL d   1      -3.713   2.292   1.548  0.00  0.00     0.150 A 
ATOM      5  C4  UNL d   1      -3.707   2.918   0.306  0.00  0.00    -0.007 A 
ATOM      6  C5  UNL d   1      -4.854   3.570  -0.145  0.00  0.00     0.039 A 
ENDROOT
BRANCH   4   7
ATOM      7  O   UNL d   1      -2.572   1.662   1.945  0.00  0.00    -0.526 OA
ATOM      8  H5  UNL d   1      -2.732   1.250   2.810  0.00  0.00     0.418 HD
ENDBRANCH   4   7
TORSDOF 1
ENDMDL
