MODEL 1
REMARK minimizedAffinity 4.81381321
REMARK minimizedRMSD -1
REMARK  0 active torsions:
REMARK  status: ('A' for Active; 'I' for Inactive)
ROOT
ATOM      1  N1  IND d   1      -4.883  -3.746  -3.814  0.00  0.00    -0.196 N 
ATOM      2  C2  IND d   1      -5.315  -3.175  -4.978  0.00  0.00     0.054 A 
ATOM      3  C3  IND d   1      -4.488  -3.502  -5.997  0.00  0.00    -0.031 A 
ATOM      4  C4  IND d   1      -2.426  -5.044  -5.999  0.00  0.00     0.051 A 
ATOM      5  C5  IND d   1      -1.621  -5.766  -5.164  0.00  0.00    -0.031 A 
ATOM      6  C6  IND d   1      -1.868  -5.857  -3.810  0.00  0.00     0.015 A 
ATOM      7  C7  IND d   1      -2.942  -5.234  -3.239  0.00  0.00    -0.016 A 
ATOM      8  C8  IND d   1      -3.758  -4.493  -4.082  0.00  0.00    -0.047 A 
ATOM      9  C9  IND d   1      -3.487  -4.363  -5.451  0.00  0.00    -0.096 A 
ATOM     10  HN1 IND d   1      -5.253  -3.654  -3.043  0.00  0.00     0.298 HD
ENDROOT
TORSDOF 0
ENDMDL
