MODEL 1
REMARK minimizedAffinity -4.1357379
REMARK minimizedRMSD -1
REMARK  0 active torsions:
REMARK  status: ('A' for Active; 'I' for Inactive)
ROOT
ATOM      1  N1  IND d   1      -3.988  -4.876  -4.755  0.00  0.00    -0.196 N 
ATOM      2  C2  IND d   1      -4.502  -5.347  -3.579  0.00  0.00     0.054 A 
ATOM      3  C3  IND d   1      -5.293  -4.413  -3.004  0.00  0.00    -0.031 A 
ATOM      4  C4  IND d   1      -5.964  -2.082  -3.867  0.00  0.00     0.051 A 
ATOM      5  C5  IND d   1      -5.718  -1.196  -4.877  0.00  0.00    -0.031 A 
ATOM      6  C6  IND d   1      -4.868  -1.498  -5.921  0.00  0.00     0.015 A 
ATOM      7  C7  IND d   1      -4.238  -2.708  -6.000  0.00  0.00    -0.016 A 
ATOM      8  C8  IND d   1      -4.480  -3.608  -4.972  0.00  0.00    -0.047 A 
ATOM      9  C9  IND d   1      -5.309  -3.291  -3.888  0.00  0.00    -0.096 A 
ATOM     10  HN1 IND d   1      -3.449  -5.301  -5.273  0.00  0.00     0.298 HD
ENDROOT
TORSDOF 0
ENDMDL
