MODEL 1
REMARK minimizedAffinity -1.27204859
REMARK minimizedRMSD -1
REMARK  0 active torsions:
REMARK  status: ('A' for Active; 'I' for Inactive)
ROOT
ATOM      1  N1  IND d   1      -5.296  -4.025  -3.813  0.00  0.00    -0.196 N 
ATOM      2  C2  IND d   1      -5.169  -4.543  -5.072  0.00  0.00     0.054 A 
ATOM      3  C3  IND d   1      -5.350  -3.576  -5.999  0.00  0.00    -0.031 A 
ATOM      4  C4  IND d   1      -5.764  -1.056  -5.674  0.00  0.00     0.051 A 
ATOM      5  C5  IND d   1      -5.993  -0.118  -4.707  0.00  0.00    -0.031 A 
ATOM      6  C6  IND d   1      -6.000  -0.441  -3.365  0.00  0.00     0.015 A 
ATOM      7  C7  IND d   1      -5.764  -1.717  -2.938  0.00  0.00    -0.016 A 
ATOM      8  C8  IND d   1      -5.538  -2.673  -3.918  0.00  0.00    -0.047 A 
ATOM      9  C9  IND d   1      -5.572  -2.360  -5.283  0.00  0.00    -0.096 A 
ATOM     10  HN1 IND d   1      -5.235  -4.470  -3.080  0.00  0.00     0.298 HD
ENDROOT
TORSDOF 0
ENDMDL
