MODEL 1
REMARK minimizedAffinity -0.199479759
REMARK minimizedRMSD -1
REMARK  0 active torsions:
REMARK  status: ('A' for Active; 'I' for Inactive)
ROOT
ATOM      1  N1  IND d   1      -1.204  -5.426  -3.755  0.00  0.00    -0.196 N 
ATOM      2  C2  IND d   1      -0.775  -6.000  -4.919  0.00  0.00     0.054 A 
ATOM      3  C3  IND d   1      -1.517  -5.562  -5.960  0.00  0.00    -0.031 A 
ATOM      4  C4  IND d   1      -3.419  -3.828  -5.999  0.00  0.00     0.051 A 
ATOM      5  C5  IND d   1      -4.191  -3.057  -5.176  0.00  0.00    -0.031 A 
ATOM      6  C6  IND d   1      -4.000  -3.033  -3.809  0.00  0.00     0.015 A 
ATOM      7  C7  IND d   1      -3.019  -3.775  -3.214  0.00  0.00    -0.016 A 
ATOM      8  C8  IND d   1      -2.239  -4.565  -4.046  0.00  0.00    -0.047 A 
ATOM      9  C9  IND d   1      -2.455  -4.625  -5.429  0.00  0.00    -0.096 A 
ATOM     10  HN1 IND d   1      -0.882  -5.578  -2.972  0.00  0.00     0.298 HD
ENDROOT
TORSDOF 0
ENDMDL
