MODEL 1
REMARK minimizedAffinity -2.74258637
REMARK minimizedRMSD -1
REMARK  0 active torsions:
REMARK  status: ('A' for Active; 'I' for Inactive)
ROOT
ATOM      1  N1  IND d   1      -4.840  -2.752  -3.535  0.00  0.00    -0.196 N 
ATOM      2  C2  IND d   1      -6.000  -2.622  -4.247  0.00  0.00     0.054 A 
ATOM      3  C3  IND d   1      -6.000  -3.466  -5.304  0.00  0.00    -0.031 A 
ATOM      4  C4  IND d   1      -4.246  -5.218  -5.997  0.00  0.00     0.051 A 
ATOM      5  C5  IND d   1      -3.001  -5.681  -5.678  0.00  0.00    -0.031 A 
ATOM      6  C6  IND d   1      -2.291  -5.182  -4.604  0.00  0.00     0.015 A 
ATOM      7  C7  IND d   1      -2.808  -4.206  -3.800  0.00  0.00    -0.016 A 
ATOM      8  C8  IND d   1      -4.070  -3.729  -4.126  0.00  0.00    -0.047 A 
ATOM      9  C9  IND d   1      -4.777  -4.201  -5.239  0.00  0.00    -0.096 A 
ATOM     10  HN1 IND d   1      -4.627  -2.298  -2.836  0.00  0.00     0.298 HD
ENDROOT
TORSDOF 0
ENDMDL
