MODEL 1
REMARK minimizedAffinity -3.10677505
REMARK minimizedRMSD -1
REMARK  0 active torsions:
REMARK  status: ('A' for Active; 'I' for Inactive)
ROOT
ATOM      1  N1  IND d   1      -1.934  -3.986  -5.368  0.00  0.00    -0.196 N 
ATOM      2  C2  IND d   1      -1.569  -5.252  -5.733  0.00  0.00     0.054 A 
ATOM      3  C3  IND d   1      -2.664  -6.000  -5.996  0.00  0.00    -0.031 A 
ATOM      4  C4  IND d   1      -5.148  -5.322  -5.989  0.00  0.00     0.051 A 
ATOM      5  C5  IND d   1      -5.980  -4.282  -5.684  0.00  0.00    -0.031 A 
ATOM      6  C6  IND d   1      -5.496  -3.064  -5.253  0.00  0.00     0.015 A 
ATOM      7  C7  IND d   1      -4.155  -2.836  -5.120  0.00  0.00    -0.016 A 
ATOM      8  C8  IND d   1      -3.308  -3.893  -5.421  0.00  0.00    -0.047 A 
ATOM      9  C9  IND d   1      -3.795  -5.145  -5.819  0.00  0.00    -0.096 A 
ATOM     10  HN1 IND d   1      -1.397  -3.354  -5.143  0.00  0.00     0.298 HD
ENDROOT
TORSDOF 0
ENDMDL
