MODEL 1
REMARK minimizedAffinity -2.86437321
REMARK minimizedRMSD -1
REMARK  0 active torsions:
REMARK  status: ('A' for Active; 'I' for Inactive)
ROOT
ATOM      1  N1  IND d   1      -2.148  -3.816  -5.567  0.00  0.00    -0.196 N 
ATOM      2  C2  IND d   1      -1.475  -4.969  -5.862  0.00  0.00     0.054 A 
ATOM      3  C3  IND d   1      -2.341  -5.998  -5.999  0.00  0.00    -0.031 A 
ATOM      4  C4  IND d   1      -4.913  -5.997  -5.883  0.00  0.00     0.051 A 
ATOM      5  C5  IND d   1      -5.978  -5.188  -5.603  0.00  0.00    -0.031 A 
ATOM      6  C6  IND d   1      -5.819  -3.853  -5.293  0.00  0.00     0.015 A 
ATOM      7  C7  IND d   1      -4.583  -3.272  -5.263  0.00  0.00    -0.016 A 
ATOM      8  C8  IND d   1      -3.498  -4.092  -5.540  0.00  0.00    -0.047 A 
ATOM      9  C9  IND d   1      -3.650  -5.457  -5.813  0.00  0.00    -0.096 A 
ATOM     10  HN1 IND d   1      -1.789  -3.048  -5.424  0.00  0.00     0.298 HD
ENDROOT
TORSDOF 0
ENDMDL
