MODEL 1
REMARK minimizedAffinity 0.0566117018
REMARK minimizedRMSD -1
REMARK  0 active torsions:
REMARK  status: ('A' for Active; 'I' for Inactive)
ROOT
ATOM      1  N1  IND d   1      -0.660  -5.261  -3.945  0.00  0.00    -0.196 N 
ATOM      2  C2  IND d   1      -0.333  -6.000  -5.048  0.00  0.00     0.054 A 
ATOM      3  C3  IND d   1      -1.285  -5.871  -6.000  0.00  0.00    -0.031 A 
ATOM      4  C4  IND d   1      -3.412  -4.420  -6.000  0.00  0.00     0.051 A 
ATOM      5  C5  IND d   1      -4.155  -3.598  -5.200  0.00  0.00    -0.031 A 
ATOM      6  C6  IND d   1      -3.762  -3.280  -3.916  0.00  0.00     0.015 A 
ATOM      7  C7  IND d   1      -2.600  -3.765  -3.386  0.00  0.00    -0.016 A 
ATOM      8  C8  IND d   1      -1.846  -4.606  -4.193  0.00  0.00    -0.047 A 
ATOM      9  C9  IND d   1      -2.261  -4.966  -5.481  0.00  0.00    -0.096 A 
ATOM     10  HN1 IND d   1      -0.202  -5.214  -3.219  0.00  0.00     0.298 HD
ENDROOT
TORSDOF 0
ENDMDL
