MODEL 1
REMARK minimizedAffinity -1.67185163
REMARK minimizedRMSD -1
REMARK  0 active torsions:
REMARK  status: ('A' for Active; 'I' for Inactive)
ROOT
ATOM      1  N1  IND d   1      -2.626  -4.494  -3.853  0.00  0.00    -0.196 N 
ATOM      2  C2  IND d   1      -2.236  -5.137  -4.995  0.00  0.00     0.054 A 
ATOM      3  C3  IND d   1      -3.118  -4.901  -5.992  0.00  0.00    -0.031 A 
ATOM      4  C4  IND d   1      -5.217  -3.410  -6.000  0.00  0.00     0.051 A 
ATOM      5  C5  IND d   1      -6.000  -2.648  -5.179  0.00  0.00    -0.031 A 
ATOM      6  C6  IND d   1      -5.691  -2.457  -3.848  0.00  0.00     0.015 A 
ATOM      7  C7  IND d   1      -4.575  -3.013  -3.288  0.00  0.00    -0.016 A 
ATOM      8  C8  IND d   1      -3.782  -3.793  -4.117  0.00  0.00    -0.047 A 
ATOM      9  C9  IND d   1      -4.113  -4.026  -5.458  0.00  0.00    -0.096 A 
ATOM     10  HN1 IND d   1      -2.217  -4.524  -3.097  0.00  0.00     0.298 HD
ENDROOT
TORSDOF 0
ENDMDL
