MODEL 1
REMARK minimizedAffinity -2.43925929
REMARK minimizedRMSD -1
REMARK  0 active torsions:
REMARK  status: ('A' for Active; 'I' for Inactive)
ROOT
ATOM      1  N1  IND d   1      -3.040  -5.971  -5.970  0.00  0.00    -0.196 N 
ATOM      2  C2  IND d   1      -1.879  -5.709  -5.298  0.00  0.00     0.054 A 
ATOM      3  C3  IND d   1      -2.031  -4.628  -4.500  0.00  0.00    -0.031 A 
ATOM      4  C4  IND d   1      -4.127  -3.199  -4.064  0.00  0.00     0.051 A 
ATOM      5  C5  IND d   1      -5.419  -3.029  -4.475  0.00  0.00    -0.031 A 
ATOM      6  C6  IND d   1      -5.997  -3.849  -5.422  0.00  0.00     0.015 A 
ATOM      7  C7  IND d   1      -5.305  -4.882  -5.988  0.00  0.00    -0.016 A 
ATOM      8  C8  IND d   1      -3.990  -5.053  -5.579  0.00  0.00    -0.047 A 
ATOM      9  C9  IND d   1      -3.385  -4.197  -4.649  0.00  0.00    -0.096 A 
ATOM     10  HN1 IND d   1      -3.157  -6.602  -6.541  0.00  0.00     0.298 HD
ENDROOT
TORSDOF 0
ENDMDL
