MODEL 1
REMARK minimizedAffinity 0.161865503
REMARK minimizedRMSD -1
REMARK  0 active torsions:
REMARK  status: ('A' for Active; 'I' for Inactive)
ROOT
ATOM      1  N1  IND d   1      -5.028  -5.311  -4.464  0.00  0.00    -0.196 N 
ATOM      2  C2  IND d   1      -4.979  -4.682  -5.676  0.00  0.00     0.054 A 
ATOM      3  C3  IND d   1      -3.701  -4.382  -5.999  0.00  0.00    -0.031 A 
ATOM      4  C4  IND d   1      -1.524  -4.923  -4.736  0.00  0.00     0.051 A 
ATOM      5  C5  IND d   1      -1.062  -5.453  -3.564  0.00  0.00    -0.031 A 
ATOM      6  C6  IND d   1      -1.916  -5.977  -2.614  0.00  0.00     0.015 A 
ATOM      7  C7  IND d   1      -3.268  -6.000  -2.807  0.00  0.00    -0.016 A 
ATOM      8  C8  IND d   1      -3.741  -5.455  -3.992  0.00  0.00    -0.047 A 
ATOM      9  C9  IND d   1      -2.883  -4.884  -4.941  0.00  0.00    -0.096 A 
ATOM     10  HN1 IND d   1      -5.742  -5.574  -4.063  0.00  0.00     0.298 HD
ENDROOT
TORSDOF 0
ENDMDL
