MODEL 1
REMARK minimizedAffinity -4.35318756
REMARK minimizedRMSD -1
REMARK  0 active torsions:
REMARK  status: ('A' for Active; 'I' for Inactive)
ROOT
ATOM      1  N1  IND d   1      -3.354  -6.000  -3.785  0.00  0.00    -0.196 N 
ATOM      2  C2  IND d   1      -2.039  -5.893  -4.142  0.00  0.00     0.054 A 
ATOM      3  C3  IND d   1      -1.876  -4.899  -5.044  0.00  0.00    -0.031 A 
ATOM      4  C4  IND d   1      -3.612  -3.256  -5.999  0.00  0.00     0.051 A 
ATOM      5  C5  IND d   1      -4.951  -2.984  -6.000  0.00  0.00    -0.031 A 
ATOM      6  C6  IND d   1      -5.844  -3.716  -5.245  0.00  0.00     0.015 A 
ATOM      7  C7  IND d   1      -5.428  -4.746  -4.449  0.00  0.00    -0.016 A 
ATOM      8  C8  IND d   1      -4.070  -5.029  -4.451  0.00  0.00    -0.047 A 
ATOM      9  C9  IND d   1      -3.164  -4.317  -5.248  0.00  0.00    -0.096 A 
ATOM     10  HN1 IND d   1      -3.680  -6.577  -3.237  0.00  0.00     0.298 HD
ENDROOT
TORSDOF 0
ENDMDL
