MODEL 1
REMARK minimizedAffinity -1.20139265
REMARK minimizedRMSD -1
REMARK  0 active torsions:
REMARK  status: ('A' for Active; 'I' for Inactive)
ROOT
ATOM      1  N1  IND d   1      -2.541  -6.000  -5.487  0.00  0.00    -0.196 N 
ATOM      2  C2  IND d   1      -1.579  -5.173  -4.977  0.00  0.00     0.054 A 
ATOM      3  C3  IND d   1      -2.099  -3.951  -4.718  0.00  0.00    -0.031 A 
ATOM      4  C4  IND d   1      -4.523  -3.120  -4.961  0.00  0.00     0.051 A 
ATOM      5  C5  IND d   1      -5.752  -3.503  -5.422  0.00  0.00    -0.031 A 
ATOM      6  C6  IND d   1      -5.978  -4.763  -5.935  0.00  0.00     0.015 A 
ATOM      7  C7  IND d   1      -4.982  -5.697  -5.997  0.00  0.00    -0.016 A 
ATOM      8  C8  IND d   1      -3.732  -5.310  -5.537  0.00  0.00    -0.047 A 
ATOM      9  C9  IND d   1      -3.486  -4.018  -5.054  0.00  0.00    -0.096 A 
ATOM     10  HN1 IND d   1      -2.421  -6.815  -5.735  0.00  0.00     0.298 HD
ENDROOT
TORSDOF 0
ENDMDL
