MODEL 1
REMARK minimizedAffinity -3.91566849
REMARK minimizedRMSD -1
REMARK  0 active torsions:
REMARK  status: ('A' for Active; 'I' for Inactive)
ROOT
ATOM      1  N1  IND d   1      -4.439  -5.784  -3.771  0.00  0.00    -0.196 N 
ATOM      2  C2  IND d   1      -3.107  -5.989  -4.001  0.00  0.00     0.054 A 
ATOM      3  C3  IND d   1      -2.560  -4.906  -4.597  0.00  0.00    -0.031 A 
ATOM      4  C4  IND d   1      -3.642  -2.648  -5.195  0.00  0.00     0.051 A 
ATOM      5  C5  IND d   1      -4.845  -2.000  -5.210  0.00  0.00    -0.031 A 
ATOM      6  C6  IND d   1      -5.997  -2.592  -4.735  0.00  0.00     0.015 A 
ATOM      7  C7  IND d   1      -5.987  -3.854  -4.213  0.00  0.00    -0.016 A 
ATOM      8  C8  IND d   1      -4.768  -4.518  -4.202  0.00  0.00    -0.047 A 
ATOM      9  C9  IND d   1      -3.603  -3.938  -4.723  0.00  0.00    -0.096 A 
ATOM     10  HN1 IND d   1      -4.980  -6.350  -3.417  0.00  0.00     0.298 HD
ENDROOT
TORSDOF 0
ENDMDL
