MODEL 1
REMARK minimizedAffinity 2.19458771
REMARK minimizedRMSD -1
REMARK  0 active torsions:
REMARK  status: ('A' for Active; 'I' for Inactive)
ROOT
ATOM      1  N1  IND d   1      -1.812  -5.333  -3.808  0.00  0.00    -0.196 N 
ATOM      2  C2  IND d   1      -1.556  -5.999  -4.974  0.00  0.00     0.054 A 
ATOM      3  C3  IND d   1      -2.245  -5.442  -5.995  0.00  0.00    -0.031 A 
ATOM      4  C4  IND d   1      -3.772  -3.370  -6.000  0.00  0.00     0.051 A 
ATOM      5  C5  IND d   1      -4.340  -2.448  -5.165  0.00  0.00    -0.031 A 
ATOM      6  C6  IND d   1      -4.088  -2.440  -3.809  0.00  0.00     0.015 A 
ATOM      7  C7  IND d   1      -3.244  -3.349  -3.236  0.00  0.00    -0.016 A 
ATOM      8  C8  IND d   1      -2.671  -4.290  -4.079  0.00  0.00    -0.047 A 
ATOM      9  C9  IND d   1      -2.958  -4.331  -5.450  0.00  0.00    -0.096 A 
ATOM     10  HN1 IND d   1      -1.491  -5.531  -3.036  0.00  0.00     0.298 HD
ENDROOT
TORSDOF 0
ENDMDL
