MODEL 1
REMARK minimizedAffinity 10.682662
REMARK minimizedRMSD -1
REMARK  0 active torsions:
REMARK  status: ('A' for Active; 'I' for Inactive)
ROOT
ATOM      1  N1  IND d   1       0.120   3.412  -4.847  0.00  0.00    -0.196 N 
ATOM      2  C2  IND d   1      -1.112   2.868  -4.610  0.00  0.00     0.054 A 
ATOM      3  C3  IND d   1      -0.995   1.746  -3.866  0.00  0.00    -0.031 A 
ATOM      4  C4  IND d   1       1.110   0.674  -2.841  0.00  0.00     0.051 A 
ATOM      5  C5  IND d   1       2.471   0.789  -2.812  0.00  0.00    -0.031 A 
ATOM      6  C6  IND d   1       3.132   1.806  -3.471  0.00  0.00     0.015 A 
ATOM      7  C7  IND d   1       2.451   2.757  -4.177  0.00  0.00    -0.016 A 
ATOM      8  C8  IND d   1       1.069   2.640  -4.215  0.00  0.00    -0.047 A 
ATOM      9  C9  IND d   1       0.396   1.586  -3.584  0.00  0.00    -0.096 A 
ATOM     10  HN1 IND d   1       0.275   4.118  -5.313  0.00  0.00     0.298 HD
ENDROOT
TORSDOF 0
ENDMDL
