MODEL 1
REMARK minimizedAffinity 1.83552909
REMARK minimizedRMSD -1
REMARK  0 active torsions:
REMARK  status: ('A' for Active; 'I' for Inactive)
ROOT
ATOM      1  N1  IND d   1      -3.581  -5.102  -5.993  0.00  0.00    -0.196 N 
ATOM      2  C2  IND d   1      -3.001  -5.839  -4.998  0.00  0.00     0.054 A 
ATOM      3  C3  IND d   1      -3.437  -5.420  -3.788  0.00  0.00    -0.031 A 
ATOM      4  C4  IND d   1      -5.175  -3.611  -3.212  0.00  0.00     0.051 A 
ATOM      5  C5  IND d   1      -5.951  -2.642  -3.783  0.00  0.00    -0.031 A 
ATOM      6  C6  IND d   1      -5.979  -2.441  -5.148  0.00  0.00     0.015 A 
ATOM      7  C7  IND d   1      -5.238  -3.213  -5.997  0.00  0.00    -0.016 A 
ATOM      8  C8  IND d   1      -4.443  -4.193  -5.420  0.00  0.00    -0.047 A 
ATOM      9  C9  IND d   1      -4.378  -4.374  -4.032  0.00  0.00    -0.096 A 
ATOM     10  HN1 IND d   1      -3.431  -5.191  -6.835  0.00  0.00     0.298 HD
ENDROOT
TORSDOF 0
ENDMDL
