MODEL 1
REMARK minimizedAffinity -2.90542984
REMARK minimizedRMSD -1
REMARK  0 active torsions:
REMARK  status: ('A' for Active; 'I' for Inactive)
ROOT
ATOM      1  N1  IND d   1      -2.995  -5.998  -4.820  0.00  0.00    -0.196 N 
ATOM      2  C2  IND d   1      -2.333  -5.625  -3.684  0.00  0.00     0.054 A 
ATOM      3  C3  IND d   1      -2.930  -4.550  -3.122  0.00  0.00    -0.031 A 
ATOM      4  C4  IND d   1      -5.065  -3.304  -3.842  0.00  0.00     0.051 A 
ATOM      5  C5  IND d   1      -5.999  -3.255  -4.838  0.00  0.00    -0.031 A 
ATOM      6  C6  IND d   1      -5.981  -4.137  -5.899  0.00  0.00     0.015 A 
ATOM      7  C7  IND d   1      -5.030  -5.113  -5.998  0.00  0.00    -0.016 A 
ATOM      8  C8  IND d   1      -4.076  -5.162  -4.992  0.00  0.00    -0.047 A 
ATOM      9  C9  IND d   1      -4.064  -4.242  -3.935  0.00  0.00    -0.096 A 
ATOM     10  HN1 IND d   1      -2.774  -6.646  -5.340  0.00  0.00     0.298 HD
ENDROOT
TORSDOF 0
ENDMDL
