MODEL 1
REMARK minimizedAffinity 4.67312431
REMARK minimizedRMSD -1
REMARK  0 active torsions:
REMARK  status: ('A' for Active; 'I' for Inactive)
ROOT
ATOM      1  N1  IND d   1      -3.764  -4.043  -6.000  0.00  0.00    -0.196 N 
ATOM      2  C2  IND d   1      -3.261  -4.887  -5.048  0.00  0.00     0.054 A 
ATOM      3  C3  IND d   1      -3.691  -4.520  -3.820  0.00  0.00    -0.031 A 
ATOM      4  C4  IND d   1      -5.307  -2.632  -3.149  0.00  0.00     0.051 A 
ATOM      5  C5  IND d   1      -5.998  -1.572  -3.665  0.00  0.00    -0.031 A 
ATOM      6  C6  IND d   1      -5.983  -1.277  -5.013  0.00  0.00     0.015 A 
ATOM      7  C7  IND d   1      -5.280  -2.042  -5.901  0.00  0.00    -0.016 A 
ATOM      8  C8  IND d   1      -4.571  -3.115  -5.380  0.00  0.00    -0.047 A 
ATOM      9  C9  IND d   1      -4.549  -3.393  -4.007  0.00  0.00    -0.096 A 
ATOM     10  HN1 IND d   1      -3.603  -4.086  -6.843  0.00  0.00     0.298 HD
ENDROOT
TORSDOF 0
ENDMDL
