MODEL 1
REMARK minimizedAffinity 1.56225538
REMARK minimizedRMSD -1
REMARK  0 active torsions:
REMARK  status: ('A' for Active; 'I' for Inactive)
ROOT
ATOM      1  N1  IND d   1      -5.088  -3.478  -5.997  0.00  0.00    -0.196 N 
ATOM      2  C2  IND d   1      -5.588  -2.648  -5.033  0.00  0.00     0.054 A 
ATOM      3  C3  IND d   1      -4.952  -2.855  -3.858  0.00  0.00    -0.031 A 
ATOM      4  C4  IND d   1      -2.991  -4.432  -3.315  0.00  0.00     0.051 A 
ATOM      5  C5  IND d   1      -2.216  -5.415  -3.863  0.00  0.00    -0.031 A 
ATOM      6  C6  IND d   1      -2.359  -5.809  -5.177  0.00  0.00     0.015 A 
ATOM      7  C7  IND d   1      -3.280  -5.224  -6.000  0.00  0.00    -0.016 A 
ATOM      8  C8  IND d   1      -4.074  -4.230  -5.445  0.00  0.00    -0.047 A 
ATOM      9  C9  IND d   1      -3.962  -3.855  -4.100  0.00  0.00    -0.096 A 
ATOM     10  HN1 IND d   1      -5.360  -3.523  -6.811  0.00  0.00     0.298 HD
ENDROOT
TORSDOF 0
ENDMDL
