MODEL 1
REMARK minimizedAffinity 13.0288267
REMARK minimizedRMSD -1
REMARK  0 active torsions:
REMARK  status: ('A' for Active; 'I' for Inactive)
ROOT
ATOM      1  C4' PXY d   1       6.000   2.980  -2.937  0.00  0.00     0.077 C 
ATOM      2  C1' PXY d   1       2.577   0.372   0.923  0.00  0.00     0.077 C 
ATOM      3  C1  PXY d   1       3.480   1.063  -0.080  0.00  0.00    -0.082 A 
ATOM      4  C2  PXY d   1       3.123   1.118  -1.353  0.00  0.00     0.003 A 
ATOM      5  C3  PXY d   1       3.943   1.710  -2.278  0.00  0.00     0.003 A 
ATOM      6  C4  PXY d   1       5.115   2.301  -1.888  0.00  0.00    -0.082 A 
ATOM      7  C5  PXY d   1       5.481   2.259  -0.589  0.00  0.00     0.003 A 
ATOM      8  C6  PXY d   1       4.654   1.616   0.328  0.00  0.00     0.003 A 
ENDROOT
TORSDOF 0
ENDMDL
