MODEL 1
REMARK minimizedAffinity 9.39537621
REMARK minimizedRMSD -1
REMARK  0 active torsions:
REMARK  status: ('A' for Active; 'I' for Inactive)
ROOT
ATOM      1  C4' PXY d   1       2.872  -0.269   1.164  0.00  0.00     0.077 C 
ATOM      2  C1' PXY d   1       6.000   2.663  -2.714  0.00  0.00     0.077 C 
ATOM      3  C1  PXY d   1       5.170   1.893  -1.706  0.00  0.00    -0.082 A 
ATOM      4  C2  PXY d   1       5.436   2.009  -0.415  0.00  0.00     0.003 A 
ATOM      5  C3  PXY d   1       4.716   1.295   0.509  0.00  0.00     0.003 A 
ATOM      6  C4  PXY d   1       3.678   0.496   0.111  0.00  0.00    -0.082 A 
ATOM      7  C5  PXY d   1       3.393   0.381  -1.204  0.00  0.00     0.003 A 
ATOM      8  C6  PXY d   1       4.162   1.082  -2.128  0.00  0.00     0.003 A 
ENDROOT
TORSDOF 0
ENDMDL
