MODEL 1
REMARK minimizedAffinity 10.0186291
REMARK minimizedRMSD -1
REMARK  0 active torsions:
REMARK  status: ('A' for Active; 'I' for Inactive)
ROOT
ATOM      1  C4' PXY d   1       5.999   2.482  -3.121  0.00  0.00     0.077 C 
ATOM      2  C1' PXY d   1       3.353   0.242   1.504  0.00  0.00     0.077 C 
ATOM      3  C1  PXY d   1       4.052   0.839   0.299  0.00  0.00    -0.082 A 
ATOM      4  C2  PXY d   1       3.559   0.634  -0.912  0.00  0.00     0.003 A 
ATOM      5  C3  PXY d   1       4.196   1.139  -2.015  0.00  0.00     0.003 A 
ATOM      6  C4  PXY d   1       5.321   1.907  -1.875  0.00  0.00    -0.082 A 
ATOM      7  C5  PXY d   1       5.825   2.130  -0.642  0.00  0.00     0.003 A 
ATOM      8  C6  PXY d   1       5.186   1.574   0.462  0.00  0.00     0.003 A 
ENDROOT
TORSDOF 0
ENDMDL
