MODEL 1
REMARK minimizedAffinity 5.49398088
REMARK minimizedRMSD -1
REMARK  0 active torsions:
REMARK  status: ('A' for Active; 'I' for Inactive)
ROOT
ATOM      1  C4' PXY d   1       5.999   2.234  -2.232  0.00  0.00     0.077 C 
ATOM      2  C1' PXY d   1       1.995  -0.192   1.158  0.00  0.00     0.077 C 
ATOM      3  C1  PXY d   1       3.043   0.435   0.260  0.00  0.00    -0.082 A 
ATOM      4  C2  PXY d   1       3.978   1.208   0.788  0.00  0.00     0.003 A 
ATOM      5  C3  PXY d   1       4.915   1.809  -0.014  0.00  0.00     0.003 A 
ATOM      6  C4  PXY d   1       4.926   1.573  -1.363  0.00  0.00    -0.082 A 
ATOM      7  C5  PXY d   1       3.982   0.777  -1.907  0.00  0.00     0.003 A 
ATOM      8  C6  PXY d   1       3.015   0.210  -1.082  0.00  0.00     0.003 A 
ENDROOT
TORSDOF 0
ENDMDL
