MODEL 1
REMARK minimizedAffinity 21.491518
REMARK minimizedRMSD -1
REMARK  0 active torsions:
REMARK  status: ('A' for Active; 'I' for Inactive)
ROOT
ATOM      1  C4' PXY d   1       2.533   0.163  -0.447  0.00  0.00     0.077 C 
ATOM      2  C1' PXY d   1      -0.048   4.841   1.759  0.00  0.00     0.077 C 
ATOM      3  C1  PXY d   1       0.640   3.617   1.187  0.00  0.00    -0.082 A 
ATOM      4  C2  PXY d   1       0.174   3.063   0.079  0.00  0.00     0.003 A 
ATOM      5  C3  PXY d   1       0.764   1.937  -0.435  0.00  0.00     0.003 A 
ATOM      6  C4  PXY d   1       1.876   1.405   0.162  0.00  0.00    -0.082 A 
ATOM      7  C5  PXY d   1       2.364   1.971   1.286  0.00  0.00     0.003 A 
ATOM      8  C6  PXY d   1       1.725   3.089   1.814  0.00  0.00     0.003 A 
ENDROOT
TORSDOF 0
ENDMDL
