MODEL 1
REMARK minimizedAffinity 12.3142281
REMARK minimizedRMSD -1
REMARK  0 active torsions:
REMARK  status: ('A' for Active; 'I' for Inactive)
ROOT
ATOM      1  C4' PXY d   1       1.957   1.083   5.129  0.00  0.00     0.077 C 
ATOM      2  C1' PXY d   1      -0.204   5.092   1.569  0.00  0.00     0.077 C 
ATOM      3  C1  PXY d   1       0.371   4.038   2.493  0.00  0.00    -0.082 A 
ATOM      4  C2  PXY d   1      -0.376   3.542   3.466  0.00  0.00     0.003 A 
ATOM      5  C3  PXY d   1       0.138   2.611   4.331  0.00  0.00     0.003 A 
ATOM      6  C4  PXY d   1       1.415   2.143   4.166  0.00  0.00    -0.082 A 
ATOM      7  C5  PXY d   1       2.180   2.636   3.170  0.00  0.00     0.003 A 
ATOM      8  C6  PXY d   1       1.653   3.611   2.328  0.00  0.00     0.003 A 
ENDROOT
TORSDOF 0
ENDMDL
