MODEL 1
REMARK minimizedAffinity -3.50011516
REMARK minimizedRMSD -1
REMARK  1 active torsions:
REMARK  status: ('A' for Active; 'I' for Inactive)
REMARK    1  A    between atoms: C1_2  and  C2_3 
ROOT
ATOM      1  C2  UNL d   1      -0.559   0.283   0.184  0.00  0.00    -0.073 A 
ATOM      2  C3  UNL d   1      -0.796  -0.816   1.016  0.00  0.00    -0.002 A 
ATOM      3  C4  UNL d   1      -1.292  -2.008   0.486  0.00  0.00     0.004 A 
ATOM      4  C5  UNL d   1      -1.549  -2.116  -0.880  0.00  0.00    -0.004 A 
ATOM      5  C6  UNL d   1      -1.308  -1.032  -1.731  0.00  0.00    -0.075 A 
ATOM      6  C7  UNL d   1      -1.581  -1.130  -3.203  0.00  0.00     0.076 C 
ATOM      7  C8  UNL d   1      -0.812   0.163  -1.190  0.00  0.00     0.001 A 
ENDROOT
BRANCH   1   8
ATOM      8  C1  UNL d   1      -0.018   1.570   0.750  0.00  0.00     0.053 C 
ATOM      9  C   UNL d   1       0.465   1.404   2.183  0.00  0.00     0.018 C 
ENDBRANCH   1   8
TORSDOF 1
ENDMDL
