MODEL 1
REMARK minimizedAffinity -4.54864454
REMARK minimizedRMSD -1
REMARK  1 active torsions:
REMARK  status: ('A' for Active; 'I' for Inactive)
REMARK    1  A    between atoms: C1_2  and  C2_3 
ROOT
ATOM      1  C2  UNL d   1       0.105   0.845   1.589  0.00  0.00    -0.073 A 
ATOM      2  C3  UNL d   1       1.180   1.440   0.920  0.00  0.00    -0.002 A 
ATOM      3  C4  UNL d   1       1.517   1.038  -0.373  0.00  0.00     0.004 A 
ATOM      4  C5  UNL d   1       0.778   0.043  -1.013  0.00  0.00    -0.004 A 
ATOM      5  C6  UNL d   1      -0.308  -0.556  -0.366  0.00  0.00    -0.075 A 
ATOM      6  C7  UNL d   1      -1.112  -1.629  -1.040  0.00  0.00     0.076 C 
ATOM      7  C8  UNL d   1      -0.638  -0.148   0.934  0.00  0.00     0.001 A 
ENDROOT
BRANCH   1   8
ATOM      8  C1  UNL d   1      -0.266   1.280   2.983  0.00  0.00     0.053 C 
ATOM      9  C   UNL d   1       0.900   1.150   3.950  0.00  0.00     0.018 C 
ENDBRANCH   1   8
TORSDOF 1
ENDMDL
