MODEL 1
REMARK minimizedAffinity -3.89167881
REMARK minimizedRMSD -1
REMARK  1 active torsions:
REMARK  status: ('A' for Active; 'I' for Inactive)
REMARK    1  A    between atoms: C1_2  and  C2_3 
ROOT
ATOM      1  C2  UNL d   1      -0.017  -0.785  -1.154  0.00  0.00    -0.073 A 
ATOM      2  C3  UNL d   1      -0.990  -1.252  -0.262  0.00  0.00    -0.002 A 
ATOM      3  C4  UNL d   1      -1.297  -0.526   0.889  0.00  0.00     0.004 A 
ATOM      4  C5  UNL d   1      -0.642   0.675   1.157  0.00  0.00    -0.004 A 
ATOM      5  C6  UNL d   1       0.324   1.165   0.272  0.00  0.00    -0.075 A 
ATOM      6  C7  UNL d   1       1.039   2.455   0.548  0.00  0.00     0.076 C 
ATOM      7  C8  UNL d   1       0.630   0.429  -0.880  0.00  0.00     0.001 A 
ENDROOT
BRANCH   1   8
ATOM      8  C1  UNL d   1       0.314  -1.563  -2.401  0.00  0.00     0.053 C 
ATOM      9  C   UNL d   1      -0.713  -1.342  -3.500  0.00  0.00     0.018 C 
ENDBRANCH   1   8
TORSDOF 1
ENDMDL
