MODEL 1
REMARK minimizedAffinity -4.29282999
REMARK minimizedRMSD -1
REMARK  1 active torsions:
REMARK  status: ('A' for Active; 'I' for Inactive)
REMARK    1  A    between atoms: C1_2  and  C2_3 
ROOT
ATOM      1  C2  UNL d   1      -0.478  -0.665  -0.670  0.00  0.00    -0.073 A 
ATOM      2  C3  UNL d   1       0.823  -0.993  -1.068  0.00  0.00    -0.002 A 
ATOM      3  C4  UNL d   1       1.900  -0.191  -0.688  0.00  0.00     0.004 A 
ATOM      4  C5  UNL d   1       1.688   0.942   0.098  0.00  0.00    -0.004 A 
ATOM      5  C6  UNL d   1       0.397   1.280   0.516  0.00  0.00    -0.075 A 
ATOM      6  C7  UNL d   1       0.152   2.496   1.359  0.00  0.00     0.076 C 
ATOM      7  C8  UNL d   1      -0.679   0.471   0.127  0.00  0.00     0.001 A 
ENDROOT
BRANCH   1   8
ATOM      8  C1  UNL d   1      -1.643  -1.532  -1.073  0.00  0.00     0.053 C 
ATOM      9  C   UNL d   1      -2.186  -1.156  -2.443  0.00  0.00     0.018 C 
ENDBRANCH   1   8
TORSDOF 1
ENDMDL
