MODEL 1
REMARK minimizedAffinity -5.10959005
REMARK minimizedRMSD -1
REMARK  1 active torsions:
REMARK  status: ('A' for Active; 'I' for Inactive)
REMARK    1  A    between atoms: C1_2  and  C2_3 
ROOT
ATOM      1  C2  UNL d   1      -3.818  -2.118  -1.848  0.00  0.00    -0.073 A 
ATOM      2  C3  UNL d   1      -3.646  -1.698  -3.172  0.00  0.00    -0.002 A 
ATOM      3  C4  UNL d   1      -2.409  -1.222  -3.605  0.00  0.00     0.004 A 
ATOM      4  C5  UNL d   1      -1.330  -1.166  -2.723  0.00  0.00    -0.004 A 
ATOM      5  C6  UNL d   1      -1.478  -1.592  -1.400  0.00  0.00    -0.075 A 
ATOM      6  C7  UNL d   1      -0.328  -1.536  -0.438  0.00  0.00     0.076 C 
ATOM      7  C8  UNL d   1      -2.725  -2.067  -0.971  0.00  0.00     0.001 A 
ENDROOT
BRANCH   1   8
ATOM      8  C1  UNL d   1      -5.151  -2.640  -1.377  0.00  0.00     0.053 C 
ATOM      9  C   UNL d   1      -4.998  -3.709  -0.306  0.00  0.00     0.018 C 
ENDBRANCH   1   8
TORSDOF 1
ENDMDL
