MODEL 1
REMARK minimizedAffinity -2.34450364
REMARK minimizedRMSD -1
REMARK  1 active torsions:
REMARK  status: ('A' for Active; 'I' for Inactive)
REMARK    1  A    between atoms: C1_2  and  C2_3 
ROOT
ATOM      1  C2  UNL d   1       1.641   1.109   1.180  0.00  0.00    -0.073 A 
ATOM      2  C3  UNL d   1       0.831   1.739   2.131  0.00  0.00    -0.002 A 
ATOM      3  C4  UNL d   1      -0.543   1.494   2.160  0.00  0.00     0.004 A 
ATOM      4  C5  UNL d   1      -1.118   0.614   1.245  0.00  0.00    -0.004 A 
ATOM      5  C6  UNL d   1      -0.323  -0.034   0.294  0.00  0.00    -0.075 A 
ATOM      6  C7  UNL d   1      -0.927  -0.983  -0.700  0.00  0.00     0.076 C 
ATOM      7  C8  UNL d   1       1.055   0.219   0.269  0.00  0.00     0.001 A 
ENDROOT
BRANCH   1   8
ATOM      8  C1  UNL d   1       3.126   1.366   1.149  0.00  0.00     0.053 C 
ATOM      9  C   UNL d   1       3.819   0.571   0.053  0.00  0.00     0.018 C 
ENDBRANCH   1   8
TORSDOF 1
ENDMDL
