MODEL 1
REMARK minimizedAffinity -4.43451738
REMARK minimizedRMSD -1
REMARK  1 active torsions:
REMARK  status: ('A' for Active; 'I' for Inactive)
REMARK    1  A    between atoms: C1_2  and  C2_3 
ROOT
ATOM      1  C2  UNL d   1       0.567  -0.112  -0.147  0.00  0.00    -0.073 A 
ATOM      2  C3  UNL d   1      -0.278   0.719   0.597  0.00  0.00    -0.002 A 
ATOM      3  C4  UNL d   1       0.236   1.831   1.265  0.00  0.00     0.004 A 
ATOM      4  C5  UNL d   1       1.597   2.126   1.192  0.00  0.00    -0.004 A 
ATOM      5  C6  UNL d   1       2.456   1.314   0.444  0.00  0.00    -0.075 A 
ATOM      6  C7  UNL d   1       3.923   1.617   0.357  0.00  0.00     0.076 C 
ATOM      7  C8  UNL d   1       1.933   0.198  -0.222  0.00  0.00     0.001 A 
ENDROOT
BRANCH   1   8
ATOM      8  C1  UNL d   1       0.015  -1.310  -0.875  0.00  0.00     0.053 C 
ATOM      9  C   UNL d   1      -1.340  -1.022  -1.501  0.00  0.00     0.018 C 
ENDBRANCH   1   8
TORSDOF 1
ENDMDL
