MODEL 1
REMARK minimizedAffinity -6.36904669
REMARK minimizedRMSD -1
REMARK  1 active torsions:
REMARK  status: ('A' for Active; 'I' for Inactive)
REMARK    1  A    between atoms: C1_2  and  C2_3 
ROOT
ATOM      1  C2  UNL d   1       1.138   1.346   0.764  0.00  0.00    -0.073 A 
ATOM      2  C3  UNL d   1       0.533   1.487   2.018  0.00  0.00    -0.002 A 
ATOM      3  C4  UNL d   1      -0.544   0.675   2.376  0.00  0.00     0.004 A 
ATOM      4  C5  UNL d   1      -1.023  -0.289   1.489  0.00  0.00    -0.004 A 
ATOM      5  C6  UNL d   1      -0.424  -0.453   0.235  0.00  0.00    -0.075 A 
ATOM      6  C7  UNL d   1      -0.928  -1.483  -0.732  0.00  0.00     0.076 C 
ATOM      7  C8  UNL d   1       0.656   0.368  -0.118  0.00  0.00     0.001 A 
ENDROOT
BRANCH   1   8
ATOM      8  C1  UNL d   1       2.305   2.216   0.375  0.00  0.00     0.053 C 
ATOM      9  C   UNL d   1       3.531   1.394   0.007  0.00  0.00     0.018 C 
ENDBRANCH   1   8
TORSDOF 1
ENDMDL
