MODEL 1
REMARK minimizedAffinity -0.45512265
REMARK minimizedRMSD -1
REMARK  1 active torsions:
REMARK  status: ('A' for Active; 'I' for Inactive)
REMARK    1  A    between atoms: C1_2  and  C2_3 
ROOT
ATOM      1  C2  UNL d   1       0.096   0.795   1.628  0.00  0.00    -0.073 A 
ATOM      2  C3  UNL d   1      -0.840   0.013   0.942  0.00  0.00    -0.002 A 
ATOM      3  C4  UNL d   1      -0.531  -0.519  -0.311  0.00  0.00     0.004 A 
ATOM      4  C5  UNL d   1       0.717  -0.281  -0.886  0.00  0.00    -0.004 A 
ATOM      5  C6  UNL d   1       1.670   0.488  -0.211  0.00  0.00    -0.075 A 
ATOM      6  C7  UNL d   1       3.016   0.755  -0.817  0.00  0.00     0.076 C 
ATOM      7  C8  UNL d   1       1.352   1.021   1.046  0.00  0.00     0.001 A 
ENDROOT
BRANCH   1   8
ATOM      8  C1  UNL d   1      -0.230   1.366   2.984  0.00  0.00     0.053 C 
ATOM      9  C   UNL d   1       0.778   0.941   4.039  0.00  0.00     0.018 C 
ENDBRANCH   1   8
TORSDOF 1
ENDMDL
