MODEL 1
REMARK minimizedAffinity -4.20173454
REMARK minimizedRMSD -1
REMARK  1 active torsions:
REMARK  status: ('A' for Active; 'I' for Inactive)
REMARK    1  A    between atoms: C1_2  and  C2_3 
ROOT
ATOM      1  C2  UNL d   1       0.010  -1.018  -0.674  0.00  0.00    -0.073 A 
ATOM      2  C3  UNL d   1       1.280  -1.471  -1.049  0.00  0.00    -0.002 A 
ATOM      3  C4  UNL d   1       2.404  -0.672  -0.837  0.00  0.00     0.004 A 
ATOM      4  C5  UNL d   1       2.272   0.583  -0.242  0.00  0.00    -0.004 A 
ATOM      5  C6  UNL d   1       1.013   1.048   0.151  0.00  0.00    -0.075 A 
ATOM      6  C7  UNL d   1       0.854   2.396   0.791  0.00  0.00     0.076 C 
ATOM      7  C8  UNL d   1      -0.111   0.241  -0.068  0.00  0.00     0.001 A 
ENDROOT
BRANCH   1   8
ATOM      8  C1  UNL d   1      -1.206  -1.879  -0.895  0.00  0.00     0.053 C 
ATOM      9  C   UNL d   1      -1.724  -1.779  -2.321  0.00  0.00     0.018 C 
ENDBRANCH   1   8
TORSDOF 1
ENDMDL
