MODEL 1
REMARK minimizedAffinity 21.4729843
REMARK minimizedRMSD -1
REMARK  0 active torsions:
REMARK  status: ('A' for Active; 'I' for Inactive)
ROOT
ATOM      1  C   UNL d   1       1.510  -0.516   0.901  0.00  0.00     0.124 A 
ATOM      2  C1  UNL d   1       0.225  -1.022   0.764  0.00  0.00     0.062 A 
ATOM      3  C2  UNL d   1      -0.555  -1.264   1.891  0.00  0.00     0.162 A 
ATOM      4  C3  UNL d   1      -0.054  -1.000   3.165  0.00  0.00    -0.034 A 
ATOM      5  C4  UNL d   1       1.240  -0.491   3.295  0.00  0.00     0.162 A 
ATOM      6  C5  UNL d   1       2.016  -0.251   2.166  0.00  0.00     0.062 A 
ATOM      7  F   UNL d   1       3.258   0.239   2.301  0.00  0.00    -0.097 F 
ATOM      8  F1  UNL d   1       1.754  -0.225   4.505  0.00  0.00    -0.096 F 
ATOM      9  I   UNL d   1      -1.218  -1.361   4.852  0.00  0.00    -0.060 I 
ATOM     10  F2  UNL d   1      -1.794  -1.754   1.729  0.00  0.00    -0.096 F 
ATOM     11  F3  UNL d   1      -0.266  -1.280  -0.456  0.00  0.00    -0.097 F 
ATOM     12  F4  UNL d   1       2.260  -0.284  -0.184  0.00  0.00    -0.092 F 
ENDROOT
TORSDOF 0
ENDMDL
