MODEL 1
REMARK minimizedAffinity 21.8783741
REMARK minimizedRMSD -1
REMARK  0 active torsions:
REMARK  status: ('A' for Active; 'I' for Inactive)
ROOT
ATOM      1  C   UNL d   1      -0.772  -1.072   2.259  0.00  0.00     0.124 A 
ATOM      2  C1  UNL d   1      -0.159  -0.840   1.035  0.00  0.00     0.062 A 
ATOM      3  C2  UNL d   1       1.170  -0.427   0.985  0.00  0.00     0.162 A 
ATOM      4  C3  UNL d   1       1.895  -0.245   2.163  0.00  0.00    -0.034 A 
ATOM      5  C4  UNL d   1       1.271  -0.480   3.389  0.00  0.00     0.162 A 
ATOM      6  C5  UNL d   1      -0.057  -0.892   3.434  0.00  0.00     0.062 A 
ATOM      7  F   UNL d   1      -0.648  -1.115   4.617  0.00  0.00    -0.097 F 
ATOM      8  F1  UNL d   1       1.939  -0.314   4.541  0.00  0.00    -0.096 F 
ATOM      9  I   UNL d   1       3.881   0.371   2.092  0.00  0.00    -0.060 I 
ATOM     10  F2  UNL d   1       1.737  -0.211  -0.211  0.00  0.00    -0.096 F 
ATOM     11  F3  UNL d   1      -0.848  -1.012  -0.102  0.00  0.00    -0.097 F 
ATOM     12  F4  UNL d   1      -2.051  -1.468   2.304  0.00  0.00    -0.092 F 
ENDROOT
TORSDOF 0
ENDMDL
