MODEL 1
REMARK minimizedAffinity 17.9833279
REMARK minimizedRMSD -1
REMARK  0 active torsions:
REMARK  status: ('A' for Active; 'I' for Inactive)
ROOT
ATOM      1  C   UNL d   1       1.518  -0.653   0.651  0.00  0.00     0.124 A 
ATOM      2  C1  UNL d   1       0.258  -1.220   0.513  0.00  0.00     0.062 A 
ATOM      3  C2  UNL d   1      -0.565  -1.376   1.624  0.00  0.00     0.162 A 
ATOM      4  C3  UNL d   1      -0.132  -0.964   2.885  0.00  0.00    -0.034 A 
ATOM      5  C4  UNL d   1       1.137  -0.395   3.016  0.00  0.00     0.162 A 
ATOM      6  C5  UNL d   1       1.956  -0.242   1.902  0.00  0.00     0.062 A 
ATOM      7  F   UNL d   1       3.172   0.306   2.038  0.00  0.00    -0.097 F 
ATOM      8  F1  UNL d   1       1.585   0.012   4.213  0.00  0.00    -0.096 F 
ATOM      9  I   UNL d   1      -1.360  -1.195   4.549  0.00  0.00    -0.060 I 
ATOM     10  F2  UNL d   1      -1.777  -1.926   1.462  0.00  0.00    -0.096 F 
ATOM     11  F3  UNL d   1      -0.167  -1.619  -0.694  0.00  0.00    -0.097 F 
ATOM     12  F4  UNL d   1       2.308  -0.505  -0.420  0.00  0.00    -0.092 F 
ENDROOT
TORSDOF 0
ENDMDL
