MODEL 1
REMARK minimizedAffinity 17.3601608
REMARK minimizedRMSD -1
REMARK  0 active torsions:
REMARK  status: ('A' for Active; 'I' for Inactive)
ROOT
ATOM      1  C   UNL d   1       1.316  -0.637   1.000  0.00  0.00     0.124 A 
ATOM      2  C1  UNL d   1       0.046  -1.180   0.862  0.00  0.00     0.062 A 
ATOM      3  C2  UNL d   1      -0.723  -1.457   1.989  0.00  0.00     0.162 A 
ATOM      4  C3  UNL d   1      -0.224  -1.189   3.264  0.00  0.00    -0.034 A 
ATOM      5  C4  UNL d   1       1.055  -0.644   3.395  0.00  0.00     0.162 A 
ATOM      6  C5  UNL d   1       1.819  -0.370   2.265  0.00  0.00     0.062 A 
ATOM      7  F   UNL d   1       3.046   0.155   2.400  0.00  0.00    -0.097 F 
ATOM      8  F1  UNL d   1       1.565  -0.375   4.606  0.00  0.00    -0.096 F 
ATOM      9  I   UNL d   1      -1.371  -1.601   4.952  0.00  0.00    -0.060 I 
ATOM     10  F2  UNL d   1      -1.946  -1.981   1.826  0.00  0.00    -0.096 F 
ATOM     11  F3  UNL d   1      -0.441  -1.440  -0.359  0.00  0.00    -0.097 F 
ATOM     12  F4  UNL d   1       2.054  -0.373  -0.086  0.00  0.00    -0.092 F 
ENDROOT
TORSDOF 0
ENDMDL
