MODEL 1
REMARK minimizedAffinity 28.0192966
REMARK minimizedRMSD -1
REMARK  0 active torsions:
REMARK  status: ('A' for Active; 'I' for Inactive)
ROOT
ATOM      1  C   UNL d   1      -0.316   2.664  -4.571  0.00  0.00     0.124 A 
ATOM      2  C1  UNL d   1      -1.654   2.513  -4.231  0.00  0.00     0.062 A 
ATOM      3  C2  UNL d   1      -2.285   3.464  -3.435  0.00  0.00     0.162 A 
ATOM      4  C3  UNL d   1      -1.579   4.575  -2.972  0.00  0.00    -0.034 A 
ATOM      5  C4  UNL d   1      -0.235   4.719  -3.318  0.00  0.00     0.162 A 
ATOM      6  C5  UNL d   1       0.392   3.766  -4.114  0.00  0.00     0.062 A 
ATOM      7  F   UNL d   1       1.684   3.914  -4.442  0.00  0.00    -0.097 F 
ATOM      8  F1  UNL d   1       0.473   5.776  -2.890  0.00  0.00    -0.096 F 
ATOM      9  I   UNL d   1      -2.520   5.999  -1.781  0.00  0.00    -0.060 I 
ATOM     10  F2  UNL d   1      -3.578   3.293  -3.122  0.00  0.00    -0.096 F 
ATOM     11  F3  UNL d   1      -2.340   1.448  -4.671  0.00  0.00    -0.097 F 
ATOM     12  F4  UNL d   1       0.289   1.747  -5.337  0.00  0.00    -0.092 F 
ENDROOT
TORSDOF 0
ENDMDL
