MODEL 1
REMARK minimizedAffinity 12.5425701
REMARK minimizedRMSD -1
REMARK  0 active torsions:
REMARK  status: ('A' for Active; 'I' for Inactive)
ROOT
ATOM      1  C   UNL d   1      -1.597  -2.014   2.283  0.00  0.00     0.124 A 
ATOM      2  C1  UNL d   1      -0.738  -1.439   3.209  0.00  0.00     0.062 A 
ATOM      3  C2  UNL d   1       0.433  -0.817   2.785  0.00  0.00     0.162 A 
ATOM      4  C3  UNL d   1       0.751  -0.764   1.428  0.00  0.00    -0.034 A 
ATOM      5  C4  UNL d   1      -0.118  -1.346   0.503  0.00  0.00     0.162 A 
ATOM      6  C5  UNL d   1      -1.287  -1.967   0.931  0.00  0.00     0.062 A 
ATOM      7  F   UNL d   1      -2.115  -2.522   0.035  0.00  0.00    -0.097 F 
ATOM      8  F1  UNL d   1       0.158  -1.314  -0.810  0.00  0.00    -0.096 F 
ATOM      9  I   UNL d   1       2.500   0.166   0.791  0.00  0.00    -0.060 I 
ATOM     10  F2  UNL d   1       1.244  -0.269   3.702  0.00  0.00    -0.096 F 
ATOM     11  F3  UNL d   1      -1.036  -1.484   4.515  0.00  0.00    -0.097 F 
ATOM     12  F4  UNL d   1      -2.722  -2.613   2.693  0.00  0.00    -0.092 F 
ENDROOT
TORSDOF 0
ENDMDL
