MODEL 1
REMARK minimizedAffinity 12.3792171
REMARK minimizedRMSD -1
REMARK  0 active torsions:
REMARK  status: ('A' for Active; 'I' for Inactive)
ROOT
ATOM      1  C   UNL d   1       3.348  -0.679  -1.131  0.00  0.00     0.124 A 
ATOM      2  C1  UNL d   1       4.367  -0.455  -2.047  0.00  0.00     0.062 A 
ATOM      3  C2  UNL d   1       4.648   0.838  -2.478  0.00  0.00     0.162 A 
ATOM      4  C3  UNL d   1       3.910   1.918  -1.994  0.00  0.00    -0.034 A 
ATOM      5  C4  UNL d   1       2.886   1.684  -1.074  0.00  0.00     0.162 A 
ATOM      6  C5  UNL d   1       2.609   0.390  -0.646  0.00  0.00     0.062 A 
ATOM      7  F   UNL d   1       1.624   0.176   0.239  0.00  0.00    -0.097 F 
ATOM      8  F1  UNL d   1       2.157   2.700  -0.589  0.00  0.00    -0.096 F 
ATOM      9  I   UNL d   1       4.327   3.853  -2.637  0.00  0.00    -0.060 I 
ATOM     10  F2  UNL d   1       5.639   1.025  -3.364  0.00  0.00    -0.096 F 
ATOM     11  F3  UNL d   1       5.082  -1.487  -2.518  0.00  0.00    -0.097 F 
ATOM     12  F4  UNL d   1       3.079  -1.924  -0.718  0.00  0.00    -0.092 F 
ENDROOT
TORSDOF 0
ENDMDL
