MODEL 1
REMARK minimizedAffinity 10.0027151
REMARK minimizedRMSD -1
REMARK  0 active torsions:
REMARK  status: ('A' for Active; 'I' for Inactive)
ROOT
ATOM      1  C   UNL d   1       1.367  -0.315   1.035  0.00  0.00     0.124 A 
ATOM      2  C1  UNL d   1       0.099  -0.865   0.903  0.00  0.00     0.062 A 
ATOM      3  C2  UNL d   1      -0.635  -1.212   2.034  0.00  0.00     0.162 A 
ATOM      4  C3  UNL d   1      -0.102  -1.010   3.308  0.00  0.00    -0.034 A 
ATOM      5  C4  UNL d   1       1.174  -0.458   3.432  0.00  0.00     0.162 A 
ATOM      6  C5  UNL d   1       1.903  -0.113   2.299  0.00  0.00     0.062 A 
ATOM      7  F   UNL d   1       3.128   0.418   2.428  0.00  0.00    -0.097 F 
ATOM      8  F1  UNL d   1       1.716  -0.251   4.641  0.00  0.00    -0.096 F 
ATOM      9  I   UNL d   1      -1.195  -1.528   5.001  0.00  0.00    -0.060 I 
ATOM     10  F2  UNL d   1      -1.857  -1.741   1.877  0.00  0.00    -0.096 F 
ATOM     11  F3  UNL d   1      -0.421  -1.062  -0.317  0.00  0.00    -0.097 F 
ATOM     12  F4  UNL d   1       2.070   0.017  -0.055  0.00  0.00    -0.092 F 
ENDROOT
TORSDOF 0
ENDMDL
