MODEL 1
REMARK minimizedAffinity 30.3150845
REMARK minimizedRMSD -1
REMARK  0 active torsions:
REMARK  status: ('A' for Active; 'I' for Inactive)
ROOT
ATOM      1  C   UNL d   1      -2.259   3.279  -4.893  0.00  0.00     0.124 A 
ATOM      2  C1  UNL d   1      -1.716   4.241  -4.053  0.00  0.00     0.062 A 
ATOM      3  C2  UNL d   1      -0.517   3.995  -3.390  0.00  0.00     0.162 A 
ATOM      4  C3  UNL d   1       0.148   2.781  -3.565  0.00  0.00    -0.034 A 
ATOM      5  C4  UNL d   1      -0.405   1.818  -4.410  0.00  0.00     0.162 A 
ATOM      6  C5  UNL d   1      -1.604   2.068  -5.071  0.00  0.00     0.062 A 
ATOM      7  F   UNL d   1      -2.127   1.138  -5.882  0.00  0.00    -0.097 F 
ATOM      8  F1  UNL d   1       0.208   0.640  -4.601  0.00  0.00    -0.096 F 
ATOM      9  I   UNL d   1       1.940   2.410  -2.575  0.00  0.00    -0.060 I 
ATOM     10  F2  UNL d   1      -0.016   4.943  -2.584  0.00  0.00    -0.096 F 
ATOM     11  F3  UNL d   1      -2.348   5.410  -3.879  0.00  0.00    -0.097 F 
ATOM     12  F4  UNL d   1      -3.413   3.517  -5.529  0.00  0.00    -0.092 F 
ENDROOT
TORSDOF 0
ENDMDL
