MODEL 1
REMARK minimizedAffinity 11.1317406
REMARK minimizedRMSD -1
REMARK  0 active torsions:
REMARK  status: ('A' for Active; 'I' for Inactive)
ROOT
ATOM      1  C   UNL d   1       0.051   3.880  -2.572  0.00  0.00     0.124 A 
ATOM      2  C1  UNL d   1      -0.288   2.697  -3.215  0.00  0.00     0.062 A 
ATOM      3  C2  UNL d   1      -1.591   2.490  -3.658  0.00  0.00     0.162 A 
ATOM      4  C3  UNL d   1      -2.565   3.468  -3.460  0.00  0.00    -0.034 A 
ATOM      5  C4  UNL d   1      -2.217   4.654  -2.812  0.00  0.00     0.162 A 
ATOM      6  C5  UNL d   1      -0.914   4.857  -2.371  0.00  0.00     0.062 A 
ATOM      7  F   UNL d   1      -0.588   6.000  -1.750  0.00  0.00    -0.097 F 
ATOM      8  F1  UNL d   1      -3.129   5.616  -2.605  0.00  0.00    -0.096 F 
ATOM      9  I   UNL d   1      -4.515   3.162  -4.121  0.00  0.00    -0.060 I 
ATOM     10  F2  UNL d   1      -1.890   1.338  -4.276  0.00  0.00    -0.096 F 
ATOM     11  F3  UNL d   1       0.642   1.751  -3.409  0.00  0.00    -0.097 F 
ATOM     12  F4  UNL d   1       1.305   4.076  -2.145  0.00  0.00    -0.092 F 
ENDROOT
TORSDOF 0
ENDMDL
