MODEL 1
REMARK minimizedAffinity 15.6753979
REMARK minimizedRMSD -1
REMARK  0 active torsions:
REMARK  status: ('A' for Active; 'I' for Inactive)
ROOT
ATOM      1  C   UNL d   1       1.640  -0.251   0.773  0.00  0.00     0.124 A 
ATOM      2  C1  UNL d   1       2.162  -0.135   2.053  0.00  0.00     0.062 A 
ATOM      3  C2  UNL d   1       1.395  -0.497   3.157  0.00  0.00     0.162 A 
ATOM      4  C3  UNL d   1       0.097  -0.978   2.985  0.00  0.00    -0.034 A 
ATOM      5  C4  UNL d   1      -0.421  -1.091   1.694  0.00  0.00     0.162 A 
ATOM      6  C5  UNL d   1       0.350  -0.728   0.594  0.00  0.00     0.062 A 
ATOM      7  F   UNL d   1      -0.156  -0.841  -0.643  0.00  0.00    -0.097 F 
ATOM      8  F1  UNL d   1      -1.665  -1.550   1.492  0.00  0.00    -0.096 F 
ATOM      9  I   UNL d   1      -1.053  -1.519   4.633  0.00  0.00    -0.060 I 
ATOM     10  F2  UNL d   1       1.925  -0.375   4.383  0.00  0.00    -0.096 F 
ATOM     11  F3  UNL d   1       3.409   0.326   2.229  0.00  0.00    -0.097 F 
ATOM     12  F4  UNL d   1       2.380   0.098  -0.288  0.00  0.00    -0.092 F 
ENDROOT
TORSDOF 0
ENDMDL
