MODEL 1
REMARK minimizedAffinity 19.911871
REMARK minimizedRMSD -1
REMARK  0 active torsions:
REMARK  status: ('A' for Active; 'I' for Inactive)
ROOT
ATOM      1  C   UNL d   1      -2.046   2.960  -3.696  0.00  0.00     0.124 A 
ATOM      2  C1  UNL d   1      -1.191   2.178  -4.459  0.00  0.00     0.062 A 
ATOM      3  C2  UNL d   1       0.118   2.592  -4.689  0.00  0.00     0.162 A 
ATOM      4  C3  UNL d   1       0.580   3.794  -4.155  0.00  0.00    -0.034 A 
ATOM      5  C4  UNL d   1      -0.287   4.577  -3.389  0.00  0.00     0.162 A 
ATOM      6  C5  UNL d   1      -1.594   4.159  -3.162  0.00  0.00     0.062 A 
ATOM      7  F   UNL d   1      -2.419   4.916  -2.425  0.00  0.00    -0.097 F 
ATOM      8  F1  UNL d   1       0.125   5.739  -2.861  0.00  0.00    -0.096 F 
ATOM      9  I   UNL d   1       2.537   4.417  -4.496  0.00  0.00    -0.060 I 
ATOM     10  F2  UNL d   1       0.923   1.815  -5.430  0.00  0.00    -0.096 F 
ATOM     11  F3  UNL d   1      -1.626   1.020  -4.977  0.00  0.00    -0.097 F 
ATOM     12  F4  UNL d   1      -3.306   2.560  -3.477  0.00  0.00    -0.092 F 
ENDROOT
TORSDOF 0
ENDMDL
