MODEL 1
REMARK minimizedAffinity 31.8104935
REMARK minimizedRMSD -1
REMARK  0 active torsions:
REMARK  status: ('A' for Active; 'I' for Inactive)
ROOT
ATOM      1  C   UNL d   1      -1.761  -4.807  -1.455  0.00  0.00     0.124 A 
ATOM      2  C1  UNL d   1      -0.529  -4.584  -0.855  0.00  0.00     0.062 A 
ATOM      3  C2  UNL d   1      -0.382  -3.570   0.087  0.00  0.00     0.162 A 
ATOM      4  C3  UNL d   1      -1.471  -2.772   0.437  0.00  0.00    -0.034 A 
ATOM      5  C4  UNL d   1      -2.707  -3.001  -0.171  0.00  0.00     0.162 A 
ATOM      6  C5  UNL d   1      -2.848  -4.016  -1.112  0.00  0.00     0.062 A 
ATOM      7  F   UNL d   1      -4.039  -4.230  -1.691  0.00  0.00    -0.097 F 
ATOM      8  F1  UNL d   1      -3.775  -2.252   0.142  0.00  0.00    -0.096 F 
ATOM      9  I   UNL d   1      -1.256  -1.254   1.845  0.00  0.00    -0.060 I 
ATOM     10  F2  UNL d   1       0.820  -3.377   0.650  0.00  0.00    -0.096 F 
ATOM     11  F3  UNL d   1       0.523  -5.347  -1.185  0.00  0.00    -0.097 F 
ATOM     12  F4  UNL d   1      -1.899  -5.783  -2.362  0.00  0.00    -0.092 F 
ENDROOT
TORSDOF 0
ENDMDL
