MODEL 1
REMARK minimizedAffinity 15.1126938
REMARK minimizedRMSD -1
REMARK  0 active torsions:
REMARK  status: ('A' for Active; 'I' for Inactive)
ROOT
ATOM      1  C   UNL d   1      -0.605  -1.349   2.061  0.00  0.00     0.124 A 
ATOM      2  C1  UNL d   1       0.034  -1.052   3.257  0.00  0.00     0.062 A 
ATOM      3  C2  UNL d   1       1.357  -0.618   3.254  0.00  0.00     0.162 A 
ATOM      4  C3  UNL d   1       2.049  -0.478   2.052  0.00  0.00    -0.034 A 
ATOM      5  C4  UNL d   1       1.399  -0.779   0.853  0.00  0.00     0.162 A 
ATOM      6  C5  UNL d   1       0.078  -1.212   0.861  0.00  0.00     0.062 A 
ATOM      7  F   UNL d   1      -0.539  -1.499  -0.295  0.00  0.00    -0.097 F 
ATOM      8  F1  UNL d   1       2.035  -0.655  -0.321  0.00  0.00    -0.096 F 
ATOM      9  I   UNL d   1       4.027   0.171   2.043  0.00  0.00    -0.060 I 
ATOM     10  F2  UNL d   1       1.950  -0.338   4.425  0.00  0.00    -0.096 F 
ATOM     11  F3  UNL d   1      -0.623  -1.184   4.418  0.00  0.00    -0.097 F 
ATOM     12  F4  UNL d   1      -1.877  -1.767   2.067  0.00  0.00    -0.092 F 
ENDROOT
TORSDOF 0
ENDMDL
