MODEL 1
REMARK minimizedAffinity 25.1199722
REMARK minimizedRMSD -1
REMARK  0 active torsions:
REMARK  status: ('A' for Active; 'I' for Inactive)
ROOT
ATOM      1  C   UNL d   1       0.425  -0.419   1.622  0.00  0.00     0.124 A 
ATOM      2  C1  UNL d   1       1.213  -0.307   2.760  0.00  0.00     0.062 A 
ATOM      3  C2  UNL d   1       0.771  -0.829   3.972  0.00  0.00     0.162 A 
ATOM      4  C3  UNL d   1      -0.467  -1.468   4.054  0.00  0.00    -0.034 A 
ATOM      5  C4  UNL d   1      -1.254  -1.576   2.906  0.00  0.00     0.162 A 
ATOM      6  C5  UNL d   1      -0.808  -1.053   1.697  0.00  0.00     0.062 A 
ATOM      7  F   UNL d   1      -1.571  -1.162   0.599  0.00  0.00    -0.097 F 
ATOM      8  F1  UNL d   1      -2.449  -2.185   2.949  0.00  0.00    -0.096 F 
ATOM      9  I   UNL d   1      -1.131  -2.250   5.864  0.00  0.00    -0.060 I 
ATOM     10  F2  UNL d   1       1.553  -0.707   5.054  0.00  0.00    -0.096 F 
ATOM     11  F3  UNL d   1       2.403   0.305   2.691  0.00  0.00    -0.097 F 
ATOM     12  F4  UNL d   1       0.852   0.084   0.458  0.00  0.00    -0.092 F 
ENDROOT
TORSDOF 0
ENDMDL
