MODEL 1
REMARK minimizedAffinity 9.61768532
REMARK minimizedRMSD -1
REMARK  0 active torsions:
REMARK  status: ('A' for Active; 'I' for Inactive)
ROOT
ATOM      1  C   UNL d   1       0.930  -0.231   1.248  0.00  0.00     0.124 A 
ATOM      2  C1  UNL d   1      -0.328  -0.813   1.327  0.00  0.00     0.062 A 
ATOM      3  C2  UNL d   1      -0.775  -1.353   2.529  0.00  0.00     0.162 A 
ATOM      4  C3  UNL d   1       0.036  -1.314   3.663  0.00  0.00    -0.034 A 
ATOM      5  C4  UNL d   1       1.300  -0.728   3.575  0.00  0.00     0.162 A 
ATOM      6  C5  UNL d   1       1.742  -0.189   2.372  0.00  0.00     0.062 A 
ATOM      7  F   UNL d   1       2.958   0.372   2.297  0.00  0.00    -0.097 F 
ATOM      8  F1  UNL d   1       2.106  -0.674   4.646  0.00  0.00    -0.096 F 
ATOM      9  I   UNL d   1      -0.628  -2.122   5.462  0.00  0.00    -0.060 I 
ATOM     10  F2  UNL d   1      -1.995  -1.909   2.576  0.00  0.00    -0.096 F 
ATOM     11  F3  UNL d   1      -1.115  -0.855   0.242  0.00  0.00    -0.097 F 
ATOM     12  F4  UNL d   1       1.357   0.288   0.089  0.00  0.00    -0.092 F 
ENDROOT
TORSDOF 0
ENDMDL
