MODEL 1
REMARK minimizedAffinity 1.34153807
REMARK minimizedRMSD -1
REMARK  0 active torsions:
REMARK  status: ('A' for Active; 'I' for Inactive)
ROOT
ATOM      1  C   UNL d   1      -6.000   4.465  -5.545  0.00  0.00     0.172 C 
ATOM      2  N   UNL d   1      -5.302   4.006  -4.367  0.00  0.00    -0.070 N 
ATOM      3  C1  UNL d   1      -5.876   3.734  -3.154  0.00  0.00    -0.004 A 
ATOM      4  C2  UNL d   1      -4.878   3.323  -2.297  0.00  0.00    -0.047 A 
ATOM      5  C3  UNL d   1      -3.662   3.351  -3.019  0.00  0.00    -0.047 A 
ATOM      6  C4  UNL d   1      -3.953   3.777  -4.298  0.00  0.00    -0.004 A 
ENDROOT
TORSDOF 0
ENDMDL
