MODEL 1
REMARK minimizedAffinity -0.784996629
REMARK minimizedRMSD -1
REMARK  0 active torsions:
REMARK  status: ('A' for Active; 'I' for Inactive)
ROOT
ATOM      1  C   UNL d   1      -5.991   3.122  -2.647  0.00  0.00     0.172 C 
ATOM      2  N   UNL d   1      -5.448   3.806  -3.797  0.00  0.00    -0.070 N 
ATOM      3  C1  UNL d   1      -5.999   3.822  -5.050  0.00  0.00    -0.004 A 
ATOM      4  C2  UNL d   1      -5.183   4.581  -5.861  0.00  0.00    -0.047 A 
ATOM      5  C3  UNL d   1      -4.103   5.036  -5.067  0.00  0.00    -0.047 A 
ATOM      6  C4  UNL d   1      -4.292   4.541  -3.794  0.00  0.00    -0.004 A 
ENDROOT
TORSDOF 0
ENDMDL
