MODEL 1
REMARK minimizedAffinity -1.82720709
REMARK minimizedRMSD -1
REMARK  0 active torsions:
REMARK  status: ('A' for Active; 'I' for Inactive)
ROOT
ATOM      1  C   UNL d   1      -6.000   4.122  -5.564  0.00  0.00     0.172 C 
ATOM      2  N   UNL d   1      -5.997   3.952  -4.130  0.00  0.00    -0.070 N 
ATOM      3  C1  UNL d   1      -5.992   2.753  -3.468  0.00  0.00    -0.004 A 
ATOM      4  C2  UNL d   1      -5.990   3.017  -2.116  0.00  0.00    -0.047 A 
ATOM      5  C3  UNL d   1      -5.995   4.424  -1.959  0.00  0.00    -0.047 A 
ATOM      6  C4  UNL d   1      -6.000   4.977  -3.222  0.00  0.00    -0.004 A 
ENDROOT
TORSDOF 0
ENDMDL
