MODEL 1
REMARK minimizedAffinity -3.08439708
REMARK minimizedRMSD -1
REMARK  0 active torsions:
REMARK  status: ('A' for Active; 'I' for Inactive)
ROOT
ATOM      1  C   UNL d   1      -5.420   4.279  -5.863  0.00  0.00     0.172 C 
ATOM      2  N   UNL d   1      -5.295   3.956  -4.461  0.00  0.00    -0.070 N 
ATOM      3  C1  UNL d   1      -4.464   3.006  -3.932  0.00  0.00    -0.004 A 
ATOM      4  C2  UNL d   1      -4.640   3.005  -2.565  0.00  0.00    -0.047 A 
ATOM      5  C3  UNL d   1      -5.611   3.989  -2.263  0.00  0.00    -0.047 A 
ATOM      6  C4  UNL d   1      -6.000   4.562  -3.455  0.00  0.00    -0.004 A 
ENDROOT
TORSDOF 0
ENDMDL
