MODEL 1
REMARK minimizedAffinity -3.14943838
REMARK minimizedRMSD -1
REMARK  0 active torsions:
REMARK  status: ('A' for Active; 'I' for Inactive)
ROOT
ATOM      1  C   UNL d   1      -5.817   3.797  -5.463  0.00  0.00     0.172 C 
ATOM      2  N   UNL d   1      -5.352   3.614  -4.108  0.00  0.00    -0.070 N 
ATOM      3  C1  UNL d   1      -4.209   2.957  -3.737  0.00  0.00    -0.004 A 
ATOM      4  C2  UNL d   1      -4.123   3.002  -2.362  0.00  0.00    -0.047 A 
ATOM      5  C3  UNL d   1      -5.254   3.710  -1.890  0.00  0.00    -0.047 A 
ATOM      6  C4  UNL d   1      -5.998   4.077  -2.992  0.00  0.00    -0.004 A 
ENDROOT
TORSDOF 0
ENDMDL
