MODEL 1
REMARK minimizedAffinity -2.60875797
REMARK minimizedRMSD -1
REMARK  0 active torsions:
REMARK  status: ('A' for Active; 'I' for Inactive)
ROOT
ATOM      1  C   UNL d   1       0.439  -0.215  -1.434  0.00  0.00     0.172 C 
ATOM      2  N   UNL d   1       0.244  -1.608  -1.761  0.00  0.00    -0.070 N 
ATOM      3  C1  UNL d   1      -0.161  -2.094  -2.975  0.00  0.00    -0.004 A 
ATOM      4  C2  UNL d   1      -0.224  -3.468  -2.880  0.00  0.00    -0.047 A 
ATOM      5  C3  UNL d   1       0.155  -3.819  -1.562  0.00  0.00    -0.047 A 
ATOM      6  C4  UNL d   1       0.439  -2.648  -0.891  0.00  0.00    -0.004 A 
ENDROOT
TORSDOF 0
ENDMDL
