MODEL 1
REMARK minimizedAffinity -3.00780749
REMARK minimizedRMSD -1
REMARK  0 active torsions:
REMARK  status: ('A' for Active; 'I' for Inactive)
ROOT
ATOM      1  C   UNL d   1      -5.956   1.237  -5.260  0.00  0.00     0.172 C 
ATOM      2  N   UNL d   1      -5.640   2.132  -4.172  0.00  0.00    -0.070 N 
ATOM      3  C1  UNL d   1      -4.940   3.305  -4.280  0.00  0.00    -0.004 A 
ATOM      4  C2  UNL d   1      -4.852   3.861  -3.023  0.00  0.00    -0.047 A 
ATOM      5  C3  UNL d   1      -5.522   2.994  -2.127  0.00  0.00    -0.047 A 
ATOM      6  C4  UNL d   1      -5.999   1.931  -2.865  0.00  0.00    -0.004 A 
ENDROOT
TORSDOF 0
ENDMDL
