MODEL 1
REMARK minimizedAffinity 0.280131876
REMARK minimizedRMSD -1
REMARK  1 active torsions:
REMARK  status: ('A' for Active; 'I' for Inactive)
REMARK    1  A    between atoms: C1_2  and  C2_3 
ROOT
ATOM      1  C2  UNL d   1       0.149   0.420  -0.939  0.00  0.00    -0.081 A 
ATOM      2  C3  UNL d   1       1.158   0.558   0.022  0.00  0.00     0.006 A 
ATOM      3  C4  UNL d   1       1.291   1.747   0.744  0.00  0.00     0.002 A 
ATOM      4  C5  UNL d   1       0.413   2.813   0.523  0.00  0.00    -0.080 A 
ATOM      5  C6  UNL d   1       0.527   4.084   1.312  0.00  0.00     0.076 C 
ATOM      6  C7  UNL d   1      -0.584   2.682  -0.449  0.00  0.00     0.002 A 
ATOM      7  C8  UNL d   1      -0.717   1.494  -1.171  0.00  0.00     0.006 A 
ENDROOT
BRANCH   1   8
ATOM      8  C1  UNL d   1      -0.038  -0.883  -1.672  0.00  0.00     0.054 C 
ATOM      9  C   UNL d   1      -1.478  -1.367  -1.583  0.00  0.00     0.018 C 
ENDBRANCH   1   8
TORSDOF 1
ENDMDL
