MODEL 1
REMARK minimizedAffinity -2.99641347
REMARK minimizedRMSD -1
REMARK  1 active torsions:
REMARK  status: ('A' for Active; 'I' for Inactive)
REMARK    1  A    between atoms: C1_2  and  C2_3 
ROOT
ATOM      1  C2  UNL d   1       2.151   3.695   4.702  0.00  0.00    -0.081 A 
ATOM      2  C3  UNL d   1       2.703   4.082   5.929  0.00  0.00     0.006 A 
ATOM      3  C4  UNL d   1       3.902   4.797   5.972  0.00  0.00     0.002 A 
ATOM      4  C5  UNL d   1       4.565   5.143   4.790  0.00  0.00    -0.080 A 
ATOM      5  C6  UNL d   1       5.837   5.937   4.821  0.00  0.00     0.076 C 
ATOM      6  C7  UNL d   1       4.023   4.741   3.564  0.00  0.00     0.002 A 
ATOM      7  C8  UNL d   1       2.824   4.026   3.520  0.00  0.00     0.006 A 
ENDROOT
BRANCH   1   8
ATOM      8  C1  UNL d   1       0.825   2.980   4.649  0.00  0.00     0.054 C 
ATOM      9  C   UNL d   1       0.864   1.681   5.442  0.00  0.00     0.018 C 
ENDBRANCH   1   8
TORSDOF 1
ENDMDL
