MODEL 1
REMARK minimizedAffinity 1.05476451
REMARK minimizedRMSD -1
REMARK  1 active torsions:
REMARK  status: ('A' for Active; 'I' for Inactive)
REMARK    1  A    between atoms: C1_2  and  C2_3 
ROOT
ATOM      1  C2  UNL d   1       2.588   4.330   3.606  0.00  0.00    -0.081 A 
ATOM      2  C3  UNL d   1       3.866   3.759   3.576  0.00  0.00     0.006 A 
ATOM      3  C4  UNL d   1       4.903   4.301   4.340  0.00  0.00     0.002 A 
ATOM      4  C5  UNL d   1       4.676   5.418   5.152  0.00  0.00    -0.080 A 
ATOM      5  C6  UNL d   1       5.772   5.992   6.000  0.00  0.00     0.076 C 
ATOM      6  C7  UNL d   1       3.404   6.000   5.168  0.00  0.00     0.002 A 
ATOM      7  C8  UNL d   1       2.368   5.458   4.404  0.00  0.00     0.006 A 
ENDROOT
BRANCH   1   8
ATOM      8  C1  UNL d   1       1.453   3.709   2.833  0.00  0.00     0.054 C 
ATOM      9  C   UNL d   1       1.224   2.264   3.252  0.00  0.00     0.018 C 
ENDBRANCH   1   8
TORSDOF 1
ENDMDL
