MODEL 1
REMARK minimizedAffinity 6.10143948
REMARK minimizedRMSD -1
REMARK  1 active torsions:
REMARK  status: ('A' for Active; 'I' for Inactive)
REMARK    1  A    between atoms: C1_2  and  C2_3 
ROOT
ATOM      1  C2  UNL d   1      -0.010   3.169   0.638  0.00  0.00    -0.081 A 
ATOM      2  C3  UNL d   1       1.122   3.105   1.460  0.00  0.00     0.006 A 
ATOM      3  C4  UNL d   1       2.195   2.276   1.124  0.00  0.00     0.002 A 
ATOM      4  C5  UNL d   1       2.158   1.504  -0.042  0.00  0.00    -0.080 A 
ATOM      5  C6  UNL d   1       3.316   0.633  -0.430  0.00  0.00     0.076 C 
ATOM      6  C7  UNL d   1       1.020   1.555  -0.854  0.00  0.00     0.002 A 
ATOM      7  C8  UNL d   1      -0.054   2.383  -0.518  0.00  0.00     0.006 A 
ENDROOT
BRANCH   1   8
ATOM      8  C1  UNL d   1      -1.141   4.111   0.964  0.00  0.00     0.054 C 
ATOM      9  C   UNL d   1      -2.333   3.881   0.046  0.00  0.00     0.018 C 
ENDBRANCH   1   8
TORSDOF 1
ENDMDL
