MODEL 1
REMARK minimizedAffinity 4.25227404
REMARK minimizedRMSD -1
REMARK  1 active torsions:
REMARK  status: ('A' for Active; 'I' for Inactive)
REMARK    1  A    between atoms: C1_2  and  C2_3 
ROOT
ATOM      1  C2  UNL d   1      -1.833   0.672  -1.266  0.00  0.00    -0.081 A 
ATOM      2  C3  UNL d   1      -2.859   1.323  -0.570  0.00  0.00     0.006 A 
ATOM      3  C4  UNL d   1      -2.573   2.413   0.255  0.00  0.00     0.002 A 
ATOM      4  C5  UNL d   1      -1.259   2.875   0.392  0.00  0.00    -0.080 A 
ATOM      5  C6  UNL d   1      -0.943   4.063   1.251  0.00  0.00     0.076 C 
ATOM      6  C7  UNL d   1      -0.233   2.213  -0.290  0.00  0.00     0.002 A 
ATOM      7  C8  UNL d   1      -0.518   1.123  -1.115  0.00  0.00     0.006 A 
ENDROOT
BRANCH   1   8
ATOM      8  C1  UNL d   1      -2.147  -0.463  -2.207  0.00  0.00     0.054 C 
ATOM      9  C   UNL d   1      -1.580  -1.780  -1.695  0.00  0.00     0.018 C 
ENDBRANCH   1   8
TORSDOF 1
ENDMDL
