MODEL 1
REMARK minimizedAffinity 6.14218378
REMARK minimizedRMSD -1
REMARK  1 active torsions:
REMARK  status: ('A' for Active; 'I' for Inactive)
REMARK    1  A    between atoms: C1_2  and  C2_3 
ROOT
ATOM      1  C2  UNL d   1       1.029   1.346  -0.495  0.00  0.00    -0.081 A 
ATOM      2  C3  UNL d   1       0.692   2.470   0.269  0.00  0.00     0.006 A 
ATOM      3  C4  UNL d   1      -0.625   2.934   0.304  0.00  0.00     0.002 A 
ATOM      4  C5  UNL d   1      -1.628   2.278  -0.417  0.00  0.00    -0.080 A 
ATOM      5  C6  UNL d   1      -3.051   2.747  -0.364  0.00  0.00     0.076 C 
ATOM      6  C7  UNL d   1      -1.289   1.165  -1.194  0.00  0.00     0.002 A 
ATOM      7  C8  UNL d   1       0.028   0.701  -1.231  0.00  0.00     0.006 A 
ENDROOT
BRANCH   1   8
ATOM      8  C1  UNL d   1       2.436   0.805  -0.484  0.00  0.00     0.054 C 
ATOM      9  C   UNL d   1       3.001   0.703  -1.893  0.00  0.00     0.018 C 
ENDBRANCH   1   8
TORSDOF 1
ENDMDL
