MODEL 1
REMARK minimizedAffinity 5.19552612
REMARK minimizedRMSD -1
REMARK  1 active torsions:
REMARK  status: ('A' for Active; 'I' for Inactive)
REMARK    1  A    between atoms: C1_2  and  C2_3 
ROOT
ATOM      1  C2  UNL d   1       0.777   0.797  -0.993  0.00  0.00    -0.081 A 
ATOM      2  C3  UNL d   1       0.370   1.939  -0.294  0.00  0.00     0.006 A 
ATOM      3  C4  UNL d   1      -0.969   2.338  -0.305  0.00  0.00     0.002 A 
ATOM      4  C5  UNL d   1      -1.924   1.596  -1.009  0.00  0.00    -0.080 A 
ATOM      5  C6  UNL d   1      -3.370   1.995  -1.004  0.00  0.00     0.076 C 
ATOM      6  C7  UNL d   1      -1.515   0.464  -1.722  0.00  0.00     0.002 A 
ATOM      7  C8  UNL d   1      -0.176   0.066  -1.712  0.00  0.00     0.006 A 
ENDROOT
BRANCH   1   8
ATOM      8  C1  UNL d   1       2.208   0.328  -0.930  0.00  0.00     0.054 C 
ATOM      9  C   UNL d   1       2.984   0.752  -2.169  0.00  0.00     0.018 C 
ENDBRANCH   1   8
TORSDOF 1
ENDMDL
