MODEL 1
REMARK minimizedAffinity -5.88542271
REMARK minimizedRMSD -1
REMARK  1 active torsions:
REMARK  status: ('A' for Active; 'I' for Inactive)
REMARK    1  A    between atoms: C1_2  and  C2_3 
ROOT
ATOM      1  C2  UNL d   1      -0.320   0.004   0.864  0.00  0.00    -0.077 A 
ATOM      2  C3  UNL d   1      -1.643   0.251   0.471  0.00  0.00     0.002 A 
ATOM      3  C4  UNL d   1      -2.644   0.424   1.429  0.00  0.00     0.002 A 
ATOM      4  C5  UNL d   1      -2.332   0.356   2.785  0.00  0.00    -0.004 A 
ATOM      5  C6  UNL d   1      -1.019   0.110   3.186  0.00  0.00     0.002 A 
ATOM      6  C7  UNL d   1      -0.018  -0.064   2.230  0.00  0.00     0.002 A 
ENDROOT
BRANCH   1   7
ATOM      7  C1  UNL d   1       0.769  -0.133  -0.167  0.00  0.00     0.055 C 
ATOM      8  C   UNL d   1       0.414   0.605  -1.450  0.00  0.00     0.019 C 
ENDBRANCH   1   7
TORSDOF 1
ENDMDL
