MODEL 1
REMARK minimizedAffinity -4.71461964
REMARK minimizedRMSD -1
REMARK  1 active torsions:
REMARK  status: ('A' for Active; 'I' for Inactive)
REMARK    1  A    between atoms: C1_2  and  C2_3 
ROOT
ATOM      1  C2  UNL d   1      -0.172   0.167   0.077  0.00  0.00    -0.077 A 
ATOM      2  C3  UNL d   1       1.181   0.187   0.444  0.00  0.00     0.002 A 
ATOM      3  C4  UNL d   1       1.555  -0.015   1.774  0.00  0.00     0.002 A 
ATOM      4  C5  UNL d   1       0.583  -0.243   2.745  0.00  0.00    -0.004 A 
ATOM      5  C6  UNL d   1      -0.765  -0.263   2.391  0.00  0.00     0.002 A 
ATOM      6  C7  UNL d   1      -1.141  -0.059   1.062  0.00  0.00     0.002 A 
ENDROOT
BRANCH   1   7
ATOM      7  C1  UNL d   1      -0.574   0.337  -1.365  0.00  0.00     0.055 C 
ATOM      8  C   UNL d   1       0.534  -0.113  -2.306  0.00  0.00     0.019 C 
ENDBRANCH   1   7
TORSDOF 1
ENDMDL
