MODEL 1
REMARK minimizedAffinity 0.275580257
REMARK minimizedRMSD -1
REMARK  1 active torsions:
REMARK  status: ('A' for Active; 'I' for Inactive)
REMARK    1  A    between atoms: C1_2  and  C2_3 
ROOT
ATOM      1  C2  UNL d   1      -0.085   0.300  -0.523  0.00  0.00    -0.077 A 
ATOM      2  C3  UNL d   1      -0.991  -0.134  -1.501  0.00  0.00     0.002 A 
ATOM      3  C4  UNL d   1      -2.161  -0.800  -1.134  0.00  0.00     0.002 A 
ATOM      4  C5  UNL d   1      -2.439  -1.034   0.211  0.00  0.00    -0.004 A 
ATOM      5  C6  UNL d   1      -1.543  -0.609   1.192  0.00  0.00     0.002 A 
ATOM      6  C7  UNL d   1      -0.372   0.056   0.826  0.00  0.00     0.002 A 
ENDROOT
BRANCH   1   7
ATOM      7  C1  UNL d   1       1.154   1.062  -0.914  0.00  0.00     0.055 C 
ATOM      8  C   UNL d   1       1.986   1.430   0.306  0.00  0.00     0.019 C 
ENDBRANCH   1   7
TORSDOF 1
ENDMDL
