MODEL 1
REMARK minimizedAffinity -4.45922279
REMARK minimizedRMSD -1
REMARK  1 active torsions:
REMARK  status: ('A' for Active; 'I' for Inactive)
REMARK    1  A    between atoms: C1_2  and  C2_3 
ROOT
ATOM      1  C2  UNL d   1       0.356  -0.079   0.819  0.00  0.00    -0.077 A 
ATOM      2  C3  UNL d   1      -0.331  -1.102   1.488  0.00  0.00     0.002 A 
ATOM      3  C4  UNL d   1      -0.454  -1.078   2.878  0.00  0.00     0.002 A 
ATOM      4  C5  UNL d   1       0.102  -0.032   3.611  0.00  0.00    -0.004 A 
ATOM      5  C6  UNL d   1       0.789   0.989   2.955  0.00  0.00     0.002 A 
ATOM      6  C7  UNL d   1       0.915   0.966   1.565  0.00  0.00     0.002 A 
ENDROOT
BRANCH   1   7
ATOM      7  C1  UNL d   1       0.448  -0.078  -0.685  0.00  0.00     0.055 C 
ATOM      8  C   UNL d   1      -0.432   1.006  -1.292  0.00  0.00     0.019 C 
ENDBRANCH   1   7
TORSDOF 1
ENDMDL
