MODEL 1
REMARK minimizedAffinity -6.04213667
REMARK minimizedRMSD -1
REMARK  1 active torsions:
REMARK  status: ('A' for Active; 'I' for Inactive)
REMARK    1  A    between atoms: C1_2  and  C2_3 
ROOT
ATOM      1  C2  UNL d   1       0.303  -0.128   0.423  0.00  0.00    -0.077 A 
ATOM      2  C3  UNL d   1      -0.807  -0.462   1.211  0.00  0.00     0.002 A 
ATOM      3  C4  UNL d   1      -0.661  -0.673   2.584  0.00  0.00     0.002 A 
ATOM      4  C5  UNL d   1       0.592  -0.548   3.180  0.00  0.00    -0.004 A 
ATOM      5  C6  UNL d   1       1.703  -0.218   2.404  0.00  0.00     0.002 A 
ATOM      6  C7  UNL d   1       1.558  -0.008   1.032  0.00  0.00     0.002 A 
ENDROOT
BRANCH   1   7
ATOM      7  C1  UNL d   1       0.138   0.148  -1.049  0.00  0.00     0.055 C 
ATOM      8  C   UNL d   1       0.689  -0.994  -1.891  0.00  0.00     0.019 C 
ENDBRANCH   1   7
TORSDOF 1
ENDMDL
