MODEL 1
REMARK minimizedAffinity -4.24749517
REMARK minimizedRMSD -1
REMARK  1 active torsions:
REMARK  status: ('A' for Active; 'I' for Inactive)
REMARK    1  A    between atoms: C1_2  and  C2_3 
ROOT
ATOM      1  C2  UNL d   1      -0.735   0.170   0.669  0.00  0.00    -0.077 A 
ATOM      2  C3  UNL d   1      -0.536  -0.370   1.947  0.00  0.00     0.002 A 
ATOM      3  C4  UNL d   1       0.582  -0.006   2.700  0.00  0.00     0.002 A 
ATOM      4  C5  UNL d   1       1.505   0.902   2.187  0.00  0.00    -0.004 A 
ATOM      5  C6  UNL d   1       1.317   1.443   0.916  0.00  0.00     0.002 A 
ATOM      6  C7  UNL d   1       0.201   1.080   0.160  0.00  0.00     0.002 A 
ENDROOT
BRANCH   1   7
ATOM      7  C1  UNL d   1      -1.966  -0.183  -0.126  0.00  0.00     0.055 C 
ATOM      8  C   UNL d   1      -2.765   1.059  -0.491  0.00  0.00     0.019 C 
ENDBRANCH   1   7
TORSDOF 1
ENDMDL
