MODEL 1
REMARK minimizedAffinity -5.36712313
REMARK minimizedRMSD -1
REMARK  1 active torsions:
REMARK  status: ('A' for Active; 'I' for Inactive)
REMARK    1  A    between atoms: C1_2  and  C2_3 
ROOT
ATOM      1  C2  UNL d   1      -0.552  -0.261   1.016  0.00  0.00    -0.077 A 
ATOM      2  C3  UNL d   1      -0.185  -0.217   2.368  0.00  0.00     0.002 A 
ATOM      3  C4  UNL d   1       1.061   0.290   2.745  0.00  0.00     0.002 A 
ATOM      4  C5  UNL d   1       1.946   0.759   1.776  0.00  0.00    -0.004 A 
ATOM      5  C6  UNL d   1       1.590   0.716   0.429  0.00  0.00     0.002 A 
ATOM      6  C7  UNL d   1       0.346   0.210   0.050  0.00  0.00     0.002 A 
ENDROOT
BRANCH   1   7
ATOM      7  C1  UNL d   1      -1.915  -0.761   0.612  0.00  0.00     0.055 C 
ATOM      8  C   UNL d   1      -2.553   0.150  -0.426  0.00  0.00     0.019 C 
ENDBRANCH   1   7
TORSDOF 1
ENDMDL
