MODEL 1
REMARK minimizedAffinity -5.56270933
REMARK minimizedRMSD -1
REMARK  1 active torsions:
REMARK  status: ('A' for Active; 'I' for Inactive)
REMARK    1  A    between atoms: C1_2  and  C2_3 
ROOT
ATOM      1  C2  UNL d   1       0.085   0.046   0.114  0.00  0.00    -0.077 A 
ATOM      2  C3  UNL d   1      -1.019  -0.680   0.584  0.00  0.00     0.002 A 
ATOM      3  C4  UNL d   1      -1.179  -0.916   1.950  0.00  0.00     0.002 A 
ATOM      4  C5  UNL d   1      -0.242  -0.428   2.858  0.00  0.00    -0.004 A 
ATOM      5  C6  UNL d   1       0.860   0.293   2.401  0.00  0.00     0.002 A 
ATOM      6  C7  UNL d   1       1.022   0.530   1.036  0.00  0.00     0.002 A 
ENDROOT
BRANCH   1   7
ATOM      7  C1  UNL d   1       0.233   0.345  -1.355  0.00  0.00     0.055 C 
ATOM      8  C   UNL d   1       0.469  -0.926  -2.157  0.00  0.00     0.019 C 
ENDBRANCH   1   7
TORSDOF 1
ENDMDL
