MODEL 1
REMARK minimizedAffinity -4.28117609
REMARK minimizedRMSD -1
REMARK  1 active torsions:
REMARK  status: ('A' for Active; 'I' for Inactive)
REMARK    1  A    between atoms: C1_2  and  C2_3 
ROOT
ATOM      1  C2  UNL d   1      -0.161  -0.148  -1.245  0.00  0.00    -0.077 A 
ATOM      2  C3  UNL d   1       0.525  -0.481  -0.069  0.00  0.00     0.002 A 
ATOM      3  C4  UNL d   1      -0.161  -0.596   1.141  0.00  0.00     0.002 A 
ATOM      4  C5  UNL d   1      -1.537  -0.384   1.187  0.00  0.00    -0.004 A 
ATOM      5  C6  UNL d   1      -2.229  -0.050   0.023  0.00  0.00     0.002 A 
ATOM      6  C7  UNL d   1      -1.544   0.066  -1.187  0.00  0.00     0.002 A 
ENDROOT
BRANCH   1   7
ATOM      7  C1  UNL d   1       0.569  -0.072  -2.560  0.00  0.00     0.055 C 
ATOM      8  C   UNL d   1       0.446  -1.374  -3.338  0.00  0.00     0.019 C 
ENDBRANCH   1   7
TORSDOF 1
ENDMDL
