MODEL 1
REMARK minimizedAffinity -1.19413364
REMARK minimizedRMSD -1
REMARK  0 active torsions:
REMARK  status: ('A' for Active; 'I' for Inactive)
ROOT
ATOM      1  O1  BZF d   1      -2.038  -0.500  -0.003  0.00  0.00    -0.204 OA
ATOM      2  C2  BZF d   1      -2.295   0.007   1.256  0.00  0.00     0.174 A 
ATOM      3  C3  BZF d   1      -1.177   0.004   2.010  0.00  0.00    -0.012 A 
ATOM      4  C3A BZF d   1      -0.137  -0.453   1.140  0.00  0.00    -0.107 A 
ATOM      5  C4  BZF d   1       1.204  -0.654   1.304  0.00  0.00     0.055 A 
ATOM      6  C5  BZF d   1       1.924  -1.177   0.277  0.00  0.00    -0.016 A 
ATOM      7  C6  BZF d   1       1.335  -1.515  -0.924  0.00  0.00     0.022 A 
ATOM      8  C7  BZF d   1       0.010  -1.329  -1.136  0.00  0.00     0.029 A 
ATOM      9  C7A BZF d   1      -0.714  -0.769  -0.111  0.00  0.00     0.058 A 
ENDROOT
TORSDOF 0
ENDMDL
