MODEL 1
REMARK minimizedAffinity 8.85007
REMARK minimizedRMSD -1
REMARK  0 active torsions:
REMARK  status: ('A' for Active; 'I' for Inactive)
ROOT
ATOM      1  O1  BZF d   1       0.086  -0.310   1.400  0.00  0.00    -0.204 OA
ATOM      2  C2  BZF d   1       0.037   0.445   2.556  0.00  0.00     0.174 A 
ATOM      3  C3  BZF d   1       1.130   1.229   2.662  0.00  0.00    -0.012 A 
ATOM      4  C3A BZF d   1       1.865   1.014   1.453  0.00  0.00    -0.107 A 
ATOM      5  C4  BZF d   1       3.033   1.523   0.962  0.00  0.00     0.055 A 
ATOM      6  C5  BZF d   1       3.515   1.051  -0.218  0.00  0.00    -0.016 A 
ATOM      7  C6  BZF d   1       2.857   0.069  -0.930  0.00  0.00     0.022 A 
ATOM      8  C7  BZF d   1       1.692  -0.462  -0.485  0.00  0.00     0.029 A 
ATOM      9  C7A BZF d   1       1.186   0.036   0.690  0.00  0.00     0.058 A 
ENDROOT
TORSDOF 0
ENDMDL
