MODEL 1
REMARK minimizedAffinity 11.1857471
REMARK minimizedRMSD -1
REMARK  0 active torsions:
REMARK  status: ('A' for Active; 'I' for Inactive)
ROOT
ATOM      1  O1  BZF d   1       1.284  -0.578  -0.239  0.00  0.00    -0.204 OA
ATOM      2  C2  BZF d   1       1.979  -0.063   0.838  0.00  0.00     0.174 A 
ATOM      3  C3  BZF d   1       1.145   0.568   1.689  0.00  0.00    -0.012 A 
ATOM      4  C3A BZF d   1      -0.166   0.360   1.154  0.00  0.00    -0.107 A 
ATOM      5  C4  BZF d   1      -1.416   0.731   1.560  0.00  0.00     0.055 A 
ATOM      6  C5  BZF d   1      -2.482   0.430   0.773  0.00  0.00    -0.016 A 
ATOM      7  C6  BZF d   1      -2.335  -0.234  -0.427  0.00  0.00     0.022 A 
ATOM      8  C7  BZF d   1      -1.116  -0.627  -0.869  0.00  0.00     0.029 A 
ATOM      9  C7A BZF d   1      -0.040  -0.354  -0.060  0.00  0.00     0.058 A 
ENDROOT
TORSDOF 0
ENDMDL
