MODEL 1
REMARK minimizedAffinity 11.4319124
REMARK minimizedRMSD -1
REMARK  0 active torsions:
REMARK  status: ('A' for Active; 'I' for Inactive)
ROOT
ATOM      1  O1  BZF d   1      -1.279   1.268   1.358  0.00  0.00    -0.204 OA
ATOM      2  C2  BZF d   1       0.053   0.906   1.308  0.00  0.00     0.174 A 
ATOM      3  C3  BZF d   1       0.228  -0.167   0.509  0.00  0.00    -0.012 A 
ATOM      4  C3A BZF d   1      -1.063  -0.439  -0.043  0.00  0.00    -0.107 A 
ATOM      5  C4  BZF d   1      -1.530  -1.375  -0.921  0.00  0.00     0.055 A 
ATOM      6  C5  BZF d   1      -2.860  -1.416  -1.198  0.00  0.00    -0.016 A 
ATOM      7  C6  BZF d   1      -3.751  -0.540  -0.611  0.00  0.00     0.022 A 
ATOM      8  C7  BZF d   1      -3.334   0.408   0.262  0.00  0.00     0.029 A 
ATOM      9  C7A BZF d   1      -1.986   0.473   0.518  0.00  0.00     0.058 A 
ENDROOT
TORSDOF 0
ENDMDL
