MODEL 1
REMARK minimizedAffinity 1.59245527
REMARK minimizedRMSD -1
REMARK  0 active torsions:
REMARK  status: ('A' for Active; 'I' for Inactive)
ROOT
ATOM      1  O1  BZF d   1      -2.368   1.056   2.846  0.00  0.00    -0.204 OA
ATOM      2  C2  BZF d   1      -2.641  -0.258   2.520  0.00  0.00     0.174 A 
ATOM      3  C3  BZF d   1      -1.512  -0.909   2.170  0.00  0.00    -0.012 A 
ATOM      4  C3A BZF d   1      -0.456   0.034   2.374  0.00  0.00    -0.107 A 
ATOM      5  C4  BZF d   1       0.900  -0.026   2.217  0.00  0.00     0.055 A 
ATOM      6  C5  BZF d   1       1.639   1.094   2.433  0.00  0.00    -0.016 A 
ATOM      7  C6  BZF d   1       1.057   2.289   2.800  0.00  0.00     0.022 A 
ATOM      8  C7  BZF d   1      -0.283   2.396   2.973  0.00  0.00     0.029 A 
ATOM      9  C7A BZF d   1      -1.030   1.259   2.788  0.00  0.00     0.058 A 
ENDROOT
TORSDOF 0
ENDMDL
