MODEL 1
REMARK minimizedAffinity 11.1509819
REMARK minimizedRMSD -1
REMARK  0 active torsions:
REMARK  status: ('A' for Active; 'I' for Inactive)
ROOT
ATOM      1  O1  BZF d   1       3.338   1.501  -1.113  0.00  0.00    -0.204 OA
ATOM      2  C2  BZF d   1       4.255   2.072  -0.251  0.00  0.00     0.174 A 
ATOM      3  C3  BZF d   1       3.944   1.794   1.031  0.00  0.00    -0.012 A 
ATOM      4  C3A BZF d   1       2.811   0.922   0.963  0.00  0.00    -0.107 A 
ATOM      5  C4  BZF d   1       2.054   0.292   1.909  0.00  0.00     0.055 A 
ATOM      6  C5  BZF d   1       0.972  -0.430   1.515  0.00  0.00    -0.016 A 
ATOM      7  C6  BZF d   1       0.616  -0.539   0.186  0.00  0.00     0.022 A 
ATOM      8  C7  BZF d   1       1.340   0.065  -0.788  0.00  0.00     0.029 A 
ATOM      9  C7A BZF d   1       2.452   0.768  -0.396  0.00  0.00     0.058 A 
ENDROOT
TORSDOF 0
ENDMDL
