MODEL 1
REMARK minimizedAffinity 11.0966024
REMARK minimizedRMSD -1
REMARK  0 active torsions:
REMARK  status: ('A' for Active; 'I' for Inactive)
ROOT
ATOM      1  O1  BZF d   1      -1.375  -1.634  -0.329  0.00  0.00    -0.204 OA
ATOM      2  C2  BZF d   1      -2.568  -0.937  -0.319  0.00  0.00     0.174 A 
ATOM      3  C3  BZF d   1      -2.448   0.206   0.387  0.00  0.00    -0.012 A 
ATOM      4  C3A BZF d   1      -1.071   0.270   0.769  0.00  0.00    -0.107 A 
ATOM      5  C4  BZF d   1      -0.333   1.178   1.474  0.00  0.00     0.055 A 
ATOM      6  C5  BZF d   1       0.973   0.908   1.735  0.00  0.00    -0.016 A 
ATOM      7  C6  BZF d   1       1.571  -0.261   1.312  0.00  0.00     0.022 A 
ATOM      8  C7  BZF d   1       0.881  -1.190   0.606  0.00  0.00     0.029 A 
ATOM      9  C7A BZF d   1      -0.430  -0.905   0.312  0.00  0.00     0.058 A 
ENDROOT
TORSDOF 0
ENDMDL
