MODEL 1
REMARK minimizedAffinity 8.23680305
REMARK minimizedRMSD -1
REMARK  0 active torsions:
REMARK  status: ('A' for Active; 'I' for Inactive)
ROOT
ATOM      1  O1  BZF d   1       0.003  -2.009  -6.000  0.00  0.00    -0.204 OA
ATOM      2  C2  BZF d   1      -1.378  -2.038  -5.969  0.00  0.00     0.174 A 
ATOM      3  C3  BZF d   1      -1.855  -1.138  -5.085  0.00  0.00    -0.012 A 
ATOM      4  C3A BZF d   1      -0.704  -0.443  -4.597  0.00  0.00    -0.107 A 
ATOM      5  C4  BZF d   1      -0.530   0.578  -3.706  0.00  0.00     0.055 A 
ATOM      6  C5  BZF d   1       0.731   0.976  -3.394  0.00  0.00    -0.016 A 
ATOM      7  C6  BZF d   1       1.841   0.373  -3.950  0.00  0.00     0.022 A 
ATOM      8  C7  BZF d   1       1.719  -0.640  -4.842  0.00  0.00     0.029 A 
ATOM      9  C7A BZF d   1       0.445  -1.022  -5.184  0.00  0.00     0.058 A 
ENDROOT
TORSDOF 0
ENDMDL
