MODEL 1
REMARK minimizedAffinity 6.32393312
REMARK minimizedRMSD -1
REMARK  0 active torsions:
REMARK  status: ('A' for Active; 'I' for Inactive)
ROOT
ATOM      1  O1  BZF d   1       1.615  -0.912  -0.008  0.00  0.00    -0.204 OA
ATOM      2  C2  BZF d   1       2.170  -0.248   1.068  0.00  0.00     0.174 A 
ATOM      3  C3  BZF d   1       1.228   0.446   1.739  0.00  0.00    -0.012 A 
ATOM      4  C3A BZF d   1      -0.007   0.126   1.093  0.00  0.00    -0.107 A 
ATOM      5  C4  BZF d   1      -1.304   0.494   1.311  0.00  0.00     0.055 A 
ATOM      6  C5  BZF d   1      -2.267   0.063   0.454  0.00  0.00    -0.016 A 
ATOM      7  C6  BZF d   1      -1.967  -0.732  -0.633  0.00  0.00     0.022 A 
ATOM      8  C7  BZF d   1      -0.696  -1.127  -0.888  0.00  0.00     0.029 A 
ATOM      9  C7A BZF d   1       0.274  -0.720  -0.005  0.00  0.00     0.058 A 
ENDROOT
TORSDOF 0
ENDMDL
