MODEL 1
REMARK minimizedAffinity -5.24553108
REMARK minimizedRMSD -1
REMARK  0 active torsions:
REMARK  status: ('A' for Active; 'I' for Inactive)
ROOT
ATOM      1  N1  IND d   1      -0.280  -0.590   2.721  0.00  0.00    -0.196 N 
ATOM      2  C2  IND d   1      -1.538  -1.102   2.572  0.00  0.00     0.054 A 
ATOM      3  C3  IND d   1      -2.022  -0.812   1.343  0.00  0.00    -0.031 A 
ATOM      4  C4  IND d   1      -0.881   0.406  -0.618  0.00  0.00     0.051 A 
ATOM      5  C5  IND d   1       0.256   1.089  -0.946  0.00  0.00    -0.031 A 
ATOM      6  C6  IND d   1       1.295   1.248  -0.052  0.00  0.00     0.015 A 
ATOM      7  C7  IND d   1       1.240   0.718   1.206  0.00  0.00    -0.016 A 
ATOM      8  C8  IND d   1       0.084   0.030   1.545  0.00  0.00    -0.047 A 
ATOM      9  C9  IND d   1      -0.992  -0.098   0.657  0.00  0.00    -0.096 A 
ATOM     10  HN1 IND d   1       0.204  -0.645   3.430  0.00  0.00     0.298 HD
ENDROOT
TORSDOF 0
ENDMDL
