MODEL 1
REMARK minimizedAffinity -0.375609368
REMARK minimizedRMSD -1
REMARK  0 active torsions:
REMARK  status: ('A' for Active; 'I' for Inactive)
ROOT
ATOM      1  N1  IND d   1      -0.444  -0.306  -1.467  0.00  0.00    -0.196 N 
ATOM      2  C2  IND d   1       0.743   0.302  -1.765  0.00  0.00     0.054 A 
ATOM      3  C3  IND d   1       1.398   0.638  -0.631  0.00  0.00    -0.031 A 
ATOM      4  C4  IND d   1       0.753   0.194   1.822  0.00  0.00     0.051 A 
ATOM      5  C5  IND d   1      -0.259  -0.299   2.597  0.00  0.00    -0.031 A 
ATOM      6  C6  IND d   1      -1.406  -0.832   2.046  0.00  0.00     0.015 A 
ATOM      7  C7  IND d   1      -1.580  -0.904   0.693  0.00  0.00    -0.016 A 
ATOM      8  C8  IND d   1      -0.558  -0.398  -0.097  0.00  0.00    -0.047 A 
ATOM      9  C9  IND d   1       0.590   0.183   0.456  0.00  0.00    -0.096 A 
ATOM     10  HN1 IND d   1      -1.023  -0.584  -2.039  0.00  0.00     0.298 HD
ENDROOT
TORSDOF 0
ENDMDL
