MODEL 1
REMARK minimizedAffinity -4.18700171
REMARK minimizedRMSD -1
REMARK  0 active torsions:
REMARK  status: ('A' for Active; 'I' for Inactive)
ROOT
ATOM      1  N1  IND d   1       0.114   0.195  -1.115  0.00  0.00    -0.196 N 
ATOM      2  C2  IND d   1       1.462  -0.003  -1.004  0.00  0.00     0.054 A 
ATOM      3  C3  IND d   1       1.814  -0.128   0.295  0.00  0.00    -0.031 A 
ATOM      4  C4  IND d   1       0.328  -0.143   2.397  0.00  0.00     0.051 A 
ATOM      5  C5  IND d   1      -0.963   0.039   2.805  0.00  0.00    -0.031 A 
ATOM      6  C6  IND d   1      -1.983   0.284   1.908  0.00  0.00     0.015 A 
ATOM      7  C7  IND d   1      -1.750   0.346   0.563  0.00  0.00    -0.016 A 
ATOM      8  C8  IND d   1      -0.438   0.169   0.147  0.00  0.00    -0.047 A 
ATOM      9  C9  IND d   1       0.608  -0.038   1.055  0.00  0.00    -0.096 A 
ATOM     10  HN1 IND d   1      -0.316   0.315  -1.850  0.00  0.00     0.298 HD
ENDROOT
TORSDOF 0
ENDMDL
