MODEL 1
REMARK minimizedAffinity -4.6324029
REMARK minimizedRMSD -1
REMARK  0 active torsions:
REMARK  status: ('A' for Active; 'I' for Inactive)
ROOT
ATOM      1  N1  IND d   1       1.594   0.683   0.108  0.00  0.00    -0.196 N 
ATOM      2  C2  IND d   1       1.074   0.442  -1.134  0.00  0.00     0.054 A 
ATOM      3  C3  IND d   1      -0.132  -0.161  -1.030  0.00  0.00    -0.031 A 
ATOM      4  C4  IND d   1      -1.488  -0.752   1.077  0.00  0.00     0.051 A 
ATOM      5  C5  IND d   1      -1.411  -0.758   2.442  0.00  0.00    -0.031 A 
ATOM      6  C6  IND d   1      -0.307  -0.272   3.111  0.00  0.00     0.015 A 
ATOM      7  C7  IND d   1       0.761   0.251   2.439  0.00  0.00    -0.016 A 
ATOM      8  C8  IND d   1       0.689   0.252   1.053  0.00  0.00    -0.047 A 
ATOM      9  C9  IND d   1      -0.410  -0.279   0.367  0.00  0.00    -0.096 A 
ATOM     10  HN1 IND d   1       2.358   1.042   0.270  0.00  0.00     0.298 HD
ENDROOT
TORSDOF 0
ENDMDL
