MODEL 1
REMARK minimizedAffinity -5.05075502
REMARK minimizedRMSD -1
REMARK  0 active torsions:
REMARK  status: ('A' for Active; 'I' for Inactive)
ROOT
ATOM      1  N1  IND d   1       0.359   0.191   2.489  0.00  0.00    -0.196 N 
ATOM      2  C2  IND d   1      -0.654  -0.644   2.871  0.00  0.00     0.054 A 
ATOM      3  C3  IND d   1      -1.187  -1.261   1.792  0.00  0.00    -0.031 A 
ATOM      4  C4  IND d   1      -0.486  -1.127  -0.681  0.00  0.00     0.051 A 
ATOM      5  C5  IND d   1       0.364  -0.470  -1.526  0.00  0.00    -0.031 A 
ATOM      6  C6  IND d   1       1.277   0.458  -1.066  0.00  0.00     0.015 A 
ATOM      7  C7  IND d   1       1.381   0.756   0.264  0.00  0.00    -0.016 A 
ATOM      8  C8  IND d   1       0.514   0.096   1.123  0.00  0.00    -0.047 A 
ATOM      9  C9  IND d   1      -0.443  -0.815   0.657  0.00  0.00    -0.096 A 
ATOM     10  HN1 IND d   1       0.821   0.691   3.013  0.00  0.00     0.298 HD
ENDROOT
TORSDOF 0
ENDMDL
