MODEL 1
REMARK minimizedAffinity -4.54456568
REMARK minimizedRMSD -1
REMARK  0 active torsions:
REMARK  status: ('A' for Active; 'I' for Inactive)
ROOT
ATOM      1  N1  IND d   1      -0.995   0.610  -1.870  0.00  0.00    -0.196 N 
ATOM      2  C2  IND d   1       0.210   0.172  -2.345  0.00  0.00     0.054 A 
ATOM      3  C3  IND d   1       0.883  -0.493  -1.379  0.00  0.00    -0.031 A 
ATOM      4  C4  IND d   1       0.153  -1.070   1.022  0.00  0.00     0.051 A 
ATOM      5  C5  IND d   1      -0.850  -0.853   1.924  0.00  0.00    -0.031 A 
ATOM      6  C6  IND d   1      -1.977  -0.125   1.601  0.00  0.00     0.015 A 
ATOM      7  C7  IND d   1      -2.148   0.406   0.354  0.00  0.00    -0.016 A 
ATOM      8  C8  IND d   1      -1.128   0.194  -0.563  0.00  0.00    -0.047 A 
ATOM      9  C9  IND d   1       0.037  -0.508  -0.228  0.00  0.00    -0.096 A 
ATOM     10  HN1 IND d   1      -1.572   1.068  -2.312  0.00  0.00     0.298 HD
ENDROOT
TORSDOF 0
ENDMDL
