MODEL 1
REMARK minimizedAffinity -3.4069581
REMARK minimizedRMSD -1
REMARK  0 active torsions:
REMARK  status: ('A' for Active; 'I' for Inactive)
ROOT
ATOM      1  N1  IND d   1       0.664  -0.022   2.863  0.00  0.00    -0.196 N 
ATOM      2  C2  IND d   1      -0.497  -0.547   3.359  0.00  0.00     0.054 A 
ATOM      3  C3  IND d   1      -1.331  -0.881   2.349  0.00  0.00    -0.031 A 
ATOM      4  C4  IND d   1      -0.956  -0.747  -0.195  0.00  0.00     0.051 A 
ATOM      5  C5  IND d   1      -0.064  -0.302  -1.130  0.00  0.00    -0.031 A 
ATOM      6  C6  IND d   1       1.142   0.268  -0.775  0.00  0.00     0.015 A 
ATOM      7  C7  IND d   1       1.507   0.404   0.534  0.00  0.00    -0.016 A 
ATOM      8  C8  IND d   1       0.601  -0.040   1.487  0.00  0.00    -0.047 A 
ATOM      9  C9  IND d   1      -0.642  -0.580   1.133  0.00  0.00    -0.096 A 
ATOM     10  HN1 IND d   1       1.323   0.269   3.332  0.00  0.00     0.298 HD
ENDROOT
TORSDOF 0
ENDMDL
