MODEL 1
REMARK minimizedAffinity -3.60873222
REMARK minimizedRMSD -1
REMARK  0 active torsions:
REMARK  status: ('A' for Active; 'I' for Inactive)
ROOT
ATOM      1  N1  IND d   1      -0.737   0.017  -0.888  0.00  0.00    -0.196 N 
ATOM      2  C2  IND d   1       0.582   0.321  -1.083  0.00  0.00     0.054 A 
ATOM      3  C3  IND d   1       1.248   0.301   0.093  0.00  0.00    -0.031 A 
ATOM      4  C4  IND d   1       0.397  -0.306   2.445  0.00  0.00     0.051 A 
ATOM      5  C5  IND d   1      -0.744  -0.616   3.131  0.00  0.00    -0.031 A 
ATOM      6  C6  IND d   1      -1.964  -0.737   2.499  0.00  0.00     0.015 A 
ATOM      7  C7  IND d   1      -2.088  -0.562   1.150  0.00  0.00    -0.016 A 
ATOM      8  C8  IND d   1      -0.934  -0.239   0.452  0.00  0.00    -0.047 A 
ATOM      9  C9  IND d   1       0.300  -0.073   1.094  0.00  0.00    -0.096 A 
ATOM     10  HN1 IND d   1      -1.341  -0.009  -1.498  0.00  0.00     0.298 HD
ENDROOT
TORSDOF 0
ENDMDL
