MODEL 1
REMARK minimizedAffinity -3.45919108
REMARK minimizedRMSD -1
REMARK  0 active torsions:
REMARK  status: ('A' for Active; 'I' for Inactive)
ROOT
ATOM      1  N1  IND d   1       1.025   0.567  -0.848  0.00  0.00    -0.196 N 
ATOM      2  C2  IND d   1       0.000   0.143  -1.648  0.00  0.00     0.054 A 
ATOM      3  C3  IND d   1      -0.920  -0.527  -0.919  0.00  0.00    -0.031 A 
ATOM      4  C4  IND d   1      -0.996  -0.960   1.618  0.00  0.00     0.051 A 
ATOM      5  C5  IND d   1      -0.264  -0.798   2.761  0.00  0.00    -0.031 A 
ATOM      6  C6  IND d   1       0.958  -0.158   2.759  0.00  0.00     0.015 A 
ATOM      7  C7  IND d   1       1.491   0.357   1.612  0.00  0.00    -0.016 A 
ATOM      8  C8  IND d   1       0.754   0.188   0.448  0.00  0.00    -0.047 A 
ATOM      9  C9  IND d   1      -0.467  -0.498   0.436  0.00  0.00    -0.096 A 
ATOM     10  HN1 IND d   1       1.722   0.997  -1.111  0.00  0.00     0.298 HD
ENDROOT
TORSDOF 0
ENDMDL
