MODEL 1
REMARK minimizedAffinity -4.68467903
REMARK minimizedRMSD -1
REMARK  0 active torsions:
REMARK  status: ('A' for Active; 'I' for Inactive)
ROOT
ATOM      1  N1  IND d   1      -0.732   0.320  -0.723  0.00  0.00    -0.196 N 
ATOM      2  C2  IND d   1       0.527   0.619  -1.163  0.00  0.00     0.054 A 
ATOM      3  C3  IND d   1       1.396   0.637  -0.127  0.00  0.00    -0.031 A 
ATOM      4  C4  IND d   1       0.988   0.104   2.358  0.00  0.00     0.051 A 
ATOM      5  C5  IND d   1      -0.008  -0.187   3.248  0.00  0.00    -0.031 A 
ATOM      6  C6  IND d   1      -1.322  -0.329   2.851  0.00  0.00     0.015 A 
ATOM      7  C7  IND d   1      -1.689  -0.196   1.542  0.00  0.00    -0.016 A 
ATOM      8  C8  IND d   1      -0.682   0.106   0.637  0.00  0.00    -0.047 A 
ATOM      9  C9  IND d   1       0.647   0.293   1.040  0.00  0.00    -0.096 A 
ATOM     10  HN1 IND d   1      -1.437   0.273  -1.213  0.00  0.00     0.298 HD
ENDROOT
TORSDOF 0
ENDMDL
