MODEL 1
REMARK minimizedAffinity -6.23906231
REMARK minimizedRMSD -1
REMARK  0 active torsions:
REMARK  status: ('A' for Active; 'I' for Inactive)
ROOT
ATOM      1  N1  IND d   1      -1.134  -0.025  -0.189  0.00  0.00    -0.196 N 
ATOM      2  C2  IND d   1       0.222   0.082  -0.321  0.00  0.00     0.054 A 
ATOM      3  C3  IND d   1       0.814   0.092   0.894  0.00  0.00    -0.031 A 
ATOM      4  C4  IND d   1      -0.241  -0.159   3.229  0.00  0.00     0.051 A 
ATOM      5  C5  IND d   1      -1.449  -0.248   3.861  0.00  0.00    -0.031 A 
ATOM      6  C6  IND d   1      -2.638  -0.270   3.161  0.00  0.00     0.015 A 
ATOM      7  C7  IND d   1      -2.663  -0.215   1.797  0.00  0.00    -0.016 A 
ATOM      8  C8  IND d   1      -1.438  -0.118   1.152  0.00  0.00    -0.047 A 
ATOM      9  C9  IND d   1      -0.230  -0.053   1.858  0.00  0.00    -0.096 A 
ATOM     10  HN1 IND d   1      -1.702  -0.033  -0.834  0.00  0.00     0.298 HD
ENDROOT
TORSDOF 0
ENDMDL
