MODEL 1
REMARK minimizedAffinity -3.35874271
REMARK minimizedRMSD -1
REMARK  0 active torsions:
REMARK  status: ('A' for Active; 'I' for Inactive)
ROOT
ATOM      1  N1  IND d   1       0.000  -0.346  -0.819  0.00  0.00    -0.196 N 
ATOM      2  C2  IND d   1       0.635   0.861  -0.722  0.00  0.00     0.054 A 
ATOM      3  C3  IND d   1       0.515   1.356   0.531  0.00  0.00    -0.031 A 
ATOM      4  C4  IND d   1      -0.592   0.306   2.605  0.00  0.00     0.051 A 
ATOM      5  C5  IND d   1      -1.334  -0.770   3.001  0.00  0.00    -0.031 A 
ATOM      6  C6  IND d   1      -1.675  -1.783   2.127  0.00  0.00     0.015 A 
ATOM      7  C7  IND d   1      -1.274  -1.761   0.821  0.00  0.00    -0.016 A 
ATOM      8  C8  IND d   1      -0.525  -0.666   0.414  0.00  0.00    -0.047 A 
ATOM      9  C9  IND d   1      -0.213   0.385   1.286  0.00  0.00    -0.096 A 
ATOM     10  HN1 IND d   1      -0.060  -0.826  -1.530  0.00  0.00     0.298 HD
ENDROOT
TORSDOF 0
ENDMDL
