MODEL 1
REMARK minimizedAffinity -5.92648888
REMARK minimizedRMSD -1
REMARK  0 active torsions:
REMARK  status: ('A' for Active; 'I' for Inactive)
ROOT
ATOM      1  N1  IND d   1      -1.127   0.476  -0.633  0.00  0.00    -0.196 N 
ATOM      2  C2  IND d   1       0.235   0.359  -0.660  0.00  0.00     0.054 A 
ATOM      3  C3  IND d   1       0.716   0.173   0.589  0.00  0.00    -0.031 A 
ATOM      4  C4  IND d   1      -0.558  -0.076   2.812  0.00  0.00     0.051 A 
ATOM      5  C5  IND d   1      -1.813  -0.006   3.348  0.00  0.00    -0.031 A 
ATOM      6  C6  IND d   1      -2.927   0.231   2.568  0.00  0.00     0.015 A 
ATOM      7  C7  IND d   1      -2.827   0.395   1.215  0.00  0.00    -0.016 A 
ATOM      8  C8  IND d   1      -1.553   0.331   0.669  0.00  0.00    -0.047 A 
ATOM      9  C9  IND d   1      -0.415   0.134   1.461  0.00  0.00    -0.096 A 
ATOM     10  HN1 IND d   1      -1.632   0.615  -1.315  0.00  0.00     0.298 HD
ENDROOT
TORSDOF 0
ENDMDL
