MODEL 1
REMARK minimizedAffinity -4.49531841
REMARK minimizedRMSD -1
REMARK  0 active torsions:
REMARK  status: ('A' for Active; 'I' for Inactive)
ROOT
ATOM      1  N1  IND d   1       0.749  -0.804   1.333  0.00  0.00    -0.196 N 
ATOM      2  C2  IND d   1       0.012  -1.044   2.458  0.00  0.00     0.054 A 
ATOM      3  C3  IND d   1      -1.229  -0.523   2.327  0.00  0.00    -0.031 A 
ATOM      4  C4  IND d   1      -2.297   0.673   0.313  0.00  0.00     0.051 A 
ATOM      5  C5  IND d   1      -2.004   1.158  -0.931  0.00  0.00    -0.031 A 
ATOM      6  C6  IND d   1      -0.755   1.008  -1.496  0.00  0.00     0.015 A 
ATOM      7  C7  IND d   1       0.250   0.355  -0.840  0.00  0.00    -0.016 A 
ATOM      8  C8  IND d   1      -0.041  -0.132   0.426  0.00  0.00    -0.047 A 
ATOM      9  C9  IND d   1      -1.295   0.054   1.022  0.00  0.00    -0.096 A 
ATOM     10  HN1 IND d   1       1.569  -1.034   1.212  0.00  0.00     0.298 HD
ENDROOT
TORSDOF 0
ENDMDL
