MODEL 1
REMARK minimizedAffinity -2.86356974
REMARK minimizedRMSD -1
REMARK  0 active torsions:
REMARK  status: ('A' for Active; 'I' for Inactive)
ROOT
ATOM      1  N1  IND d   1      -0.587   1.506  -1.724  0.00  0.00    -0.196 N 
ATOM      2  C2  IND d   1       0.601   1.064  -2.234  0.00  0.00     0.054 A 
ATOM      3  C3  IND d   1       1.057   0.011  -1.519  0.00  0.00    -0.031 A 
ATOM      4  C4  IND d   1      -0.037  -1.218   0.461  0.00  0.00     0.051 A 
ATOM      5  C5  IND d   1      -1.109  -1.158   1.306  0.00  0.00    -0.031 A 
ATOM      6  C6  IND d   1      -2.084  -0.189   1.180  0.00  0.00     0.015 A 
ATOM      7  C7  IND d   1      -2.028   0.753   0.193  0.00  0.00    -0.016 A 
ATOM      8  C8  IND d   1      -0.936   0.700  -0.663  0.00  0.00    -0.047 A 
ATOM      9  C9  IND d   1       0.078  -0.255  -0.513  0.00  0.00    -0.096 A 
ATOM     10  HN1 IND d   1      -1.041   2.175  -2.017  0.00  0.00     0.298 HD
ENDROOT
TORSDOF 0
ENDMDL
