MODEL 1
REMARK minimizedAffinity -2.64485359
REMARK minimizedRMSD -1
REMARK  0 active torsions:
REMARK  status: ('A' for Active; 'I' for Inactive)
ROOT
ATOM      1  N1  IND d   1      -1.470  -0.274   2.587  0.00  0.00    -0.196 N 
ATOM      2  C2  IND d   1      -0.733   0.038   3.694  0.00  0.00     0.054 A 
ATOM      3  C3  IND d   1       0.518   0.407   3.338  0.00  0.00    -0.031 A 
ATOM      4  C4  IND d   1       1.540   0.668   0.989  0.00  0.00     0.051 A 
ATOM      5  C5  IND d   1       1.265   0.463  -0.334  0.00  0.00    -0.031 A 
ATOM      6  C6  IND d   1       0.039  -0.005  -0.760  0.00  0.00     0.015 A 
ATOM      7  C7  IND d   1      -0.967  -0.276   0.125  0.00  0.00    -0.016 A 
ATOM      8  C8  IND d   1      -0.689  -0.076   1.469  0.00  0.00    -0.047 A 
ATOM      9  C9  IND d   1       0.568   0.358   1.911  0.00  0.00    -0.096 A 
ATOM     10  HN1 IND d   1      -2.285  -0.549   2.587  0.00  0.00     0.298 HD
ENDROOT
TORSDOF 0
ENDMDL
