MODEL 1
REMARK minimizedAffinity -2.30456424
REMARK minimizedRMSD -1
REMARK  0 active torsions:
REMARK  status: ('A' for Active; 'I' for Inactive)
ROOT
ATOM      1  N1  IND d   1       0.802   0.887   0.015  0.00  0.00    -0.196 N 
ATOM      2  C2  IND d   1       0.148   0.916  -1.185  0.00  0.00     0.054 A 
ATOM      3  C3  IND d   1      -1.058   0.314  -1.078  0.00  0.00    -0.031 A 
ATOM      4  C4  IND d   1      -2.204  -0.696   0.994  0.00  0.00     0.051 A 
ATOM      5  C5  IND d   1      -1.985  -0.989   2.311  0.00  0.00    -0.031 A 
ATOM      6  C6  IND d   1      -0.803  -0.663   2.943  0.00  0.00     0.015 A 
ATOM      7  C7  IND d   1       0.205  -0.018   2.282  0.00  0.00    -0.016 A 
ATOM      8  C8  IND d   1      -0.012   0.275   0.943  0.00  0.00    -0.047 A 
ATOM      9  C9  IND d   1      -1.193  -0.092   0.285  0.00  0.00    -0.096 A 
ATOM     10  HN1 IND d   1       1.589   1.199   0.166  0.00  0.00     0.298 HD
ENDROOT
TORSDOF 0
ENDMDL
