MODEL 1
REMARK minimizedAffinity -0.791785777
REMARK minimizedRMSD -1
REMARK  0 active torsions:
REMARK  status: ('A' for Active; 'I' for Inactive)
ROOT
ATOM      1  N1  IND d   1      -1.923   0.196  -0.541  0.00  0.00    -0.196 N 
ATOM      2  C2  IND d   1      -1.312   0.768  -1.622  0.00  0.00     0.054 A 
ATOM      3  C3  IND d   1      -0.001   0.975  -1.366  0.00  0.00    -0.031 A 
ATOM      4  C4  IND d   1       1.375   0.360   0.721  0.00  0.00     0.051 A 
ATOM      5  C5  IND d   1       1.249  -0.146   1.984  0.00  0.00    -0.031 A 
ATOM      6  C6  IND d   1       0.034  -0.575   2.479  0.00  0.00     0.015 A 
ATOM      7  C7  IND d   1      -1.102  -0.525   1.722  0.00  0.00    -0.016 A 
ATOM      8  C8  IND d   1      -0.978  -0.005   0.441  0.00  0.00    -0.047 A 
ATOM      9  C9  IND d   1       0.243   0.472  -0.051  0.00  0.00    -0.096 A 
ATOM     10  HN1 IND d   1      -2.757  -0.005  -0.484  0.00  0.00     0.298 HD
ENDROOT
TORSDOF 0
ENDMDL
