MODEL 1
REMARK minimizedAffinity 14.2553263
REMARK minimizedRMSD -1
REMARK  1 active torsions:
REMARK  status: ('A' for Active; 'I' for Inactive)
REMARK    1  A    between atoms: C1_2  and  C2_3 
ROOT
ATOM      1  C2  UNL d   1       0.156   4.277  -0.791  0.00  0.00    -0.076 A 
ATOM      2  C3  UNL d   1       0.772   3.074  -1.179  0.00  0.00     0.004 A 
ATOM      3  C4  UNL d   1       0.440   1.868  -0.563  0.00  0.00    -0.003 A 
ATOM      4  C5  UNL d   1      -0.512   1.845   0.449  0.00  0.00     0.000 A 
ATOM      5  C6  UNL d   1      -1.146   3.026   0.834  0.00  0.00     0.000 A 
ATOM      6  C7  UNL d   1      -0.835   4.248   0.213  0.00  0.00    -0.073 A 
ATOM      7  C8  UNL d   1      -1.545   5.492   0.672  0.00  0.00     0.078 C 
ENDROOT
BRANCH   1   8
ATOM      8  C1  UNL d   1       0.576   5.558  -1.476  0.00  0.00     0.053 C 
ATOM      9  C   UNL d   1      -0.321   5.911  -2.652  0.00  0.00     0.018 C 
ENDBRANCH   1   8
TORSDOF 1
ENDMDL
