MODEL 1
REMARK minimizedAffinity 16.9757805
REMARK minimizedRMSD -1
REMARK  1 active torsions:
REMARK  status: ('A' for Active; 'I' for Inactive)
REMARK    1  A    between atoms: C1_2  and  C2_3 
ROOT
ATOM      1  C2  UNL d   1      -2.247   4.173   0.096  0.00  0.00    -0.076 A 
ATOM      2  C3  UNL d   1      -1.439   3.454   0.994  0.00  0.00     0.004 A 
ATOM      3  C4  UNL d   1      -0.401   2.645   0.536  0.00  0.00    -0.003 A 
ATOM      4  C5  UNL d   1      -0.154   2.541  -0.829  0.00  0.00     0.000 A 
ATOM      5  C6  UNL d   1      -0.934   3.261  -1.733  0.00  0.00     0.000 A 
ATOM      6  C7  UNL d   1      -1.974   4.094  -1.286  0.00  0.00    -0.073 A 
ATOM      7  C8  UNL d   1      -2.788   4.842  -2.306  0.00  0.00     0.078 C 
ENDROOT
BRANCH   1   8
ATOM      8  C1  UNL d   1      -3.375   5.013   0.650  0.00  0.00     0.053 C 
ATOM      9  C   UNL d   1      -2.985   5.745   1.925  0.00  0.00     0.018 C 
ENDBRANCH   1   8
TORSDOF 1
ENDMDL
