MODEL 1
REMARK minimizedAffinity 13.42908
REMARK minimizedRMSD -1
REMARK  1 active torsions:
REMARK  status: ('A' for Active; 'I' for Inactive)
REMARK    1  A    between atoms: C1_2  and  C2_3 
ROOT
ATOM      1  C2  UNL d   1       5.979  -3.662  -2.467  0.00  0.00    -0.076 A 
ATOM      2  C3  UNL d   1       5.973  -2.860  -1.313  0.00  0.00     0.004 A 
ATOM      3  C4  UNL d   1       5.935  -3.431  -0.042  0.00  0.00    -0.003 A 
ATOM      4  C5  UNL d   1       5.903  -4.815   0.095  0.00  0.00     0.000 A 
ATOM      5  C6  UNL d   1       5.927  -5.626  -1.039  0.00  0.00     0.000 A 
ATOM      6  C7  UNL d   1       5.982  -5.066  -2.327  0.00  0.00    -0.073 A 
ATOM      7  C8  UNL d   1       5.999  -5.989  -3.515  0.00  0.00     0.078 C 
ENDROOT
BRANCH   1   8
ATOM      8  C1  UNL d   1       5.994  -2.986  -3.819  0.00  0.00     0.053 C 
ATOM      9  C   UNL d   1       5.679  -1.500  -3.731  0.00  0.00     0.018 C 
ENDBRANCH   1   8
TORSDOF 1
ENDMDL
