MODEL 1
REMARK minimizedAffinity 13.9204016
REMARK minimizedRMSD -1
REMARK  1 active torsions:
REMARK  status: ('A' for Active; 'I' for Inactive)
REMARK    1  A    between atoms: C1_2  and  C2_3 
ROOT
ATOM      1  C2  UNL d   1       1.518   2.596   0.742  0.00  0.00    -0.076 A 
ATOM      2  C3  UNL d   1       2.654   3.289   0.290  0.00  0.00     0.004 A 
ATOM      3  C4  UNL d   1       2.692   3.849  -0.986  0.00  0.00    -0.003 A 
ATOM      4  C5  UNL d   1       1.594   3.726  -1.830  0.00  0.00     0.000 A 
ATOM      5  C6  UNL d   1       0.452   3.057  -1.391  0.00  0.00     0.000 A 
ATOM      6  C7  UNL d   1       0.391   2.501  -0.102  0.00  0.00    -0.073 A 
ATOM      7  C8  UNL d   1      -0.864   1.785   0.316  0.00  0.00     0.078 C 
ENDROOT
BRANCH   1   8
ATOM      8  C1  UNL d   1       1.544   1.986   2.126  0.00  0.00     0.053 C 
ATOM      9  C   UNL d   1       2.891   2.155   2.811  0.00  0.00     0.018 C 
ENDBRANCH   1   8
TORSDOF 1
ENDMDL
