MODEL 1
REMARK minimizedAffinity 20.6953545
REMARK minimizedRMSD -1
REMARK  1 active torsions:
REMARK  status: ('A' for Active; 'I' for Inactive)
REMARK    1  A    between atoms: C1_2  and  C2_3 
ROOT
ATOM      1  C2  UNL d   1       3.243  -5.560  -2.199  0.00  0.00    -0.076 A 
ATOM      2  C3  UNL d   1       4.152  -5.922  -1.189  0.00  0.00     0.004 A 
ATOM      3  C4  UNL d   1       5.519  -6.000  -1.449  0.00  0.00    -0.003 A 
ATOM      4  C5  UNL d   1       6.000  -5.716  -2.723  0.00  0.00     0.000 A 
ATOM      5  C6  UNL d   1       5.115  -5.338  -3.732  0.00  0.00     0.000 A 
ATOM      6  C7  UNL d   1       3.735  -5.239  -3.482  0.00  0.00    -0.073 A 
ATOM      7  C8  UNL d   1       2.825  -4.833  -4.609  0.00  0.00     0.078 C 
ENDROOT
BRANCH   1   8
ATOM      8  C1  UNL d   1       1.769  -5.519  -1.866  0.00  0.00     0.053 C 
ATOM      9  C   UNL d   1       1.210  -4.104  -1.869  0.00  0.00     0.018 C 
ENDBRANCH   1   8
TORSDOF 1
ENDMDL
