MODEL 1
REMARK minimizedAffinity 7.96876526
REMARK minimizedRMSD -1
REMARK  1 active torsions:
REMARK  status: ('A' for Active; 'I' for Inactive)
REMARK    1  A    between atoms: C1_2  and  C2_3 
ROOT
ATOM      1  C2  UNL d   1      -4.324   0.249   0.647  0.00  0.00    -0.076 A 
ATOM      2  C3  UNL d   1      -3.923  -0.595  -0.404  0.00  0.00     0.004 A 
ATOM      3  C4  UNL d   1      -3.733  -0.096  -1.692  0.00  0.00    -0.003 A 
ATOM      4  C5  UNL d   1      -3.939   1.255  -1.949  0.00  0.00     0.000 A 
ATOM      5  C6  UNL d   1      -4.320   2.109  -0.915  0.00  0.00     0.000 A 
ATOM      6  C7  UNL d   1      -4.500   1.626   0.392  0.00  0.00    -0.073 A 
ATOM      7  C8  UNL d   1      -4.917   2.591   1.467  0.00  0.00     0.078 C 
ENDROOT
BRANCH   1   8
ATOM      8  C1  UNL d   1      -4.540  -0.353   2.017  0.00  0.00     0.053 C 
ATOM      9  C   UNL d   1      -6.000  -0.318   2.444  0.00  0.00     0.018 C 
ENDBRANCH   1   8
TORSDOF 1
ENDMDL
