MODEL 1
REMARK minimizedAffinity 9.91839027
REMARK minimizedRMSD -1
REMARK  3 active torsions:
REMARK  status: ('A' for Active; 'I' for Inactive)
REMARK    1  A    between atoms: C3'_2  and  C2'_3 
REMARK    2  A    between atoms: C2'_3  and  C1'_4 
REMARK    3  A    between atoms: C1'_4  and  C1_5 
ROOT
ATOM      1  C1  N4B d   1       3.442  -1.421   2.650  0.00  0.00    -0.075 A 
ATOM      2  C2  N4B d   1       3.411  -0.279   3.480  0.00  0.00     0.002 A 
ATOM      3  C3  N4B d   1       4.017  -0.309   4.712  0.00  0.00     0.002 A 
ATOM      4  C4  N4B d   1       4.640  -1.471   5.142  0.00  0.00    -0.004 A 
ATOM      5  C5  N4B d   1       4.687  -2.561   4.324  0.00  0.00     0.002 A 
ATOM      6  C6  N4B d   1       4.086  -2.544   3.081  0.00  0.00     0.002 A 
ENDROOT
BRANCH   1   7
ATOM      7  C1' N4B d   1       2.720  -1.464   1.331  0.00  0.00     0.057 C 
BRANCH   7   8
ATOM      8  C2' N4B d   1       1.456  -0.614   1.424  0.00  0.00     0.009 C 
BRANCH   8   9
ATOM      9  C3' N4B d   1       1.336   0.355   0.260  0.00  0.00     0.004 C 
ATOM     10  C4' N4B d   1       1.109   1.769   0.704  0.00  0.00     0.003 C 
ENDBRANCH   8   9
ENDBRANCH   7   8
ENDBRANCH   1   7
TORSDOF 3
ENDMDL
