MODEL 1
REMARK minimizedAffinity 10.898159
REMARK minimizedRMSD -1
REMARK  3 active torsions:
REMARK  status: ('A' for Active; 'I' for Inactive)
REMARK    1  A    between atoms: C3'_2  and  C2'_3 
REMARK    2  A    between atoms: C2'_3  and  C1'_4 
REMARK    3  A    between atoms: C1'_4  and  C1_5 
ROOT
ATOM      1  C1  N4B d   1       0.754   2.307   0.093  0.00  0.00    -0.075 A 
ATOM      2  C2  N4B d   1       0.669   1.461  -1.035  0.00  0.00     0.002 A 
ATOM      3  C3  N4B d   1       1.068   0.150  -0.941  0.00  0.00     0.002 A 
ATOM      4  C4  N4B d   1       1.569  -0.330   0.259  0.00  0.00    -0.004 A 
ATOM      5  C5  N4B d   1       1.624   0.486   1.351  0.00  0.00     0.002 A 
ATOM      6  C6  N4B d   1       1.223   1.805   1.272  0.00  0.00     0.002 A 
ENDROOT
BRANCH   1   7
ATOM      7  C1' N4B d   1       0.411   3.770   0.016  0.00  0.00     0.057 C 
BRANCH   7   8
ATOM      8  C2' N4B d   1       1.623   4.542  -0.496  0.00  0.00     0.009 C 
BRANCH   8   9
ATOM      9  C3' N4B d   1       1.220   5.805  -1.239  0.00  0.00     0.004 C 
ATOM     10  C4' N4B d   1      -0.267   5.966  -1.345  0.00  0.00     0.003 C 
ENDBRANCH   8   9
ENDBRANCH   7   8
ENDBRANCH   1   7
TORSDOF 3
ENDMDL
