MODEL 1
REMARK minimizedAffinity 7.60260725
REMARK minimizedRMSD -1
REMARK  3 active torsions:
REMARK  status: ('A' for Active; 'I' for Inactive)
REMARK    1  A    between atoms: C3'_2  and  C2'_3 
REMARK    2  A    between atoms: C2'_3  and  C1'_4 
REMARK    3  A    between atoms: C1'_4  and  C1_5 
ROOT
ATOM      1  C1  N4B d   1      -3.130   3.023  -5.420  0.00  0.00    -0.075 A 
ATOM      2  C2  N4B d   1      -4.419   3.120  -5.988  0.00  0.00     0.002 A 
ATOM      3  C3  N4B d   1      -5.201   4.221  -5.734  0.00  0.00     0.002 A 
ATOM      4  C4  N4B d   1      -4.724   5.224  -4.903  0.00  0.00    -0.004 A 
ATOM      5  C5  N4B d   1      -3.468   5.134  -4.379  0.00  0.00     0.002 A 
ATOM      6  C6  N4B d   1      -2.670   4.036  -4.629  0.00  0.00     0.002 A 
ENDROOT
BRANCH   1   7
ATOM      7  C1' N4B d   1      -2.273   1.800  -5.599  0.00  0.00     0.057 C 
BRANCH   7   8
ATOM      8  C2' N4B d   1      -2.043   1.146  -4.240  0.00  0.00     0.009 C 
BRANCH   8   9
ATOM      9  C3' N4B d   1      -3.277   1.223  -3.357  0.00  0.00     0.004 C 
ATOM     10  C4' N4B d   1      -4.116  -0.019  -3.422  0.00  0.00     0.003 C 
ENDBRANCH   8   9
ENDBRANCH   7   8
ENDBRANCH   1   7
TORSDOF 3
ENDMDL
