MODEL 1
REMARK minimizedAffinity -0.370035082
REMARK minimizedRMSD -1
REMARK  3 active torsions:
REMARK  status: ('A' for Active; 'I' for Inactive)
REMARK    1  A    between atoms: C3'_2  and  C2'_3 
REMARK    2  A    between atoms: C2'_3  and  C1'_4 
REMARK    3  A    between atoms: C1'_4  and  C1_5 
ROOT
ATOM      1  C1  N4B d   1      -4.711   2.828  -5.541  0.00  0.00    -0.075 A 
ATOM      2  C2  N4B d   1      -5.546   3.871  -5.999  0.00  0.00     0.002 A 
ATOM      3  C3  N4B d   1      -5.398   5.140  -5.495  0.00  0.00     0.002 A 
ATOM      4  C4  N4B d   1      -4.439   5.384  -4.523  0.00  0.00    -0.004 A 
ATOM      5  C5  N4B d   1      -3.620   4.376  -4.105  0.00  0.00     0.002 A 
ATOM      6  C6  N4B d   1      -3.755   3.097  -4.606  0.00  0.00     0.002 A 
ENDROOT
BRANCH   1   7
ATOM      7  C1' N4B d   1      -4.893   1.406  -6.000  0.00  0.00     0.057 C 
BRANCH   7   8
ATOM      8  C2' N4B d   1      -5.719   0.648  -4.966  0.00  0.00     0.009 C 
BRANCH   8   9
ATOM      9  C3' N4B d   1      -5.959   1.474  -3.714  0.00  0.00     0.004 C 
ATOM     10  C4' N4B d   1      -5.290   0.899  -2.501  0.00  0.00     0.003 C 
ENDBRANCH   8   9
ENDBRANCH   7   8
ENDBRANCH   1   7
TORSDOF 3
ENDMDL
