MODEL 1
REMARK minimizedAffinity 10.1540165
REMARK minimizedRMSD -1
REMARK  3 active torsions:
REMARK  status: ('A' for Active; 'I' for Inactive)
REMARK    1  A    between atoms: C3'_2  and  C2'_3 
REMARK    2  A    between atoms: C2'_3  and  C1'_4 
REMARK    3  A    between atoms: C1'_4  and  C1_5 
ROOT
ATOM      1  C1  N4B d   1       1.870   4.102   0.145  0.00  0.00    -0.075 A 
ATOM      2  C2  N4B d   1       0.630   4.556  -0.356  0.00  0.00     0.002 A 
ATOM      3  C3  N4B d   1      -0.476   3.744  -0.290  0.00  0.00     0.002 A 
ATOM      4  C4  N4B d   1      -0.362   2.474   0.254  0.00  0.00    -0.004 A 
ATOM      5  C5  N4B d   1       0.833   2.052   0.759  0.00  0.00     0.002 A 
ATOM      6  C6  N4B d   1       1.952   2.859   0.702  0.00  0.00     0.002 A 
ENDROOT
BRANCH   1   7
ATOM      7  C1' N4B d   1       3.126   4.920   0.016  0.00  0.00     0.057 C 
BRANCH   7   8
ATOM      8  C2' N4B d   1       4.042   4.621   1.199  0.00  0.00     0.009 C 
BRANCH   8   9
ATOM      9  C3' N4B d   1       4.506   5.890   1.894  0.00  0.00     0.004 C 
ATOM     10  C4' N4B d   1       6.000   6.000   1.965  0.00  0.00     0.003 C 
ENDBRANCH   8   9
ENDBRANCH   7   8
ENDBRANCH   1   7
TORSDOF 3
ENDMDL
