MODEL 1
REMARK minimizedAffinity 5.07331038
REMARK minimizedRMSD -1
REMARK  3 active torsions:
REMARK  status: ('A' for Active; 'I' for Inactive)
REMARK    1  A    between atoms: C3'_2  and  C2'_3 
REMARK    2  A    between atoms: C2'_3  and  C1'_4 
REMARK    3  A    between atoms: C1'_4  and  C1_5 
ROOT
ATOM      1  C1  N4B d   1       0.657   1.209   0.071  0.00  0.00    -0.075 A 
ATOM      2  C2  N4B d   1       0.838   0.746  -1.251  0.00  0.00     0.002 A 
ATOM      3  C3  N4B d   1       1.344  -0.511  -1.474  0.00  0.00     0.002 A 
ATOM      4  C4  N4B d   1       1.691  -1.312  -0.397  0.00  0.00    -0.004 A 
ATOM      5  C5  N4B d   1       1.489  -0.867   0.877  0.00  0.00     0.002 A 
ATOM      6  C6  N4B d   1       0.978   0.393   1.116  0.00  0.00     0.002 A 
ENDROOT
BRANCH   1   7
ATOM      7  C1' N4B d   1       0.188   2.608   0.365  0.00  0.00     0.057 C 
BRANCH   7   8
ATOM      8  C2' N4B d   1       0.206   3.424  -0.925  0.00  0.00     0.009 C 
BRANCH   8   9
ATOM      9  C3' N4B d   1       1.397   4.365  -0.985  0.00  0.00     0.004 C 
ATOM     10  C4' N4B d   1       1.125   5.594  -1.801  0.00  0.00     0.003 C 
ENDBRANCH   8   9
ENDBRANCH   7   8
ENDBRANCH   1   7
TORSDOF 3
ENDMDL
