MODEL 1
REMARK minimizedAffinity -6.59805346
REMARK minimizedRMSD -1
REMARK  1 active torsions:
REMARK  status: ('A' for Active; 'I' for Inactive)
REMARK    1  A    between atoms: C1_2  and  C2_3 
ROOT
ATOM      1  C2  UNL d   1      -3.139   0.945   2.991  0.00  0.00    -0.081 A 
ATOM      2  C3  UNL d   1      -2.180   1.943   2.777  0.00  0.00     0.006 A 
ATOM      3  C4  UNL d   1      -1.013   1.662   2.062  0.00  0.00     0.002 A 
ATOM      4  C5  UNL d   1      -0.790   0.383   1.542  0.00  0.00    -0.080 A 
ATOM      5  C6  UNL d   1       0.444   0.076   0.746  0.00  0.00     0.076 C 
ATOM      6  C7  UNL d   1      -1.740  -0.619   1.770  0.00  0.00     0.002 A 
ATOM      7  C8  UNL d   1      -2.906  -0.339   2.485  0.00  0.00     0.006 A 
ENDROOT
BRANCH   1   8
ATOM      8  C1  UNL d   1      -4.427   1.261   3.706  0.00  0.00     0.054 C 
ATOM      9  C   UNL d   1      -4.222   2.330   4.770  0.00  0.00     0.018 C 
ENDBRANCH   1   8
TORSDOF 1
ENDMDL
