MODEL 1
REMARK minimizedAffinity -3.06842899
REMARK minimizedRMSD -1
REMARK  1 active torsions:
REMARK  status: ('A' for Active; 'I' for Inactive)
REMARK    1  A    between atoms: C1_2  and  C2_3 
ROOT
ATOM      1  C2  UNL d   1      -0.667   1.080   1.326  0.00  0.00    -0.081 A 
ATOM      2  C3  UNL d   1      -0.971   2.406   1.657  0.00  0.00     0.006 A 
ATOM      3  C4  UNL d   1      -2.019   2.694   2.536  0.00  0.00     0.002 A 
ATOM      4  C5  UNL d   1      -2.773   1.662   3.103  0.00  0.00    -0.080 A 
ATOM      5  C6  UNL d   1      -3.880   1.956   4.071  0.00  0.00     0.076 C 
ATOM      6  C7  UNL d   1      -2.481   0.338   2.758  0.00  0.00     0.002 A 
ATOM      7  C8  UNL d   1      -1.435   0.049   1.880  0.00  0.00     0.006 A 
ENDROOT
BRANCH   1   8
ATOM      8  C1  UNL d   1       0.502   0.763   0.429  0.00  0.00     0.054 C 
ATOM      9  C   UNL d   1       1.265  -0.457   0.925  0.00  0.00     0.018 C 
ENDBRANCH   1   8
TORSDOF 1
ENDMDL
