MODEL 1
REMARK minimizedAffinity 0.204584196
REMARK minimizedRMSD -1
REMARK  1 active torsions:
REMARK  status: ('A' for Active; 'I' for Inactive)
REMARK    1  A    between atoms: C1_2  and  C2_3 
ROOT
ATOM      1  C2  UNL d   1      -0.159   0.496   1.356  0.00  0.00    -0.081 A 
ATOM      2  C3  UNL d   1      -0.343   1.880   1.468  0.00  0.00     0.006 A 
ATOM      3  C4  UNL d   1      -1.394   2.395   2.231  0.00  0.00     0.002 A 
ATOM      4  C5  UNL d   1      -2.272   1.536   2.902  0.00  0.00    -0.080 A 
ATOM      5  C6  UNL d   1      -3.385   2.076   3.749  0.00  0.00     0.076 C 
ATOM      6  C7  UNL d   1      -2.098   0.153   2.776  0.00  0.00     0.002 A 
ATOM      7  C8  UNL d   1      -1.048  -0.362   2.013  0.00  0.00     0.006 A 
ENDROOT
BRANCH   1   8
ATOM      8  C1  UNL d   1       1.012  -0.061   0.587  0.00  0.00     0.054 C 
ATOM      9  C   UNL d   1       1.727   1.028  -0.199  0.00  0.00     0.018 C 
ENDBRANCH   1   8
TORSDOF 1
ENDMDL
