MODEL 1
REMARK minimizedAffinity -3.13855124
REMARK minimizedRMSD -1
REMARK  1 active torsions:
REMARK  status: ('A' for Active; 'I' for Inactive)
REMARK    1  A    between atoms: C1_2  and  C2_3 
ROOT
ATOM      1  C2  UNL d   1      -3.101   1.433   2.984  0.00  0.00    -0.081 A 
ATOM      2  C3  UNL d   1      -2.682   0.237   2.388  0.00  0.00     0.006 A 
ATOM      3  C4  UNL d   1      -1.435   0.156   1.764  0.00  0.00     0.002 A 
ATOM      4  C5  UNL d   1      -0.583   1.265   1.732  0.00  0.00    -0.080 A 
ATOM      5  C6  UNL d   1       0.771   1.183   1.092  0.00  0.00     0.076 C 
ATOM      6  C7  UNL d   1      -1.009   2.465   2.313  0.00  0.00     0.002 A 
ATOM      7  C8  UNL d   1      -2.256   2.547   2.936  0.00  0.00     0.006 A 
ENDROOT
BRANCH   1   8
ATOM      8  C1  UNL d   1      -4.417   1.505   3.715  0.00  0.00     0.054 C 
ATOM      9  C   UNL d   1      -4.314   2.379   4.957  0.00  0.00     0.018 C 
ENDBRANCH   1   8
TORSDOF 1
ENDMDL
