MODEL 1
REMARK minimizedAffinity -5.07917356
REMARK minimizedRMSD -1
REMARK  1 active torsions:
REMARK  status: ('A' for Active; 'I' for Inactive)
REMARK    1  A    between atoms: C1_2  and  C2_3 
ROOT
ATOM      1  C2  UNL d   1      -2.448   1.532   3.085  0.00  0.00    -0.081 A 
ATOM      2  C3  UNL d   1      -2.265   2.852   2.656  0.00  0.00     0.006 A 
ATOM      3  C4  UNL d   1      -1.224   3.175   1.782  0.00  0.00     0.002 A 
ATOM      4  C5  UNL d   1      -0.355   2.183   1.317  0.00  0.00    -0.080 A 
ATOM      5  C6  UNL d   1       0.748   2.511   0.355  0.00  0.00     0.076 C 
ATOM      6  C7  UNL d   1      -0.527   0.867   1.759  0.00  0.00     0.002 A 
ATOM      7  C8  UNL d   1      -1.567   0.543   2.633  0.00  0.00     0.006 A 
ENDROOT
BRANCH   1   8
ATOM      8  C1  UNL d   1      -3.609   1.169   3.976  0.00  0.00     0.054 C 
ATOM      9  C   UNL d   1      -4.064   2.362   4.805  0.00  0.00     0.018 C 
ENDBRANCH   1   8
TORSDOF 1
ENDMDL
