MODEL 1
REMARK minimizedAffinity -0.848741233
REMARK minimizedRMSD -1
REMARK  1 active torsions:
REMARK  status: ('A' for Active; 'I' for Inactive)
REMARK    1  A    between atoms: C1_2  and  C2_3 
ROOT
ATOM      1  C2  UNL d   1      -2.598   2.281   3.107  0.00  0.00    -0.081 A 
ATOM      2  C3  UNL d   1      -2.721   0.961   2.659  0.00  0.00     0.006 A 
ATOM      3  C4  UNL d   1      -1.716   0.379   1.883  0.00  0.00     0.002 A 
ATOM      4  C5  UNL d   1      -0.567   1.105   1.550  0.00  0.00    -0.080 A 
ATOM      5  C6  UNL d   1       0.534   0.482   0.743  0.00  0.00     0.076 C 
ATOM      6  C7  UNL d   1      -0.451   2.430   1.983  0.00  0.00     0.002 A 
ATOM      7  C8  UNL d   1      -1.456   3.012   2.758  0.00  0.00     0.006 A 
ENDROOT
BRANCH   1   8
ATOM      8  C1  UNL d   1      -3.650   2.890   3.998  0.00  0.00     0.054 C 
ATOM      9  C   UNL d   1      -4.517   1.818   4.643  0.00  0.00     0.018 C 
ENDBRANCH   1   8
TORSDOF 1
ENDMDL
