MODEL 1
REMARK minimizedAffinity -2.17137241
REMARK minimizedRMSD -1
REMARK  1 active torsions:
REMARK  status: ('A' for Active; 'I' for Inactive)
REMARK    1  A    between atoms: C1_2  and  C2_3 
ROOT
ATOM      1  C2  UNL d   1      -1.763   0.473   2.075  0.00  0.00    -0.081 A 
ATOM      2  C3  UNL d   1      -1.048  -0.120   1.028  0.00  0.00     0.006 A 
ATOM      3  C4  UNL d   1       0.181   0.406   0.622  0.00  0.00     0.002 A 
ATOM      4  C5  UNL d   1       0.717   1.529   1.261  0.00  0.00    -0.080 A 
ATOM      5  C6  UNL d   1       2.049   2.087   0.855  0.00  0.00     0.076 C 
ATOM      6  C7  UNL d   1      -0.006   2.132   2.296  0.00  0.00     0.002 A 
ATOM      7  C8  UNL d   1      -1.234   1.607   2.702  0.00  0.00     0.006 A 
ENDROOT
BRANCH   1   8
ATOM      8  C1  UNL d   1      -3.057  -0.131   2.558  0.00  0.00     0.054 C 
ATOM      9  C   UNL d   1      -2.820  -1.101   3.707  0.00  0.00     0.018 C 
ENDBRANCH   1   8
TORSDOF 1
ENDMDL
