MODEL 1
REMARK minimizedAffinity -3.16154361
REMARK minimizedRMSD -1
REMARK  1 active torsions:
REMARK  status: ('A' for Active; 'I' for Inactive)
REMARK    1  A    between atoms: C1_2  and  C2_3 
ROOT
ATOM      1  C2  UNL d   1      -2.023  -2.963  -2.135  0.00  0.00    -0.081 A 
ATOM      2  C3  UNL d   1      -1.215  -3.830  -1.390  0.00  0.00     0.006 A 
ATOM      3  C4  UNL d   1      -0.061  -4.382  -1.952  0.00  0.00     0.002 A 
ATOM      4  C5  UNL d   1       0.308  -4.070  -3.265  0.00  0.00    -0.080 A 
ATOM      5  C6  UNL d   1       1.560  -4.632  -3.870  0.00  0.00     0.076 C 
ATOM      6  C7  UNL d   1      -0.509  -3.217  -4.015  0.00  0.00     0.002 A 
ATOM      7  C8  UNL d   1      -1.663  -2.666  -3.454  0.00  0.00     0.006 A 
ENDROOT
BRANCH   1   8
ATOM      8  C1  UNL d   1      -3.232  -2.315  -1.511  0.00  0.00     0.054 C 
ATOM      9  C   UNL d   1      -4.314  -2.047  -2.547  0.00  0.00     0.018 C 
ENDBRANCH   1   8
TORSDOF 1
ENDMDL
