MODEL 1
REMARK minimizedAffinity 0.203997269
REMARK minimizedRMSD -1
REMARK  1 active torsions:
REMARK  status: ('A' for Active; 'I' for Inactive)
REMARK    1  A    between atoms: C1_2  and  C2_3 
ROOT
ATOM      1  C2  UNL d   1       0.784   2.744   1.242  0.00  0.00    -0.081 A 
ATOM      2  C3  UNL d   1       1.281   1.520   0.777  0.00  0.00     0.006 A 
ATOM      3  C4  UNL d   1       0.507   0.361   0.866  0.00  0.00     0.002 A 
ATOM      4  C5  UNL d   1      -0.779   0.407   1.413  0.00  0.00    -0.080 A 
ATOM      5  C6  UNL d   1      -1.633  -0.824   1.487  0.00  0.00     0.076 C 
ATOM      6  C7  UNL d   1      -1.270   1.626   1.893  0.00  0.00     0.002 A 
ATOM      7  C8  UNL d   1      -0.496   2.785   1.805  0.00  0.00     0.006 A 
ENDROOT
BRANCH   1   8
ATOM      8  C1  UNL d   1       1.591   4.008   1.088  0.00  0.00     0.054 C 
ATOM      9  C   UNL d   1       2.927   3.733   0.413  0.00  0.00     0.018 C 
ENDBRANCH   1   8
TORSDOF 1
ENDMDL
