MODEL 1
REMARK minimizedAffinity 3.11616182
REMARK minimizedRMSD -1
REMARK  1 active torsions:
REMARK  status: ('A' for Active; 'I' for Inactive)
REMARK    1  A    between atoms: C1_2  and  C2_3 
ROOT
ATOM      1  C2  UNL d   1       0.072  -0.983  -1.186  0.00  0.00    -0.076 A 
ATOM      2  C3  UNL d   1      -0.712  -1.909  -1.895  0.00  0.00     0.004 A 
ATOM      3  C4  UNL d   1      -1.807  -2.530  -1.296  0.00  0.00    -0.003 A 
ATOM      4  C5  UNL d   1      -2.136  -2.233   0.022  0.00  0.00     0.000 A 
ATOM      5  C6  UNL d   1      -1.380  -1.304   0.735  0.00  0.00     0.000 A 
ATOM      6  C7  UNL d   1      -0.283  -0.657   0.140  0.00  0.00    -0.073 A 
ATOM      7  C8  UNL d   1       0.501   0.333   0.958  0.00  0.00     0.078 C 
ENDROOT
BRANCH   1   8
ATOM      8  C1  UNL d   1       1.264  -0.362  -1.879  0.00  0.00     0.053 C 
ATOM      9  C   UNL d   1       2.457  -1.303  -1.942  0.00  0.00     0.018 C 
ENDBRANCH   1   8
TORSDOF 1
ENDMDL
