MODEL 1
REMARK minimizedAffinity 10.58255
REMARK minimizedRMSD -1
REMARK  1 active torsions:
REMARK  status: ('A' for Active; 'I' for Inactive)
REMARK    1  A    between atoms: C1_2  and  C2_3 
ROOT
ATOM      1  C2  UNL d   1      -1.825  -0.144   1.331  0.00  0.00    -0.076 A 
ATOM      2  C3  UNL d   1      -2.157  -0.752   2.554  0.00  0.00     0.004 A 
ATOM      3  C4  UNL d   1      -3.292  -0.363   3.264  0.00  0.00    -0.003 A 
ATOM      4  C5  UNL d   1      -4.114   0.639   2.761  0.00  0.00     0.000 A 
ATOM      5  C6  UNL d   1      -3.809   1.242   1.541  0.00  0.00     0.000 A 
ATOM      6  C7  UNL d   1      -2.677   0.850   0.805  0.00  0.00    -0.073 A 
ATOM      7  C8  UNL d   1      -2.393   1.538  -0.502  0.00  0.00     0.078 C 
ENDROOT
BRANCH   1   8
ATOM      8  C1  UNL d   1      -0.566  -0.588   0.620  0.00  0.00     0.053 C 
ATOM      9  C   UNL d   1      -0.859  -1.445  -0.602  0.00  0.00     0.018 C 
ENDBRANCH   1   8
TORSDOF 1
ENDMDL
