MODEL 1
REMARK minimizedAffinity 11.4062767
REMARK minimizedRMSD -1
REMARK  1 active torsions:
REMARK  status: ('A' for Active; 'I' for Inactive)
REMARK    1  A    between atoms: C1_2  and  C2_3 
ROOT
ATOM      1  C2  UNL d   1      -0.820   0.423  -0.048  0.00  0.00    -0.076 A 
ATOM      2  C3  UNL d   1      -0.030   0.205  -1.189  0.00  0.00     0.004 A 
ATOM      3  C4  UNL d   1      -0.025  -1.031  -1.833  0.00  0.00    -0.003 A 
ATOM      4  C5  UNL d   1      -0.811  -2.069  -1.346  0.00  0.00     0.000 A 
ATOM      5  C6  UNL d   1      -1.615  -1.866  -0.225  0.00  0.00     0.000 A 
ATOM      6  C7  UNL d   1      -1.644  -0.621   0.426  0.00  0.00    -0.073 A 
ATOM      7  C8  UNL d   1      -2.525  -0.458   1.634  0.00  0.00     0.078 C 
ENDROOT
BRANCH   1   8
ATOM      8  C1  UNL d   1      -0.764   1.776   0.625  0.00  0.00     0.053 C 
ATOM      9  C   UNL d   1       0.623   2.107   1.154  0.00  0.00     0.018 C 
ENDBRANCH   1   8
TORSDOF 1
ENDMDL
