MODEL 1
REMARK minimizedAffinity 5.47841024
REMARK minimizedRMSD -1
REMARK  1 active torsions:
REMARK  status: ('A' for Active; 'I' for Inactive)
REMARK    1  A    between atoms: C1_2  and  C2_3 
ROOT
ATOM      1  C2  UNL d   1      -0.662  -1.589  -1.132  0.00  0.00    -0.076 A 
ATOM      2  C3  UNL d   1       0.318  -1.471  -2.133  0.00  0.00     0.004 A 
ATOM      3  C4  UNL d   1       0.987  -0.266  -2.343  0.00  0.00    -0.003 A 
ATOM      4  C5  UNL d   1       0.686   0.840  -1.555  0.00  0.00     0.000 A 
ATOM      5  C6  UNL d   1      -0.272   0.736  -0.547  0.00  0.00     0.000 A 
ATOM      6  C7  UNL d   1      -0.943  -0.476  -0.311  0.00  0.00    -0.073 A 
ATOM      7  C8  UNL d   1      -1.971  -0.531   0.786  0.00  0.00     0.078 C 
ENDROOT
BRANCH   1   8
ATOM      8  C1  UNL d   1      -1.373  -2.914  -0.969  0.00  0.00     0.053 C 
ATOM      9  C   UNL d   1      -2.173  -3.302  -2.203  0.00  0.00     0.018 C 
ENDBRANCH   1   8
TORSDOF 1
ENDMDL
