MODEL 1
REMARK minimizedAffinity 6.89780807
REMARK minimizedRMSD -1
REMARK  1 active torsions:
REMARK  status: ('A' for Active; 'I' for Inactive)
REMARK    1  A    between atoms: C1_2  and  C2_3 
ROOT
ATOM      1  C2  UNL d   1       1.137  -0.976  -1.704  0.00  0.00    -0.076 A 
ATOM      2  C3  UNL d   1       0.164  -1.842  -1.174  0.00  0.00     0.004 A 
ATOM      3  C4  UNL d   1      -1.067  -1.356  -0.738  0.00  0.00    -0.003 A 
ATOM      4  C5  UNL d   1      -1.346   0.004  -0.825  0.00  0.00     0.000 A 
ATOM      5  C6  UNL d   1      -0.399   0.874  -1.365  0.00  0.00     0.000 A 
ATOM      6  C7  UNL d   1       0.841   0.398  -1.824  0.00  0.00    -0.073 A 
ATOM      7  C8  UNL d   1       1.827   1.382  -2.392  0.00  0.00     0.078 C 
ENDROOT
BRANCH   1   8
ATOM      8  C1  UNL d   1       2.465  -1.557  -2.136  0.00  0.00     0.053 C 
ATOM      9  C   UNL d   1       2.673  -2.976  -1.630  0.00  0.00     0.018 C 
ENDBRANCH   1   8
TORSDOF 1
ENDMDL
