MODEL 1
REMARK minimizedAffinity 7.30372572
REMARK minimizedRMSD -1
REMARK  1 active torsions:
REMARK  status: ('A' for Active; 'I' for Inactive)
REMARK    1  A    between atoms: C1_2  and  C2_3 
ROOT
ATOM      1  C2  UNL d   1       0.493   0.890  -0.267  0.00  0.00    -0.076 A 
ATOM      2  C3  UNL d   1      -0.424   0.260   0.593  0.00  0.00     0.004 A 
ATOM      3  C4  UNL d   1      -1.058  -0.924   0.221  0.00  0.00    -0.003 A 
ATOM      4  C5  UNL d   1      -0.786  -1.498  -1.015  0.00  0.00     0.000 A 
ATOM      5  C6  UNL d   1       0.135  -0.897  -1.873  0.00  0.00     0.000 A 
ATOM      6  C7  UNL d   1       0.796   0.288  -1.507  0.00  0.00    -0.073 A 
ATOM      7  C8  UNL d   1       1.774   0.897  -2.474  0.00  0.00     0.078 C 
ENDROOT
BRANCH   1   8
ATOM      8  C1  UNL d   1       1.130   2.186   0.179  0.00  0.00     0.053 C 
ATOM      9  C   UNL d   1       0.753   2.562   1.603  0.00  0.00     0.018 C 
ENDBRANCH   1   8
TORSDOF 1
ENDMDL
