MODEL 1
REMARK minimizedAffinity 11.6889763
REMARK minimizedRMSD -1
REMARK  1 active torsions:
REMARK  status: ('A' for Active; 'I' for Inactive)
REMARK    1  A    between atoms: C1_2  and  C2_3 
ROOT
ATOM      1  C2  UNL d   1       3.931  -2.914  -3.357  0.00  0.00    -0.076 A 
ATOM      2  C3  UNL d   1       3.325  -2.901  -4.625  0.00  0.00     0.004 A 
ATOM      3  C4  UNL d   1       4.047  -3.236  -5.769  0.00  0.00    -0.003 A 
ATOM      4  C5  UNL d   1       5.387  -3.592  -5.663  0.00  0.00     0.000 A 
ATOM      5  C6  UNL d   1       6.000  -3.627  -4.411  0.00  0.00     0.000 A 
ATOM      6  C7  UNL d   1       5.282  -3.307  -3.246  0.00  0.00    -0.073 A 
ATOM      7  C8  UNL d   1       5.994  -3.356  -1.923  0.00  0.00     0.078 C 
ENDROOT
BRANCH   1   8
ATOM      8  C1  UNL d   1       3.105  -2.514  -2.156  0.00  0.00     0.053 C 
ATOM      9  C   UNL d   1       1.894  -1.674  -2.534  0.00  0.00     0.018 C 
ENDBRANCH   1   8
TORSDOF 1
ENDMDL
