MODEL 1
REMARK minimizedAffinity 9.29873657
REMARK minimizedRMSD -1
REMARK  1 active torsions:
REMARK  status: ('A' for Active; 'I' for Inactive)
REMARK    1  A    between atoms: C1_2  and  C2_3 
ROOT
ATOM      1  C2  UNL d   1      -1.114  -1.656  -0.818  0.00  0.00    -0.076 A 
ATOM      2  C3  UNL d   1      -2.028  -0.901  -0.063  0.00  0.00     0.004 A 
ATOM      3  C4  UNL d   1      -1.621   0.244   0.621  0.00  0.00    -0.003 A 
ATOM      4  C5  UNL d   1      -0.293   0.652   0.560  0.00  0.00     0.000 A 
ATOM      5  C6  UNL d   1       0.623  -0.075  -0.198  0.00  0.00     0.000 A 
ATOM      6  C7  UNL d   1       0.226  -1.222  -0.907  0.00  0.00    -0.073 A 
ATOM      7  C8  UNL d   1       1.258  -1.972  -1.704  0.00  0.00     0.078 C 
ENDROOT
BRANCH   1   8
ATOM      8  C1  UNL d   1      -1.607  -2.903  -1.516  0.00  0.00     0.053 C 
ATOM      9  C   UNL d   1      -3.120  -2.928  -1.665  0.00  0.00     0.018 C 
ENDBRANCH   1   8
TORSDOF 1
ENDMDL
