MODEL 1
REMARK minimizedAffinity 13.4310141
REMARK minimizedRMSD -1
REMARK  1 active torsions:
REMARK  status: ('A' for Active; 'I' for Inactive)
REMARK    1  A    between atoms: C1_2  and  C2_3 
ROOT
ATOM      1  C2  UNL d   1      -3.348  -0.303   3.613  0.00  0.00    -0.076 A 
ATOM      2  C3  UNL d   1      -2.266  -0.784   2.854  0.00  0.00     0.004 A 
ATOM      3  C4  UNL d   1      -2.072  -0.368   1.538  0.00  0.00    -0.003 A 
ATOM      4  C5  UNL d   1      -2.956   0.537   0.960  0.00  0.00     0.000 A 
ATOM      5  C6  UNL d   1      -4.024   1.037   1.703  0.00  0.00     0.000 A 
ATOM      6  C7  UNL d   1      -4.225   0.640   3.036  0.00  0.00    -0.073 A 
ATOM      7  C8  UNL d   1      -5.397   1.207   3.790  0.00  0.00     0.078 C 
ENDROOT
BRANCH   1   8
ATOM      8  C1  UNL d   1      -3.523  -0.811   5.026  0.00  0.00     0.053 C 
ATOM      9  C   UNL d   1      -3.050  -2.247   5.192  0.00  0.00     0.018 C 
ENDBRANCH   1   8
TORSDOF 1
ENDMDL
