MODEL 1
REMARK minimizedAffinity 0.176708758
REMARK minimizedRMSD -1
REMARK  1 active torsions:
REMARK  status: ('A' for Active; 'I' for Inactive)
REMARK    1  A    between atoms: C1_2  and  C2_3 
ROOT
ATOM      1  C2  UNL d   1       0.525   1.917   0.232  0.00  0.00    -0.076 A 
ATOM      2  C3  UNL d   1       0.179   3.076   0.949  0.00  0.00     0.004 A 
ATOM      3  C4  UNL d   1       1.148   4.011   1.310  0.00  0.00    -0.003 A 
ATOM      4  C5  UNL d   1       2.477   3.803   0.959  0.00  0.00     0.000 A 
ATOM      5  C6  UNL d   1       2.835   2.668   0.233  0.00  0.00     0.000 A 
ATOM      6  C7  UNL d   1       1.868   1.723  -0.153  0.00  0.00    -0.073 A 
ATOM      7  C8  UNL d   1       2.311   0.514  -0.931  0.00  0.00     0.078 C 
ENDROOT
BRANCH   1   8
ATOM      8  C1  UNL d   1      -0.564   0.924  -0.108  0.00  0.00     0.053 C 
ATOM      9  C   UNL d   1      -1.152   0.259   1.127  0.00  0.00     0.018 C 
ENDBRANCH   1   8
TORSDOF 1
ENDMDL
