MODEL 1
REMARK minimizedAffinity 0.362602741
REMARK minimizedRMSD -1
REMARK  0 active torsions:
REMARK  status: ('A' for Active; 'I' for Inactive)
ROOT
ATOM      1  C1  BNZ d   1      -5.618   4.774  -4.611  0.00  0.00     0.000 A 
ATOM      2  C2  BNZ d   1      -5.197   5.143  -3.361  0.00  0.00     0.000 A 
ATOM      3  C3  BNZ d   1      -5.142   4.233  -2.343  0.00  0.00     0.000 A 
ATOM      4  C4  BNZ d   1      -5.547   2.965  -2.565  0.00  0.00     0.000 A 
ATOM      5  C5  BNZ d   1      -5.983   2.580  -3.817  0.00  0.00     0.000 A 
ATOM      6  C6  BNZ d   1      -5.999   3.489  -4.849  0.00  0.00     0.000 A 
ENDROOT
TORSDOF 0
ENDMDL
