MODEL 1
REMARK minimizedAffinity 6.53713655
REMARK minimizedRMSD -1
REMARK  0 active torsions:
REMARK  status: ('A' for Active; 'I' for Inactive)
ROOT
ATOM      1  C1  BNZ d   1      -0.338   0.760   4.330  0.00  0.00     0.000 A 
ATOM      2  C2  BNZ d   1      -0.822   1.851   3.658  0.00  0.00     0.000 A 
ATOM      3  C3  BNZ d   1       0.006   2.627   2.896  0.00  0.00     0.000 A 
ATOM      4  C4  BNZ d   1       1.322   2.336   2.839  0.00  0.00     0.000 A 
ATOM      5  C5  BNZ d   1       1.826   1.245   3.519  0.00  0.00     0.000 A 
ATOM      6  C6  BNZ d   1       0.983   0.443   4.253  0.00  0.00     0.000 A 
ENDROOT
TORSDOF 0
ENDMDL
