MODEL 1
REMARK minimizedAffinity 3.07373595
REMARK minimizedRMSD -1
REMARK  0 active torsions:
REMARK  status: ('A' for Active; 'I' for Inactive)
ROOT
ATOM      1  C1  BNZ d   1       0.351   3.694   0.758  0.00  0.00     0.000 A 
ATOM      2  C2  BNZ d   1       0.703   3.714  -0.565  0.00  0.00     0.000 A 
ATOM      3  C3  BNZ d   1       0.644   4.873  -1.287  0.00  0.00     0.000 A 
ATOM      4  C4  BNZ d   1       0.194   6.000  -0.697  0.00  0.00     0.000 A 
ATOM      5  C5  BNZ d   1      -0.174   5.993   0.634  0.00  0.00     0.000 A 
ATOM      6  C6  BNZ d   1      -0.075   4.834   1.368  0.00  0.00     0.000 A 
ENDROOT
TORSDOF 0
ENDMDL
