MODEL 1
REMARK minimizedAffinity 8.70517159
REMARK minimizedRMSD -1
REMARK  0 active torsions:
REMARK  status: ('A' for Active; 'I' for Inactive)
ROOT
ATOM      1  C1  BNZ d   1       0.030   4.871   1.220  0.00  0.00     0.000 A 
ATOM      2  C2  BNZ d   1      -0.321   5.994   0.519  0.00  0.00     0.000 A 
ATOM      3  C3  BNZ d   1      -0.310   5.999  -0.847  0.00  0.00     0.000 A 
ATOM      4  C4  BNZ d   1       0.089   4.895  -1.511  0.00  0.00     0.000 A 
ATOM      5  C5  BNZ d   1       0.455   3.757  -0.819  0.00  0.00     0.000 A 
ATOM      6  C6  BNZ d   1       0.406   3.744   0.556  0.00  0.00     0.000 A 
ENDROOT
TORSDOF 0
ENDMDL
