MODEL 1
REMARK minimizedAffinity 5.27263355
REMARK minimizedRMSD -1
REMARK  0 active torsions:
REMARK  status: ('A' for Active; 'I' for Inactive)
ROOT
ATOM      1  C1  BNZ d   1      -0.018   5.999  -0.411  0.00  0.00     0.000 A 
ATOM      2  C2  BNZ d   1       0.664   4.866  -0.767  0.00  0.00     0.000 A 
ATOM      3  C3  BNZ d   1       0.556   3.722  -0.027  0.00  0.00     0.000 A 
ATOM      4  C4  BNZ d   1      -0.201   3.723   1.089  0.00  0.00     0.000 A 
ATOM      5  C5  BNZ d   1      -0.888   4.860   1.467  0.00  0.00     0.000 A 
ATOM      6  C6  BNZ d   1      -0.807   5.999   0.698  0.00  0.00     0.000 A 
ENDROOT
TORSDOF 0
ENDMDL
