MODEL 1
REMARK minimizedAffinity 6.42094135
REMARK minimizedRMSD -1
REMARK  0 active torsions:
REMARK  status: ('A' for Active; 'I' for Inactive)
ROOT
ATOM      1  C1  BNZ d   1       0.041   0.950  -0.435  0.00  0.00     0.000 A 
ATOM      2  C2  BNZ d   1       0.471   0.124  -1.440  0.00  0.00     0.000 A 
ATOM      3  C3  BNZ d   1      -0.404  -0.702  -2.089  0.00  0.00     0.000 A 
ATOM      4  C4  BNZ d   1      -1.696  -0.732  -1.706  0.00  0.00     0.000 A 
ATOM      5  C5  BNZ d   1      -2.143   0.087  -0.688  0.00  0.00     0.000 A 
ATOM      6  C6  BNZ d   1      -1.268   0.946  -0.063  0.00  0.00     0.000 A 
ENDROOT
TORSDOF 0
ENDMDL
