MODEL 1
REMARK minimizedAffinity 7.56909132
REMARK minimizedRMSD -1
REMARK  0 active torsions:
REMARK  status: ('A' for Active; 'I' for Inactive)
ROOT
ATOM      1  C1  BNZ d   1      -0.677  -1.373  -1.909  0.00  0.00     0.000 A 
ATOM      2  C2  BNZ d   1      -1.231  -0.787  -0.802  0.00  0.00     0.000 A 
ATOM      3  C3  BNZ d   1      -2.136   0.230  -0.927  0.00  0.00     0.000 A 
ATOM      4  C4  BNZ d   1      -2.454   0.686  -2.156  0.00  0.00     0.000 A 
ATOM      5  C5  BNZ d   1      -1.897   0.112  -3.281  0.00  0.00     0.000 A 
ATOM      6  C6  BNZ d   1      -1.016  -0.937  -3.153  0.00  0.00     0.000 A 
ENDROOT
TORSDOF 0
ENDMDL
