MODEL 1
REMARK minimizedAffinity 4.50265789
REMARK minimizedRMSD -1
REMARK  0 active torsions:
REMARK  status: ('A' for Active; 'I' for Inactive)
ROOT
ATOM      1  C1  BNZ d   1       1.008   5.963  -0.750  0.00  0.00     0.000 A 
ATOM      2  C2  BNZ d   1       1.667   5.015  -0.013  0.00  0.00     0.000 A 
ATOM      3  C3  BNZ d   1       0.975   4.091   0.718  0.00  0.00     0.000 A 
ATOM      4  C4  BNZ d   1      -0.372   4.140   0.744  0.00  0.00     0.000 A 
ATOM      5  C5  BNZ d   1      -1.051   5.095   0.014  0.00  0.00     0.000 A 
ATOM      6  C6  BNZ d   1      -0.352   6.000  -0.752  0.00  0.00     0.000 A 
ENDROOT
TORSDOF 0
ENDMDL
