MODEL 1
REMARK minimizedAffinity 3.67601871
REMARK minimizedRMSD -1
REMARK  0 active torsions:
REMARK  status: ('A' for Active; 'I' for Inactive)
ROOT
ATOM      1  C1  BNZ d   1       0.824   3.240   2.116  0.00  0.00     0.000 A 
ATOM      2  C2  BNZ d   1       0.082   3.207   0.965  0.00  0.00     0.000 A 
ATOM      3  C3  BNZ d   1       0.414   3.990  -0.105  0.00  0.00     0.000 A 
ATOM      4  C4  BNZ d   1       1.463   4.833  -0.009  0.00  0.00     0.000 A 
ATOM      5  C5  BNZ d   1       2.215   4.884   1.147  0.00  0.00     0.000 A 
ATOM      6  C6  BNZ d   1       1.901   4.066   2.208  0.00  0.00     0.000 A 
ENDROOT
TORSDOF 0
ENDMDL
