MODEL 1
REMARK minimizedAffinity 2.54723573
REMARK minimizedRMSD -1
REMARK  0 active torsions:
REMARK  status: ('A' for Active; 'I' for Inactive)
ROOT
ATOM      1  C1  BNZ d   1       0.764   3.839  -0.123  0.00  0.00     0.000 A 
ATOM      2  C2  BNZ d   1       1.001   4.909  -0.944  0.00  0.00     0.000 A 
ATOM      3  C3  BNZ d   1       0.171   5.995  -0.935  0.00  0.00     0.000 A 
ATOM      4  C4  BNZ d   1      -0.915   5.993  -0.135  0.00  0.00     0.000 A 
ATOM      5  C5  BNZ d   1      -1.172   4.918   0.692  0.00  0.00     0.000 A 
ATOM      6  C6  BNZ d   1      -0.313   3.843   0.708  0.00  0.00     0.000 A 
ENDROOT
TORSDOF 0
ENDMDL
