MODEL 1
REMARK minimizedAffinity -4.44593191
REMARK minimizedRMSD -1
REMARK  0 active torsions:
REMARK  status: ('A' for Active; 'I' for Inactive)
ROOT
ATOM      1  C1  DEN d   1      -0.714   2.663   1.811  0.00  0.00     0.130 A 
ATOM      2  C2  DEN d   1       0.430   2.027   1.165  0.00  0.00    -0.031 A 
ATOM      3  C3  DEN d   1       0.229   0.565   1.216  0.00  0.00     0.027 A 
ATOM      4  C4  DEN d   1      -1.736  -0.768   2.224  0.00  0.00     0.027 A 
ATOM      5  C5  DEN d   1      -2.936  -0.666   2.892  0.00  0.00    -0.003 A 
ATOM      6  C6  DEN d   1      -3.459   0.541   3.273  0.00  0.00     0.001 A 
ATOM      7  C7  DEN d   1      -2.802   1.699   2.950  0.00  0.00     0.017 A 
ATOM      8  C8  DEN d   1      -1.587   1.603   2.283  0.00  0.00    -0.094 A 
ATOM      9  C9  DEN d   1      -1.081   0.374   1.895  0.00  0.00    -0.072 A 
ENDROOT
TORSDOF 0
ENDMDL
