MODEL 1
REMARK minimizedAffinity 0.546017885
REMARK minimizedRMSD -1
REMARK  0 active torsions:
REMARK  status: ('A' for Active; 'I' for Inactive)
ROOT
ATOM      1  C1  DEN d   1      -3.961   0.167   3.505  0.00  0.00     0.130 A 
ATOM      2  C2  DEN d   1      -4.517   1.277   4.274  0.00  0.00    -0.031 A 
ATOM      3  C3  DEN d   1      -3.727   2.487   3.966  0.00  0.00     0.027 A 
ATOM      4  C4  DEN d   1      -1.713   2.748   2.377  0.00  0.00     0.027 A 
ATOM      5  C5  DEN d   1      -0.871   2.083   1.512  0.00  0.00    -0.003 A 
ATOM      6  C6  DEN d   1      -0.978   0.738   1.279  0.00  0.00     0.001 A 
ATOM      7  C7  DEN d   1      -1.978   0.021   1.884  0.00  0.00     0.017 A 
ATOM      8  C8  DEN d   1      -2.825   0.683   2.762  0.00  0.00    -0.094 A 
ATOM      9  C9  DEN d   1      -2.708   2.046   2.976  0.00  0.00    -0.072 A 
ENDROOT
TORSDOF 0
ENDMDL
