MODEL 1
REMARK minimizedAffinity 1.30231738
REMARK minimizedRMSD -1
REMARK  0 active torsions:
REMARK  status: ('A' for Active; 'I' for Inactive)
ROOT
ATOM      1  C1  DEN d   1      -2.743   2.099   3.316  0.00  0.00     0.130 A 
ATOM      2  C2  DEN d   1      -3.582   0.967   3.699  0.00  0.00    -0.031 A 
ATOM      3  C3  DEN d   1      -2.992  -0.255   3.118  0.00  0.00     0.027 A 
ATOM      4  C4  DEN d   1      -0.869  -0.505   1.674  0.00  0.00     0.027 A 
ATOM      5  C5  DEN d   1       0.168   0.176   1.076  0.00  0.00    -0.003 A 
ATOM      6  C6  DEN d   1       0.288   1.539   1.154  0.00  0.00     0.001 A 
ATOM      7  C7  DEN d   1      -0.621   2.259   1.883  0.00  0.00     0.017 A 
ATOM      8  C8  DEN d   1      -1.673   1.581   2.482  0.00  0.00    -0.094 A 
ATOM      9  C9  DEN d   1      -1.770   0.202   2.402  0.00  0.00    -0.072 A 
ENDROOT
TORSDOF 0
ENDMDL
