MODEL 1
REMARK minimizedAffinity -4.46400404
REMARK minimizedRMSD -1
REMARK  0 active torsions:
REMARK  status: ('A' for Active; 'I' for Inactive)
ROOT
ATOM      1  C1  DEN d   1      -0.399  -0.797   1.404  0.00  0.00     0.130 A 
ATOM      2  C2  DEN d   1       0.621   0.057   0.803  0.00  0.00    -0.031 A 
ATOM      3  C3  DEN d   1       0.285   1.460   1.116  0.00  0.00     0.027 A 
ATOM      4  C4  DEN d   1      -1.704   2.389   2.470  0.00  0.00     0.027 A 
ATOM      5  C5  DEN d   1      -2.842   2.051   3.169  0.00  0.00    -0.003 A 
ATOM      6  C6  DEN d   1      -3.260   0.753   3.298  0.00  0.00     0.001 A 
ATOM      7  C7  DEN d   1      -2.511  -0.259   2.759  0.00  0.00     0.017 A 
ATOM      8  C8  DEN d   1      -1.366   0.075   2.046  0.00  0.00    -0.094 A 
ATOM      9  C9  DEN d   1      -0.953   1.392   1.937  0.00  0.00    -0.072 A 
ENDROOT
TORSDOF 0
ENDMDL
