MODEL 1
REMARK minimizedAffinity -2.43199229
REMARK minimizedRMSD -1
REMARK  0 active torsions:
REMARK  status: ('A' for Active; 'I' for Inactive)
ROOT
ATOM      1  C1  DEN d   1      -1.757   2.656   1.918  0.00  0.00     0.130 A 
ATOM      2  C2  DEN d   1      -0.765   3.638   1.488  0.00  0.00    -0.031 A 
ATOM      3  C3  DEN d   1       0.386   2.907   0.923  0.00  0.00     0.027 A 
ATOM      4  C4  DEN d   1       0.727   0.363   0.669  0.00  0.00     0.027 A 
ATOM      5  C5  DEN d   1       0.166  -0.873   0.901  0.00  0.00    -0.003 A 
ATOM      6  C6  DEN d   1      -1.051  -1.020   1.513  0.00  0.00     0.001 A 
ATOM      7  C7  DEN d   1      -1.767   0.091   1.875  0.00  0.00     0.017 A 
ATOM      8  C8  DEN d   1      -1.204   1.340   1.652  0.00  0.00    -0.094 A 
ATOM      9  C9  DEN d   1       0.022   1.468   1.020  0.00  0.00    -0.072 A 
ENDROOT
TORSDOF 0
ENDMDL
