MODEL 1
REMARK minimizedAffinity 2.86499834
REMARK minimizedRMSD -1
REMARK  0 active torsions:
REMARK  status: ('A' for Active; 'I' for Inactive)
ROOT
ATOM      1  C1  DEN d   1      -2.108   2.413   2.609  0.00  0.00     0.130 A 
ATOM      2  C2  DEN d   1      -2.947   1.534   3.418  0.00  0.00    -0.031 A 
ATOM      3  C3  DEN d   1      -2.441   0.154   3.267  0.00  0.00     0.027 A 
ATOM      4  C4  DEN d   1      -0.449  -0.699   1.869  0.00  0.00     0.027 A 
ATOM      5  C5  DEN d   1       0.557  -0.327   1.005  0.00  0.00    -0.003 A 
ATOM      6  C6  DEN d   1       0.724   0.968   0.592  0.00  0.00     0.001 A 
ATOM      7  C7  DEN d   1      -0.102   1.947   1.078  0.00  0.00     0.017 A 
ATOM      8  C8  DEN d   1      -1.124   1.579   1.944  0.00  0.00    -0.094 A 
ATOM      9  C9  DEN d   1      -1.268   0.266   2.359  0.00  0.00    -0.072 A 
ENDROOT
TORSDOF 0
ENDMDL
