MODEL 1
REMARK minimizedAffinity 0.338781327
REMARK minimizedRMSD -1
REMARK  0 active torsions:
REMARK  status: ('A' for Active; 'I' for Inactive)
ROOT
ATOM      1  C1  DEN d   1       0.057   1.693   1.190  0.00  0.00     0.130 A 
ATOM      2  C2  DEN d   1       0.440   0.299   0.985  0.00  0.00    -0.031 A 
ATOM      3  C3  DEN d   1      -0.601  -0.555   1.592  0.00  0.00     0.027 A 
ATOM      4  C4  DEN d   1      -2.759   0.143   2.820  0.00  0.00     0.027 A 
ATOM      5  C5  DEN d   1      -3.508   1.215   3.252  0.00  0.00    -0.003 A 
ATOM      6  C6  DEN d   1      -3.108   2.510   3.058  0.00  0.00     0.001 A 
ATOM      7  C7  DEN d   1      -1.949   2.768   2.375  0.00  0.00     0.017 A 
ATOM      8  C8  DEN d   1      -1.184   1.692   1.944  0.00  0.00    -0.094 A 
ATOM      9  C9  DEN d   1      -1.612   0.390   2.138  0.00  0.00    -0.072 A 
ENDROOT
TORSDOF 0
ENDMDL
