MODEL 1
REMARK minimizedAffinity -5.62037277
REMARK minimizedRMSD -1
REMARK  0 active torsions:
REMARK  status: ('A' for Active; 'I' for Inactive)
ROOT
ATOM      1  C1  DEN d   1      -2.565   1.183   2.891  0.00  0.00     0.130 A 
ATOM      2  C2  DEN d   1      -2.575   2.642   2.942  0.00  0.00    -0.031 A 
ATOM      3  C3  DEN d   1      -1.474   3.136   2.090  0.00  0.00     0.027 A 
ATOM      4  C4  DEN d   1       0.231   1.790   0.700  0.00  0.00     0.027 A 
ATOM      5  C5  DEN d   1       0.644   0.523   0.350  0.00  0.00    -0.003 A 
ATOM      6  C6  DEN d   1       0.042  -0.604   0.846  0.00  0.00     0.001 A 
ATOM      7  C7  DEN d   1      -1.035  -0.486   1.683  0.00  0.00     0.017 A 
ATOM      8  C8  DEN d   1      -1.452   0.788   2.046  0.00  0.00    -0.094 A 
ATOM      9  C9  DEN d   1      -0.839   1.915   1.525  0.00  0.00    -0.072 A 
ENDROOT
TORSDOF 0
ENDMDL
