MODEL 1
REMARK minimizedAffinity -0.935818493
REMARK minimizedRMSD -1
REMARK  0 active torsions:
REMARK  status: ('A' for Active; 'I' for Inactive)
ROOT
ATOM      1  C1  DEN d   1       0.886   1.975   1.191  0.00  0.00     0.130 A 
ATOM      2  C2  DEN d   1       1.402   0.714   0.666  0.00  0.00    -0.031 A 
ATOM      3  C3  DEN d   1       0.397  -0.336   0.928  0.00  0.00     0.027 A 
ATOM      4  C4  DEN d   1      -1.898  -0.131   2.087  0.00  0.00     0.027 A 
ATOM      5  C5  DEN d   1      -2.767   0.736   2.712  0.00  0.00    -0.003 A 
ATOM      6  C6  DEN d   1      -2.467   2.059   2.902  0.00  0.00     0.001 A 
ATOM      7  C7  DEN d   1      -1.287   2.563   2.423  0.00  0.00     0.017 A 
ATOM      8  C8  DEN d   1      -0.403   1.693   1.799  0.00  0.00    -0.094 A 
ATOM      9  C9  DEN d   1      -0.729   0.362   1.605  0.00  0.00    -0.072 A 
ENDROOT
TORSDOF 0
ENDMDL
