MODEL 1
REMARK minimizedAffinity 6.71985912
REMARK minimizedRMSD -1
REMARK  0 active torsions:
REMARK  status: ('A' for Active; 'I' for Inactive)
ROOT
ATOM      1  C1  DEN d   1      -2.399   1.931   2.887  0.00  0.00     0.130 A 
ATOM      2  C2  DEN d   1      -2.745   3.282   2.456  0.00  0.00    -0.031 A 
ATOM      3  C3  DEN d   1      -1.740   3.717   1.465  0.00  0.00     0.027 A 
ATOM      4  C4  DEN d   1       0.306   2.433   0.560  0.00  0.00     0.027 A 
ATOM      5  C5  DEN d   1       1.017   1.256   0.638  0.00  0.00    -0.003 A 
ATOM      6  C6  DEN d   1       0.662   0.243   1.489  0.00  0.00     0.001 A 
ATOM      7  C7  DEN d   1      -0.461   0.370   2.264  0.00  0.00     0.017 A 
ATOM      8  C8  DEN d   1      -1.179   1.557   2.196  0.00  0.00    -0.094 A 
ATOM      9  C9  DEN d   1      -0.810   2.564   1.320  0.00  0.00    -0.072 A 
ENDROOT
TORSDOF 0
ENDMDL
