MODEL 1
REMARK minimizedAffinity 2.3581357
REMARK minimizedRMSD -1
REMARK  0 active torsions:
REMARK  status: ('A' for Active; 'I' for Inactive)
ROOT
ATOM      1  C1  DEN d   1       2.654  -0.756   0.341  0.00  0.00     0.130 A 
ATOM      2  C2  DEN d   1       3.176   0.090  -0.729  0.00  0.00    -0.031 A 
ATOM      3  C3  DEN d   1       2.391   1.340  -0.748  0.00  0.00     0.027 A 
ATOM      4  C4  DEN d   1       0.430   2.047   0.772  0.00  0.00     0.027 A 
ATOM      5  C5  DEN d   1      -0.378   1.656   1.817  0.00  0.00    -0.003 A 
ATOM      6  C6  DEN d   1      -0.255   0.431   2.416  0.00  0.00     0.001 A 
ATOM      7  C7  DEN d   1       0.728  -0.431   2.004  0.00  0.00     0.017 A 
ATOM      8  C8  DEN d   1       1.541  -0.047   0.946  0.00  0.00    -0.094 A 
ATOM      9  C9  DEN d   1       1.409   1.201   0.361  0.00  0.00    -0.072 A 
ENDROOT
TORSDOF 0
ENDMDL
