MODEL 1
REMARK minimizedAffinity -4.25075817
REMARK minimizedRMSD -1
REMARK  0 active torsions:
REMARK  status: ('A' for Active; 'I' for Inactive)
ROOT
ATOM      1  C1  DEN d   1      -0.588  -0.324   1.187  0.00  0.00     0.130 A 
ATOM      2  C2  DEN d   1       0.518   0.493   0.695  0.00  0.00    -0.031 A 
ATOM      3  C3  DEN d   1       0.300   1.880   1.155  0.00  0.00     0.027 A 
ATOM      4  C4  DEN d   1      -1.628   2.834   2.578  0.00  0.00     0.027 A 
ATOM      5  C5  DEN d   1      -2.806   2.527   3.222  0.00  0.00    -0.003 A 
ATOM      6  C6  DEN d   1      -3.340   1.266   3.205  0.00  0.00     0.001 A 
ATOM      7  C7  DEN d   1      -2.672   0.254   2.567  0.00  0.00     0.017 A 
ATOM      8  C8  DEN d   1      -1.488   0.557   1.909  0.00  0.00    -0.094 A 
ATOM      9  C9  DEN d   1      -0.957   1.836   1.949  0.00  0.00    -0.072 A 
ENDROOT
TORSDOF 0
ENDMDL
