MODEL 1
REMARK minimizedAffinity -0.844864786
REMARK minimizedRMSD -1
REMARK  0 active torsions:
REMARK  status: ('A' for Active; 'I' for Inactive)
ROOT
ATOM      1  C1  DEN d   1      -1.322   1.563   2.571  0.00  0.00     0.130 A 
ATOM      2  C2  DEN d   1      -1.765   2.674   1.732  0.00  0.00    -0.031 A 
ATOM      3  C3  DEN d   1      -0.686   2.979   0.772  0.00  0.00     0.027 A 
ATOM      4  C4  DEN d   1       1.614   1.844   0.501  0.00  0.00     0.027 A 
ATOM      5  C5  DEN d   1       2.446   0.862   0.992  0.00  0.00    -0.003 A 
ATOM      6  C6  DEN d   1       2.097   0.074   2.057  0.00  0.00     0.001 A 
ATOM      7  C7  DEN d   1       0.865   0.224   2.637  0.00  0.00     0.017 A 
ATOM      8  C8  DEN d   1       0.024   1.217   2.152  0.00  0.00    -0.094 A 
ATOM      9  C9  DEN d   1       0.390   1.995   1.067  0.00  0.00    -0.072 A 
ENDROOT
TORSDOF 0
ENDMDL
