MODEL 1
REMARK minimizedAffinity -5.09454441
REMARK minimizedRMSD -1
REMARK  0 active torsions:
REMARK  status: ('A' for Active; 'I' for Inactive)
ROOT
ATOM      1  N1  IND d   1       0.267  -1.082  -2.388  0.00  0.00    -0.196 N 
ATOM      2  C2  IND d   1       0.059  -2.385  -2.748  0.00  0.00     0.054 A 
ATOM      3  C3  IND d   1      -0.505  -3.070  -1.729  0.00  0.00    -0.031 A 
ATOM      4  C4  IND d   1      -1.266  -2.232   0.583  0.00  0.00     0.051 A 
ATOM      5  C5  IND d   1      -1.252  -1.126   1.386  0.00  0.00    -0.031 A 
ATOM      6  C6  IND d   1      -0.723   0.076   0.963  0.00  0.00     0.015 A 
ATOM      7  C7  IND d   1      -0.195   0.220  -0.289  0.00  0.00    -0.016 A 
ATOM      8  C8  IND d   1      -0.202  -0.902  -1.105  0.00  0.00    -0.047 A 
ATOM      9  C9  IND d   1      -0.699  -2.136  -0.666  0.00  0.00    -0.096 A 
ATOM     10  HN1 IND d   1       0.630  -0.478  -2.880  0.00  0.00     0.298 HD
ENDROOT
TORSDOF 0
ENDMDL
