MODEL 1
REMARK minimizedAffinity -5.97661114
REMARK minimizedRMSD -1
REMARK  0 active torsions:
REMARK  status: ('A' for Active; 'I' for Inactive)
ROOT
ATOM      1  N1  IND d   1      -0.128  -0.261  -2.749  0.00  0.00    -0.196 N 
ATOM      2  C2  IND d   1      -0.199   0.936  -2.093  0.00  0.00     0.054 A 
ATOM      3  C3  IND d   1      -0.260   0.738  -0.757  0.00  0.00    -0.031 A 
ATOM      4  C4  IND d   1      -0.154  -1.461   0.577  0.00  0.00     0.051 A 
ATOM      5  C5  IND d   1      -0.124  -2.818   0.416  0.00  0.00    -0.031 A 
ATOM      6  C6  IND d   1      -0.091  -3.404  -0.833  0.00  0.00     0.015 A 
ATOM      7  C7  IND d   1      -0.075  -2.651  -1.973  0.00  0.00    -0.016 A 
ATOM      8  C8  IND d   1      -0.112  -1.273  -1.814  0.00  0.00    -0.047 A 
ATOM      9  C9  IND d   1      -0.188  -0.674  -0.550  0.00  0.00    -0.096 A 
ATOM     10  HN1 IND d   1      -0.099  -0.365  -3.602  0.00  0.00     0.298 HD
ENDROOT
TORSDOF 0
ENDMDL
