MODEL 1
REMARK minimizedAffinity -4.14925861
REMARK minimizedRMSD -1
REMARK  0 active torsions:
REMARK  status: ('A' for Active; 'I' for Inactive)
ROOT
ATOM      1  N1  IND d   1      -1.714  -0.025   0.726  0.00  0.00    -0.196 N 
ATOM      2  C2  IND d   1      -0.849   1.015   0.530  0.00  0.00     0.054 A 
ATOM      3  C3  IND d   1       0.395   0.551   0.275  0.00  0.00    -0.031 A 
ATOM      4  C4  IND d   1       1.216  -1.877   0.031  0.00  0.00     0.051 A 
ATOM      5  C5  IND d   1       0.801  -3.173   0.159  0.00  0.00    -0.031 A 
ATOM      6  C6  IND d   1      -0.501  -3.492   0.486  0.00  0.00     0.015 A 
ATOM      7  C7  IND d   1      -1.443  -2.523   0.687  0.00  0.00    -0.016 A 
ATOM      8  C8  IND d   1      -1.023  -1.206   0.565  0.00  0.00    -0.047 A 
ATOM      9  C9  IND d   1       0.307  -0.875   0.275  0.00  0.00    -0.096 A 
ATOM     10  HN1 IND d   1      -2.549   0.047   0.917  0.00  0.00     0.298 HD
ENDROOT
TORSDOF 0
ENDMDL
