MODEL 1
REMARK minimizedAffinity -4.95924664
REMARK minimizedRMSD -1
REMARK  0 active torsions:
REMARK  status: ('A' for Active; 'I' for Inactive)
ROOT
ATOM      1  N1  IND d   1       0.695  -0.208   0.211  0.00  0.00    -0.196 N 
ATOM      2  C2  IND d   1      -0.663  -0.354   0.160  0.00  0.00     0.054 A 
ATOM      3  C3  IND d   1      -1.270   0.846   0.294  0.00  0.00    -0.031 A 
ATOM      4  C4  IND d   1      -0.229   3.191   0.506  0.00  0.00     0.051 A 
ATOM      5  C5  IND d   1       0.973   3.828   0.636  0.00  0.00    -0.031 A 
ATOM      6  C6  IND d   1       2.168   3.139   0.628  0.00  0.00     0.015 A 
ATOM      7  C7  IND d   1       2.206   1.781   0.478  0.00  0.00    -0.016 A 
ATOM      8  C8  IND d   1       0.987   1.130   0.352  0.00  0.00    -0.047 A 
ATOM      9  C9  IND d   1      -0.231   1.820   0.402  0.00  0.00    -0.096 A 
ATOM     10  HN1 IND d   1       1.270  -0.846   0.162  0.00  0.00     0.298 HD
ENDROOT
TORSDOF 0
ENDMDL
