MODEL 1
REMARK minimizedAffinity -4.90977621
REMARK minimizedRMSD -1
REMARK  0 active torsions:
REMARK  status: ('A' for Active; 'I' for Inactive)
ROOT
ATOM      1  N1  IND d   1      -1.455   0.707   0.765  0.00  0.00    -0.196 N 
ATOM      2  C2  IND d   1      -0.368   1.468   0.436  0.00  0.00     0.054 A 
ATOM      3  C3  IND d   1       0.701   0.678   0.188  0.00  0.00    -0.031 A 
ATOM      4  C4  IND d   1       0.866  -1.891   0.163  0.00  0.00     0.051 A 
ATOM      5  C5  IND d   1       0.144  -3.020   0.435  0.00  0.00    -0.031 A 
ATOM      6  C6  IND d   1      -1.175  -2.962   0.836  0.00  0.00     0.015 A 
ATOM      7  C7  IND d   1      -1.828  -1.770   0.970  0.00  0.00    -0.016 A 
ATOM      8  C8  IND d   1      -1.096  -0.621   0.702  0.00  0.00    -0.047 A 
ATOM      9  C9  IND d   1       0.255  -0.671   0.336  0.00  0.00    -0.096 A 
ATOM     10  HN1 IND d   1      -2.232   1.008   0.976  0.00  0.00     0.298 HD
ENDROOT
TORSDOF 0
ENDMDL
