MODEL 1
REMARK minimizedAffinity -5.60947657
REMARK minimizedRMSD -1
REMARK  0 active torsions:
REMARK  status: ('A' for Active; 'I' for Inactive)
ROOT
ATOM      1  N1  IND d   1       0.533   0.514  -0.694  0.00  0.00    -0.196 N 
ATOM      2  C2  IND d   1      -0.072   1.167   0.344  0.00  0.00     0.054 A 
ATOM      3  C3  IND d   1      -0.583   0.278   1.225  0.00  0.00    -0.031 A 
ATOM      4  C4  IND d   1      -0.455  -2.293   1.214  0.00  0.00     0.051 A 
ATOM      5  C5  IND d   1      -0.036  -3.347   0.453  0.00  0.00    -0.031 A 
ATOM      6  C6  IND d   1       0.609  -3.165  -0.753  0.00  0.00     0.015 A 
ATOM      7  C7  IND d   1       0.872  -1.915  -1.239  0.00  0.00    -0.016 A 
ATOM      8  C8  IND d   1       0.441  -0.842  -0.471  0.00  0.00    -0.047 A 
ATOM      9  C9  IND d   1      -0.253  -1.021   0.732  0.00  0.00    -0.096 A 
ATOM     10  HN1 IND d   1       0.908   0.888  -1.371  0.00  0.00     0.298 HD
ENDROOT
TORSDOF 0
ENDMDL
