MODEL 1
REMARK minimizedAffinity -3.62849426
REMARK minimizedRMSD -1
REMARK  0 active torsions:
REMARK  status: ('A' for Active; 'I' for Inactive)
ROOT
ATOM      1  N1  IND d   1      -0.440   0.021  -0.831  0.00  0.00    -0.196 N 
ATOM      2  C2  IND d   1      -0.181  -0.885   0.160  0.00  0.00     0.054 A 
ATOM      3  C3  IND d   1       0.540  -0.309   1.147  0.00  0.00    -0.031 A 
ATOM      4  C4  IND d   1       1.317   2.133   1.394  0.00  0.00     0.051 A 
ATOM      5  C5  IND d   1       1.351   3.326   0.726  0.00  0.00    -0.031 A 
ATOM      6  C6  IND d   1       0.775   3.481  -0.518  0.00  0.00     0.015 A 
ATOM      7  C7  IND d   1       0.131   2.448  -1.139  0.00  0.00    -0.016 A 
ATOM      8  C8  IND d   1       0.102   1.234  -0.468  0.00  0.00    -0.047 A 
ATOM      9  C9  IND d   1       0.721   1.059   0.777  0.00  0.00    -0.096 A 
ATOM     10  HN1 IND d   1      -0.869  -0.140  -1.558  0.00  0.00     0.298 HD
ENDROOT
TORSDOF 0
ENDMDL
