MODEL 1
REMARK minimizedAffinity -4.53620434
REMARK minimizedRMSD -1
REMARK  0 active torsions:
REMARK  status: ('A' for Active; 'I' for Inactive)
ROOT
ATOM      1  N1  IND d   1      -0.247   0.896  -0.948  0.00  0.00    -0.196 N 
ATOM      2  C2  IND d   1      -1.063   1.489  -0.025  0.00  0.00     0.054 A 
ATOM      3  C3  IND d   1      -1.398   0.606   0.942  0.00  0.00    -0.031 A 
ATOM      4  C4  IND d   1      -0.639  -1.832   1.266  0.00  0.00     0.051 A 
ATOM      5  C5  IND d   1       0.078  -2.827   0.661  0.00  0.00    -0.031 A 
ATOM      6  C6  IND d   1       0.739  -2.626  -0.534  0.00  0.00     0.015 A 
ATOM      7  C7  IND d   1       0.716  -1.414  -1.165  0.00  0.00    -0.016 A 
ATOM      8  C8  IND d   1      -0.017  -0.405  -0.558  0.00  0.00    -0.047 A 
ATOM      9  C9  IND d   1      -0.724  -0.615   0.633  0.00  0.00    -0.096 A 
ATOM     10  HN1 IND d   1       0.069   1.273  -1.654  0.00  0.00     0.298 HD
ENDROOT
TORSDOF 0
ENDMDL
