MODEL 1
REMARK minimizedAffinity 1.11093771
REMARK minimizedRMSD -1
REMARK  0 active torsions:
REMARK  status: ('A' for Active; 'I' for Inactive)
ROOT
ATOM      1  N1  IND d   1       0.483   0.043  -0.322  0.00  0.00    -0.196 N 
ATOM      2  C2  IND d   1      -0.331   1.129  -0.161  0.00  0.00     0.054 A 
ATOM      3  C3  IND d   1      -1.454   0.781   0.507  0.00  0.00    -0.031 A 
ATOM      4  C4  IND d   1      -2.118  -1.492   1.517  0.00  0.00     0.051 A 
ATOM      5  C5  IND d   1      -1.713  -2.795   1.595  0.00  0.00    -0.031 A 
ATOM      6  C6  IND d   1      -0.531  -3.227   1.030  0.00  0.00     0.015 A 
ATOM      7  C7  IND d   1       0.300  -2.366   0.371  0.00  0.00    -0.016 A 
ATOM      8  C8  IND d   1      -0.111  -1.043   0.283  0.00  0.00    -0.047 A 
ATOM      9  C9  IND d   1      -1.330  -0.608   0.819  0.00  0.00    -0.096 A 
ATOM     10  HN1 IND d   1       1.238   0.038  -0.732  0.00  0.00     0.298 HD
ENDROOT
TORSDOF 0
ENDMDL
