MODEL 1
REMARK minimizedAffinity -6.13448668
REMARK minimizedRMSD -1
REMARK  0 active torsions:
REMARK  status: ('A' for Active; 'I' for Inactive)
ROOT
ATOM      1  N1  IND d   1       0.112  -0.686  -2.030  0.00  0.00    -0.196 N 
ATOM      2  C2  IND d   1       0.267  -1.774  -2.843  0.00  0.00     0.054 A 
ATOM      3  C3  IND d   1       0.107  -2.915  -2.136  0.00  0.00    -0.031 A 
ATOM      4  C4  IND d   1      -0.516  -3.232   0.342  0.00  0.00     0.051 A 
ATOM      5  C5  IND d   1      -0.724  -2.533   1.498  0.00  0.00    -0.031 A 
ATOM      6  C6  IND d   1      -0.667  -1.155   1.537  0.00  0.00     0.015 A 
ATOM      7  C7  IND d   1      -0.408  -0.420   0.414  0.00  0.00    -0.016 A 
ATOM      8  C8  IND d   1      -0.189  -1.127  -0.760  0.00  0.00    -0.047 A 
ATOM      9  C9  IND d   1      -0.204  -2.527  -0.797  0.00  0.00    -0.096 A 
ATOM     10  HN1 IND d   1       0.188   0.136  -2.271  0.00  0.00     0.298 HD
ENDROOT
TORSDOF 0
ENDMDL
