MODEL 1
REMARK minimizedAffinity -3.9650321
REMARK minimizedRMSD -1
REMARK  0 active torsions:
REMARK  status: ('A' for Active; 'I' for Inactive)
ROOT
ATOM      1  N1  IND d   1      -1.536   0.104   0.554  0.00  0.00    -0.196 N 
ATOM      2  C2  IND d   1      -0.671   1.036   0.052  0.00  0.00     0.054 A 
ATOM      3  C3  IND d   1       0.496   0.452  -0.301  0.00  0.00    -0.031 A 
ATOM      4  C4  IND d   1       1.166  -2.033  -0.239  0.00  0.00     0.051 A 
ATOM      5  C5  IND d   1       0.723  -3.258   0.173  0.00  0.00    -0.031 A 
ATOM      6  C6  IND d   1      -0.523  -3.429   0.742  0.00  0.00     0.015 A 
ATOM      7  C7  IND d   1      -1.379  -2.378   0.911  0.00  0.00    -0.016 A 
ATOM      8  C8  IND d   1      -0.929  -1.131   0.500  0.00  0.00    -0.047 A 
ATOM      9  C9  IND d   1       0.350  -0.945  -0.039  0.00  0.00    -0.096 A 
ATOM     10  HN1 IND d   1      -2.326   0.263   0.853  0.00  0.00     0.298 HD
ENDROOT
TORSDOF 0
ENDMDL
