MODEL 1
REMARK minimizedAffinity -0.742481232
REMARK minimizedRMSD -1
REMARK  0 active torsions:
REMARK  status: ('A' for Active; 'I' for Inactive)
ROOT
ATOM      1  N1  IND d   1       0.773   3.881   3.149  0.00  0.00    -0.196 N 
ATOM      2  C2  IND d   1      -0.575   3.852   2.922  0.00  0.00     0.054 A 
ATOM      3  C3  IND d   1      -0.828   3.526   1.634  0.00  0.00    -0.031 A 
ATOM      4  C4  IND d   1       0.813   2.899  -0.247  0.00  0.00     0.051 A 
ATOM      5  C5  IND d   1       2.148   2.819  -0.530  0.00  0.00    -0.031 A 
ATOM      6  C6  IND d   1       3.112   3.093   0.418  0.00  0.00     0.015 A 
ATOM      7  C7  IND d   1       2.775   3.446   1.694  0.00  0.00    -0.016 A 
ATOM      8  C8  IND d   1       1.421   3.535   1.983  0.00  0.00    -0.047 A 
ATOM      9  C9  IND d   1       0.438   3.300   1.013  0.00  0.00    -0.096 A 
ATOM     10  HN1 IND d   1       1.152   4.082   3.894  0.00  0.00     0.298 HD
ENDROOT
TORSDOF 0
ENDMDL
