MODEL 1
REMARK minimizedAffinity 1.1017046
REMARK minimizedRMSD -1
REMARK  0 active torsions:
REMARK  status: ('A' for Active; 'I' for Inactive)
ROOT
ATOM      1  N1  IND d   1       0.580   2.781  -0.541  0.00  0.00    -0.196 N 
ATOM      2  C2  IND d   1       1.344   2.907   0.586  0.00  0.00     0.054 A 
ATOM      3  C3  IND d   1       1.758   1.692   1.012  0.00  0.00    -0.031 A 
ATOM      4  C4  IND d   1       1.385  -0.626  -0.044  0.00  0.00     0.051 A 
ATOM      5  C5  IND d   1       0.721  -1.252  -1.061  0.00  0.00    -0.031 A 
ATOM      6  C6  IND d   1      -0.038  -0.552  -1.976  0.00  0.00     0.015 A 
ATOM      7  C7  IND d   1      -0.151   0.809  -1.916  0.00  0.00    -0.016 A 
ATOM      8  C8  IND d   1       0.517   1.447  -0.880  0.00  0.00    -0.047 A 
ATOM      9  C9  IND d   1       1.253   0.737   0.077  0.00  0.00    -0.096 A 
ATOM     10  HN1 IND d   1       0.203   3.426  -0.966  0.00  0.00     0.298 HD
ENDROOT
TORSDOF 0
ENDMDL
