MODEL 1
REMARK minimizedAffinity -6.15560007
REMARK minimizedRMSD -1
REMARK  0 active torsions:
REMARK  status: ('A' for Active; 'I' for Inactive)
ROOT
ATOM      1  N1  IND d   1       0.167   0.399  -1.256  0.00  0.00    -0.196 N 
ATOM      2  C2  IND d   1      -0.225   0.875  -0.036  0.00  0.00     0.054 A 
ATOM      3  C3  IND d   1      -0.502  -0.150   0.801  0.00  0.00    -0.031 A 
ATOM      4  C4  IND d   1      -0.282  -2.686   0.412  0.00  0.00     0.051 A 
ATOM      5  C5  IND d   1       0.003  -3.606  -0.558  0.00  0.00    -0.031 A 
ATOM      6  C6  IND d   1       0.368  -3.230  -1.835  0.00  0.00     0.015 A 
ATOM      7  C7  IND d   1       0.472  -1.915  -2.188  0.00  0.00    -0.016 A 
ATOM      8  C8  IND d   1       0.176  -0.978  -1.208  0.00  0.00    -0.047 A 
ATOM      9  C9  IND d   1      -0.235  -1.353   0.077  0.00  0.00    -0.096 A 
ATOM     10  HN1 IND d   1       0.373   0.879  -1.939  0.00  0.00     0.298 HD
ENDROOT
TORSDOF 0
ENDMDL
