MODEL 1
REMARK minimizedAffinity -2.07985473
REMARK minimizedRMSD -1
REMARK  0 active torsions:
REMARK  status: ('A' for Active; 'I' for Inactive)
ROOT
ATOM      1  N1  IND d   1       0.604  -1.245  -1.986  0.00  0.00    -0.196 N 
ATOM      2  C2  IND d   1       0.638  -2.415  -1.281  0.00  0.00     0.054 A 
ATOM      3  C3  IND d   1       0.126  -2.234  -0.044  0.00  0.00    -0.031 A 
ATOM      4  C4  IND d   1      -0.920  -0.126   1.001  0.00  0.00     0.051 A 
ATOM      5  C5  IND d   1      -1.144   1.200   0.756  0.00  0.00    -0.031 A 
ATOM      6  C6  IND d   1      -0.791   1.790  -0.440  0.00  0.00     0.015 A 
ATOM      7  C7  IND d   1      -0.210   1.070  -1.446  0.00  0.00    -0.016 A 
ATOM      8  C8  IND d   1       0.025  -0.275  -1.198  0.00  0.00    -0.047 A 
ATOM      9  C9  IND d   1      -0.292  -0.870   0.030  0.00  0.00    -0.096 A 
ATOM     10  HN1 IND d   1       0.896  -1.133  -2.788  0.00  0.00     0.298 HD
ENDROOT
TORSDOF 0
ENDMDL
