MODEL 1
REMARK minimizedAffinity -5.00403643
REMARK minimizedRMSD -1
REMARK  0 active torsions:
REMARK  status: ('A' for Active; 'I' for Inactive)
ROOT
ATOM      1  N1  IND d   1      -0.133   0.592  -1.196  0.00  0.00    -0.196 N 
ATOM      2  C2  IND d   1      -0.659   0.973   0.007  0.00  0.00     0.054 A 
ATOM      3  C3  IND d   1      -1.035  -0.113   0.720  0.00  0.00    -0.031 A 
ATOM      4  C4  IND d   1      -0.785  -2.611   0.151  0.00  0.00     0.051 A 
ATOM      5  C5  IND d   1      -0.395  -3.453  -0.852  0.00  0.00    -0.031 A 
ATOM      6  C6  IND d   1       0.115  -2.981  -2.044  0.00  0.00     0.015 A 
ATOM      7  C7  IND d   1       0.265  -1.642  -2.274  0.00  0.00    -0.016 A 
ATOM      8  C8  IND d   1      -0.136  -0.784  -1.260  0.00  0.00    -0.047 A 
ATOM      9  C9  IND d   1      -0.694  -1.256  -0.065  0.00  0.00    -0.096 A 
ATOM     10  HN1 IND d   1       0.152   1.123  -1.809  0.00  0.00     0.298 HD
ENDROOT
TORSDOF 0
ENDMDL
