MODEL 1
REMARK minimizedAffinity -4.03257084
REMARK minimizedRMSD -1
REMARK  1 active torsions:
REMARK  status: ('A' for Active; 'I' for Inactive)
REMARK    1  A    between atoms: C1_2  and  C2_3 
ROOT
ATOM      1  C2  UNL d   1       0.032  -1.061  -0.090  0.00  0.00    -0.076 A 
ATOM      2  C3  UNL d   1      -0.496  -0.144   0.835  0.00  0.00     0.004 A 
ATOM      3  C4  UNL d   1      -0.732   1.182   0.475  0.00  0.00    -0.003 A 
ATOM      4  C5  UNL d   1      -0.445   1.611  -0.816  0.00  0.00     0.000 A 
ATOM      5  C6  UNL d   1       0.064   0.710  -1.751  0.00  0.00     0.000 A 
ATOM      6  C7  UNL d   1       0.292  -0.633  -1.409  0.00  0.00    -0.073 A 
ATOM      7  C8  UNL d   1       0.847  -1.560  -2.456  0.00  0.00     0.078 C 
ENDROOT
BRANCH   1   8
ATOM      8  C1  UNL d   1       0.292  -2.480   0.365  0.00  0.00     0.053 C 
ATOM      9  C   UNL d   1      -0.987  -3.291   0.506  0.00  0.00     0.018 C 
ENDBRANCH   1   8
TORSDOF 1
ENDMDL
