MODEL 1
REMARK minimizedAffinity -3.17858577
REMARK minimizedRMSD -1
REMARK  1 active torsions:
REMARK  status: ('A' for Active; 'I' for Inactive)
REMARK    1  A    between atoms: C1_2  and  C2_3 
ROOT
ATOM      1  C2  UNL d   1       0.251  -0.567  -0.334  0.00  0.00    -0.076 A 
ATOM      2  C3  UNL d   1       1.154  -1.373  -1.050  0.00  0.00     0.004 A 
ATOM      3  C4  UNL d   1       1.336  -2.715  -0.717  0.00  0.00    -0.003 A 
ATOM      4  C5  UNL d   1       0.619  -3.272   0.335  0.00  0.00     0.000 A 
ATOM      5  C6  UNL d   1      -0.294  -2.492   1.044  0.00  0.00     0.000 A 
ATOM      6  C7  UNL d   1      -0.502  -1.142   0.712  0.00  0.00    -0.073 A 
ATOM      7  C8  UNL d   1      -1.494  -0.346   1.514  0.00  0.00     0.078 C 
ENDROOT
BRANCH   1   8
ATOM      8  C1  UNL d   1       0.115   0.888  -0.722  0.00  0.00     0.053 C 
ATOM      9  C   UNL d   1       0.416   1.129  -2.193  0.00  0.00     0.018 C 
ENDBRANCH   1   8
TORSDOF 1
ENDMDL
