MODEL 1
REMARK minimizedAffinity -4.31792259
REMARK minimizedRMSD -1
REMARK  1 active torsions:
REMARK  status: ('A' for Active; 'I' for Inactive)
REMARK    1  A    between atoms: C1_2  and  C2_3 
ROOT
ATOM      1  C2  UNL d   1      -0.018   0.087  -0.098  0.00  0.00    -0.076 A 
ATOM      2  C3  UNL d   1      -0.485  -0.215   1.193  0.00  0.00     0.004 A 
ATOM      3  C4  UNL d   1      -0.606  -1.536   1.622  0.00  0.00    -0.003 A 
ATOM      4  C5  UNL d   1      -0.260  -2.576   0.766  0.00  0.00     0.000 A 
ATOM      5  C6  UNL d   1       0.223  -2.295  -0.511  0.00  0.00     0.000 A 
ATOM      6  C7  UNL d   1       0.366  -0.968  -0.953  0.00  0.00    -0.073 A 
ATOM      7  C8  UNL d   1       0.885  -0.722  -2.343  0.00  0.00     0.078 C 
ENDROOT
BRANCH   1   8
ATOM      8  C1  UNL d   1       0.066   1.537  -0.517  0.00  0.00     0.053 C 
ATOM      9  C   UNL d   1       1.155   2.296   0.226  0.00  0.00     0.018 C 
ENDBRANCH   1   8
TORSDOF 1
ENDMDL
