MODEL 1
REMARK minimizedAffinity -3.4056251
REMARK minimizedRMSD -1
REMARK  1 active torsions:
REMARK  status: ('A' for Active; 'I' for Inactive)
REMARK    1  A    between atoms: C1_2  and  C2_3 
ROOT
ATOM      1  C2  UNL d   1       0.822   1.189   0.444  0.00  0.00    -0.076 A 
ATOM      2  C3  UNL d   1       1.641   1.518   1.538  0.00  0.00     0.004 A 
ATOM      3  C4  UNL d   1       1.920   2.848   1.850  0.00  0.00    -0.003 A 
ATOM      4  C5  UNL d   1       1.384   3.869   1.074  0.00  0.00     0.000 A 
ATOM      5  C6  UNL d   1       0.555   3.562  -0.004  0.00  0.00     0.000 A 
ATOM      6  C7  UNL d   1       0.250   2.227  -0.323  0.00  0.00    -0.073 A 
ATOM      7  C8  UNL d   1      -0.644   1.952  -1.501  0.00  0.00     0.078 C 
ENDROOT
BRANCH   1   8
ATOM      8  C1  UNL d   1       0.576  -0.271   0.137  0.00  0.00     0.053 C 
ATOM      9  C   UNL d   1      -0.478  -0.888   1.044  0.00  0.00     0.018 C 
ENDBRANCH   1   8
TORSDOF 1
ENDMDL
