MODEL 1
REMARK minimizedAffinity -2.50141215
REMARK minimizedRMSD -1
REMARK  1 active torsions:
REMARK  status: ('A' for Active; 'I' for Inactive)
REMARK    1  A    between atoms: C1_2  and  C2_3 
ROOT
ATOM      1  C2  UNL d   1      -0.004  -0.443   0.313  0.00  0.00    -0.076 A 
ATOM      2  C3  UNL d   1       0.786  -1.287  -0.487  0.00  0.00     0.004 A 
ATOM      3  C4  UNL d   1       0.472  -2.638  -0.631  0.00  0.00    -0.003 A 
ATOM      4  C5  UNL d   1      -0.636  -3.166   0.022  0.00  0.00     0.000 A 
ATOM      5  C6  UNL d   1      -1.440  -2.339   0.806  0.00  0.00     0.000 A 
ATOM      6  C7  UNL d   1      -1.147  -0.971   0.949  0.00  0.00    -0.073 A 
ATOM      7  C8  UNL d   1      -2.045  -0.127   1.811  0.00  0.00     0.078 C 
ENDROOT
BRANCH   1   8
ATOM      8  C1  UNL d   1       0.401   1.008   0.453  0.00  0.00     0.053 C 
ATOM      9  C   UNL d   1      -0.186   1.885  -0.642  0.00  0.00     0.018 C 
ENDBRANCH   1   8
TORSDOF 1
ENDMDL
