MODEL 1
REMARK minimizedAffinity -3.54428482
REMARK minimizedRMSD -1
REMARK  1 active torsions:
REMARK  status: ('A' for Active; 'I' for Inactive)
REMARK    1  A    between atoms: C1_2  and  C2_3 
ROOT
ATOM      1  C2  UNL d   1       0.146  -0.574  -0.235  0.00  0.00    -0.076 A 
ATOM      2  C3  UNL d   1       1.108  -1.474  -0.725  0.00  0.00     0.004 A 
ATOM      3  C4  UNL d   1       1.137  -2.799  -0.292  0.00  0.00    -0.003 A 
ATOM      4  C5  UNL d   1       0.205  -3.245   0.638  0.00  0.00     0.000 A 
ATOM      5  C6  UNL d   1      -0.767  -2.370   1.122  0.00  0.00     0.000 A 
ATOM      6  C7  UNL d   1      -0.821  -1.036   0.684  0.00  0.00    -0.073 A 
ATOM      7  C8  UNL d   1      -1.887  -0.135   1.244  0.00  0.00     0.078 C 
ENDROOT
BRANCH   1   8
ATOM      8  C1  UNL d   1       0.180   0.857  -0.721  0.00  0.00     0.053 C 
ATOM      9  C   UNL d   1       1.181   1.709   0.045  0.00  0.00     0.018 C 
ENDBRANCH   1   8
TORSDOF 1
ENDMDL
