MODEL 1
REMARK minimizedAffinity -6.47237015
REMARK minimizedRMSD -1
REMARK  1 active torsions:
REMARK  status: ('A' for Active; 'I' for Inactive)
REMARK    1  A    between atoms: C1_2  and  C2_3 
ROOT
ATOM      1  C2  UNL d   1      -0.079  -0.274  -0.352  0.00  0.00    -0.076 A 
ATOM      2  C3  UNL d   1      -0.420  -0.498   0.993  0.00  0.00     0.004 A 
ATOM      3  C4  UNL d   1      -0.493  -1.791   1.509  0.00  0.00    -0.003 A 
ATOM      4  C5  UNL d   1      -0.224  -2.881   0.689  0.00  0.00     0.000 A 
ATOM      5  C6  UNL d   1       0.133  -2.676  -0.643  0.00  0.00     0.000 A 
ATOM      6  C7  UNL d   1       0.227  -1.379  -1.175  0.00  0.00    -0.073 A 
ATOM      7  C8  UNL d   1       0.611  -1.217  -2.620  0.00  0.00     0.078 C 
ENDROOT
BRANCH   1   8
ATOM      8  C1  UNL d   1      -0.043   1.149  -0.863  0.00  0.00     0.053 C 
ATOM      9  C   UNL d   1       0.414   2.138   0.199  0.00  0.00     0.018 C 
ENDBRANCH   1   8
TORSDOF 1
ENDMDL
