MODEL 1
REMARK minimizedAffinity -4.11278772
REMARK minimizedRMSD -1
REMARK  1 active torsions:
REMARK  status: ('A' for Active; 'I' for Inactive)
REMARK    1  A    between atoms: C1_2  and  C2_3 
ROOT
ATOM      1  C2  UNL d   1       0.060  -1.034   0.442  0.00  0.00    -0.076 A 
ATOM      2  C3  UNL d   1      -0.181  -0.162   1.517  0.00  0.00     0.004 A 
ATOM      3  C4  UNL d   1       0.150   1.190   1.433  0.00  0.00    -0.003 A 
ATOM      4  C5  UNL d   1       0.726   1.691   0.271  0.00  0.00     0.000 A 
ATOM      5  C6  UNL d   1       0.955   0.844  -0.812  0.00  0.00     0.000 A 
ATOM      6  C7  UNL d   1       0.613  -0.518  -0.750  0.00  0.00    -0.073 A 
ATOM      7  C8  UNL d   1       0.888  -1.387  -1.946  0.00  0.00     0.078 C 
ENDROOT
BRANCH   1   8
ATOM      8  C1  UNL d   1      -0.295  -2.495   0.601  0.00  0.00     0.053 C 
ATOM      9  C   UNL d   1      -1.797  -2.734   0.601  0.00  0.00     0.018 C 
ENDBRANCH   1   8
TORSDOF 1
ENDMDL
