MODEL 1
REMARK minimizedAffinity -3.66672134
REMARK minimizedRMSD -1
REMARK  1 active torsions:
REMARK  status: ('A' for Active; 'I' for Inactive)
REMARK    1  A    between atoms: C1_2  and  C2_3 
ROOT
ATOM      1  C2  UNL d   1      -0.417  -1.232   0.052  0.00  0.00    -0.076 A 
ATOM      2  C3  UNL d   1      -0.894  -0.350   1.037  0.00  0.00     0.004 A 
ATOM      3  C4  UNL d   1      -0.674   1.022   0.938  0.00  0.00    -0.003 A 
ATOM      4  C5  UNL d   1       0.026   1.536  -0.148  0.00  0.00     0.000 A 
ATOM      5  C6  UNL d   1       0.492   0.677  -1.143  0.00  0.00     0.000 A 
ATOM      6  C7  UNL d   1       0.265  -0.708  -1.067  0.00  0.00    -0.073 A 
ATOM      7  C8  UNL d   1       0.794  -1.588  -2.166  0.00  0.00     0.078 C 
ENDROOT
BRANCH   1   8
ATOM      8  C1  UNL d   1      -0.662  -2.714   0.226  0.00  0.00     0.053 C 
ATOM      9  C   UNL d   1      -2.140  -3.049   0.360  0.00  0.00     0.018 C 
ENDBRANCH   1   8
TORSDOF 1
ENDMDL
