MODEL 1
REMARK minimizedAffinity -4.66750813
REMARK minimizedRMSD -1
REMARK  1 active torsions:
REMARK  status: ('A' for Active; 'I' for Inactive)
REMARK    1  A    between atoms: C1_2  and  C2_3 
ROOT
ATOM      1  C2  UNL d   1       0.333  -1.336  -0.565  0.00  0.00    -0.076 A 
ATOM      2  C3  UNL d   1       0.019  -0.024  -0.171  0.00  0.00     0.004 A 
ATOM      3  C4  UNL d   1      -0.713   0.221   0.989  0.00  0.00    -0.003 A 
ATOM      4  C5  UNL d   1      -1.141  -0.842   1.777  0.00  0.00     0.000 A 
ATOM      5  C6  UNL d   1      -0.822  -2.150   1.411  0.00  0.00     0.000 A 
ATOM      6  C7  UNL d   1      -0.072  -2.413   0.252  0.00  0.00    -0.073 A 
ATOM      7  C8  UNL d   1       0.238  -3.843  -0.098  0.00  0.00     0.078 C 
ENDROOT
BRANCH   1   8
ATOM      8  C1  UNL d   1       1.106  -1.542  -1.848  0.00  0.00     0.053 C 
ATOM      9  C   UNL d   1       0.695  -0.565  -2.939  0.00  0.00     0.018 C 
ENDBRANCH   1   8
TORSDOF 1
ENDMDL
