MODEL 1
REMARK minimizedAffinity -0.0315503515
REMARK minimizedRMSD -1
REMARK  1 active torsions:
REMARK  status: ('A' for Active; 'I' for Inactive)
REMARK    1  A    between atoms: C1_2  and  C2_3 
ROOT
ATOM      1  C2  UNL d   1       0.118  -0.620  -0.083  0.00  0.00    -0.076 A 
ATOM      2  C3  UNL d   1       1.168  -1.462  -0.487  0.00  0.00     0.004 A 
ATOM      3  C4  UNL d   1       1.197  -2.804  -0.112  0.00  0.00    -0.003 A 
ATOM      4  C5  UNL d   1       0.175  -3.327   0.673  0.00  0.00     0.000 A 
ATOM      5  C6  UNL d   1      -0.884  -2.510   1.068  0.00  0.00     0.000 A 
ATOM      6  C7  UNL d   1      -0.937  -1.159   0.685  0.00  0.00    -0.073 A 
ATOM      7  C8  UNL d   1      -2.100  -0.323   1.145  0.00  0.00     0.078 C 
ENDROOT
BRANCH   1   8
ATOM      8  C1  UNL d   1       0.154   0.833  -0.497  0.00  0.00     0.053 C 
ATOM      9  C   UNL d   1       1.188   1.635   0.279  0.00  0.00     0.018 C 
ENDBRANCH   1   8
TORSDOF 1
ENDMDL
