MODEL 1
REMARK minimizedAffinity -1.38898277
REMARK minimizedRMSD -1
REMARK  1 active torsions:
REMARK  status: ('A' for Active; 'I' for Inactive)
REMARK    1  A    between atoms: C1_2  and  C2_3 
ROOT
ATOM      1  C2  UNL d   1       0.183   0.681  -0.242  0.00  0.00    -0.076 A 
ATOM      2  C3  UNL d   1      -0.163   0.319   1.072  0.00  0.00     0.004 A 
ATOM      3  C4  UNL d   1      -0.681  -0.944   1.355  0.00  0.00    -0.003 A 
ATOM      4  C5  UNL d   1      -0.862  -1.865   0.329  0.00  0.00     0.000 A 
ATOM      5  C6  UNL d   1      -0.507  -1.529  -0.977  0.00  0.00     0.000 A 
ATOM      6  C7  UNL d   1       0.032  -0.266  -1.277  0.00  0.00    -0.073 A 
ATOM      7  C8  UNL d   1       0.391   0.045  -2.704  0.00  0.00     0.078 C 
ENDROOT
BRANCH   1   8
ATOM      8  C1  UNL d   1       0.716   2.073  -0.493  0.00  0.00     0.053 C 
ATOM      9  C   UNL d   1       1.383   2.672   0.736  0.00  0.00     0.018 C 
ENDBRANCH   1   8
TORSDOF 1
ENDMDL
