MODEL 1
REMARK minimizedAffinity -3.17466187
REMARK minimizedRMSD -1
REMARK  1 active torsions:
REMARK  status: ('A' for Active; 'I' for Inactive)
REMARK    1  A    between atoms: C1_2  and  C2_3 
ROOT
ATOM      1  C2  UNL d   1       0.143   0.032  -0.218  0.00  0.00    -0.076 A 
ATOM      2  C3  UNL d   1       1.047  -0.688  -1.018  0.00  0.00     0.004 A 
ATOM      3  C4  UNL d   1       1.195  -2.066  -0.871  0.00  0.00    -0.003 A 
ATOM      4  C5  UNL d   1       0.441  -2.747   0.078  0.00  0.00     0.000 A 
ATOM      5  C6  UNL d   1      -0.474  -2.051   0.868  0.00  0.00     0.000 A 
ATOM      6  C7  UNL d   1      -0.647  -0.664   0.722  0.00  0.00    -0.073 A 
ATOM      7  C8  UNL d   1      -1.643   0.036   1.605  0.00  0.00     0.078 C 
ENDROOT
BRANCH   1   8
ATOM      8  C1  UNL d   1       0.045   1.530  -0.403  0.00  0.00     0.053 C 
ATOM      9  C   UNL d   1       1.218   2.272   0.219  0.00  0.00     0.018 C 
ENDBRANCH   1   8
TORSDOF 1
ENDMDL
