MODEL 1
REMARK minimizedAffinity 0.498239011
REMARK minimizedRMSD -1
REMARK  0 active torsions:
REMARK  status: ('A' for Active; 'I' for Inactive)
ROOT
ATOM      1  C   UNL d   1      -2.247   2.268   6.000  0.00  0.00     0.172 C 
ATOM      2  N   UNL d   1      -2.272   2.226   4.557  0.00  0.00    -0.070 N 
ATOM      3  C1  UNL d   1      -3.368   2.463   3.770  0.00  0.00    -0.004 A 
ATOM      4  C2  UNL d   1      -2.980   2.326   2.455  0.00  0.00    -0.047 A 
ATOM      5  C3  UNL d   1      -1.604   1.994   2.451  0.00  0.00    -0.047 A 
ATOM      6  C4  UNL d   1      -1.191   1.939   3.765  0.00  0.00    -0.004 A 
ENDROOT
TORSDOF 0
ENDMDL
