MODEL 1
REMARK minimizedAffinity -0.40207988
REMARK minimizedRMSD -1
REMARK  0 active torsions:
REMARK  status: ('A' for Active; 'I' for Inactive)
ROOT
ATOM      1  C   UNL d   1       1.566  -1.706  -1.165  0.00  0.00     0.172 C 
ATOM      2  N   UNL d   1       1.479  -0.265  -1.173  0.00  0.00    -0.070 N 
ATOM      3  C1  UNL d   1       1.675   0.541  -2.263  0.00  0.00    -0.004 A 
ATOM      4  C2  UNL d   1       1.503   1.847  -1.859  0.00  0.00    -0.047 A 
ATOM      5  C3  UNL d   1       1.193   1.826  -0.478  0.00  0.00    -0.047 A 
ATOM      6  C4  UNL d   1       1.185   0.506  -0.080  0.00  0.00    -0.004 A 
ENDROOT
TORSDOF 0
ENDMDL
