MODEL 1
REMARK minimizedAffinity 2.38049769
REMARK minimizedRMSD -1
REMARK  0 active torsions:
REMARK  status: ('A' for Active; 'I' for Inactive)
ROOT
ATOM      1  C   UNL d   1       1.194   3.159  -0.836  0.00  0.00     0.172 C 
ATOM      2  N   UNL d   1       1.378   1.752  -1.105  0.00  0.00    -0.070 N 
ATOM      3  C1  UNL d   1       2.133   0.889  -0.357  0.00  0.00    -0.004 A 
ATOM      4  C2  UNL d   1       2.052  -0.357  -0.941  0.00  0.00    -0.047 A 
ATOM      5  C3  UNL d   1       1.221  -0.238  -2.080  0.00  0.00    -0.047 A 
ATOM      6  C4  UNL d   1       0.817   1.078  -2.157  0.00  0.00    -0.004 A 
ENDROOT
TORSDOF 0
ENDMDL
