MODEL 1
REMARK minimizedAffinity -2.75530005
REMARK minimizedRMSD -1
REMARK  0 active torsions:
REMARK  status: ('A' for Active; 'I' for Inactive)
ROOT
ATOM      1  C   UNL d   1       1.168   0.370  -0.790  0.00  0.00     0.172 C 
ATOM      2  N   UNL d   1       1.172   1.802  -0.610  0.00  0.00    -0.070 N 
ATOM      3  C1  UNL d   1       1.281   2.732  -1.609  0.00  0.00    -0.004 A 
ATOM      4  C2  UNL d   1       1.244   3.982  -1.029  0.00  0.00    -0.047 A 
ATOM      5  C3  UNL d   1       1.107   3.796   0.367  0.00  0.00    -0.047 A 
ATOM      6  C4  UNL d   1       1.065   2.438   0.599  0.00  0.00    -0.004 A 
ENDROOT
TORSDOF 0
ENDMDL
