MODEL 1
REMARK minimizedAffinity 2.55448937
REMARK minimizedRMSD -1
REMARK  0 active torsions:
REMARK  status: ('A' for Active; 'I' for Inactive)
ROOT
ATOM      1  C   UNL d   1       1.285  -0.121  -1.135  0.00  0.00     0.172 C 
ATOM      2  N   UNL d   1       1.239   1.291  -0.838  0.00  0.00    -0.070 N 
ATOM      3  C1  UNL d   1       1.291   1.846   0.413  0.00  0.00    -0.004 A 
ATOM      4  C2  UNL d   1       1.220   3.215   0.270  0.00  0.00    -0.047 A 
ATOM      5  C3  UNL d   1       1.120   3.492  -1.114  0.00  0.00    -0.047 A 
ATOM      6  C4  UNL d   1       1.134   2.283  -1.777  0.00  0.00    -0.004 A 
ENDROOT
TORSDOF 0
ENDMDL
