MODEL 1
REMARK minimizedAffinity -0.859014988
REMARK minimizedRMSD -1
REMARK  0 active torsions:
REMARK  status: ('A' for Active; 'I' for Inactive)
ROOT
ATOM      1  C   UNL d   1       3.663   1.741   0.801  0.00  0.00     0.172 C 
ATOM      2  N   UNL d   1       2.793   1.773  -0.352  0.00  0.00    -0.070 N 
ATOM      3  C1  UNL d   1       2.514   2.878  -1.110  0.00  0.00    -0.004 A 
ATOM      4  C2  UNL d   1       1.648   2.495  -2.112  0.00  0.00    -0.047 A 
ATOM      5  C3  UNL d   1       1.399   1.112  -1.950  0.00  0.00    -0.047 A 
ATOM      6  C4  UNL d   1       2.120   0.690  -0.853  0.00  0.00    -0.004 A 
ENDROOT
TORSDOF 0
ENDMDL
