MODEL 1
REMARK minimizedAffinity -2.64282775
REMARK minimizedRMSD -1
REMARK  0 active torsions:
REMARK  status: ('A' for Active; 'I' for Inactive)
ROOT
ATOM      1  C   UNL d   1       1.513   2.246   1.557  0.00  0.00     0.172 C 
ATOM      2  N   UNL d   1       1.290   1.787   0.206  0.00  0.00    -0.070 N 
ATOM      3  C1  UNL d   1       1.366   0.488  -0.219  0.00  0.00    -0.004 A 
ATOM      4  C2  UNL d   1       1.088   0.468  -1.569  0.00  0.00    -0.047 A 
ATOM      5  C3  UNL d   1       0.837   1.802  -1.969  0.00  0.00    -0.047 A 
ATOM      6  C4  UNL d   1       0.969   2.598  -0.851  0.00  0.00    -0.004 A 
ENDROOT
TORSDOF 0
ENDMDL
