MODEL 1
REMARK minimizedAffinity 3.2727046
REMARK minimizedRMSD -1
REMARK  0 active torsions:
REMARK  status: ('A' for Active; 'I' for Inactive)
ROOT
ATOM      1  C   UNL d   1       4.032   0.764   0.723  0.00  0.00     0.172 C 
ATOM      2  N   UNL d   1       2.709   0.490   0.212  0.00  0.00    -0.070 N 
ATOM      3  C1  UNL d   1       2.263  -0.724  -0.238  0.00  0.00    -0.004 A 
ATOM      4  C2  UNL d   1       0.953  -0.570  -0.638  0.00  0.00    -0.047 A 
ATOM      5  C3  UNL d   1       0.600   0.784  -0.421  0.00  0.00    -0.047 A 
ATOM      6  C4  UNL d   1       1.706   1.417   0.106  0.00  0.00    -0.004 A 
ENDROOT
TORSDOF 0
ENDMDL
