MODEL 1
REMARK minimizedAffinity 0.218841746
REMARK minimizedRMSD -1
REMARK  0 active torsions:
REMARK  status: ('A' for Active; 'I' for Inactive)
ROOT
ATOM      1  C   UNL d   1       0.819   3.208  -1.908  0.00  0.00     0.172 C 
ATOM      2  N   UNL d   1       0.913   1.863  -1.392  0.00  0.00    -0.070 N 
ATOM      3  C1  UNL d   1       1.307   1.519  -0.127  0.00  0.00    -0.004 A 
ATOM      4  C2  UNL d   1       1.262   0.145  -0.029  0.00  0.00    -0.047 A 
ATOM      5  C3  UNL d   1       0.828  -0.354  -1.280  0.00  0.00    -0.047 A 
ATOM      6  C4  UNL d   1       0.619   0.731  -2.105  0.00  0.00    -0.004 A 
ENDROOT
TORSDOF 0
ENDMDL
