MODEL 1
REMARK minimizedAffinity -0.0205968414
REMARK minimizedRMSD -1
REMARK  0 active torsions:
REMARK  status: ('A' for Active; 'I' for Inactive)
ROOT
ATOM      1  C   UNL d   1       3.719  -0.896   0.013  0.00  0.00     0.172 C 
ATOM      2  N   UNL d   1       2.689  -0.070  -0.573  0.00  0.00    -0.070 N 
ATOM      3  C1  UNL d   1       2.803   0.643  -1.736  0.00  0.00    -0.004 A 
ATOM      4  C2  UNL d   1       1.609   1.296  -1.949  0.00  0.00    -0.047 A 
ATOM      5  C3  UNL d   1       0.747   0.964  -0.877  0.00  0.00    -0.047 A 
ATOM      6  C4  UNL d   1       1.441   0.117  -0.040  0.00  0.00    -0.004 A 
ENDROOT
TORSDOF 0
ENDMDL
