MODEL 1
REMARK minimizedAffinity -2.61055946
REMARK minimizedRMSD -1
REMARK  0 active torsions:
REMARK  status: ('A' for Active; 'I' for Inactive)
ROOT
ATOM      1  C   UNL d   1       0.738   3.629  -1.474  0.00  0.00     0.172 C 
ATOM      2  N   UNL d   1       0.962   2.219  -1.257  0.00  0.00    -0.070 N 
ATOM      3  C1  UNL d   1       1.193   1.287  -2.233  0.00  0.00    -0.004 A 
ATOM      4  C2  UNL d   1       1.357   0.064  -1.619  0.00  0.00    -0.047 A 
ATOM      5  C3  UNL d   1       1.219   0.268  -0.226  0.00  0.00    -0.047 A 
ATOM      6  C4  UNL d   1       0.976   1.611  -0.029  0.00  0.00    -0.004 A 
ENDROOT
TORSDOF 0
ENDMDL
