MODEL 1
REMARK minimizedAffinity 3.87857127
REMARK minimizedRMSD -1
REMARK  0 active torsions:
REMARK  status: ('A' for Active; 'I' for Inactive)
ROOT
ATOM      1  C   UNL d   1       0.604   3.412  -2.269  0.00  0.00     0.172 C 
ATOM      2  N   UNL d   1       0.780   2.190  -1.520  0.00  0.00    -0.070 N 
ATOM      3  C1  UNL d   1       0.663   2.061  -0.162  0.00  0.00    -0.004 A 
ATOM      4  C2  UNL d   1       0.904   0.743   0.160  0.00  0.00    -0.047 A 
ATOM      5  C3  UNL d   1       1.178   0.056  -1.046  0.00  0.00    -0.047 A 
ATOM      6  C4  UNL d   1       1.094   0.975  -2.070  0.00  0.00    -0.004 A 
ENDROOT
TORSDOF 0
ENDMDL
