MODEL 1
REMARK minimizedAffinity 2.8900106
REMARK minimizedRMSD -1
REMARK  0 active torsions:
REMARK  status: ('A' for Active; 'I' for Inactive)
ROOT
ATOM      1  C   UNL d   1       1.271   3.520  -1.487  0.00  0.00     0.172 C 
ATOM      2  N   UNL d   1       1.220   2.077  -1.461  0.00  0.00    -0.070 N 
ATOM      3  C1  UNL d   1       0.468   1.290  -2.292  0.00  0.00    -0.004 A 
ATOM      4  C2  UNL d   1       0.695  -0.025  -1.948  0.00  0.00    -0.047 A 
ATOM      5  C3  UNL d   1       1.615  -0.028  -0.872  0.00  0.00    -0.047 A 
ATOM      6  C4  UNL d   1       1.923   1.286  -0.591  0.00  0.00    -0.004 A 
ENDROOT
TORSDOF 0
ENDMDL
