MODEL 1
REMARK minimizedAffinity -0.606310725
REMARK minimizedRMSD -1
REMARK  0 active torsions:
REMARK  status: ('A' for Active; 'I' for Inactive)
ROOT
ATOM      1  C   UNL d   1       0.925   3.374   0.461  0.00  0.00     0.172 C 
ATOM      2  N   UNL d   1       1.315   2.253  -0.361  0.00  0.00    -0.070 N 
ATOM      3  C1  UNL d   1       1.562   2.299  -1.707  0.00  0.00    -0.004 A 
ATOM      4  C2  UNL d   1       1.905   1.029  -2.117  0.00  0.00    -0.047 A 
ATOM      5  C3  UNL d   1       1.863   0.191  -0.978  0.00  0.00    -0.047 A 
ATOM      6  C4  UNL d   1       1.494   0.974   0.095  0.00  0.00    -0.004 A 
ENDROOT
TORSDOF 0
ENDMDL
