MODEL 1
REMARK minimizedAffinity -1.50648797
REMARK minimizedRMSD -1
REMARK  0 active torsions:
REMARK  status: ('A' for Active; 'I' for Inactive)
ROOT
ATOM      1  C   UNL d   1       1.142   1.848   1.575  0.00  0.00     0.172 C 
ATOM      2  N   UNL d   1       1.145   1.973   0.137  0.00  0.00    -0.070 N 
ATOM      3  C1  UNL d   1       1.178   3.150  -0.562  0.00  0.00    -0.004 A 
ATOM      4  C2  UNL d   1       1.169   2.844  -1.906  0.00  0.00    -0.047 A 
ATOM      5  C3  UNL d   1       1.130   1.434  -2.018  0.00  0.00    -0.047 A 
ATOM      6  C4  UNL d   1       1.115   0.920  -0.739  0.00  0.00    -0.004 A 
ENDROOT
TORSDOF 0
ENDMDL
