MODEL 1
REMARK minimizedAffinity 1.31664395
REMARK minimizedRMSD -1
REMARK  0 active torsions:
REMARK  status: ('A' for Active; 'I' for Inactive)
ROOT
ATOM      1  C   UNL d   1       0.625   3.249  -1.979  0.00  0.00     0.172 C 
ATOM      2  N   UNL d   1       0.858   2.082  -1.161  0.00  0.00    -0.070 N 
ATOM      3  C1  UNL d   1       1.001   2.076   0.201  0.00  0.00    -0.004 A 
ATOM      4  C2  UNL d   1       1.207   0.773   0.598  0.00  0.00    -0.047 A 
ATOM      5  C3  UNL d   1       1.187  -0.033  -0.565  0.00  0.00    -0.047 A 
ATOM      6  C4  UNL d   1       0.970   0.803  -1.640  0.00  0.00    -0.004 A 
ENDROOT
TORSDOF 0
ENDMDL
