MODEL 1
REMARK minimizedAffinity 0.880707264
REMARK minimizedRMSD -1
REMARK  2 active torsions:
REMARK  status: ('A' for Active; 'I' for Inactive)
REMARK    1  A    between atoms: C2'_3  and  C1'_4 
REMARK    2  A    between atoms: C1'_4  and  C1_5 
ROOT
ATOM      1  C1  I4B d   1      -4.702   5.855   3.166  0.00  0.00    -0.075 A 
ATOM      2  C2  I4B d   1      -3.549   5.967   3.902  0.00  0.00     0.003 A 
ATOM      3  C3  I4B d   1      -3.605   5.999   5.316  0.00  0.00     0.002 A 
ATOM      4  C4  I4B d   1      -4.832   5.969   5.948  0.00  0.00    -0.004 A 
ATOM      5  C5  I4B d   1      -5.999   5.833   5.202  0.00  0.00     0.002 A 
ATOM      6  C6  I4B d   1      -5.933   5.763   3.803  0.00  0.00     0.003 A 
ENDROOT
BRANCH   1   7
ATOM      7  C1' I4B d   1      -4.608   5.857   1.674  0.00  0.00     0.060 C 
BRANCH   7   8
ATOM      8  C2' I4B d   1      -3.536   4.864   1.272  0.00  0.00    -0.013 C 
ATOM      9  C4' I4B d   1      -3.703   4.432  -0.161  0.00  0.00     0.013 C 
ATOM     10  C3' I4B d   1      -2.201   5.511   1.491  0.00  0.00     0.013 C 
ENDBRANCH   7   8
ENDBRANCH   1   7
TORSDOF 2
ENDMDL
