MODEL 1
REMARK minimizedAffinity 4.88611078
REMARK minimizedRMSD -1
REMARK  2 active torsions:
REMARK  status: ('A' for Active; 'I' for Inactive)
REMARK    1  A    between atoms: C2'_3  and  C1'_4 
REMARK    2  A    between atoms: C1'_4  and  C1_5 
ROOT
ATOM      1  C1  I4B d   1       1.920  -2.120  -0.461  0.00  0.00    -0.075 A 
ATOM      2  C2  I4B d   1       1.677  -3.233   0.304  0.00  0.00     0.003 A 
ATOM      3  C3  I4B d   1       0.698  -4.174  -0.098  0.00  0.00     0.002 A 
ATOM      4  C4  I4B d   1      -0.045  -3.938  -1.236  0.00  0.00    -0.004 A 
ATOM      5  C5  I4B d   1       0.218  -2.820  -2.022  0.00  0.00     0.002 A 
ATOM      6  C6  I4B d   1       1.215  -1.911  -1.640  0.00  0.00     0.003 A 
ENDROOT
BRANCH   1   7
ATOM      7  C1' I4B d   1       2.938  -1.130   0.009  0.00  0.00     0.060 C 
BRANCH   7   8
ATOM      8  C2' I4B d   1       2.603   0.213  -0.608  0.00  0.00    -0.013 C 
ATOM      9  C4' I4B d   1       1.851   1.086   0.362  0.00  0.00     0.013 C 
ATOM     10  C3' I4B d   1       3.888   0.859  -1.034  0.00  0.00     0.013 C 
ENDBRANCH   7   8
ENDBRANCH   1   7
TORSDOF 2
ENDMDL
