MODEL 1
REMARK minimizedAffinity 7.18940973
REMARK minimizedRMSD -1
REMARK  2 active torsions:
REMARK  status: ('A' for Active; 'I' for Inactive)
REMARK    1  A    between atoms: C2'_3  and  C1'_4 
REMARK    2  A    between atoms: C1'_4  and  C1_5 
ROOT
ATOM      1  C1  I4B d   1      -5.387   4.813   2.375  0.00  0.00    -0.075 A 
ATOM      2  C2  I4B d   1      -5.288   3.615   1.712  0.00  0.00     0.003 A 
ATOM      3  C3  I4B d   1      -4.846   3.579   0.367  0.00  0.00     0.002 A 
ATOM      4  C4  I4B d   1      -4.563   4.761  -0.287  0.00  0.00    -0.004 A 
ATOM      5  C5  I4B d   1      -4.642   5.972   0.393  0.00  0.00     0.002 A 
ATOM      6  C6  I4B d   1      -5.044   5.998   1.737  0.00  0.00     0.003 A 
ENDROOT
BRANCH   1   7
ATOM      7  C1' I4B d   1      -5.889   4.818   3.784  0.00  0.00     0.060 C 
BRANCH   7   8
ATOM      8  C2' I4B d   1      -5.172   5.924   4.531  0.00  0.00    -0.013 C 
ATOM      9  C4' I4B d   1      -5.510   5.899   5.998  0.00  0.00     0.013 C 
ATOM     10  C3' I4B d   1      -3.699   5.752   4.312  0.00  0.00     0.013 C 
ENDBRANCH   7   8
ENDBRANCH   1   7
TORSDOF 2
ENDMDL
