MODEL 1
REMARK minimizedAffinity -3.82048702
REMARK minimizedRMSD -1
REMARK  0 active torsions:
REMARK  status: ('A' for Active; 'I' for Inactive)
ROOT
ATOM      1  C4' PXY d   1       1.940  -1.942   2.542  0.00  0.00     0.077 C 
ATOM      2  C1' PXY d   1      -0.807   1.325  -1.356  0.00  0.00     0.077 C 
ATOM      3  C1  PXY d   1      -0.090   0.476  -0.324  0.00  0.00    -0.082 A 
ATOM      4  C2  PXY d   1       0.930  -0.281  -0.694  0.00  0.00     0.003 A 
ATOM      5  C3  PXY d   1       1.569  -1.079   0.219  0.00  0.00     0.003 A 
ATOM      6  C4  PXY d   1       1.193  -1.062   1.536  0.00  0.00    -0.082 A 
ATOM      7  C5  PXY d   1       0.160  -0.284   1.924  0.00  0.00     0.003 A 
ATOM      8  C6  PXY d   1      -0.501   0.488   0.973  0.00  0.00     0.003 A 
ENDROOT
TORSDOF 0
ENDMDL
