MODEL 1
REMARK minimizedAffinity -1.0458709
REMARK minimizedRMSD -1
REMARK  0 active torsions:
REMARK  status: ('A' for Active; 'I' for Inactive)
ROOT
ATOM      1  C4' PXY d   1      -1.213   1.313  -2.154  0.00  0.00     0.077 C 
ATOM      2  C1' PXY d   1       0.459  -1.504   2.609  0.00  0.00     0.077 C 
ATOM      3  C1  PXY d   1       0.033  -0.767   1.355  0.00  0.00    -0.082 A 
ATOM      4  C2  PXY d   1      -0.993   0.067   1.404  0.00  0.00     0.003 A 
ATOM      5  C3  PXY d   1      -1.412   0.718   0.272  0.00  0.00     0.003 A 
ATOM      6  C4  PXY d   1      -0.741   0.554  -0.910  0.00  0.00    -0.082 A 
ATOM      7  C5  PXY d   1       0.313  -0.287  -0.966  0.00  0.00     0.003 A 
ATOM      8  C6  PXY d   1       0.697  -0.970   0.185  0.00  0.00     0.003 A 
ENDROOT
TORSDOF 0
ENDMDL
