MODEL 1
REMARK minimizedAffinity -4.08760834
REMARK minimizedRMSD -1
REMARK  0 active torsions:
REMARK  status: ('A' for Active; 'I' for Inactive)
ROOT
ATOM      1  C4' PXY d   1      -1.927   0.458   1.838  0.00  0.00     0.077 C 
ATOM      2  C1' PXY d   1       2.817  -2.533   0.438  0.00  0.00     0.077 C 
ATOM      3  C1  PXY d   1       1.574  -1.742   0.794  0.00  0.00    -0.082 A 
ATOM      4  C2  PXY d   1       1.204  -1.640   2.061  0.00  0.00     0.003 A 
ATOM      5  C3  PXY d   1       0.065  -0.955   2.397  0.00  0.00     0.003 A 
ATOM      6  C4  PXY d   1      -0.674  -0.323   1.433  0.00  0.00    -0.082 A 
ATOM      7  C5  PXY d   1      -0.297  -0.413   0.140  0.00  0.00     0.003 A 
ATOM      8  C6  PXY d   1       0.840  -1.148  -0.185  0.00  0.00     0.003 A 
ENDROOT
TORSDOF 0
ENDMDL
