MODEL 1
REMARK minimizedAffinity -2.32644796
REMARK minimizedRMSD -1
REMARK  0 active torsions:
REMARK  status: ('A' for Active; 'I' for Inactive)
ROOT
ATOM      1  C4' PXY d   1       3.101  -1.840  -0.070  0.00  0.00     0.077 C 
ATOM      2  C1' PXY d   1      -1.878   0.122   2.114  0.00  0.00     0.077 C 
ATOM      3  C1  PXY d   1      -0.566  -0.391   1.553  0.00  0.00    -0.082 A 
ATOM      4  C2  PXY d   1      -0.334  -0.307   0.253  0.00  0.00     0.003 A 
ATOM      5  C3  PXY d   1       0.834  -0.795  -0.275  0.00  0.00     0.003 A 
ATOM      6  C4  PXY d   1       1.795  -1.327   0.542  0.00  0.00    -0.082 A 
ATOM      7  C5  PXY d   1       1.570  -1.406   1.870  0.00  0.00     0.003 A 
ATOM      8  C6  PXY d   1       0.361  -0.942   2.382  0.00  0.00     0.003 A 
ENDROOT
TORSDOF 0
ENDMDL
