MODEL 1
REMARK minimizedAffinity -2.43838263
REMARK minimizedRMSD -1
REMARK  0 active torsions:
REMARK  status: ('A' for Active; 'I' for Inactive)
ROOT
ATOM      1  C4' PXY d   1       2.475  -1.695   4.030  0.00  0.00     0.077 C 
ATOM      2  C1' PXY d   1      -1.346  -0.431  -0.119  0.00  0.00     0.077 C 
ATOM      3  C1  PXY d   1      -0.335  -0.757   0.962  0.00  0.00    -0.082 A 
ATOM      4  C2  PXY d   1      -0.560  -1.767   1.786  0.00  0.00     0.003 A 
ATOM      5  C3  PXY d   1       0.329  -2.056   2.789  0.00  0.00     0.003 A 
ATOM      6  C4  PXY d   1       1.486  -1.336   2.918  0.00  0.00    -0.082 A 
ATOM      7  C5  PXY d   1       1.728  -0.310   2.075  0.00  0.00     0.003 A 
ATOM      8  C6  PXY d   1       0.794  -0.007   1.088  0.00  0.00     0.003 A 
ENDROOT
TORSDOF 0
ENDMDL
