MODEL 1
REMARK minimizedAffinity -4.84557962
REMARK minimizedRMSD -1
REMARK  1 active torsions:
REMARK  status: ('A' for Active; 'I' for Inactive)
REMARK    1  A    between atoms: C1_2  and  C2_3 
ROOT
ATOM      1  C2  UNL d   1      -0.795  -0.624   1.059  0.00  0.00    -0.081 A 
ATOM      2  C3  UNL d   1       0.102  -0.741  -0.009  0.00  0.00     0.006 A 
ATOM      3  C4  UNL d   1       1.454  -1.003   0.227  0.00  0.00     0.002 A 
ATOM      4  C5  UNL d   1       1.929  -1.160   1.533  0.00  0.00    -0.080 A 
ATOM      5  C6  UNL d   1       3.372  -1.472   1.799  0.00  0.00     0.076 C 
ATOM      6  C7  UNL d   1       1.035  -1.026   2.602  0.00  0.00     0.002 A 
ATOM      7  C8  UNL d   1      -0.316  -0.763   2.366  0.00  0.00     0.006 A 
ENDROOT
BRANCH   1   8
ATOM      8  C1  UNL d   1      -2.265  -0.406   0.805  0.00  0.00     0.054 C 
ATOM      9  C   UNL d   1      -2.761  -1.268  -0.347  0.00  0.00     0.018 C 
ENDBRANCH   1   8
TORSDOF 1
ENDMDL
