MODEL 1
REMARK minimizedAffinity -2.23242331
REMARK minimizedRMSD -1
REMARK  1 active torsions:
REMARK  status: ('A' for Active; 'I' for Inactive)
REMARK    1  A    between atoms: C1_2  and  C2_3 
ROOT
ATOM      1  C2  UNL d   1       0.159  -1.214   1.250  0.00  0.00    -0.081 A 
ATOM      2  C3  UNL d   1       0.902  -1.289   0.066  0.00  0.00     0.006 A 
ATOM      3  C4  UNL d   1       0.664  -0.391  -0.978  0.00  0.00     0.002 A 
ATOM      4  C5  UNL d   1      -0.315   0.600  -0.852  0.00  0.00    -0.080 A 
ATOM      5  C6  UNL d   1      -0.559   1.589  -1.953  0.00  0.00     0.076 C 
ATOM      6  C7  UNL d   1      -1.069   0.664   0.324  0.00  0.00     0.002 A 
ATOM      7  C8  UNL d   1      -0.832  -0.234   1.367  0.00  0.00     0.006 A 
ENDROOT
BRANCH   1   8
ATOM      8  C1  UNL d   1       0.457  -2.139   2.402  0.00  0.00     0.054 C 
ATOM      9  C   UNL d   1       1.738  -2.927   2.162  0.00  0.00     0.018 C 
ENDBRANCH   1   8
TORSDOF 1
ENDMDL
