MODEL 1
REMARK minimizedAffinity -5.61755037
REMARK minimizedRMSD -1
REMARK  1 active torsions:
REMARK  status: ('A' for Active; 'I' for Inactive)
REMARK    1  A    between atoms: C1_2  and  C2_3 
ROOT
ATOM      1  C2  UNL d   1      -0.086  -0.314  -0.671  0.00  0.00    -0.081 A 
ATOM      2  C3  UNL d   1      -0.696  -0.111   0.573  0.00  0.00     0.006 A 
ATOM      3  C4  UNL d   1      -0.024  -0.436   1.753  0.00  0.00     0.002 A 
ATOM      4  C5  UNL d   1       1.273  -0.960   1.711  0.00  0.00    -0.080 A 
ATOM      5  C6  UNL d   1       2.017  -1.284   2.972  0.00  0.00     0.076 C 
ATOM      6  C7  UNL d   1       1.876  -1.178   0.468  0.00  0.00     0.002 A 
ATOM      7  C8  UNL d   1       1.204  -0.855  -0.713  0.00  0.00     0.006 A 
ENDROOT
BRANCH   1   8
ATOM      8  C1  UNL d   1      -0.783   0.095  -1.943  0.00  0.00     0.054 C 
ATOM      9  C   UNL d   1      -0.702   1.600  -2.159  0.00  0.00     0.018 C 
ENDBRANCH   1   8
TORSDOF 1
ENDMDL
