MODEL 1
REMARK minimizedAffinity -4.43500185
REMARK minimizedRMSD -1
REMARK  1 active torsions:
REMARK  status: ('A' for Active; 'I' for Inactive)
REMARK    1  A    between atoms: C1_2  and  C2_3 
ROOT
ATOM      1  C2  UNL d   1       0.309   0.807  -0.649  0.00  0.00    -0.081 A 
ATOM      2  C3  UNL d   1      -0.936   0.404  -0.151  0.00  0.00     0.006 A 
ATOM      3  C4  UNL d   1      -1.022  -0.319   1.041  0.00  0.00     0.002 A 
ATOM      4  C5  UNL d   1       0.133  -0.643   1.760  0.00  0.00    -0.080 A 
ATOM      5  C6  UNL d   1       0.053  -1.392   3.057  0.00  0.00     0.076 C 
ATOM      6  C7  UNL d   1       1.379  -0.256   1.254  0.00  0.00     0.002 A 
ATOM      7  C8  UNL d   1       1.466   0.466   0.061  0.00  0.00     0.006 A 
ENDROOT
BRANCH   1   8
ATOM      8  C1  UNL d   1       0.401   1.642  -1.900  0.00  0.00     0.054 C 
ATOM      9  C   UNL d   1      -0.676   2.717  -1.928  0.00  0.00     0.018 C 
ENDBRANCH   1   8
TORSDOF 1
ENDMDL
