MODEL 1
REMARK minimizedAffinity -5.09725809
REMARK minimizedRMSD -1
REMARK  1 active torsions:
REMARK  status: ('A' for Active; 'I' for Inactive)
REMARK    1  A    between atoms: C1_2  and  C2_3 
ROOT
ATOM      1  C2  UNL d   1       0.200  -0.570  -0.926  0.00  0.00    -0.081 A 
ATOM      2  C3  UNL d   1      -0.525  -0.369   0.255  0.00  0.00     0.006 A 
ATOM      3  C4  UNL d   1       0.027  -0.711   1.492  0.00  0.00     0.002 A 
ATOM      4  C5  UNL d   1       1.316  -1.251   1.569  0.00  0.00    -0.080 A 
ATOM      5  C6  UNL d   1       1.932  -1.594   2.893  0.00  0.00     0.076 C 
ATOM      6  C7  UNL d   1       2.033  -1.468   0.388  0.00  0.00     0.002 A 
ATOM      7  C8  UNL d   1       1.481  -1.127  -0.849  0.00  0.00     0.006 A 
ENDROOT
BRANCH   1   8
ATOM      8  C1  UNL d   1      -0.367  -0.143  -2.255  0.00  0.00     0.054 C 
ATOM      9  C   UNL d   1      -1.135   1.166  -2.135  0.00  0.00     0.018 C 
ENDBRANCH   1   8
TORSDOF 1
ENDMDL
