MODEL 1
REMARK minimizedAffinity -3.67379332
REMARK minimizedRMSD -1
REMARK  1 active torsions:
REMARK  status: ('A' for Active; 'I' for Inactive)
REMARK    1  A    between atoms: C1_2  and  C2_3 
ROOT
ATOM      1  C2  UNL d   1      -0.764   0.559  -1.154  0.00  0.00    -0.081 A 
ATOM      2  C3  UNL d   1      -1.589   0.577  -0.023  0.00  0.00     0.006 A 
ATOM      3  C4  UNL d   1      -1.147   0.032   1.185  0.00  0.00     0.002 A 
ATOM      4  C5  UNL d   1       0.129  -0.533   1.284  0.00  0.00    -0.080 A 
ATOM      5  C6  UNL d   1       0.627  -1.094   2.582  0.00  0.00     0.076 C 
ATOM      6  C7  UNL d   1       0.947  -0.567   0.149  0.00  0.00     0.002 A 
ATOM      7  C8  UNL d   1       0.505  -0.023  -1.059  0.00  0.00     0.006 A 
ENDROOT
BRANCH   1   8
ATOM      8  C1  UNL d   1      -1.213   1.203  -2.441  0.00  0.00     0.054 C 
ATOM      9  C   UNL d   1      -0.206   2.239  -2.922  0.00  0.00     0.018 C 
ENDBRANCH   1   8
TORSDOF 1
ENDMDL
