MODEL 1
REMARK minimizedAffinity -2.14220858
REMARK minimizedRMSD -1
REMARK  1 active torsions:
REMARK  status: ('A' for Active; 'I' for Inactive)
REMARK    1  A    between atoms: C1_2  and  C2_3 
ROOT
ATOM      1  C2  UNL d   1       0.274  -0.868   1.533  0.00  0.00    -0.081 A 
ATOM      2  C3  UNL d   1      -1.075  -0.503   1.434  0.00  0.00     0.006 A 
ATOM      3  C4  UNL d   1      -1.547   0.161   0.300  0.00  0.00     0.002 A 
ATOM      4  C5  UNL d   1      -0.682   0.465  -0.757  0.00  0.00    -0.080 A 
ATOM      5  C6  UNL d   1      -1.183   1.151  -1.993  0.00  0.00     0.076 C 
ATOM      6  C7  UNL d   1       0.669   0.116  -0.650  0.00  0.00     0.002 A 
ATOM      7  C8  UNL d   1       1.142  -0.547   0.484  0.00  0.00     0.006 A 
ENDROOT
BRANCH   1   8
ATOM      8  C1  UNL d   1       0.773  -1.641   2.727  0.00  0.00     0.054 C 
ATOM      9  C   UNL d   1      -0.035  -2.914   2.938  0.00  0.00     0.018 C 
ENDBRANCH   1   8
TORSDOF 1
ENDMDL
