MODEL 1
REMARK minimizedAffinity -3.10282493
REMARK minimizedRMSD -1
REMARK  1 active torsions:
REMARK  status: ('A' for Active; 'I' for Inactive)
REMARK    1  A    between atoms: C1_2  and  C2_3 
ROOT
ATOM      1  C2  UNL d   1      -0.826   0.461  -0.972  0.00  0.00    -0.081 A 
ATOM      2  C3  UNL d   1      -1.696   0.071   0.053  0.00  0.00     0.006 A 
ATOM      3  C4  UNL d   1      -1.201  -0.534   1.210  0.00  0.00     0.002 A 
ATOM      4  C5  UNL d   1       0.172  -0.751   1.366  0.00  0.00    -0.080 A 
ATOM      5  C6  UNL d   1       0.719  -1.372   2.617  0.00  0.00     0.076 C 
ATOM      6  C7  UNL d   1       1.040  -0.378   0.335  0.00  0.00     0.002 A 
ATOM      7  C8  UNL d   1       0.546   0.227  -0.823  0.00  0.00     0.006 A 
ENDROOT
BRANCH   1   8
ATOM      8  C1  UNL d   1      -1.349   1.172  -2.194  0.00  0.00     0.054 C 
ATOM      9  C   UNL d   1      -0.537   2.423  -2.497  0.00  0.00     0.018 C 
ENDBRANCH   1   8
TORSDOF 1
ENDMDL
