MODEL 1
REMARK minimizedAffinity -4.96812773
REMARK minimizedRMSD -1
REMARK  1 active torsions:
REMARK  status: ('A' for Active; 'I' for Inactive)
REMARK    1  A    between atoms: C1_2  and  C2_3 
ROOT
ATOM      1  C2  UNL d   1       0.187  -0.217  -0.875  0.00  0.00    -0.081 A 
ATOM      2  C3  UNL d   1      -0.035   0.431   0.347  0.00  0.00     0.006 A 
ATOM      3  C4  UNL d   1       0.626   0.008   1.503  0.00  0.00     0.002 A 
ATOM      4  C5  UNL d   1       1.524  -1.064   1.455  0.00  0.00    -0.080 A 
ATOM      5  C6  UNL d   1       2.263  -1.508   2.682  0.00  0.00     0.076 C 
ATOM      6  C7  UNL d   1       1.733  -1.722   0.238  0.00  0.00     0.002 A 
ATOM      7  C8  UNL d   1       1.072  -1.300  -0.918  0.00  0.00     0.006 A 
ENDROOT
BRANCH   1   8
ATOM      8  C1  UNL d   1      -0.475   0.278  -2.136  0.00  0.00     0.054 C 
ATOM      9  C   UNL d   1      -0.554   1.798  -2.159  0.00  0.00     0.018 C 
ENDBRANCH   1   8
TORSDOF 1
ENDMDL
