MODEL 1
REMARK minimizedAffinity -1.59202695
REMARK minimizedRMSD -1
REMARK  1 active torsions:
REMARK  status: ('A' for Active; 'I' for Inactive)
REMARK    1  A    between atoms: C1_2  and  C2_3 
ROOT
ATOM      1  C2  UNL d   1      -0.346  -0.319  -0.532  0.00  0.00    -0.081 A 
ATOM      2  C3  UNL d   1      -1.144  -0.468   0.609  0.00  0.00     0.006 A 
ATOM      3  C4  UNL d   1      -0.558  -0.589   1.872  0.00  0.00     0.002 A 
ATOM      4  C5  UNL d   1       0.833  -0.555   2.015  0.00  0.00    -0.080 A 
ATOM      5  C6  UNL d   1       1.473  -0.653   3.368  0.00  0.00     0.076 C 
ATOM      6  C7  UNL d   1       1.630  -0.423   0.873  0.00  0.00     0.002 A 
ATOM      7  C8  UNL d   1       1.046  -0.303  -0.389  0.00  0.00     0.006 A 
ENDROOT
BRANCH   1   8
ATOM      8  C1  UNL d   1      -0.976  -0.124  -1.887  0.00  0.00     0.054 C 
ATOM      9  C   UNL d   1      -0.803   1.307  -2.377  0.00  0.00     0.018 C 
ENDBRANCH   1   8
TORSDOF 1
ENDMDL
