MODEL 1
REMARK minimizedAffinity 10.7378683
REMARK minimizedRMSD -1
REMARK  0 active torsions:
REMARK  status: ('A' for Active; 'I' for Inactive)
ROOT
ATOM      1  C   UNL d   1       0.912  -1.667   3.856  0.00  0.00     0.077 C 
ATOM      2  C1  UNL d   1       0.696  -2.946   4.609  0.00  0.00    -0.074 A 
ATOM      3  C2  UNL d   1      -0.591  -3.359   4.968  0.00  0.00    -0.005 A 
ATOM      4  C3  UNL d   1      -0.777  -4.556   5.660  0.00  0.00     0.006 A 
ATOM      5  C4  UNL d   1       0.320  -5.350   5.999  0.00  0.00    -0.005 A 
ATOM      6  C5  UNL d   1       1.614  -4.953   5.647  0.00  0.00    -0.074 A 
ATOM      7  C6  UNL d   1       2.802  -5.799   5.995  0.00  0.00     0.077 C 
ATOM      8  C7  UNL d   1       1.792  -3.752   4.946  0.00  0.00    -0.001 A 
ENDROOT
TORSDOF 0
ENDMDL
