MODEL 1
REMARK minimizedAffinity 1.34661651
REMARK minimizedRMSD -1
REMARK  0 active torsions:
REMARK  status: ('A' for Active; 'I' for Inactive)
ROOT
ATOM      1  C   UNL d   1      -1.814  -3.459  -2.975  0.00  0.00     0.077 C 
ATOM      2  C1  UNL d   1      -0.996  -2.534  -2.124  0.00  0.00    -0.074 A 
ATOM      3  C2  UNL d   1      -1.478  -1.271  -1.766  0.00  0.00    -0.005 A 
ATOM      4  C3  UNL d   1      -0.709  -0.426  -0.966  0.00  0.00     0.006 A 
ATOM      5  C4  UNL d   1       0.547  -0.834  -0.516  0.00  0.00    -0.005 A 
ATOM      6  C5  UNL d   1       1.045  -2.094  -0.863  0.00  0.00    -0.074 A 
ATOM      7  C6  UNL d   1       2.389  -2.552  -0.380  0.00  0.00     0.077 C 
ATOM      8  C7  UNL d   1       0.264  -2.940  -1.661  0.00  0.00    -0.001 A 
ENDROOT
TORSDOF 0
ENDMDL
