MODEL 1
REMARK minimizedAffinity 2.37175345
REMARK minimizedRMSD -1
REMARK  0 active torsions:
REMARK  status: ('A' for Active; 'I' for Inactive)
ROOT
ATOM      1  C   UNL d   1       1.222  -0.534   0.715  0.00  0.00     0.077 C 
ATOM      2  C1  UNL d   1       2.232  -0.616  -0.391  0.00  0.00    -0.074 A 
ATOM      3  C2  UNL d   1       3.105   0.446  -0.648  0.00  0.00    -0.005 A 
ATOM      4  C3  UNL d   1       4.046   0.351  -1.673  0.00  0.00     0.006 A 
ATOM      5  C4  UNL d   1       4.123  -0.805  -2.451  0.00  0.00    -0.005 A 
ATOM      6  C5  UNL d   1       3.260  -1.878  -2.207  0.00  0.00    -0.074 A 
ATOM      7  C6  UNL d   1       3.337  -3.131  -3.027  0.00  0.00     0.077 C 
ATOM      8  C7  UNL d   1       2.322  -1.777  -1.171  0.00  0.00    -0.001 A 
ENDROOT
TORSDOF 0
ENDMDL
