MODEL 1
REMARK minimizedAffinity -3.40552378
REMARK minimizedRMSD -1
REMARK  0 active torsions:
REMARK  status: ('A' for Active; 'I' for Inactive)
ROOT
ATOM      1  C   UNL d   1      -0.045   1.943  -0.806  0.00  0.00     0.077 C 
ATOM      2  C1  UNL d   1      -0.231   0.489  -1.120  0.00  0.00    -0.074 A 
ATOM      3  C2  UNL d   1      -1.118   0.077  -2.121  0.00  0.00    -0.005 A 
ATOM      4  C3  UNL d   1      -1.273  -1.279  -2.408  0.00  0.00     0.006 A 
ATOM      5  C4  UNL d   1      -0.545  -2.235  -1.700  0.00  0.00    -0.005 A 
ATOM      6  C5  UNL d   1       0.346  -1.843  -0.696  0.00  0.00    -0.074 A 
ATOM      7  C6  UNL d   1       1.144  -2.857   0.068  0.00  0.00     0.077 C 
ATOM      8  C7  UNL d   1       0.502  -0.478  -0.418  0.00  0.00    -0.001 A 
ENDROOT
TORSDOF 0
ENDMDL
