MODEL 1
REMARK minimizedAffinity 5.64461327
REMARK minimizedRMSD -1
REMARK  0 active torsions:
REMARK  status: ('A' for Active; 'I' for Inactive)
ROOT
ATOM      1  C   UNL d   1       2.296  -0.893  -0.771  0.00  0.00     0.077 C 
ATOM      2  C1  UNL d   1       3.081   0.369  -0.567  0.00  0.00    -0.074 A 
ATOM      3  C2  UNL d   1       3.639   1.052  -1.653  0.00  0.00    -0.005 A 
ATOM      4  C3  UNL d   1       4.359   2.229  -1.448  0.00  0.00     0.006 A 
ATOM      5  C4  UNL d   1       4.529   2.734  -0.158  0.00  0.00    -0.005 A 
ATOM      6  C5  UNL d   1       3.978   2.064   0.939  0.00  0.00    -0.074 A 
ATOM      7  C6  UNL d   1       4.143   2.599   2.331  0.00  0.00     0.077 C 
ATOM      8  C7  UNL d   1       3.250   0.886   0.725  0.00  0.00    -0.001 A 
ENDROOT
TORSDOF 0
ENDMDL
