MODEL 1
REMARK minimizedAffinity 12.3804455
REMARK minimizedRMSD -1
REMARK  0 active torsions:
REMARK  status: ('A' for Active; 'I' for Inactive)
ROOT
ATOM      1  C   UNL d   1       2.466  -0.757  -1.145  0.00  0.00     0.077 C 
ATOM      2  C1  UNL d   1       3.159   0.490  -0.683  0.00  0.00    -0.074 A 
ATOM      3  C2  UNL d   1       3.404   1.546  -1.567  0.00  0.00    -0.005 A 
ATOM      4  C3  UNL d   1       4.041   2.704  -1.121  0.00  0.00     0.006 A 
ATOM      5  C4  UNL d   1       4.440   2.817   0.212  0.00  0.00    -0.005 A 
ATOM      6  C5  UNL d   1       4.203   1.772   1.110  0.00  0.00    -0.074 A 
ATOM      7  C6  UNL d   1       4.616   1.882   2.548  0.00  0.00     0.077 C 
ATOM      8  C7  UNL d   1       3.556   0.615   0.656  0.00  0.00    -0.001 A 
ENDROOT
TORSDOF 0
ENDMDL
