MODEL 1
REMARK minimizedAffinity 3.23774624
REMARK minimizedRMSD -1
REMARK  0 active torsions:
REMARK  status: ('A' for Active; 'I' for Inactive)
ROOT
ATOM      1  C   UNL d   1       4.901   2.680   2.201  0.00  0.00     0.077 C 
ATOM      2  C1  UNL d   1       4.530   2.176   0.838  0.00  0.00    -0.074 A 
ATOM      3  C2  UNL d   1       5.038   2.782  -0.315  0.00  0.00    -0.005 A 
ATOM      4  C3  UNL d   1       4.692   2.296  -1.576  0.00  0.00     0.006 A 
ATOM      5  C4  UNL d   1       3.836   1.201  -1.696  0.00  0.00    -0.005 A 
ATOM      6  C5  UNL d   1       3.319   0.581  -0.554  0.00  0.00    -0.074 A 
ATOM      7  C6  UNL d   1       2.406  -0.604  -0.665  0.00  0.00     0.077 C 
ATOM      8  C7  UNL d   1       3.677   1.070   0.709  0.00  0.00    -0.001 A 
ENDROOT
TORSDOF 0
ENDMDL
