MODEL 1
REMARK minimizedAffinity 1.85121727
REMARK minimizedRMSD -1
REMARK  1 active torsions:
REMARK  status: ('A' for Active; 'I' for Inactive)
REMARK    1  A    between atoms: C1_2  and  C2_3 
ROOT
ATOM      1  C2  UNL d   1       2.368   4.723   5.452  0.00  0.00    -0.076 A 
ATOM      2  C3  UNL d   1       1.769   3.495   5.786  0.00  0.00     0.004 A 
ATOM      3  C4  UNL d   1       2.294   2.291   5.318  0.00  0.00    -0.003 A 
ATOM      4  C5  UNL d   1       3.426   2.295   4.511  0.00  0.00     0.000 A 
ATOM      5  C6  UNL d   1       4.043   3.503   4.185  0.00  0.00     0.000 A 
ATOM      6  C7  UNL d   1       3.536   4.724   4.661  0.00  0.00    -0.073 A 
ATOM      7  C8  UNL d   1       4.238   5.997   4.273  0.00  0.00     0.078 C 
ENDROOT
BRANCH   1   8
ATOM      8  C1  UNL d   1       1.739   5.998   5.966  0.00  0.00     0.053 C 
ATOM      9  C   UNL d   1       0.223   5.995   5.833  0.00  0.00     0.018 C 
ENDBRANCH   1   8
TORSDOF 1
ENDMDL
