MODEL 1
REMARK minimizedAffinity 1.99306238
REMARK minimizedRMSD -1
REMARK  1 active torsions:
REMARK  status: ('A' for Active; 'I' for Inactive)
REMARK    1  A    between atoms: C1_2  and  C2_3 
ROOT
ATOM      1  C2  UNL d   1       4.262   2.232   0.760  0.00  0.00    -0.076 A 
ATOM      2  C3  UNL d   1       3.543   1.095   1.170  0.00  0.00     0.004 A 
ATOM      3  C4  UNL d   1       3.079   0.166   0.240  0.00  0.00    -0.003 A 
ATOM      4  C5  UNL d   1       3.327   0.359  -1.115  0.00  0.00     0.000 A 
ATOM      5  C6  UNL d   1       4.053   1.471  -1.537  0.00  0.00     0.000 A 
ATOM      6  C7  UNL d   1       4.542   2.409  -0.612  0.00  0.00    -0.073 A 
ATOM      7  C8  UNL d   1       5.315   3.593  -1.124  0.00  0.00     0.078 C 
ENDROOT
BRANCH   1   8
ATOM      8  C1  UNL d   1       4.717   3.219   1.811  0.00  0.00     0.053 C 
ATOM      9  C   UNL d   1       3.954   3.070   3.119  0.00  0.00     0.018 C 
ENDBRANCH   1   8
TORSDOF 1
ENDMDL
