MODEL 1
REMARK minimizedAffinity 13.0367136
REMARK minimizedRMSD -1
REMARK  1 active torsions:
REMARK  status: ('A' for Active; 'I' for Inactive)
REMARK    1  A    between atoms: C1_2  and  C2_3 
ROOT
ATOM      1  C2  UNL d   1       1.695   0.763   0.372  0.00  0.00    -0.076 A 
ATOM      2  C3  UNL d   1       1.324   1.708  -0.600  0.00  0.00     0.004 A 
ATOM      3  C4  UNL d   1       0.049   2.270  -0.604  0.00  0.00    -0.003 A 
ATOM      4  C5  UNL d   1      -0.876   1.896   0.365  0.00  0.00     0.000 A 
ATOM      5  C6  UNL d   1      -0.519   0.973   1.347  0.00  0.00     0.000 A 
ATOM      6  C7  UNL d   1       0.768   0.409   1.375  0.00  0.00    -0.073 A 
ATOM      7  C8  UNL d   1       1.097  -0.586   2.453  0.00  0.00     0.078 C 
ENDROOT
BRANCH   1   8
ATOM      8  C1  UNL d   1       3.084   0.167   0.309  0.00  0.00     0.053 C 
ATOM      9  C   UNL d   1       3.447  -0.319  -1.085  0.00  0.00     0.018 C 
ENDBRANCH   1   8
TORSDOF 1
ENDMDL
