MODEL 1
REMARK minimizedAffinity 3.22993588
REMARK minimizedRMSD -1
REMARK  1 active torsions:
REMARK  status: ('A' for Active; 'I' for Inactive)
REMARK    1  A    between atoms: C1_2  and  C2_3 
ROOT
ATOM      1  C2  UNL d   1       1.422   5.964   4.602  0.00  0.00    -0.076 A 
ATOM      2  C3  UNL d   1       2.037   5.993   3.339  0.00  0.00     0.004 A 
ATOM      3  C4  UNL d   1       1.277   6.000   2.171  0.00  0.00    -0.003 A 
ATOM      4  C5  UNL d   1      -0.111   5.978   2.247  0.00  0.00     0.000 A 
ATOM      5  C6  UNL d   1      -0.739   5.967   3.493  0.00  0.00     0.000 A 
ATOM      6  C7  UNL d   1       0.013   5.976   4.680  0.00  0.00    -0.073 A 
ATOM      7  C8  UNL d   1      -0.715   5.957   5.996  0.00  0.00     0.078 C 
ENDROOT
BRANCH   1   8
ATOM      8  C1  UNL d   1       2.299   5.930   5.834  0.00  0.00     0.053 C 
ATOM      9  C   UNL d   1       3.780   5.999   5.497  0.00  0.00     0.018 C 
ENDBRANCH   1   8
TORSDOF 1
ENDMDL
