MODEL 1
REMARK minimizedAffinity -4.98334026
REMARK minimizedRMSD -1
REMARK  1 active torsions:
REMARK  status: ('A' for Active; 'I' for Inactive)
REMARK    1  A    between atoms: C1_2  and  C2_3 
ROOT
ATOM      1  C2  UNL d   1       1.870   4.120   5.359  0.00  0.00    -0.076 A 
ATOM      2  C3  UNL d   1       2.459   5.277   4.820  0.00  0.00     0.004 A 
ATOM      3  C4  UNL d   1       3.789   5.278   4.403  0.00  0.00    -0.003 A 
ATOM      4  C5  UNL d   1       4.552   4.121   4.518  0.00  0.00     0.000 A 
ATOM      5  C6  UNL d   1       3.979   2.959   5.033  0.00  0.00     0.000 A 
ATOM      6  C7  UNL d   1       2.635   2.937   5.443  0.00  0.00    -0.073 A 
ATOM      7  C8  UNL d   1       2.070   1.658   5.998  0.00  0.00     0.078 C 
ENDROOT
BRANCH   1   8
ATOM      8  C1  UNL d   1       0.431   4.187   5.819  0.00  0.00     0.053 C 
ATOM      9  C   UNL d   1      -0.451   4.971   4.861  0.00  0.00     0.018 C 
ENDBRANCH   1   8
TORSDOF 1
ENDMDL
