MODEL 1
REMARK minimizedAffinity -4.08425808
REMARK minimizedRMSD -1
REMARK  1 active torsions:
REMARK  status: ('A' for Active; 'I' for Inactive)
REMARK    1  A    between atoms: C1_2  and  C2_3 
ROOT
ATOM      1  C2  UNL d   1       2.240   4.242   5.527  0.00  0.00    -0.076 A 
ATOM      2  C3  UNL d   1       1.869   2.907   5.765  0.00  0.00     0.004 A 
ATOM      3  C4  UNL d   1       2.830   1.926   5.999  0.00  0.00    -0.003 A 
ATOM      4  C5  UNL d   1       4.179   2.264   6.000  0.00  0.00     0.000 A 
ATOM      5  C6  UNL d   1       4.565   3.586   5.782  0.00  0.00     0.000 A 
ATOM      6  C7  UNL d   1       3.607   4.591   5.561  0.00  0.00    -0.073 A 
ATOM      7  C8  UNL d   1       4.079   5.999   5.326  0.00  0.00     0.078 C 
ENDROOT
BRANCH   1   8
ATOM      8  C1  UNL d   1       1.154   5.258   5.252  0.00  0.00     0.053 C 
ATOM      9  C   UNL d   1       0.798   5.345   3.776  0.00  0.00     0.018 C 
ENDBRANCH   1   8
TORSDOF 1
ENDMDL
