MODEL 1
REMARK minimizedAffinity 3.01453352
REMARK minimizedRMSD -1
REMARK  1 active torsions:
REMARK  status: ('A' for Active; 'I' for Inactive)
REMARK    1  A    between atoms: C1_2  and  C2_3 
ROOT
ATOM      1  C2  UNL d   1      -2.256  -0.455   1.937  0.00  0.00    -0.077 A 
ATOM      2  C3  UNL d   1      -1.621   0.150   0.844  0.00  0.00     0.002 A 
ATOM      3  C4  UNL d   1      -0.238   0.045   0.684  0.00  0.00     0.002 A 
ATOM      4  C5  UNL d   1       0.520  -0.669   1.609  0.00  0.00    -0.004 A 
ATOM      5  C6  UNL d   1      -0.102  -1.274   2.701  0.00  0.00     0.002 A 
ATOM      6  C7  UNL d   1      -1.484  -1.168   2.863  0.00  0.00     0.002 A 
ENDROOT
BRANCH   1   7
ATOM      7  C1  UNL d   1      -3.754  -0.384   2.085  0.00  0.00     0.055 C 
ATOM      8  C   UNL d   1      -4.452  -1.308   1.097  0.00  0.00     0.019 C 
ENDBRANCH   1   7
TORSDOF 1
ENDMDL
