MODEL 1
REMARK minimizedAffinity 1.19773066
REMARK minimizedRMSD -1
REMARK  1 active torsions:
REMARK  status: ('A' for Active; 'I' for Inactive)
REMARK    1  A    between atoms: C1_2  and  C2_3 
ROOT
ATOM      1  C2  UNL d   1      -3.870   0.903  -3.984  0.00  0.00    -0.077 A 
ATOM      2  C3  UNL d   1      -5.191   0.740  -4.424  0.00  0.00     0.002 A 
ATOM      3  C4  UNL d   1      -5.934  -0.375  -4.033  0.00  0.00     0.002 A 
ATOM      4  C5  UNL d   1      -5.365  -1.334  -3.197  0.00  0.00    -0.004 A 
ATOM      5  C6  UNL d   1      -4.052  -1.183  -2.755  0.00  0.00     0.002 A 
ATOM      6  C7  UNL d   1      -3.307  -0.069  -3.146  0.00  0.00     0.002 A 
ENDROOT
BRANCH   1   7
ATOM      7  C1  UNL d   1      -3.084   2.130  -4.365  0.00  0.00     0.055 C 
ATOM      8  C   UNL d   1      -2.648   2.912  -3.135  0.00  0.00     0.019 C 
ENDBRANCH   1   7
TORSDOF 1
ENDMDL
