MODEL 1
REMARK minimizedAffinity -0.660305858
REMARK minimizedRMSD -1
REMARK  1 active torsions:
REMARK  status: ('A' for Active; 'I' for Inactive)
REMARK    1  A    between atoms: C1_2  and  C2_3 
ROOT
ATOM      1  C2  UNL d   1      -0.151  -1.657   2.004  0.00  0.00    -0.077 A 
ATOM      2  C3  UNL d   1       0.650  -2.789   1.798  0.00  0.00     0.002 A 
ATOM      3  C4  UNL d   1       0.393  -3.973   2.492  0.00  0.00     0.002 A 
ATOM      4  C5  UNL d   1      -0.667  -4.037   3.393  0.00  0.00    -0.004 A 
ATOM      5  C6  UNL d   1      -1.469  -2.917   3.607  0.00  0.00     0.002 A 
ATOM      6  C7  UNL d   1      -1.213  -1.732   2.915  0.00  0.00     0.002 A 
ENDROOT
BRANCH   1   7
ATOM      7  C1  UNL d   1       0.094  -0.395   1.220  0.00  0.00     0.055 C 
ATOM      8  C   UNL d   1      -1.202   0.360   0.967  0.00  0.00     0.019 C 
ENDBRANCH   1   7
TORSDOF 1
ENDMDL
