MODEL 1
REMARK minimizedAffinity 2.97721243
REMARK minimizedRMSD -1
REMARK  1 active torsions:
REMARK  status: ('A' for Active; 'I' for Inactive)
REMARK    1  A    between atoms: C1_2  and  C2_3 
ROOT
ATOM      1  C2  UNL d   1       0.639  -0.514  -0.087  0.00  0.00    -0.077 A 
ATOM      2  C3  UNL d   1       0.128  -0.551   1.218  0.00  0.00     0.002 A 
ATOM      3  C4  UNL d   1      -1.246  -0.436   1.441  0.00  0.00     0.002 A 
ATOM      4  C5  UNL d   1      -2.119  -0.289   0.365  0.00  0.00    -0.004 A 
ATOM      5  C6  UNL d   1      -1.619  -0.250  -0.936  0.00  0.00     0.002 A 
ATOM      6  C7  UNL d   1      -0.247  -0.363  -1.161  0.00  0.00     0.002 A 
ENDROOT
BRANCH   1   7
ATOM      7  C1  UNL d   1       2.115  -0.687  -0.333  0.00  0.00     0.055 C 
ATOM      8  C   UNL d   1       2.863   0.627  -0.160  0.00  0.00     0.019 C 
ENDBRANCH   1   7
TORSDOF 1
ENDMDL
