MODEL 1
REMARK minimizedAffinity 4.80691862
REMARK minimizedRMSD -1
REMARK  1 active torsions:
REMARK  status: ('A' for Active; 'I' for Inactive)
REMARK    1  A    between atoms: C1_2  and  C2_3 
ROOT
ATOM      1  C2  UNL d   1      -3.262   2.656  -3.002  0.00  0.00    -0.077 A 
ATOM      2  C3  UNL d   1      -3.548   1.297  -3.189  0.00  0.00     0.002 A 
ATOM      3  C4  UNL d   1      -4.862   0.873  -3.400  0.00  0.00     0.002 A 
ATOM      4  C5  UNL d   1      -5.899   1.803  -3.428  0.00  0.00    -0.004 A 
ATOM      5  C6  UNL d   1      -5.625   3.158  -3.240  0.00  0.00     0.002 A 
ATOM      6  C7  UNL d   1      -4.312   3.582  -3.029  0.00  0.00     0.002 A 
ENDROOT
BRANCH   1   7
ATOM      7  C1  UNL d   1      -1.840   3.120  -2.824  0.00  0.00     0.055 C 
ATOM      8  C   UNL d   1      -1.293   2.719  -1.462  0.00  0.00     0.019 C 
ENDBRANCH   1   7
TORSDOF 1
ENDMDL
