MODEL 1
REMARK minimizedAffinity -3.62088323
REMARK minimizedRMSD -1
REMARK  1 active torsions:
REMARK  status: ('A' for Active; 'I' for Inactive)
REMARK    1  A    between atoms: C1_2  and  C2_3 
ROOT
ATOM      1  C2  UNL d   1       0.639  -2.996   2.647  0.00  0.00    -0.077 A 
ATOM      2  C3  UNL d   1      -0.428  -3.782   3.103  0.00  0.00     0.002 A 
ATOM      3  C4  UNL d   1      -1.647  -3.191   3.440  0.00  0.00     0.002 A 
ATOM      4  C5  UNL d   1      -1.812  -1.813   3.319  0.00  0.00    -0.004 A 
ATOM      5  C6  UNL d   1      -0.756  -1.022   2.868  0.00  0.00     0.002 A 
ATOM      6  C7  UNL d   1       0.464  -1.611   2.532  0.00  0.00     0.002 A 
ENDROOT
BRANCH   1   7
ATOM      7  C1  UNL d   1       1.939  -3.637   2.236  0.00  0.00     0.055 C 
ATOM      8  C   UNL d   1       2.361  -3.191   0.844  0.00  0.00     0.019 C 
ENDBRANCH   1   7
TORSDOF 1
ENDMDL
