MODEL 1
REMARK minimizedAffinity 9.64538097
REMARK minimizedRMSD -1
REMARK  1 active torsions:
REMARK  status: ('A' for Active; 'I' for Inactive)
REMARK    1  A    between atoms: C1_2  and  C2_3 
ROOT
ATOM      1  C2  UNL d   1      -3.191  -0.040   3.577  0.00  0.00    -0.076 A 
ATOM      2  C3  UNL d   1      -2.675   1.201   3.990  0.00  0.00     0.004 A 
ATOM      3  C4  UNL d   1      -3.078   1.782   5.191  0.00  0.00    -0.003 A 
ATOM      4  C5  UNL d   1      -4.003   1.130   6.000  0.00  0.00     0.000 A 
ATOM      5  C6  UNL d   1      -4.512  -0.109   5.614  0.00  0.00     0.000 A 
ATOM      6  C7  UNL d   1      -4.104  -0.716   4.414  0.00  0.00    -0.073 A 
ATOM      7  C8  UNL d   1      -4.690  -2.051   4.044  0.00  0.00     0.078 C 
ENDROOT
BRANCH   1   8
ATOM      8  C1  UNL d   1      -2.737  -0.608   2.251  0.00  0.00     0.053 C 
ATOM      9  C   UNL d   1      -1.222  -0.639   2.118  0.00  0.00     0.018 C 
ENDBRANCH   1   8
TORSDOF 1
ENDMDL
