MODEL 1
REMARK minimizedAffinity 0.24602586
REMARK minimizedRMSD -1
REMARK  1 active torsions:
REMARK  status: ('A' for Active; 'I' for Inactive)
REMARK    1  A    between atoms: C1_2  and  C2_3 
ROOT
ATOM      1  C2  UNL d   1      -3.481  -0.817   2.997  0.00  0.00    -0.076 A 
ATOM      2  C3  UNL d   1      -3.451   0.235   3.929  0.00  0.00     0.004 A 
ATOM      3  C4  UNL d   1      -2.249   0.848   4.281  0.00  0.00    -0.003 A 
ATOM      4  C5  UNL d   1      -1.058   0.418   3.706  0.00  0.00     0.000 A 
ATOM      5  C6  UNL d   1      -1.071  -0.612   2.767  0.00  0.00     0.000 A 
ATOM      6  C7  UNL d   1      -2.276  -1.230   2.389  0.00  0.00    -0.073 A 
ATOM      7  C8  UNL d   1      -2.231  -2.341   1.376  0.00  0.00     0.078 C 
ENDROOT
BRANCH   1   8
ATOM      8  C1  UNL d   1      -4.810  -1.462   2.675  0.00  0.00     0.053 C 
ATOM      9  C   UNL d   1      -5.943  -0.923   3.535  0.00  0.00     0.018 C 
ENDBRANCH   1   8
TORSDOF 1
ENDMDL
