MODEL 1
REMARK minimizedAffinity 1.5191232
REMARK minimizedRMSD -1
REMARK  1 active torsions:
REMARK  status: ('A' for Active; 'I' for Inactive)
REMARK    1  A    between atoms: C1_2  and  C2_3 
ROOT
ATOM      1  C2  UNL d   1      -3.726   0.025   5.110  0.00  0.00    -0.076 A 
ATOM      2  C3  UNL d   1      -4.868  -0.613   5.625  0.00  0.00     0.004 A 
ATOM      3  C4  UNL d   1      -5.613  -1.493   4.843  0.00  0.00    -0.003 A 
ATOM      4  C5  UNL d   1      -5.229  -1.751   3.532  0.00  0.00     0.000 A 
ATOM      5  C6  UNL d   1      -4.089  -1.141   3.009  0.00  0.00     0.000 A 
ATOM      6  C7  UNL d   1      -3.317  -0.263   3.790  0.00  0.00    -0.073 A 
ATOM      7  C8  UNL d   1      -2.101   0.372   3.173  0.00  0.00     0.078 C 
ENDROOT
BRANCH   1   8
ATOM      8  C1  UNL d   1      -2.973   0.991   5.996  0.00  0.00     0.053 C 
ATOM      9  C   UNL d   1      -1.474   0.733   5.997  0.00  0.00     0.018 C 
ENDBRANCH   1   8
TORSDOF 1
ENDMDL
