MODEL 1
REMARK minimizedAffinity 10.8681831
REMARK minimizedRMSD -1
REMARK  1 active torsions:
REMARK  status: ('A' for Active; 'I' for Inactive)
REMARK    1  A    between atoms: C1_2  and  C2_3 
ROOT
ATOM      1  C2  UNL d   1      -3.079  -0.266   2.690  0.00  0.00    -0.076 A 
ATOM      2  C3  UNL d   1      -2.758  -1.013   1.543  0.00  0.00     0.004 A 
ATOM      3  C4  UNL d   1      -1.441  -1.379   1.270  0.00  0.00    -0.003 A 
ATOM      4  C5  UNL d   1      -0.423  -1.005   2.141  0.00  0.00     0.000 A 
ATOM      5  C6  UNL d   1      -0.726  -0.279   3.293  0.00  0.00     0.000 A 
ATOM      6  C7  UNL d   1      -2.050   0.084   3.591  0.00  0.00    -0.073 A 
ATOM      7  C8  UNL d   1      -2.319   0.872   4.844  0.00  0.00     0.078 C 
ENDROOT
BRANCH   1   8
ATOM      8  C1  UNL d   1      -4.521   0.125   2.919  0.00  0.00     0.053 C 
ATOM      9  C   UNL d   1      -5.178   0.688   1.668  0.00  0.00     0.018 C 
ENDBRANCH   1   8
TORSDOF 1
ENDMDL
