MODEL 1
REMARK minimizedAffinity 9.06838417
REMARK minimizedRMSD -1
REMARK  1 active torsions:
REMARK  status: ('A' for Active; 'I' for Inactive)
REMARK    1  A    between atoms: C1_2  and  C2_3 
ROOT
ATOM      1  C2  UNL d   1       4.106   3.251   1.014  0.00  0.00    -0.076 A 
ATOM      2  C3  UNL d   1       2.838   2.974   1.556  0.00  0.00     0.004 A 
ATOM      3  C4  UNL d   1       2.102   1.870   1.130  0.00  0.00    -0.003 A 
ATOM      4  C5  UNL d   1       2.621   1.024   0.156  0.00  0.00     0.000 A 
ATOM      5  C6  UNL d   1       3.884   1.274  -0.380  0.00  0.00     0.000 A 
ATOM      6  C7  UNL d   1       4.647   2.374   0.050  0.00  0.00    -0.073 A 
ATOM      7  C8  UNL d   1       6.000   2.600  -0.567  0.00  0.00     0.078 C 
ENDROOT
BRANCH   1   8
ATOM      8  C1  UNL d   1       4.846   4.479   1.495  0.00  0.00     0.053 C 
ATOM      9  C   UNL d   1       6.000   4.136   2.425  0.00  0.00     0.018 C 
ENDBRANCH   1   8
TORSDOF 1
ENDMDL
