MODEL 1
REMARK minimizedAffinity 6.76816225
REMARK minimizedRMSD -1
REMARK  1 active torsions:
REMARK  status: ('A' for Active; 'I' for Inactive)
REMARK    1  A    between atoms: C1_2  and  C2_3 
ROOT
ATOM      1  C2  UNL d   1      -2.306   3.304   0.281  0.00  0.00    -0.076 A 
ATOM      2  C3  UNL d   1      -2.055   4.386  -0.581  0.00  0.00     0.004 A 
ATOM      3  C4  UNL d   1      -0.842   5.071  -0.538  0.00  0.00    -0.003 A 
ATOM      4  C5  UNL d   1       0.141   4.684   0.366  0.00  0.00     0.000 A 
ATOM      5  C6  UNL d   1      -0.084   3.601   1.216  0.00  0.00     0.000 A 
ATOM      6  C7  UNL d   1      -1.295   2.890   1.175  0.00  0.00    -0.073 A 
ATOM      7  C8  UNL d   1      -1.487   1.734   2.118  0.00  0.00     0.078 C 
ENDROOT
BRANCH   1   8
ATOM      8  C1  UNL d   1      -3.651   2.616   0.208  0.00  0.00     0.053 C 
ATOM      9  C   UNL d   1      -3.702   1.549  -0.875  0.00  0.00     0.018 C 
ENDBRANCH   1   8
TORSDOF 1
ENDMDL
