MODEL 1
REMARK minimizedAffinity 13.4065056
REMARK minimizedRMSD -1
REMARK  1 active torsions:
REMARK  status: ('A' for Active; 'I' for Inactive)
REMARK    1  A    between atoms: C1_2  and  C2_3 
ROOT
ATOM      1  C2  UNL d   1       2.868   0.749  -3.003  0.00  0.00    -0.076 A 
ATOM      2  C3  UNL d   1       2.014   1.807  -3.359  0.00  0.00     0.004 A 
ATOM      3  C4  UNL d   1       2.151   3.067  -2.778  0.00  0.00    -0.003 A 
ATOM      4  C5  UNL d   1       3.145   3.289  -1.832  0.00  0.00     0.000 A 
ATOM      5  C6  UNL d   1       4.013   2.256  -1.479  0.00  0.00     0.000 A 
ATOM      6  C7  UNL d   1       3.899   0.984  -2.067  0.00  0.00    -0.073 A 
ATOM      7  C8  UNL d   1       4.857  -0.095  -1.645  0.00  0.00     0.078 C 
ENDROOT
BRANCH   1   8
ATOM      8  C1  UNL d   1       2.655  -0.602  -3.646  0.00  0.00     0.053 C 
ATOM      9  C   UNL d   1       1.278  -1.177  -3.351  0.00  0.00     0.018 C 
ENDBRANCH   1   8
TORSDOF 1
ENDMDL
