MODEL 1
REMARK minimizedAffinity 4.9928174
REMARK minimizedRMSD -1
REMARK  1 active torsions:
REMARK  status: ('A' for Active; 'I' for Inactive)
REMARK    1  A    between atoms: C1_2  and  C2_3 
ROOT
ATOM      1  C2  UNL d   1       3.300  -4.011   0.027  0.00  0.00    -0.076 A 
ATOM      2  C3  UNL d   1       3.441  -5.408  -0.046  0.00  0.00     0.004 A 
ATOM      3  C4  UNL d   1       4.702  -6.000  -0.086  0.00  0.00    -0.003 A 
ATOM      4  C5  UNL d   1       5.843  -5.205  -0.051  0.00  0.00     0.000 A 
ATOM      5  C6  UNL d   1       5.721  -3.819   0.040  0.00  0.00     0.000 A 
ATOM      6  C7  UNL d   1       4.457  -3.207   0.097  0.00  0.00    -0.073 A 
ATOM      7  C8  UNL d   1       4.385  -1.707   0.188  0.00  0.00     0.078 C 
ENDROOT
BRANCH   1   8
ATOM      8  C1  UNL d   1       1.906  -3.424   0.040  0.00  0.00     0.053 C 
ATOM      9  C   UNL d   1       1.126  -3.748  -1.225  0.00  0.00     0.018 C 
ENDBRANCH   1   8
TORSDOF 1
ENDMDL
