MODEL 1
REMARK minimizedAffinity 4.02112722
REMARK minimizedRMSD -1
REMARK  1 active torsions:
REMARK  status: ('A' for Active; 'I' for Inactive)
REMARK    1  A    between atoms: C1_2  and  C2_3 
ROOT
ATOM      1  C2  UNL d   1      -3.265   1.805   1.149  0.00  0.00    -0.076 A 
ATOM      2  C3  UNL d   1      -2.672   2.835   1.899  0.00  0.00     0.004 A 
ATOM      3  C4  UNL d   1      -1.891   2.551   3.018  0.00  0.00    -0.003 A 
ATOM      4  C5  UNL d   1      -1.689   1.230   3.405  0.00  0.00     0.000 A 
ATOM      5  C6  UNL d   1      -2.255   0.195   2.662  0.00  0.00     0.000 A 
ATOM      6  C7  UNL d   1      -3.032   0.464   1.522  0.00  0.00    -0.073 A 
ATOM      7  C8  UNL d   1      -3.622  -0.692   0.762  0.00  0.00     0.078 C 
ENDROOT
BRANCH   1   8
ATOM      8  C1  UNL d   1      -4.124   2.175  -0.039  0.00  0.00     0.053 C 
ATOM      9  C   UNL d   1      -4.807   0.968  -0.663  0.00  0.00     0.018 C 
ENDBRANCH   1   8
TORSDOF 1
ENDMDL
