MODEL 1
REMARK minimizedAffinity 6.92605782
REMARK minimizedRMSD -1
REMARK  1 active torsions:
REMARK  status: ('A' for Active; 'I' for Inactive)
REMARK    1  A    between atoms: C1_2  and  C2_3 
ROOT
ATOM      1  C2  UNL d   1      -2.441   3.739  -0.038  0.00  0.00    -0.076 A 
ATOM      2  C3  UNL d   1      -2.247   4.789  -0.952  0.00  0.00     0.004 A 
ATOM      3  C4  UNL d   1      -1.038   5.481  -1.004  0.00  0.00    -0.003 A 
ATOM      4  C5  UNL d   1      -0.003   5.134  -0.143  0.00  0.00     0.000 A 
ATOM      5  C6  UNL d   1      -0.172   4.083   0.758  0.00  0.00     0.000 A 
ATOM      6  C7  UNL d   1      -1.378   3.364   0.812  0.00  0.00    -0.073 A 
ATOM      7  C8  UNL d   1      -1.507   2.244   1.808  0.00  0.00     0.078 C 
ENDROOT
BRANCH   1   8
ATOM      8  C1  UNL d   1      -3.782   3.042  -0.009  0.00  0.00     0.053 C 
ATOM      9  C   UNL d   1      -3.769   1.720  -0.760  0.00  0.00     0.018 C 
ENDBRANCH   1   8
TORSDOF 1
ENDMDL
