MODEL 1
REMARK minimizedAffinity 8.67589188
REMARK minimizedRMSD -1
REMARK  1 active torsions:
REMARK  status: ('A' for Active; 'I' for Inactive)
REMARK    1  A    between atoms: C1_2  and  C2_3 
ROOT
ATOM      1  C2  UNL d   1       2.942  -2.711  -0.141  0.00  0.00    -0.076 A 
ATOM      2  C3  UNL d   1       2.870  -1.413   0.394  0.00  0.00     0.004 A 
ATOM      3  C4  UNL d   1       3.999  -0.794   0.928  0.00  0.00    -0.003 A 
ATOM      4  C5  UNL d   1       5.218  -1.462   0.936  0.00  0.00     0.000 A 
ATOM      5  C6  UNL d   1       5.311  -2.743   0.393  0.00  0.00     0.000 A 
ATOM      6  C7  UNL d   1       4.187  -3.376  -0.164  0.00  0.00    -0.073 A 
ATOM      7  C8  UNL d   1       4.344  -4.761  -0.730  0.00  0.00     0.078 C 
ENDROOT
BRANCH   1   8
ATOM      8  C1  UNL d   1       1.679  -3.343  -0.681  0.00  0.00     0.053 C 
ATOM      9  C   UNL d   1       0.690  -3.700   0.417  0.00  0.00     0.018 C 
ENDBRANCH   1   8
TORSDOF 1
ENDMDL
