MODEL 1
REMARK minimizedAffinity 5.87153769
REMARK minimizedRMSD -1
REMARK  1 active torsions:
REMARK  status: ('A' for Active; 'I' for Inactive)
REMARK    1  A    between atoms: C1_2  and  C2_3 
ROOT
ATOM      1  C2  UNL d   1       3.008  -4.063   0.138  0.00  0.00    -0.076 A 
ATOM      2  C3  UNL d   1       1.796  -4.726   0.399  0.00  0.00     0.004 A 
ATOM      3  C4  UNL d   1       0.671  -4.022   0.824  0.00  0.00    -0.003 A 
ATOM      4  C5  UNL d   1       0.738  -2.643   0.993  0.00  0.00     0.000 A 
ATOM      5  C6  UNL d   1       1.927  -1.967   0.721  0.00  0.00     0.000 A 
ATOM      6  C7  UNL d   1       3.066  -2.660   0.277  0.00  0.00    -0.073 A 
ATOM      7  C8  UNL d   1       4.324  -1.881   0.004  0.00  0.00     0.078 C 
ENDROOT
BRANCH   1   8
ATOM      8  C1  UNL d   1       4.203  -4.882  -0.294  0.00  0.00     0.053 C 
ATOM      9  C   UNL d   1       4.528  -5.999   0.685  0.00  0.00     0.018 C 
ENDBRANCH   1   8
TORSDOF 1
ENDMDL
