MODEL 1
REMARK minimizedAffinity -0.29165867
REMARK minimizedRMSD -1
REMARK  1 active torsions:
REMARK  status: ('A' for Active; 'I' for Inactive)
REMARK    1  A    between atoms: C1_2  and  C2_3 
ROOT
ATOM      1  C2  UNL d   1      -0.486  -3.950  -0.408  0.00  0.00    -0.076 A 
ATOM      2  C3  UNL d   1      -1.736  -3.435  -0.023  0.00  0.00     0.004 A 
ATOM      3  C4  UNL d   1      -1.852  -2.566   1.061  0.00  0.00    -0.003 A 
ATOM      4  C5  UNL d   1      -0.718  -2.199   1.778  0.00  0.00     0.000 A 
ATOM      5  C6  UNL d   1       0.532  -2.686   1.400  0.00  0.00     0.000 A 
ATOM      6  C7  UNL d   1       0.668  -3.550   0.299  0.00  0.00    -0.073 A 
ATOM      7  C8  UNL d   1       2.040  -4.051  -0.061  0.00  0.00     0.078 C 
ENDROOT
BRANCH   1   8
ATOM      8  C1  UNL d   1      -0.427  -4.909  -1.575  0.00  0.00     0.053 C 
ATOM      9  C   UNL d   1      -0.421  -4.194  -2.917  0.00  0.00     0.018 C 
ENDBRANCH   1   8
TORSDOF 1
ENDMDL
