MODEL 1
REMARK minimizedAffinity 2.5497489
REMARK minimizedRMSD -1
REMARK  1 active torsions:
REMARK  status: ('A' for Active; 'I' for Inactive)
REMARK    1  A    between atoms: C1_2  and  C2_3 
ROOT
ATOM      1  C2  UNL d   1      -5.504  -3.200   4.671  0.00  0.00    -0.076 A 
ATOM      2  C3  UNL d   1      -5.722  -3.848   5.899  0.00  0.00     0.004 A 
ATOM      3  C4  UNL d   1      -5.656  -5.237   5.998  0.00  0.00    -0.003 A 
ATOM      4  C5  UNL d   1      -5.370  -6.000   4.871  0.00  0.00     0.000 A 
ATOM      5  C6  UNL d   1      -5.135  -5.372   3.649  0.00  0.00     0.000 A 
ATOM      6  C7  UNL d   1      -5.181  -3.972   3.535  0.00  0.00    -0.073 A 
ATOM      7  C8  UNL d   1      -4.925  -3.349   2.190  0.00  0.00     0.078 C 
ENDROOT
BRANCH   1   8
ATOM      8  C1  UNL d   1      -5.616  -1.693   4.618  0.00  0.00     0.053 C 
ATOM      9  C   UNL d   1      -5.726  -1.068   6.000  0.00  0.00     0.018 C 
ENDBRANCH   1   8
TORSDOF 1
ENDMDL
