MODEL 1
REMARK minimizedAffinity 16.2942219
REMARK minimizedRMSD -1
REMARK  1 active torsions:
REMARK  status: ('A' for Active; 'I' for Inactive)
REMARK    1  A    between atoms: C1_2  and  C2_3 
ROOT
ATOM      1  C2  UNL d   1       3.622   2.012  -1.043  0.00  0.00    -0.076 A 
ATOM      2  C3  UNL d   1       4.114   3.246  -1.503  0.00  0.00     0.004 A 
ATOM      3  C4  UNL d   1       4.159   4.358  -0.664  0.00  0.00    -0.003 A 
ATOM      4  C5  UNL d   1       3.713   4.255   0.649  0.00  0.00     0.000 A 
ATOM      5  C6  UNL d   1       3.238   3.034   1.128  0.00  0.00     0.000 A 
ATOM      6  C7  UNL d   1       3.201   1.899   0.300  0.00  0.00    -0.073 A 
ATOM      7  C8  UNL d   1       2.674   0.609   0.867  0.00  0.00     0.078 C 
ENDROOT
BRANCH   1   8
ATOM      8  C1  UNL d   1       3.572   0.848  -2.006  0.00  0.00     0.053 C 
ATOM      9  C   UNL d   1       2.508   1.024  -3.079  0.00  0.00     0.018 C 
ENDBRANCH   1   8
TORSDOF 1
ENDMDL
