MODEL 1
REMARK minimizedAffinity 5.5945797
REMARK minimizedRMSD -1
REMARK  1 active torsions:
REMARK  status: ('A' for Active; 'I' for Inactive)
REMARK    1  A    between atoms: C1_2  and  C2_3 
ROOT
ATOM      1  C2  UNL d   1       2.674   1.445  -0.119  0.00  0.00    -0.076 A 
ATOM      2  C3  UNL d   1       2.435   2.331   0.946  0.00  0.00     0.004 A 
ATOM      3  C4  UNL d   1       2.893   3.647   0.901  0.00  0.00    -0.003 A 
ATOM      4  C5  UNL d   1       3.595   4.099  -0.211  0.00  0.00     0.000 A 
ATOM      5  C6  UNL d   1       3.826   3.238  -1.284  0.00  0.00     0.000 A 
ATOM      6  C7  UNL d   1       3.357   1.914  -1.261  0.00  0.00    -0.073 A 
ATOM      7  C8  UNL d   1       3.640   1.028  -2.444  0.00  0.00     0.078 C 
ENDROOT
BRANCH   1   8
ATOM      8  C1  UNL d   1       2.177   0.022  -0.002  0.00  0.00     0.053 C 
ATOM      9  C   UNL d   1       2.522  -0.607   1.340  0.00  0.00     0.018 C 
ENDBRANCH   1   8
TORSDOF 1
ENDMDL
