MODEL 1
REMARK minimizedAffinity -1.19412124
REMARK minimizedRMSD -1
REMARK  0 active torsions:
REMARK  status: ('A' for Active; 'I' for Inactive)
ROOT
ATOM      1  C1  DEN d   1      -2.365   2.524  -1.757  0.00  0.00     0.130 A 
ATOM      2  C2  DEN d   1      -2.369   2.050  -3.138  0.00  0.00    -0.031 A 
ATOM      3  C3  DEN d   1      -1.394   0.946  -3.244  0.00  0.00     0.027 A 
ATOM      4  C4  DEN d   1       0.111  -0.071  -1.413  0.00  0.00     0.027 A 
ATOM      5  C5  DEN d   1       0.475   0.008  -0.087  0.00  0.00    -0.003 A 
ATOM      6  C6  DEN d   1      -0.053   0.945   0.760  0.00  0.00     0.001 A 
ATOM      7  C7  DEN d   1      -1.008   1.814   0.302  0.00  0.00     0.017 A 
ATOM      8  C8  DEN d   1      -1.375   1.745  -1.036  0.00  0.00    -0.094 A 
ATOM      9  C9  DEN d   1      -0.838   0.782  -1.874  0.00  0.00    -0.072 A 
ENDROOT
TORSDOF 0
ENDMDL
