MODEL 1
REMARK minimizedAffinity -3.98322248
REMARK minimizedRMSD -1
REMARK  0 active torsions:
REMARK  status: ('A' for Active; 'I' for Inactive)
ROOT
ATOM      1  C1  DEN d   1      -1.040  -0.605   2.621  0.00  0.00     0.130 A 
ATOM      2  C2  DEN d   1      -0.611  -1.508   3.685  0.00  0.00    -0.031 A 
ATOM      3  C3  DEN d   1       0.596  -2.220   3.221  0.00  0.00     0.027 A 
ATOM      4  C4  DEN d   1       1.839  -2.011   0.970  0.00  0.00     0.027 A 
ATOM      5  C5  DEN d   1       1.843  -1.382  -0.255  0.00  0.00    -0.003 A 
ATOM      6  C6  DEN d   1       0.875  -0.483  -0.618  0.00  0.00     0.001 A 
ATOM      7  C7  DEN d   1      -0.113  -0.153   0.271  0.00  0.00     0.017 A 
ATOM      8  C8  DEN d   1      -0.128  -0.788   1.506  0.00  0.00    -0.094 A 
ATOM      9  C9  DEN d   1       0.866  -1.685   1.859  0.00  0.00    -0.072 A 
ENDROOT
TORSDOF 0
ENDMDL
