MODEL 1
REMARK minimizedAffinity -4.75007391
REMARK minimizedRMSD -1
REMARK  0 active torsions:
REMARK  status: ('A' for Active; 'I' for Inactive)
ROOT
ATOM      1  C1  DEN d   1       0.971   0.360  -0.870  0.00  0.00     0.130 A 
ATOM      2  C2  DEN d   1      -0.295   1.080  -0.758  0.00  0.00    -0.031 A 
ATOM      3  C3  DEN d   1      -1.016   0.556   0.419  0.00  0.00     0.027 A 
ATOM      4  C4  DEN d   1      -0.297  -1.287   2.074  0.00  0.00     0.027 A 
ATOM      5  C5  DEN d   1       0.690  -2.197   2.381  0.00  0.00    -0.003 A 
ATOM      6  C6  DEN d   1       1.816  -2.341   1.613  0.00  0.00     0.001 A 
ATOM      7  C7  DEN d   1       2.002  -1.531   0.524  0.00  0.00     0.017 A 
ATOM      8  C8  DEN d   1       1.007  -0.616   0.204  0.00  0.00    -0.094 A 
ATOM      9  C9  DEN d   1      -0.117  -0.478   1.000  0.00  0.00    -0.072 A 
ENDROOT
TORSDOF 0
ENDMDL
