MODEL 1
REMARK minimizedAffinity -5.79273415
REMARK minimizedRMSD -1
REMARK  0 active torsions:
REMARK  status: ('A' for Active; 'I' for Inactive)
ROOT
ATOM      1  C1  DEN d   1      -0.757   0.640   0.139  0.00  0.00     0.130 A 
ATOM      2  C2  DEN d   1       0.040   0.908  -1.055  0.00  0.00    -0.031 A 
ATOM      3  C3  DEN d   1       1.223   0.026  -1.022  0.00  0.00     0.027 A 
ATOM      4  C4  DEN d   1       1.894  -1.723   0.751  0.00  0.00     0.027 A 
ATOM      5  C5  DEN d   1       1.538  -2.299   1.950  0.00  0.00    -0.003 A 
ATOM      6  C6  DEN d   1       0.420  -1.915   2.641  0.00  0.00     0.001 A 
ATOM      7  C7  DEN d   1      -0.408  -0.958   2.115  0.00  0.00     0.017 A 
ATOM      8  C8  DEN d   1      -0.052  -0.368   0.910  0.00  0.00    -0.094 A 
ATOM      9  C9  DEN d   1       1.077  -0.778   0.221  0.00  0.00    -0.072 A 
ENDROOT
TORSDOF 0
ENDMDL
