MODEL 1
REMARK minimizedAffinity -3.34276342
REMARK minimizedRMSD -1
REMARK  0 active torsions:
REMARK  status: ('A' for Active; 'I' for Inactive)
ROOT
ATOM      1  C1  DEN d   1      -0.485  -0.124  -0.706  0.00  0.00     0.130 A 
ATOM      2  C2  DEN d   1      -0.247   0.473   0.605  0.00  0.00    -0.031 A 
ATOM      3  C3  DEN d   1      -0.893   1.801   0.626  0.00  0.00     0.027 A 
ATOM      4  C4  DEN d   1      -2.235   2.981  -1.233  0.00  0.00     0.027 A 
ATOM      5  C5  DEN d   1      -2.695   2.874  -2.527  0.00  0.00    -0.003 A 
ATOM      6  C6  DEN d   1      -2.423   1.783  -3.310  0.00  0.00     0.001 A 
ATOM      7  C7  DEN d   1      -1.709   0.735  -2.790  0.00  0.00     0.017 A 
ATOM      8  C8  DEN d   1      -1.236   0.840  -1.489  0.00  0.00    -0.094 A 
ATOM      9  C9  DEN d   1      -1.532   1.946  -0.710  0.00  0.00    -0.072 A 
ENDROOT
TORSDOF 0
ENDMDL
