MODEL 1
REMARK minimizedAffinity -1.61572301
REMARK minimizedRMSD -1
REMARK  0 active torsions:
REMARK  status: ('A' for Active; 'I' for Inactive)
ROOT
ATOM      1  C1  DEN d   1      -1.224   1.057   0.580  0.00  0.00     0.130 A 
ATOM      2  C2  DEN d   1      -0.657   1.547  -0.674  0.00  0.00    -0.031 A 
ATOM      3  C3  DEN d   1       0.569   0.773  -0.953  0.00  0.00     0.027 A 
ATOM      4  C4  DEN d   1       1.636  -1.130   0.423  0.00  0.00     0.027 A 
ATOM      5  C5  DEN d   1       1.523  -1.887   1.568  0.00  0.00    -0.003 A 
ATOM      6  C6  DEN d   1       0.513  -1.695   2.473  0.00  0.00     0.001 A 
ATOM      7  C7  DEN d   1      -0.449  -0.752   2.226  0.00  0.00     0.017 A 
ATOM      8  C8  DEN d   1      -0.338   0.020   1.078  0.00  0.00    -0.094 A 
ATOM      9  C9  DEN d   1       0.683  -0.198   0.168  0.00  0.00    -0.072 A 
ENDROOT
TORSDOF 0
ENDMDL
