MODEL 1
REMARK minimizedAffinity -0.774088502
REMARK minimizedRMSD -1
REMARK  0 active torsions:
REMARK  status: ('A' for Active; 'I' for Inactive)
ROOT
ATOM      1  C1  DEN d   1      -1.120  -0.858   2.355  0.00  0.00     0.130 A 
ATOM      2  C2  DEN d   1      -1.875   0.322   1.942  0.00  0.00    -0.031 A 
ATOM      3  C3  DEN d   1      -1.140   0.971   0.838  0.00  0.00     0.027 A 
ATOM      4  C4  DEN d   1       1.080   0.265  -0.269  0.00  0.00     0.027 A 
ATOM      5  C5  DEN d   1       2.098  -0.663  -0.251  0.00  0.00    -0.003 A 
ATOM      6  C6  DEN d   1       2.132  -1.692   0.651  0.00  0.00     0.001 A 
ATOM      7  C7  DEN d   1       1.105  -1.846   1.545  0.00  0.00     0.017 A 
ATOM      8  C8  DEN d   1       0.079  -0.910   1.538  0.00  0.00    -0.094 A 
ATOM      9  C9  DEN d   1       0.056   0.117   0.609  0.00  0.00    -0.072 A 
ENDROOT
TORSDOF 0
ENDMDL
