MODEL 1
REMARK minimizedAffinity 6.07711029
REMARK minimizedRMSD -1
REMARK  0 active torsions:
REMARK  status: ('A' for Active; 'I' for Inactive)
ROOT
ATOM      1  C1  DEN d   1      -0.190  -0.814   2.207  0.00  0.00     0.130 A 
ATOM      2  C2  DEN d   1      -0.453  -2.242   2.364  0.00  0.00    -0.031 A 
ATOM      3  C3  DEN d   1       0.517  -2.980   1.531  0.00  0.00     0.027 A 
ATOM      4  C4  DEN d   1       2.396  -2.056   0.025  0.00  0.00     0.027 A 
ATOM      5  C5  DEN d   1       3.000  -0.909  -0.440  0.00  0.00    -0.003 A 
ATOM      6  C6  DEN d   1       2.566   0.341  -0.085  0.00  0.00     0.001 A 
ATOM      7  C7  DEN d   1       1.524   0.472   0.796  0.00  0.00     0.017 A 
ATOM      8  C8  DEN d   1       0.905  -0.680   1.263  0.00  0.00    -0.094 A 
ATOM      9  C9  DEN d   1       1.367  -1.934   0.901  0.00  0.00    -0.072 A 
ENDROOT
TORSDOF 0
ENDMDL
