MODEL 1
REMARK minimizedAffinity -1.39840639
REMARK minimizedRMSD -1
REMARK  0 active torsions:
REMARK  status: ('A' for Active; 'I' for Inactive)
ROOT
ATOM      1  C1  DEN d   1       0.066   0.270  -0.646  0.00  0.00     0.130 A 
ATOM      2  C2  DEN d   1      -0.464   0.514   0.692  0.00  0.00    -0.031 A 
ATOM      3  C3  DEN d   1      -1.750   1.226   0.550  0.00  0.00     0.027 A 
ATOM      4  C4  DEN d   1      -2.967   1.965  -1.600  0.00  0.00     0.027 A 
ATOM      5  C5  DEN d   1      -2.900   1.989  -2.976  0.00  0.00    -0.003 A 
ATOM      6  C6  DEN d   1      -1.833   1.477  -3.664  0.00  0.00     0.001 A 
ATOM      7  C7  DEN d   1      -0.809   0.877  -2.980  0.00  0.00     0.017 A 
ATOM      8  C8  DEN d   1      -0.865   0.855  -1.593  0.00  0.00    -0.094 A 
ATOM      9  C9  DEN d   1      -1.959   1.368  -0.916  0.00  0.00    -0.072 A 
ENDROOT
TORSDOF 0
ENDMDL
