MODEL 1
REMARK minimizedAffinity -3.99484587
REMARK minimizedRMSD -1
REMARK  0 active torsions:
REMARK  status: ('A' for Active; 'I' for Inactive)
ROOT
ATOM      1  C1  DEN d   1      -0.680   0.138   0.181  0.00  0.00     0.130 A 
ATOM      2  C2  DEN d   1       0.316   0.089  -0.886  0.00  0.00    -0.031 A 
ATOM      3  C3  DEN d   1       1.437  -0.754  -0.426  0.00  0.00     0.027 A 
ATOM      4  C4  DEN d   1       1.725  -1.985   1.823  0.00  0.00     0.027 A 
ATOM      5  C5  DEN d   1       1.148  -2.231   3.049  0.00  0.00    -0.003 A 
ATOM      6  C6  DEN d   1      -0.052  -1.682   3.416  0.00  0.00     0.001 A 
ATOM      7  C7  DEN d   1      -0.737  -0.894   2.529  0.00  0.00     0.017 A 
ATOM      8  C8  DEN d   1      -0.159  -0.635   1.293  0.00  0.00    -0.094 A 
ATOM      9  C9  DEN d   1       1.050  -1.210   0.937  0.00  0.00    -0.072 A 
ENDROOT
TORSDOF 0
ENDMDL
