MODEL 1
REMARK minimizedAffinity -5.89030361
REMARK minimizedRMSD -1
REMARK  0 active torsions:
REMARK  status: ('A' for Active; 'I' for Inactive)
ROOT
ATOM      1  C1  DEN d   1       0.127  -0.004  -0.337  0.00  0.00     0.130 A 
ATOM      2  C2  DEN d   1       1.472  -0.179  -0.876  0.00  0.00    -0.031 A 
ATOM      3  C3  DEN d   1       2.234  -1.026   0.063  0.00  0.00     0.027 A 
ATOM      4  C4  DEN d   1       1.463  -2.082   2.287  0.00  0.00     0.027 A 
ATOM      5  C5  DEN d   1       0.409  -2.205   3.165  0.00  0.00    -0.003 A 
ATOM      6  C6  DEN d   1      -0.792  -1.581   2.957  0.00  0.00     0.001 A 
ATOM      7  C7  DEN d   1      -0.983  -0.840   1.820  0.00  0.00     0.017 A 
ATOM      8  C8  DEN d   1       0.077  -0.705   0.933  0.00  0.00    -0.094 A 
ATOM      9  C9  DEN d   1       1.279  -1.355   1.156  0.00  0.00    -0.072 A 
ENDROOT
TORSDOF 0
ENDMDL
