MODEL 1
REMARK minimizedAffinity 1.15889132
REMARK minimizedRMSD -1
REMARK  0 active torsions:
REMARK  status: ('A' for Active; 'I' for Inactive)
ROOT
ATOM      1  C1  DEN d   1      -0.521   2.326  -2.642  0.00  0.00     0.130 A 
ATOM      2  C2  DEN d   1      -1.974   2.453  -2.578  0.00  0.00    -0.031 A 
ATOM      3  C3  DEN d   1      -2.453   1.646  -1.437  0.00  0.00     0.027 A 
ATOM      4  C4  DEN d   1      -1.091   0.225   0.230  0.00  0.00     0.027 A 
ATOM      5  C5  DEN d   1       0.174  -0.200   0.571  0.00  0.00    -0.003 A 
ATOM      6  C6  DEN d   1       1.284   0.157  -0.149  0.00  0.00     0.001 A 
ATOM      7  C7  DEN d   1       1.154   1.000  -1.221  0.00  0.00     0.017 A 
ATOM      8  C8  DEN d   1      -0.119   1.426  -1.576  0.00  0.00    -0.094 A 
ATOM      9  C9  DEN d   1      -1.226   1.064  -0.828  0.00  0.00    -0.072 A 
ENDROOT
TORSDOF 0
ENDMDL
