MODEL 1
REMARK minimizedAffinity -0.950823188
REMARK minimizedRMSD -1
REMARK  0 active torsions:
REMARK  status: ('A' for Active; 'I' for Inactive)
ROOT
ATOM      1  C1  DEN d   1      -0.894   2.209  -2.864  0.00  0.00     0.130 A 
ATOM      2  C2  DEN d   1      -2.351   2.128  -2.831  0.00  0.00    -0.031 A 
ATOM      3  C3  DEN d   1      -2.736   1.280  -1.685  0.00  0.00     0.027 A 
ATOM      4  C4  DEN d   1      -1.224   0.093   0.035  0.00  0.00     0.027 A 
ATOM      5  C5  DEN d   1       0.081  -0.142   0.409  0.00  0.00    -0.003 A 
ATOM      6  C6  DEN d   1       1.144   0.358  -0.296  0.00  0.00     0.001 A 
ATOM      7  C7  DEN d   1       0.921   1.156  -1.386  0.00  0.00     0.017 A 
ATOM      8  C8  DEN d   1      -0.392   1.392  -1.774  0.00  0.00    -0.094 A 
ATOM      9  C9  DEN d   1      -1.453   0.888  -1.041  0.00  0.00    -0.072 A 
ENDROOT
TORSDOF 0
ENDMDL
