MODEL 1
REMARK minimizedAffinity 7.53963137
REMARK minimizedRMSD -1
REMARK  1 active torsions:
REMARK  status: ('A' for Active; 'I' for Inactive)
REMARK    1  A    between atoms: C1_2  and  C2_3 
ROOT
ATOM      1  C2  UNL d   1       3.324   3.933  -5.119  0.00  0.00    -0.076 A 
ATOM      2  C3  UNL d   1       2.086   3.285  -4.968  0.00  0.00     0.004 A 
ATOM      3  C4  UNL d   1       0.895   3.923  -5.310  0.00  0.00    -0.003 A 
ATOM      4  C5  UNL d   1       0.923   5.221  -5.809  0.00  0.00     0.000 A 
ATOM      5  C6  UNL d   1       2.144   5.873  -5.982  0.00  0.00     0.000 A 
ATOM      6  C7  UNL d   1       3.355   5.237  -5.657  0.00  0.00    -0.073 A 
ATOM      7  C8  UNL d   1       4.641   5.990  -5.858  0.00  0.00     0.078 C 
ENDROOT
BRANCH   1   8
ATOM      8  C1  UNL d   1       4.581   3.201  -4.705  0.00  0.00     0.053 C 
ATOM      9  C   UNL d   1       4.551   2.770  -3.247  0.00  0.00     0.018 C 
ENDBRANCH   1   8
TORSDOF 1
ENDMDL
