MODEL 1
REMARK minimizedAffinity 4.7211771
REMARK minimizedRMSD -1
REMARK  1 active torsions:
REMARK  status: ('A' for Active; 'I' for Inactive)
REMARK    1  A    between atoms: C1_2  and  C2_3 
ROOT
ATOM      1  C2  UNL d   1      -0.517  -1.407  -2.902  0.00  0.00    -0.076 A 
ATOM      2  C3  UNL d   1      -1.369  -1.403  -1.785  0.00  0.00     0.004 A 
ATOM      3  C4  UNL d   1      -2.753  -1.333  -1.938  0.00  0.00    -0.003 A 
ATOM      4  C5  UNL d   1      -3.306  -1.266  -3.212  0.00  0.00     0.000 A 
ATOM      5  C6  UNL d   1      -2.477  -1.287  -4.332  0.00  0.00     0.000 A 
ATOM      6  C7  UNL d   1      -1.081  -1.374  -4.196  0.00  0.00    -0.073 A 
ATOM      7  C8  UNL d   1      -0.233  -1.387  -5.438  0.00  0.00     0.078 C 
ENDROOT
BRANCH   1   8
ATOM      8  C1  UNL d   1       0.977  -1.457  -2.674  0.00  0.00     0.053 C 
ATOM      9  C   UNL d   1       1.375  -0.934  -1.302  0.00  0.00     0.018 C 
ENDBRANCH   1   8
TORSDOF 1
ENDMDL
