MODEL 1
REMARK minimizedAffinity 10.279398
REMARK minimizedRMSD -1
REMARK  1 active torsions:
REMARK  status: ('A' for Active; 'I' for Inactive)
REMARK    1  A    between atoms: C1_2  and  C2_3 
ROOT
ATOM      1  C2  UNL d   1      -0.224   0.209   2.960  0.00  0.00    -0.076 A 
ATOM      2  C3  UNL d   1       0.896   0.525   2.171  0.00  0.00     0.004 A 
ATOM      3  C4  UNL d   1       0.885   0.317   0.793  0.00  0.00    -0.003 A 
ATOM      4  C5  UNL d   1      -0.247  -0.209   0.181  0.00  0.00     0.000 A 
ATOM      5  C6  UNL d   1      -1.374  -0.512   0.945  0.00  0.00     0.000 A 
ATOM      6  C7  UNL d   1      -1.384  -0.293   2.333  0.00  0.00    -0.073 A 
ATOM      7  C8  UNL d   1      -2.624  -0.643   3.110  0.00  0.00     0.078 C 
ENDROOT
BRANCH   1   8
ATOM      8  C1  UNL d   1      -0.144   0.430   4.453  0.00  0.00     0.053 C 
ATOM      9  C   UNL d   1       1.162  -0.075   5.048  0.00  0.00     0.018 C 
ENDBRANCH   1   8
TORSDOF 1
ENDMDL
