MODEL 1
REMARK minimizedAffinity -2.17580295
REMARK minimizedRMSD -1
REMARK  1 active torsions:
REMARK  status: ('A' for Active; 'I' for Inactive)
REMARK    1  A    between atoms: C1_2  and  C2_3 
ROOT
ATOM      1  C2  UNL d   1      -1.086   5.978  -3.044  0.00  0.00    -0.076 A 
ATOM      2  C3  UNL d   1      -1.995   5.995  -4.116  0.00  0.00     0.004 A 
ATOM      3  C4  UNL d   1      -3.371   5.999  -3.890  0.00  0.00    -0.003 A 
ATOM      4  C5  UNL d   1      -3.859   5.986  -2.589  0.00  0.00     0.000 A 
ATOM      5  C6  UNL d   1      -2.972   5.986  -1.513  0.00  0.00     0.000 A 
ATOM      6  C7  UNL d   1      -1.582   5.999  -1.723  0.00  0.00    -0.073 A 
ATOM      7  C8  UNL d   1      -0.671   5.993  -0.526  0.00  0.00     0.078 C 
ENDROOT
BRANCH   1   8
ATOM      8  C1  UNL d   1       0.394   5.947  -3.350  0.00  0.00     0.053 C 
ATOM      9  C   UNL d   1       0.681   5.617  -4.807  0.00  0.00     0.018 C 
ENDBRANCH   1   8
TORSDOF 1
ENDMDL
