MODEL 1
REMARK minimizedAffinity 3.2102294
REMARK minimizedRMSD -1
REMARK  1 active torsions:
REMARK  status: ('A' for Active; 'I' for Inactive)
REMARK    1  A    between atoms: C1_2  and  C2_3 
ROOT
ATOM      1  C2  UNL d   1       0.437   0.721   0.999  0.00  0.00    -0.076 A 
ATOM      2  C3  UNL d   1       1.327  -0.034   0.215  0.00  0.00     0.004 A 
ATOM      3  C4  UNL d   1       0.946  -1.263  -0.321  0.00  0.00    -0.003 A 
ATOM      4  C5  UNL d   1      -0.332  -1.756  -0.083  0.00  0.00     0.000 A 
ATOM      5  C6  UNL d   1      -1.234  -1.012   0.677  0.00  0.00     0.000 A 
ATOM      6  C7  UNL d   1      -0.871   0.236   1.212  0.00  0.00    -0.073 A 
ATOM      7  C8  UNL d   1      -1.881   0.992   2.029  0.00  0.00     0.078 C 
ENDROOT
BRANCH   1   8
ATOM      8  C1  UNL d   1       0.916   2.033   1.577  0.00  0.00     0.053 C 
ATOM      9  C   UNL d   1       1.210   3.070   0.504  0.00  0.00     0.018 C 
ENDBRANCH   1   8
TORSDOF 1
ENDMDL
