MODEL 1
REMARK minimizedAffinity 1.34108448
REMARK minimizedRMSD -1
REMARK  1 active torsions:
REMARK  status: ('A' for Active; 'I' for Inactive)
REMARK    1  A    between atoms: C1_2  and  C2_3 
ROOT
ATOM      1  C2  UNL d   1       0.878   0.361   0.237  0.00  0.00    -0.076 A 
ATOM      2  C3  UNL d   1       0.993   1.411   1.164  0.00  0.00     0.004 A 
ATOM      3  C4  UNL d   1       1.719   2.561   0.860  0.00  0.00    -0.003 A 
ATOM      4  C5  UNL d   1       2.342   2.680  -0.378  0.00  0.00     0.000 A 
ATOM      5  C6  UNL d   1       2.223   1.655  -1.317  0.00  0.00     0.000 A 
ATOM      6  C7  UNL d   1       1.481   0.496  -1.032  0.00  0.00    -0.073 A 
ATOM      7  C8  UNL d   1       1.392  -0.580  -2.079  0.00  0.00     0.078 C 
ENDROOT
BRANCH   1   8
ATOM      8  C1  UNL d   1       0.100  -0.874   0.634  0.00  0.00     0.053 C 
ATOM      9  C   UNL d   1      -1.265  -0.541   1.216  0.00  0.00     0.018 C 
ENDBRANCH   1   8
TORSDOF 1
ENDMDL
