MODEL 1
REMARK minimizedAffinity -4.64918756
REMARK minimizedRMSD -1
REMARK  0 active torsions:
REMARK  status: ('A' for Active; 'I' for Inactive)
ROOT
ATOM      1  C   UNL d   1      -3.123  -1.134  -0.180  0.00  0.00     0.078 C 
ATOM      2  C1  UNL d   1      -1.667  -0.829   0.007  0.00  0.00    -0.077 A 
ATOM      3  C2  UNL d   1      -1.031   0.152  -0.763  0.00  0.00    -0.001 A 
ATOM      4  C3  UNL d   1       0.327   0.419  -0.584  0.00  0.00     0.003 A 
ATOM      5  C4  UNL d   1       1.061  -0.292   0.364  0.00  0.00    -0.005 A 
ATOM      6  C5  UNL d   1       0.437  -1.271   1.133  0.00  0.00     0.003 A 
ATOM      7  C6  UNL d   1      -0.921  -1.540   0.956  0.00  0.00    -0.001 A 
ENDROOT
TORSDOF 0
ENDMDL
