MODEL 1
REMARK minimizedAffinity -0.660793602
REMARK minimizedRMSD -1
REMARK  0 active torsions:
REMARK  status: ('A' for Active; 'I' for Inactive)
ROOT
ATOM      1  C   UNL d   1       3.184   3.959   1.918  0.00  0.00     0.078 C 
ATOM      2  C1  UNL d   1       3.899   3.881   0.602  0.00  0.00    -0.077 A 
ATOM      3  C2  UNL d   1       4.140   2.648  -0.015  0.00  0.00    -0.001 A 
ATOM      4  C3  UNL d   1       4.815   2.590  -1.235  0.00  0.00     0.003 A 
ATOM      5  C4  UNL d   1       5.255   3.761  -1.848  0.00  0.00    -0.005 A 
ATOM      6  C5  UNL d   1       5.021   4.993  -1.240  0.00  0.00     0.003 A 
ATOM      7  C6  UNL d   1       4.347   5.053  -0.020  0.00  0.00    -0.001 A 
ENDROOT
TORSDOF 0
ENDMDL
