MODEL 1
REMARK minimizedAffinity -5.53972387
REMARK minimizedRMSD -1
REMARK  0 active torsions:
REMARK  status: ('A' for Active; 'I' for Inactive)
ROOT
ATOM      1  C   UNL d   1      -0.026   0.517   0.102  0.00  0.00     0.078 C 
ATOM      2  C1  UNL d   1      -1.250  -0.347   0.042  0.00  0.00    -0.077 A 
ATOM      3  C2  UNL d   1      -1.280  -1.601   0.664  0.00  0.00    -0.001 A 
ATOM      4  C3  UNL d   1      -2.423  -2.398   0.591  0.00  0.00     0.003 A 
ATOM      5  C4  UNL d   1      -3.545  -1.951  -0.103  0.00  0.00    -0.005 A 
ATOM      6  C5  UNL d   1      -3.525  -0.705  -0.727  0.00  0.00     0.003 A 
ATOM      7  C6  UNL d   1      -2.382   0.094  -0.655  0.00  0.00    -0.001 A 
ENDROOT
TORSDOF 0
ENDMDL
