MODEL 1
REMARK minimizedAffinity -5.97561455
REMARK minimizedRMSD -1
REMARK  0 active torsions:
REMARK  status: ('A' for Active; 'I' for Inactive)
ROOT
ATOM      1  C   UNL d   1       0.591   0.012   0.139  0.00  0.00     0.078 C 
ATOM      2  C1  UNL d   1      -0.788  -0.576   0.107  0.00  0.00    -0.077 A 
ATOM      3  C2  UNL d   1      -1.104  -1.715   0.858  0.00  0.00    -0.001 A 
ATOM      4  C3  UNL d   1      -2.389  -2.257   0.811  0.00  0.00     0.003 A 
ATOM      5  C4  UNL d   1      -3.368  -1.669   0.014  0.00  0.00    -0.005 A 
ATOM      6  C5  UNL d   1      -3.062  -0.537  -0.739  0.00  0.00     0.003 A 
ATOM      7  C6  UNL d   1      -1.778   0.007  -0.694  0.00  0.00    -0.001 A 
ENDROOT
TORSDOF 0
ENDMDL
