MODEL 1
REMARK minimizedAffinity -5.18546915
REMARK minimizedRMSD -1
REMARK  0 active torsions:
REMARK  status: ('A' for Active; 'I' for Inactive)
ROOT
ATOM      1  C   UNL d   1       0.495   0.041   0.289  0.00  0.00     0.078 C 
ATOM      2  C1  UNL d   1      -0.765  -0.768   0.201  0.00  0.00    -0.077 A 
ATOM      3  C2  UNL d   1      -1.677  -0.572  -0.843  0.00  0.00    -0.001 A 
ATOM      4  C3  UNL d   1      -2.850  -1.326  -0.907  0.00  0.00     0.003 A 
ATOM      5  C4  UNL d   1      -3.123  -2.280   0.072  0.00  0.00    -0.005 A 
ATOM      6  C5  UNL d   1      -2.223  -2.480   1.116  0.00  0.00     0.003 A 
ATOM      7  C6  UNL d   1      -1.049  -1.728   1.182  0.00  0.00    -0.001 A 
ENDROOT
TORSDOF 0
ENDMDL
