MODEL 1
REMARK minimizedAffinity -3.34810448
REMARK minimizedRMSD -1
REMARK  0 active torsions:
REMARK  status: ('A' for Active; 'I' for Inactive)
ROOT
ATOM      1  C   UNL d   1       2.637   2.557   1.562  0.00  0.00     0.078 C 
ATOM      2  C1  UNL d   1       1.761   1.541   0.892  0.00  0.00    -0.077 A 
ATOM      3  C2  UNL d   1       2.302   0.575   0.035  0.00  0.00    -0.001 A 
ATOM      4  C3  UNL d   1       1.473  -0.358  -0.590  0.00  0.00     0.003 A 
ATOM      5  C4  UNL d   1       0.098  -0.334  -0.366  0.00  0.00    -0.005 A 
ATOM      6  C5  UNL d   1      -0.450   0.625   0.483  0.00  0.00     0.003 A 
ATOM      7  C6  UNL d   1       0.377   1.559   1.109  0.00  0.00    -0.001 A 
ENDROOT
TORSDOF 0
ENDMDL
