MODEL 1
REMARK minimizedAffinity 4.76990795
REMARK minimizedRMSD -1
REMARK  0 active torsions:
REMARK  status: ('A' for Active; 'I' for Inactive)
ROOT
ATOM      1  C   UNL d   1      -1.150   1.356   3.082  0.00  0.00     0.078 C 
ATOM      2  C1  UNL d   1      -0.326   0.149   2.748  0.00  0.00    -0.077 A 
ATOM      3  C2  UNL d   1       0.973   0.001   3.248  0.00  0.00    -0.001 A 
ATOM      4  C3  UNL d   1       1.732  -1.123   2.921  0.00  0.00     0.003 A 
ATOM      5  C4  UNL d   1       1.201  -2.109   2.091  0.00  0.00    -0.005 A 
ATOM      6  C5  UNL d   1      -0.090  -1.970   1.586  0.00  0.00     0.003 A 
ATOM      7  C6  UNL d   1      -0.851  -0.846   1.913  0.00  0.00    -0.001 A 
ENDROOT
TORSDOF 0
ENDMDL
