MODEL 1
REMARK minimizedAffinity -3.30895185
REMARK minimizedRMSD -1
REMARK  0 active torsions:
REMARK  status: ('A' for Active; 'I' for Inactive)
ROOT
ATOM      1  C   UNL d   1       2.885   3.116   1.313  0.00  0.00     0.078 C 
ATOM      2  C1  UNL d   1       2.103   1.942   0.805  0.00  0.00    -0.077 A 
ATOM      3  C2  UNL d   1       2.732   0.722   0.529  0.00  0.00    -0.001 A 
ATOM      4  C3  UNL d   1       1.993  -0.360   0.047  0.00  0.00     0.003 A 
ATOM      5  C4  UNL d   1       0.622  -0.232  -0.165  0.00  0.00    -0.005 A 
ATOM      6  C5  UNL d   1      -0.012   0.979   0.105  0.00  0.00     0.003 A 
ATOM      7  C6  UNL d   1       0.725   2.062   0.587  0.00  0.00    -0.001 A 
ENDROOT
TORSDOF 0
ENDMDL
