MODEL 1
REMARK minimizedAffinity -1.86753261
REMARK minimizedRMSD -1
REMARK  0 active torsions:
REMARK  status: ('A' for Active; 'I' for Inactive)
ROOT
ATOM      1  C   UNL d   1      -0.716   0.593  -0.467  0.00  0.00     0.078 C 
ATOM      2  C1  UNL d   1       0.506   1.154   0.196  0.00  0.00    -0.077 A 
ATOM      3  C2  UNL d   1       0.584   2.510   0.536  0.00  0.00    -0.001 A 
ATOM      4  C3  UNL d   1       1.732   3.021   1.144  0.00  0.00     0.003 A 
ATOM      5  C4  UNL d   1       2.811   2.182   1.416  0.00  0.00    -0.005 A 
ATOM      6  C5  UNL d   1       2.743   0.832   1.080  0.00  0.00     0.003 A 
ATOM      7  C6  UNL d   1       1.596   0.319   0.472  0.00  0.00    -0.001 A 
ENDROOT
TORSDOF 0
ENDMDL
