MODEL 1
REMARK minimizedAffinity -2.21318674
REMARK minimizedRMSD -1
REMARK  0 active torsions:
REMARK  status: ('A' for Active; 'I' for Inactive)
ROOT
ATOM      1  C   UNL d   1       5.071   3.538  -2.786  0.00  0.00     0.078 C 
ATOM      2  C1  UNL d   1       4.232   3.308  -1.565  0.00  0.00    -0.077 A 
ATOM      3  C2  UNL d   1       3.736   4.382  -0.816  0.00  0.00    -0.001 A 
ATOM      4  C3  UNL d   1       2.965   4.153   0.324  0.00  0.00     0.003 A 
ATOM      5  C4  UNL d   1       2.684   2.849   0.727  0.00  0.00    -0.005 A 
ATOM      6  C5  UNL d   1       3.174   1.773  -0.010  0.00  0.00     0.003 A 
ATOM      7  C6  UNL d   1       3.946   2.001  -1.150  0.00  0.00    -0.001 A 
ENDROOT
TORSDOF 0
ENDMDL
