MODEL 1
REMARK minimizedAffinity -3.67328024
REMARK minimizedRMSD -1
REMARK  0 active torsions:
REMARK  status: ('A' for Active; 'I' for Inactive)
ROOT
ATOM      1  C1  DEN d   1       6.000   4.792   4.453  0.00  0.00     0.130 A 
ATOM      2  C2  DEN d   1       6.000   5.303   3.084  0.00  0.00    -0.031 A 
ATOM      3  C3  DEN d   1       5.920   4.149   2.166  0.00  0.00     0.027 A 
ATOM      4  C4  DEN d   1       5.792   1.635   2.728  0.00  0.00     0.027 A 
ATOM      5  C5  DEN d   1       5.775   0.713   3.751  0.00  0.00    -0.003 A 
ATOM      6  C6  DEN d   1       5.864   1.081   5.067  0.00  0.00     0.001 A 
ATOM      7  C7  DEN d   1       5.930   2.408   5.398  0.00  0.00     0.017 A 
ATOM      8  C8  DEN d   1       5.956   3.344   4.372  0.00  0.00    -0.094 A 
ATOM      9  C9  DEN d   1       5.852   2.952   3.048  0.00  0.00    -0.072 A 
ENDROOT
TORSDOF 0
ENDMDL
