MODEL 1
REMARK minimizedAffinity 0.756628811
REMARK minimizedRMSD -1
REMARK  0 active torsions:
REMARK  status: ('A' for Active; 'I' for Inactive)
ROOT
ATOM      1  C1  DEN d   1       5.970   2.095   2.727  0.00  0.00     0.130 A 
ATOM      2  C2  DEN d   1       5.984   1.357   3.987  0.00  0.00    -0.031 A 
ATOM      3  C3  DEN d   1       5.987   2.339   5.091  0.00  0.00     0.027 A 
ATOM      4  C4  DEN d   1       5.967   4.915   4.971  0.00  0.00     0.027 A 
ATOM      5  C5  DEN d   1       5.965   5.999   4.122  0.00  0.00    -0.003 A 
ATOM      6  C6  DEN d   1       5.999   5.860   2.760  0.00  0.00     0.001 A 
ATOM      7  C7  DEN d   1       5.991   4.607   2.205  0.00  0.00     0.017 A 
ATOM      8  C8  DEN d   1       6.000   3.509   3.055  0.00  0.00    -0.094 A 
ATOM      9  C9  DEN d   1       5.953   3.671   4.430  0.00  0.00    -0.072 A 
ENDROOT
TORSDOF 0
ENDMDL
