MODEL 1
REMARK minimizedAffinity 0.376939625
REMARK minimizedRMSD -1
REMARK  0 active torsions:
REMARK  status: ('A' for Active; 'I' for Inactive)
ROOT
ATOM      1  C1  DEN d   1       6.000   4.405   2.535  0.00  0.00     0.130 A 
ATOM      2  C2  DEN d   1       5.978   5.633   3.324  0.00  0.00    -0.031 A 
ATOM      3  C3  DEN d   1       5.963   5.258   4.752  0.00  0.00     0.027 A 
ATOM      4  C4  DEN d   1       5.978   2.906   5.812  0.00  0.00     0.027 A 
ATOM      5  C5  DEN d   1       5.984   1.555   5.546  0.00  0.00    -0.003 A 
ATOM      6  C6  DEN d   1       5.961   1.062   4.268  0.00  0.00     0.001 A 
ATOM      7  C7  DEN d   1       5.978   1.928   3.206  0.00  0.00     0.017 A 
ATOM      8  C8  DEN d   1       5.964   3.292   3.467  0.00  0.00    -0.094 A 
ATOM      9  C9  DEN d   1       6.000   3.770   4.766  0.00  0.00    -0.072 A 
ENDROOT
TORSDOF 0
ENDMDL
