MODEL 1
REMARK minimizedAffinity -0.178172678
REMARK minimizedRMSD -1
REMARK  0 active torsions:
REMARK  status: ('A' for Active; 'I' for Inactive)
ROOT
ATOM      1  C1  DEN d   1       5.974   3.875   4.701  0.00  0.00     0.130 A 
ATOM      2  C2  DEN d   1       5.996   4.480   3.372  0.00  0.00    -0.031 A 
ATOM      3  C3  DEN d   1       5.999   3.391   2.375  0.00  0.00     0.027 A 
ATOM      4  C4  DEN d   1       5.968   0.841   2.757  0.00  0.00     0.027 A 
ATOM      5  C5  DEN d   1       5.959  -0.151   3.713  0.00  0.00    -0.003 A 
ATOM      6  C6  DEN d   1       5.988   0.127   5.054  0.00  0.00     0.001 A 
ATOM      7  C7  DEN d   1       5.982   1.429   5.477  0.00  0.00     0.017 A 
ATOM      8  C8  DEN d   1       5.999   2.435   4.520  0.00  0.00    -0.094 A 
ATOM      9  C9  DEN d   1       5.957   2.134   3.169  0.00  0.00    -0.072 A 
ENDROOT
TORSDOF 0
ENDMDL
