MODEL 1
REMARK minimizedAffinity 2.5402844
REMARK minimizedRMSD -1
REMARK  0 active torsions:
REMARK  status: ('A' for Active; 'I' for Inactive)
ROOT
ATOM      1  C1  DEN d   1       5.914   0.109   5.234  0.00  0.00     0.130 A 
ATOM      2  C2  DEN d   1       5.920  -0.510   3.911  0.00  0.00    -0.031 A 
ATOM      3  C3  DEN d   1       5.953   0.568   2.902  0.00  0.00     0.027 A 
ATOM      4  C4  DEN d   1       6.000   3.122   3.258  0.00  0.00     0.027 A 
ATOM      5  C5  DEN d   1       5.995   4.124   4.203  0.00  0.00    -0.003 A 
ATOM      6  C6  DEN d   1       5.929   3.861   5.546  0.00  0.00     0.001 A 
ATOM      7  C7  DEN d   1       5.911   2.563   5.983  0.00  0.00     0.017 A 
ATOM      8  C8  DEN d   1       5.908   1.548   5.036  0.00  0.00    -0.094 A 
ATOM      9  C9  DEN d   1       5.987   1.834   3.684  0.00  0.00    -0.072 A 
ENDROOT
TORSDOF 0
ENDMDL
