MODEL 1
REMARK minimizedAffinity -1.38482261
REMARK minimizedRMSD -1
REMARK  0 active torsions:
REMARK  status: ('A' for Active; 'I' for Inactive)
ROOT
ATOM      1  C1  DEN d   1       5.971   4.338   4.167  0.00  0.00     0.130 A 
ATOM      2  C2  DEN d   1       5.992   4.739   2.763  0.00  0.00    -0.031 A 
ATOM      3  C3  DEN d   1       5.997   3.513   1.939  0.00  0.00     0.027 A 
ATOM      4  C4  DEN d   1       5.971   1.048   2.697  0.00  0.00     0.027 A 
ATOM      5  C5  DEN d   1       5.964   0.210   3.789  0.00  0.00    -0.003 A 
ATOM      6  C6  DEN d   1       5.992   0.684   5.074  0.00  0.00     0.001 A 
ATOM      7  C7  DEN d   1       5.984   2.036   5.299  0.00  0.00     0.017 A 
ATOM      8  C8  DEN d   1       5.999   2.887   4.202  0.00  0.00    -0.094 A 
ATOM      9  C9  DEN d   1       5.958   2.388   2.911  0.00  0.00    -0.072 A 
ENDROOT
TORSDOF 0
ENDMDL
