MODEL 1
REMARK minimizedAffinity 7.98128271
REMARK minimizedRMSD -1
REMARK  0 active torsions:
REMARK  status: ('A' for Active; 'I' for Inactive)
ROOT
ATOM      1  C1  DEN d   1      -0.432   3.385   2.306  0.00  0.00     0.130 A 
ATOM      2  C2  DEN d   1      -1.155   4.146   3.321  0.00  0.00    -0.031 A 
ATOM      3  C3  DEN d   1      -1.827   3.185   4.219  0.00  0.00     0.027 A 
ATOM      4  C4  DEN d   1      -1.812   0.607   4.139  0.00  0.00     0.027 A 
ATOM      5  C5  DEN d   1      -1.347  -0.492   3.452  0.00  0.00    -0.003 A 
ATOM      6  C6  DEN d   1      -0.578  -0.377   2.324  0.00  0.00     0.001 A 
ATOM      7  C7  DEN d   1      -0.214   0.866   1.875  0.00  0.00     0.017 A 
ATOM      8  C8  DEN d   1      -0.685   1.979   2.559  0.00  0.00    -0.094 A 
ATOM      9  C9  DEN d   1      -1.451   1.840   3.704  0.00  0.00    -0.072 A 
ENDROOT
TORSDOF 0
ENDMDL
