MODEL 1
REMARK minimizedAffinity -1.33457386
REMARK minimizedRMSD -1
REMARK  0 active torsions:
REMARK  status: ('A' for Active; 'I' for Inactive)
ROOT
ATOM      1  C1  DEN d   1       5.907   2.989   4.243  0.00  0.00     0.130 A 
ATOM      2  C2  DEN d   1       5.948   3.042   2.784  0.00  0.00    -0.031 A 
ATOM      3  C3  DEN d   1       5.993   1.656   2.278  0.00  0.00     0.027 A 
ATOM      4  C4  DEN d   1       5.999  -0.557   3.603  0.00  0.00     0.027 A 
ATOM      5  C5  DEN d   1       5.985  -1.110   4.865  0.00  0.00    -0.003 A 
ATOM      6  C6  DEN d   1       5.979  -0.341   5.999  0.00  0.00     0.001 A 
ATOM      7  C7  DEN d   1       5.941   1.024   5.893  0.00  0.00     0.017 A 
ATOM      8  C8  DEN d   1       5.962   1.589   4.625  0.00  0.00    -0.094 A 
ATOM      9  C9  DEN d   1       5.956   0.795   3.491  0.00  0.00    -0.072 A 
ENDROOT
TORSDOF 0
ENDMDL
