MODEL 1
REMARK minimizedAffinity 16.7155285
REMARK minimizedRMSD -1
REMARK  0 active torsions:
REMARK  status: ('A' for Active; 'I' for Inactive)
ROOT
ATOM      1  C1  DEN d   1      -2.011   3.068   1.338  0.00  0.00     0.130 A 
ATOM      2  C2  DEN d   1      -0.757   2.706   0.683  0.00  0.00    -0.031 A 
ATOM      3  C3  DEN d   1       0.354   3.216   1.512  0.00  0.00     0.027 A 
ATOM      4  C4  DEN d   1       0.254   4.518   3.736  0.00  0.00     0.027 A 
ATOM      5  C5  DEN d   1      -0.587   5.069   4.677  0.00  0.00    -0.003 A 
ATOM      6  C6  DEN d   1      -1.950   5.022   4.555  0.00  0.00     0.001 A 
ATOM      7  C7  DEN d   1      -2.514   4.371   3.490  0.00  0.00     0.017 A 
ATOM      8  C8  DEN d   1      -1.672   3.819   2.533  0.00  0.00    -0.094 A 
ATOM      9  C9  DEN d   1      -0.297   3.867   2.681  0.00  0.00    -0.072 A 
ENDROOT
TORSDOF 0
ENDMDL
