MODEL 1
REMARK minimizedAffinity 3.24867105
REMARK minimizedRMSD -1
REMARK  0 active torsions:
REMARK  status: ('A' for Active; 'I' for Inactive)
ROOT
ATOM      1  C1  DEN d   1       5.976   3.343   2.093  0.00  0.00     0.130 A 
ATOM      2  C2  DEN d   1       5.999   4.699   2.635  0.00  0.00    -0.031 A 
ATOM      3  C3  DEN d   1       6.000   4.603   4.108  0.00  0.00     0.027 A 
ATOM      4  C4  DEN d   1       5.973   2.496   5.596  0.00  0.00     0.027 A 
ATOM      5  C5  DEN d   1       5.940   1.119   5.592  0.00  0.00    -0.003 A 
ATOM      6  C6  DEN d   1       5.882   0.394   4.431  0.00  0.00     0.001 A 
ATOM      7  C7  DEN d   1       5.902   1.041   3.224  0.00  0.00     0.017 A 
ATOM      8  C8  DEN d   1       5.928   2.430   3.221  0.00  0.00    -0.094 A 
ATOM      9  C9  DEN d   1       5.998   3.145   4.405  0.00  0.00    -0.072 A 
ENDROOT
TORSDOF 0
ENDMDL
