MODEL 1
REMARK minimizedAffinity -2.23654413
REMARK minimizedRMSD -1
REMARK  0 active torsions:
REMARK  status: ('A' for Active; 'I' for Inactive)
ROOT
ATOM      1  C1  DEN d   1       5.262   1.892   4.519  0.00  0.00     0.130 A 
ATOM      2  C2  DEN d   1       5.645   0.771   3.665  0.00  0.00    -0.031 A 
ATOM      3  C3  DEN d   1       6.000   1.310   2.336  0.00  0.00     0.027 A 
ATOM      4  C4  DEN d   1       5.999   3.759   1.526  0.00  0.00     0.027 A 
ATOM      5  C5  DEN d   1       5.738   5.061   1.889  0.00  0.00    -0.003 A 
ATOM      6  C6  DEN d   1       5.272   5.393   3.134  0.00  0.00     0.001 A 
ATOM      7  C7  DEN d   1       5.094   4.414   4.075  0.00  0.00     0.017 A 
ATOM      8  C8  DEN d   1       5.348   3.097   3.714  0.00  0.00    -0.094 A 
ATOM      9  C9  DEN d   1       5.831   2.784   2.455  0.00  0.00    -0.072 A 
ENDROOT
TORSDOF 0
ENDMDL
