MODEL 1
REMARK minimizedAffinity -0.127764642
REMARK minimizedRMSD -1
REMARK  0 active torsions:
REMARK  status: ('A' for Active; 'I' for Inactive)
ROOT
ATOM      1  C1  DEN d   1       5.997   1.115   6.000  0.00  0.00     0.130 A 
ATOM      2  C2  DEN d   1       5.602  -0.214   5.540  0.00  0.00    -0.031 A 
ATOM      3  C3  DEN d   1       5.164  -0.099   4.134  0.00  0.00     0.027 A 
ATOM      4  C4  DEN d   1       5.065   1.995   2.632  0.00  0.00     0.027 A 
ATOM      5  C5  DEN d   1       5.288   3.354   2.583  0.00  0.00    -0.003 A 
ATOM      6  C6  DEN d   1       5.727   4.061   3.671  0.00  0.00     0.001 A 
ATOM      7  C7  DEN d   1       6.000   3.405   4.842  0.00  0.00     0.017 A 
ATOM      8  C8  DEN d   1       5.771   2.036   4.901  0.00  0.00    -0.094 A 
ATOM      9  C9  DEN d   1       5.339   1.337   3.787  0.00  0.00    -0.072 A 
ENDROOT
TORSDOF 0
ENDMDL
