MODEL 1
REMARK minimizedAffinity 2.61287642
REMARK minimizedRMSD -1
REMARK  0 active torsions:
REMARK  status: ('A' for Active; 'I' for Inactive)
ROOT
ATOM      1  C1  DEN d   1       5.972   2.150   2.268  0.00  0.00     0.130 A 
ATOM      2  C2  DEN d   1       5.993   1.231   3.404  0.00  0.00    -0.031 A 
ATOM      3  C3  DEN d   1       6.000   2.036   4.642  0.00  0.00     0.027 A 
ATOM      4  C4  DEN d   1       5.974   4.601   4.910  0.00  0.00     0.027 A 
ATOM      5  C5  DEN d   1       5.966   5.800   4.233  0.00  0.00    -0.003 A 
ATOM      6  C6  DEN d   1       5.993   5.867   2.865  0.00  0.00     0.001 A 
ATOM      7  C7  DEN d   1       5.984   4.712   2.129  0.00  0.00     0.017 A 
ATOM      8  C8  DEN d   1       6.000   3.498   2.805  0.00  0.00    -0.094 A 
ATOM      9  C9  DEN d   1       5.960   3.452   4.188  0.00  0.00    -0.072 A 
ENDROOT
TORSDOF 0
ENDMDL
