MODEL 1
REMARK minimizedAffinity -0.393589437
REMARK minimizedRMSD -1
REMARK  0 active torsions:
REMARK  status: ('A' for Active; 'I' for Inactive)
ROOT
ATOM      1  C1  DEN d   1       5.985   3.353   2.441  0.00  0.00     0.130 A 
ATOM      2  C2  DEN d   1       6.000   4.503   3.342  0.00  0.00    -0.031 A 
ATOM      3  C3  DEN d   1       5.996   3.996   4.729  0.00  0.00     0.027 A 
ATOM      4  C4  DEN d   1       5.973   1.556   5.565  0.00  0.00     0.027 A 
ATOM      5  C5  DEN d   1       5.946   0.236   5.174  0.00  0.00    -0.003 A 
ATOM      6  C6  DEN d   1       5.895  -0.135   3.856  0.00  0.00     0.001 A 
ATOM      7  C7  DEN d   1       5.917   0.826   2.880  0.00  0.00     0.017 A 
ATOM      8  C8  DEN d   1       5.937   2.160   3.266  0.00  0.00    -0.094 A 
ATOM      9  C9  DEN d   1       6.000   2.513   4.603  0.00  0.00    -0.072 A 
ENDROOT
TORSDOF 0
ENDMDL
