MODEL 1
REMARK minimizedAffinity -1.53452826
REMARK minimizedRMSD -1
REMARK  0 active torsions:
REMARK  status: ('A' for Active; 'I' for Inactive)
ROOT
ATOM      1  C1  DEN d   1       5.953  -1.119   3.784  0.00  0.00     0.130 A 
ATOM      2  C2  DEN d   1       5.963  -1.499   5.193  0.00  0.00    -0.031 A 
ATOM      3  C3  DEN d   1       5.970  -0.262   6.000  0.00  0.00     0.027 A 
ATOM      4  C4  DEN d   1       5.962   2.192   5.206  0.00  0.00     0.027 A 
ATOM      5  C5  DEN d   1       5.966   3.014   4.102  0.00  0.00    -0.003 A 
ATOM      6  C6  DEN d   1       6.000   2.521   2.824  0.00  0.00     0.001 A 
ATOM      7  C7  DEN d   1       5.985   1.167   2.619  0.00  0.00     0.017 A 
ATOM      8  C8  DEN d   1       5.989   0.331   3.728  0.00  0.00    -0.094 A 
ATOM      9  C9  DEN d   1       5.943   0.849   5.011  0.00  0.00    -0.072 A 
ENDROOT
TORSDOF 0
ENDMDL
