MODEL 1
REMARK minimizedAffinity 9.36829853
REMARK minimizedRMSD -1
REMARK  0 active torsions:
REMARK  status: ('A' for Active; 'I' for Inactive)
ROOT
ATOM      1  C1  DEN d   1      -0.087   4.232   3.834  0.00  0.00     0.130 A 
ATOM      2  C2  DEN d   1      -0.957   4.519   4.971  0.00  0.00    -0.031 A 
ATOM      3  C3  DEN d   1      -2.357   4.392   4.518  0.00  0.00     0.027 A 
ATOM      4  C4  DEN d   1      -3.256   3.779   2.179  0.00  0.00     0.027 A 
ATOM      5  C5  DEN d   1      -2.899   3.460   0.888  0.00  0.00    -0.003 A 
ATOM      6  C6  DEN d   1      -1.592   3.410   0.482  0.00  0.00     0.001 A 
ATOM      7  C7  DEN d   1      -0.591   3.639   1.389  0.00  0.00     0.017 A 
ATOM      8  C8  DEN d   1      -0.943   3.968   2.691  0.00  0.00    -0.094 A 
ATOM      9  C9  DEN d   1      -2.270   4.002   3.085  0.00  0.00    -0.072 A 
ENDROOT
TORSDOF 0
ENDMDL
