MODEL 1
REMARK minimizedAffinity -3.05244565
REMARK minimizedRMSD -1
REMARK  1 active torsions:
REMARK  status: ('A' for Active; 'I' for Inactive)
REMARK    1  A    between atoms: C1_2  and  C2_3 
ROOT
ATOM      1  C2  UNL d   1       0.740  -0.071   1.773  0.00  0.00    -0.073 A 
ATOM      2  C3  UNL d   1      -0.470   0.484   2.205  0.00  0.00    -0.002 A 
ATOM      3  C4  UNL d   1      -1.493   0.740   1.291  0.00  0.00     0.004 A 
ATOM      4  C5  UNL d   1      -1.321   0.437  -0.059  0.00  0.00    -0.004 A 
ATOM      5  C6  UNL d   1      -0.123  -0.129  -0.508  0.00  0.00    -0.075 A 
ATOM      6  C7  UNL d   1       0.079  -0.458  -1.958  0.00  0.00     0.076 C 
ATOM      7  C8  UNL d   1       0.901  -0.380   0.415  0.00  0.00     0.001 A 
ENDROOT
BRANCH   1   8
ATOM      8  C1  UNL d   1       1.846  -0.355   2.757  0.00  0.00     0.053 C 
ATOM      9  C   UNL d   1       1.309  -0.648   4.149  0.00  0.00     0.018 C 
ENDBRANCH   1   8
TORSDOF 1
ENDMDL
