MODEL 1
REMARK minimizedAffinity -3.67725444
REMARK minimizedRMSD -1
REMARK  1 active torsions:
REMARK  status: ('A' for Active; 'I' for Inactive)
REMARK    1  A    between atoms: C1_2  and  C2_3 
ROOT
ATOM      1  C2  UNL d   1      -0.318  -0.154  -4.724  0.00  0.00    -0.073 A 
ATOM      2  C3  UNL d   1       0.816   0.510  -5.207  0.00  0.00    -0.002 A 
ATOM      3  C4  UNL d   1       1.917   0.720  -4.377  0.00  0.00     0.004 A 
ATOM      4  C5  UNL d   1       1.900   0.264  -3.059  0.00  0.00    -0.004 A 
ATOM      5  C6  UNL d   1       0.781  -0.412  -2.561  0.00  0.00    -0.075 A 
ATOM      6  C7  UNL d   1       0.745  -0.907  -1.145  0.00  0.00     0.076 C 
ATOM      7  C8  UNL d   1      -0.322  -0.617  -3.400  0.00  0.00     0.001 A 
ENDROOT
BRANCH   1   8
ATOM      8  C1  UNL d   1      -1.507  -0.389  -5.619  0.00  0.00     0.053 C 
ATOM      9  C   UNL d   1      -1.654  -1.854  -5.999  0.00  0.00     0.018 C 
ENDBRANCH   1   8
TORSDOF 1
ENDMDL
