MODEL 1
REMARK minimizedAffinity -5.48758268
REMARK minimizedRMSD -1
REMARK  1 active torsions:
REMARK  status: ('A' for Active; 'I' for Inactive)
REMARK    1  A    between atoms: C1_2  and  C2_3 
ROOT
ATOM      1  C2  UNL d   1      -0.102  -0.411  -0.411  0.00  0.00    -0.073 A 
ATOM      2  C3  UNL d   1      -1.453  -0.549  -0.746  0.00  0.00    -0.002 A 
ATOM      3  C4  UNL d   1      -2.443  -0.015   0.080  0.00  0.00     0.004 A 
ATOM      4  C5  UNL d   1      -2.091   0.667   1.245  0.00  0.00    -0.004 A 
ATOM      5  C6  UNL d   1      -0.746   0.826   1.591  0.00  0.00    -0.075 A 
ATOM      6  C7  UNL d   1      -0.351   1.555   2.842  0.00  0.00     0.076 C 
ATOM      7  C8  UNL d   1       0.242   0.284   0.757  0.00  0.00     0.001 A 
ENDROOT
BRANCH   1   8
ATOM      8  C1  UNL d   1       0.970  -0.980  -1.304  0.00  0.00     0.053 C 
ATOM      9  C   UNL d   1       0.623  -0.833  -2.777  0.00  0.00     0.018 C 
ENDBRANCH   1   8
TORSDOF 1
ENDMDL
