MODEL 1
REMARK minimizedAffinity -3.49954104
REMARK minimizedRMSD -1
REMARK  1 active torsions:
REMARK  status: ('A' for Active; 'I' for Inactive)
REMARK    1  A    between atoms: C1_2  and  C2_3 
ROOT
ATOM      1  C2  UNL d   1      -0.239  -0.220   0.521  0.00  0.00    -0.073 A 
ATOM      2  C3  UNL d   1      -1.457   0.400   0.822  0.00  0.00    -0.002 A 
ATOM      3  C4  UNL d   1      -1.785   0.703   2.144  0.00  0.00     0.004 A 
ATOM      4  C5  UNL d   1      -0.897   0.398   3.176  0.00  0.00    -0.004 A 
ATOM      5  C6  UNL d   1       0.330  -0.211   2.893  0.00  0.00    -0.075 A 
ATOM      6  C7  UNL d   1       1.295  -0.549   3.992  0.00  0.00     0.076 C 
ATOM      7  C8  UNL d   1       0.651  -0.516   1.563  0.00  0.00     0.001 A 
ENDROOT
BRANCH   1   8
ATOM      8  C1  UNL d   1       0.123  -0.544  -0.906  0.00  0.00     0.053 C 
ATOM      9  C   UNL d   1       1.232  -1.581  -0.992  0.00  0.00     0.018 C 
ENDBRANCH   1   8
TORSDOF 1
ENDMDL
