MODEL 1
REMARK minimizedAffinity -2.32675195
REMARK minimizedRMSD -1
REMARK  1 active torsions:
REMARK  status: ('A' for Active; 'I' for Inactive)
REMARK    1  A    between atoms: C1_2  and  C2_3 
ROOT
ATOM      1  C2  UNL d   1      -0.336  -0.221   0.191  0.00  0.00    -0.073 A 
ATOM      2  C3  UNL d   1      -1.624   0.328   0.186  0.00  0.00    -0.002 A 
ATOM      3  C4  UNL d   1      -2.229   0.716   1.383  0.00  0.00     0.004 A 
ATOM      4  C5  UNL d   1      -1.551   0.567   2.592  0.00  0.00    -0.004 A 
ATOM      5  C6  UNL d   1      -0.258   0.033   2.616  0.00  0.00    -0.075 A 
ATOM      6  C7  UNL d   1       0.483  -0.136   3.909  0.00  0.00     0.076 C 
ATOM      7  C8  UNL d   1       0.341  -0.358   1.411  0.00  0.00     0.001 A 
ENDROOT
BRANCH   1   8
ATOM      8  C1  UNL d   1       0.323  -0.636  -1.099  0.00  0.00     0.053 C 
ATOM      9  C   UNL d   1       1.351  -1.735  -0.886  0.00  0.00     0.018 C 
ENDBRANCH   1   8
TORSDOF 1
ENDMDL
