MODEL 1
REMARK minimizedAffinity -0.184714183
REMARK minimizedRMSD -1
REMARK  1 active torsions:
REMARK  status: ('A' for Active; 'I' for Inactive)
REMARK    1  A    between atoms: C1_2  and  C2_3 
ROOT
ATOM      1  C2  UNL d   1      -0.632   0.190   0.738  0.00  0.00    -0.073 A 
ATOM      2  C3  UNL d   1      -1.434   0.462   1.852  0.00  0.00    -0.002 A 
ATOM      3  C4  UNL d   1      -0.896   0.407   3.139  0.00  0.00     0.004 A 
ATOM      4  C5  UNL d   1       0.449   0.088   3.324  0.00  0.00    -0.004 A 
ATOM      5  C6  UNL d   1       1.270  -0.175   2.223  0.00  0.00    -0.075 A 
ATOM      6  C7  UNL d   1       2.718  -0.523   2.405  0.00  0.00     0.076 C 
ATOM      7  C8  UNL d   1       0.721  -0.121   0.934  0.00  0.00     0.001 A 
ENDROOT
BRANCH   1   8
ATOM      8  C1  UNL d   1      -1.207   0.254  -0.653  0.00  0.00     0.053 C 
ATOM      9  C   UNL d   1      -2.182  -0.881  -0.920  0.00  0.00     0.018 C 
ENDBRANCH   1   8
TORSDOF 1
ENDMDL
