MODEL 1
REMARK minimizedAffinity -4.50271893
REMARK minimizedRMSD -1
REMARK  0 active torsions:
REMARK  status: ('A' for Active; 'I' for Inactive)
ROOT
ATOM      1  C   UNL d   1      -2.557  -0.885   0.493  0.00  0.00     0.077 C 
ATOM      2  C1  UNL d   1      -1.087  -1.062   0.254  0.00  0.00    -0.074 A 
ATOM      3  C2  UNL d   1      -0.614  -2.038  -0.630  0.00  0.00    -0.005 A 
ATOM      4  C3  UNL d   1       0.755  -2.185  -0.849  0.00  0.00     0.006 A 
ATOM      5  C4  UNL d   1       1.665  -1.359  -0.187  0.00  0.00    -0.005 A 
ATOM      6  C5  UNL d   1       1.211  -0.378   0.700  0.00  0.00    -0.074 A 
ATOM      7  C6  UNL d   1       2.175   0.524   1.412  0.00  0.00     0.077 C 
ATOM      8  C7  UNL d   1      -0.167  -0.232   0.910  0.00  0.00    -0.001 A 
ENDROOT
TORSDOF 0
ENDMDL
