MODEL 1
REMARK minimizedAffinity -4.30539894
REMARK minimizedRMSD -1
REMARK  0 active torsions:
REMARK  status: ('A' for Active; 'I' for Inactive)
ROOT
ATOM      1  C   UNL d   1      -4.773   0.744   1.521  0.00  0.00     0.077 C 
ATOM      2  C1  UNL d   1      -3.339   0.339   1.694  0.00  0.00    -0.074 A 
ATOM      3  C2  UNL d   1      -2.594   0.785   2.790  0.00  0.00    -0.005 A 
ATOM      4  C3  UNL d   1      -1.264   0.393   2.944  0.00  0.00     0.006 A 
ATOM      5  C4  UNL d   1      -0.667  -0.448   2.004  0.00  0.00    -0.005 A 
ATOM      6  C5  UNL d   1      -1.397  -0.905   0.901  0.00  0.00    -0.074 A 
ATOM      7  C6  UNL d   1      -0.773  -1.817  -0.113  0.00  0.00     0.077 C 
ATOM      8  C7  UNL d   1      -2.734  -0.512   0.758  0.00  0.00    -0.001 A 
ENDROOT
TORSDOF 0
ENDMDL
