MODEL 1
REMARK minimizedAffinity -4.30201006
REMARK minimizedRMSD -1
REMARK  0 active torsions:
REMARK  status: ('A' for Active; 'I' for Inactive)
ROOT
ATOM      1  C   UNL d   1       1.024  -1.014   1.366  0.00  0.00     0.077 C 
ATOM      2  C1  UNL d   1      -0.309  -0.449   1.758  0.00  0.00    -0.074 A 
ATOM      3  C2  UNL d   1      -0.559  -0.041   3.072  0.00  0.00    -0.005 A 
ATOM      4  C3  UNL d   1      -1.801   0.491   3.420  0.00  0.00     0.006 A 
ATOM      5  C4  UNL d   1      -2.803   0.620   2.458  0.00  0.00    -0.005 A 
ATOM      6  C5  UNL d   1      -2.572   0.219   1.139  0.00  0.00    -0.074 A 
ATOM      7  C6  UNL d   1      -3.636   0.361   0.091  0.00  0.00     0.077 C 
ATOM      8  C7  UNL d   1      -1.319  -0.308   0.796  0.00  0.00    -0.001 A 
ENDROOT
TORSDOF 0
ENDMDL
