MODEL 1
REMARK minimizedAffinity -5.34281063
REMARK minimizedRMSD -1
REMARK  0 active torsions:
REMARK  status: ('A' for Active; 'I' for Inactive)
ROOT
ATOM      1  C   UNL d   1       1.361  -0.918  -0.864  0.00  0.00     0.077 C 
ATOM      2  C1  UNL d   1       0.354  -0.847   0.245  0.00  0.00    -0.074 A 
ATOM      3  C2  UNL d   1       0.758  -0.849   1.584  0.00  0.00    -0.005 A 
ATOM      4  C3  UNL d   1      -0.190  -0.773   2.604  0.00  0.00     0.006 A 
ATOM      5  C4  UNL d   1      -1.548  -0.695   2.297  0.00  0.00    -0.005 A 
ATOM      6  C5  UNL d   1      -1.971  -0.690   0.964  0.00  0.00    -0.074 A 
ATOM      7  C6  UNL d   1      -3.427  -0.596   0.616  0.00  0.00     0.077 C 
ATOM      8  C7  UNL d   1      -1.012  -0.760  -0.056  0.00  0.00    -0.001 A 
ENDROOT
TORSDOF 0
ENDMDL
