MODEL 1
REMARK minimizedAffinity -4.63283062
REMARK minimizedRMSD -1
REMARK  0 active torsions:
REMARK  status: ('A' for Active; 'I' for Inactive)
ROOT
ATOM      1  C   UNL d   1      -0.846  -2.452  -2.243  0.00  0.00     0.077 C 
ATOM      2  C1  UNL d   1       0.404  -1.845  -1.678  0.00  0.00    -0.074 A 
ATOM      3  C2  UNL d   1       0.341  -0.870  -0.678  0.00  0.00    -0.005 A 
ATOM      4  C3  UNL d   1       1.513  -0.322  -0.155  0.00  0.00     0.006 A 
ATOM      5  C4  UNL d   1       2.757  -0.743  -0.627  0.00  0.00    -0.005 A 
ATOM      6  C5  UNL d   1       2.839  -1.718  -1.625  0.00  0.00    -0.074 A 
ATOM      7  C6  UNL d   1       4.168  -2.190  -2.136  0.00  0.00     0.077 C 
ATOM      8  C7  UNL d   1       1.658  -2.269  -2.141  0.00  0.00    -0.001 A 
ENDROOT
TORSDOF 0
ENDMDL
