MODEL 1
REMARK minimizedAffinity -5.18127012
REMARK minimizedRMSD -1
REMARK  0 active torsions:
REMARK  status: ('A' for Active; 'I' for Inactive)
ROOT
ATOM      1  C   UNL d   1       0.321  -1.362  -0.387  0.00  0.00     0.077 C 
ATOM      2  C1  UNL d   1      -0.761  -0.645   0.365  0.00  0.00    -0.074 A 
ATOM      3  C2  UNL d   1      -2.004  -0.397  -0.226  0.00  0.00    -0.005 A 
ATOM      4  C3  UNL d   1      -3.004   0.262   0.489  0.00  0.00     0.006 A 
ATOM      5  C4  UNL d   1      -2.771   0.679   1.800  0.00  0.00    -0.005 A 
ATOM      6  C5  UNL d   1      -1.535   0.439   2.408  0.00  0.00    -0.074 A 
ATOM      7  C6  UNL d   1      -1.272   0.872   3.820  0.00  0.00     0.077 C 
ATOM      8  C7  UNL d   1      -0.538  -0.230   1.686  0.00  0.00    -0.001 A 
ENDROOT
TORSDOF 0
ENDMDL
