MODEL 1
REMARK minimizedAffinity -3.03297663
REMARK minimizedRMSD -1
REMARK  0 active torsions:
REMARK  status: ('A' for Active; 'I' for Inactive)
ROOT
ATOM      1  C   UNL d   1      -1.929  -0.255   1.092  0.00  0.00     0.077 C 
ATOM      2  C1  UNL d   1      -1.185  -1.078   0.082  0.00  0.00    -0.074 A 
ATOM      3  C2  UNL d   1      -0.675  -2.336   0.415  0.00  0.00    -0.005 A 
ATOM      4  C3  UNL d   1       0.007  -3.094  -0.537  0.00  0.00     0.006 A 
ATOM      5  C4  UNL d   1       0.184  -2.601  -1.831  0.00  0.00    -0.005 A 
ATOM      6  C5  UNL d   1      -0.320  -1.345  -2.183  0.00  0.00    -0.074 A 
ATOM      7  C6  UNL d   1      -0.147  -0.805  -3.571  0.00  0.00     0.077 C 
ATOM      8  C7  UNL d   1      -1.010  -0.593  -1.222  0.00  0.00    -0.001 A 
ENDROOT
TORSDOF 0
ENDMDL
