MODEL 1
REMARK minimizedAffinity -4.60922337
REMARK minimizedRMSD -1
REMARK  0 active torsions:
REMARK  status: ('A' for Active; 'I' for Inactive)
ROOT
ATOM      1  C   UNL d   1      -4.541   0.634   0.082  0.00  0.00     0.077 C 
ATOM      2  C1  UNL d   1      -3.262  -0.041   0.479  0.00  0.00    -0.074 A 
ATOM      3  C2  UNL d   1      -2.739   0.110   1.767  0.00  0.00    -0.005 A 
ATOM      4  C3  UNL d   1      -1.554  -0.531   2.125  0.00  0.00     0.006 A 
ATOM      5  C4  UNL d   1      -0.880  -1.329   1.200  0.00  0.00    -0.005 A 
ATOM      6  C5  UNL d   1      -1.388  -1.493  -0.093  0.00  0.00    -0.074 A 
ATOM      7  C6  UNL d   1      -0.681  -2.355  -1.096  0.00  0.00     0.077 C 
ATOM      8  C7  UNL d   1      -2.583  -0.851  -0.442  0.00  0.00    -0.001 A 
ENDROOT
TORSDOF 0
ENDMDL
