MODEL 1
REMARK minimizedAffinity -5.03408241
REMARK minimizedRMSD -1
REMARK  1 active torsions:
REMARK  status: ('A' for Active; 'I' for Inactive)
REMARK    1  A    between atoms: C1_2  and  C2_3 
ROOT
ATOM      1  C2  UNL d   1       0.701  -0.416  -0.349  0.00  0.00    -0.081 A 
ATOM      2  C3  UNL d   1       0.171  -0.787   0.892  0.00  0.00     0.006 A 
ATOM      3  C4  UNL d   1      -0.805  -0.000   1.509  0.00  0.00     0.002 A 
ATOM      4  C5  UNL d   1      -1.272   1.165   0.891  0.00  0.00    -0.080 A 
ATOM      5  C6  UNL d   1      -2.342   2.002   1.527  0.00  0.00     0.076 C 
ATOM      6  C7  UNL d   1      -0.730   1.544  -0.342  0.00  0.00     0.002 A 
ATOM      7  C8  UNL d   1       0.247   0.759  -0.958  0.00  0.00     0.006 A 
ENDROOT
BRANCH   1   8
ATOM      8  C1  UNL d   1       1.707  -1.297  -1.047  0.00  0.00     0.054 C 
ATOM      9  C   UNL d   1       1.038  -2.511  -1.675  0.00  0.00     0.018 C 
ENDBRANCH   1   8
TORSDOF 1
ENDMDL
