MODEL 1
REMARK minimizedAffinity -3.35363817
REMARK minimizedRMSD -1
REMARK  1 active torsions:
REMARK  status: ('A' for Active; 'I' for Inactive)
REMARK    1  A    between atoms: C1_2  and  C2_3 
ROOT
ATOM      1  C2  UNL d   1       0.466  -0.676  -0.430  0.00  0.00    -0.081 A 
ATOM      2  C3  UNL d   1       0.099  -0.859   0.909  0.00  0.00     0.006 A 
ATOM      3  C4  UNL d   1      -0.730   0.065   1.549  0.00  0.00     0.002 A 
ATOM      4  C5  UNL d   1      -1.212   1.183   0.860  0.00  0.00    -0.080 A 
ATOM      5  C6  UNL d   1      -2.128   2.166   1.526  0.00  0.00     0.076 C 
ATOM      6  C7  UNL d   1      -0.832   1.375  -0.472  0.00  0.00     0.002 A 
ATOM      7  C8  UNL d   1      -0.002   0.452  -1.113  0.00  0.00     0.006 A 
ENDROOT
BRANCH   1   8
ATOM      8  C1  UNL d   1       1.307  -1.704  -1.142  0.00  0.00     0.054 C 
ATOM      9  C   UNL d   1       0.442  -2.682  -1.923  0.00  0.00     0.018 C 
ENDBRANCH   1   8
TORSDOF 1
ENDMDL
