MODEL 1
REMARK minimizedAffinity -4.66500568
REMARK minimizedRMSD -1
REMARK  1 active torsions:
REMARK  status: ('A' for Active; 'I' for Inactive)
REMARK    1  A    between atoms: C1_2  and  C2_3 
ROOT
ATOM      1  C2  UNL d   1       0.574  -0.593  -0.139  0.00  0.00    -0.081 A 
ATOM      2  C3  UNL d   1       0.103  -0.730   1.173  0.00  0.00     0.006 A 
ATOM      3  C4  UNL d   1      -0.777   0.212   1.711  0.00  0.00     0.002 A 
ATOM      4  C5  UNL d   1      -1.207   1.301   0.945  0.00  0.00    -0.080 A 
ATOM      5  C6  UNL d   1      -2.176   2.302   1.500  0.00  0.00     0.076 C 
ATOM      6  C7  UNL d   1      -0.723   1.447  -0.360  0.00  0.00     0.002 A 
ATOM      7  C8  UNL d   1       0.158   0.506  -0.898  0.00  0.00     0.006 A 
ENDROOT
BRANCH   1   8
ATOM      8  C1  UNL d   1       1.472  -1.642  -0.744  0.00  0.00     0.054 C 
ATOM      9  C   UNL d   1       0.758  -2.416  -1.842  0.00  0.00     0.018 C 
ENDBRANCH   1   8
TORSDOF 1
ENDMDL
