MODEL 1
REMARK minimizedAffinity -1.47592151
REMARK minimizedRMSD -1
REMARK  1 active torsions:
REMARK  status: ('A' for Active; 'I' for Inactive)
REMARK    1  A    between atoms: C1_2  and  C2_3 
ROOT
ATOM      1  C2  UNL d   1       0.648  -0.651  -0.296  0.00  0.00    -0.081 A 
ATOM      2  C3  UNL d   1       0.093  -1.123   0.900  0.00  0.00     0.006 A 
ATOM      3  C4  UNL d   1      -0.657  -0.273   1.717  0.00  0.00     0.002 A 
ATOM      4  C5  UNL d   1      -0.871   1.060   1.348  0.00  0.00    -0.080 A 
ATOM      5  C6  UNL d   1      -1.699   1.975   2.200  0.00  0.00     0.076 C 
ATOM      6  C7  UNL d   1      -0.302   1.536   0.161  0.00  0.00     0.002 A 
ATOM      7  C8  UNL d   1       0.448   0.686  -0.655  0.00  0.00     0.006 A 
ENDROOT
BRANCH   1   8
ATOM      8  C1  UNL d   1       1.402  -1.582  -1.210  0.00  0.00     0.054 C 
ATOM      9  C   UNL d   1       0.464  -2.566  -1.895  0.00  0.00     0.018 C 
ENDBRANCH   1   8
TORSDOF 1
ENDMDL
