MODEL 1
REMARK minimizedAffinity -2.37003565
REMARK minimizedRMSD -1
REMARK  1 active torsions:
REMARK  status: ('A' for Active; 'I' for Inactive)
REMARK    1  A    between atoms: C1_2  and  C2_3 
ROOT
ATOM      1  C2  UNL d   1      -0.139   0.059  -0.870  0.00  0.00    -0.081 A 
ATOM      2  C3  UNL d   1      -0.505   1.328  -1.335  0.00  0.00     0.006 A 
ATOM      3  C4  UNL d   1      -1.261   2.186  -0.533  0.00  0.00     0.002 A 
ATOM      4  C5  UNL d   1      -1.656   1.793   0.751  0.00  0.00    -0.080 A 
ATOM      5  C6  UNL d   1      -2.442   2.716   1.634  0.00  0.00     0.076 C 
ATOM      6  C7  UNL d   1      -1.306   0.519   1.209  0.00  0.00     0.002 A 
ATOM      7  C8  UNL d   1      -0.550  -0.340   0.407  0.00  0.00     0.006 A 
ENDROOT
BRANCH   1   8
ATOM      8  C1  UNL d   1       0.731  -0.843  -1.707  0.00  0.00     0.054 C 
ATOM      9  C   UNL d   1       0.338  -2.304  -1.538  0.00  0.00     0.018 C 
ENDBRANCH   1   8
TORSDOF 1
ENDMDL
