MODEL 1
REMARK minimizedAffinity -1.24107361
REMARK minimizedRMSD -1
REMARK  1 active torsions:
REMARK  status: ('A' for Active; 'I' for Inactive)
REMARK    1  A    between atoms: C1_2  and  C2_3 
ROOT
ATOM      1  C2  UNL d   1      -0.180  -1.768  -1.670  0.00  0.00    -0.081 A 
ATOM      2  C3  UNL d   1       0.459  -0.525  -1.593  0.00  0.00     0.006 A 
ATOM      3  C4  UNL d   1       0.705   0.069  -0.353  0.00  0.00     0.002 A 
ATOM      4  C5  UNL d   1       0.323  -0.573   0.830  0.00  0.00    -0.080 A 
ATOM      5  C6  UNL d   1       0.608   0.040   2.169  0.00  0.00     0.076 C 
ATOM      6  C7  UNL d   1      -0.332  -1.807   0.752  0.00  0.00     0.002 A 
ATOM      7  C8  UNL d   1      -0.578  -2.401  -0.488  0.00  0.00     0.006 A 
ENDROOT
BRANCH   1   8
ATOM      8  C1  UNL d   1      -0.389  -2.441  -3.003  0.00  0.00     0.054 C 
ATOM      9  C   UNL d   1      -0.396  -3.957  -2.862  0.00  0.00     0.018 C 
ENDBRANCH   1   8
TORSDOF 1
ENDMDL
