MODEL 1
REMARK minimizedAffinity -5.29069281
REMARK minimizedRMSD -1
REMARK  1 active torsions:
REMARK  status: ('A' for Active; 'I' for Inactive)
REMARK    1  A    between atoms: C1_2  and  C2_3 
ROOT
ATOM      1  C2  UNL d   1       0.469  -0.446  -0.284  0.00  0.00    -0.081 A 
ATOM      2  C3  UNL d   1      -0.012  -0.851   0.967  0.00  0.00     0.006 A 
ATOM      3  C4  UNL d   1      -0.895  -0.039   1.683  0.00  0.00     0.002 A 
ATOM      4  C5  UNL d   1      -1.316   1.187   1.158  0.00  0.00    -0.080 A 
ATOM      5  C6  UNL d   1      -2.286   2.055   1.903  0.00  0.00     0.076 C 
ATOM      6  C7  UNL d   1      -0.822   1.600  -0.084  0.00  0.00     0.002 A 
ATOM      7  C8  UNL d   1       0.061   0.789  -0.800  0.00  0.00     0.006 A 
ENDROOT
BRANCH   1   8
ATOM      8  C1  UNL d   1       1.369  -1.349  -1.088  0.00  0.00     0.054 C 
ATOM      9  C   UNL d   1       0.602  -2.044  -2.204  0.00  0.00     0.018 C 
ENDBRANCH   1   8
TORSDOF 1
ENDMDL
