MODEL 1
REMARK minimizedAffinity -4.03150177
REMARK minimizedRMSD -1
REMARK  1 active torsions:
REMARK  status: ('A' for Active; 'I' for Inactive)
REMARK    1  A    between atoms: C1_2  and  C2_3 
ROOT
ATOM      1  C2  UNL d   1       0.647  -0.593  -0.271  0.00  0.00    -0.081 A 
ATOM      2  C3  UNL d   1      -0.147  -0.946   0.828  0.00  0.00     0.006 A 
ATOM      3  C4  UNL d   1      -1.028  -0.020   1.391  0.00  0.00     0.002 A 
ATOM      4  C5  UNL d   1      -1.137   1.270   0.861  0.00  0.00    -0.080 A 
ATOM      5  C6  UNL d   1      -2.101   2.264   1.437  0.00  0.00     0.076 C 
ATOM      6  C7  UNL d   1      -0.332   1.628  -0.225  0.00  0.00     0.002 A 
ATOM      7  C8  UNL d   1       0.550   0.703  -0.789  0.00  0.00     0.006 A 
ENDROOT
BRANCH   1   8
ATOM      8  C1  UNL d   1       1.551  -1.609  -0.921  0.00  0.00     0.054 C 
ATOM      9  C   UNL d   1       0.798  -2.442  -1.949  0.00  0.00     0.018 C 
ENDBRANCH   1   8
TORSDOF 1
ENDMDL
