MODEL 1
REMARK minimizedAffinity -4.76994133
REMARK minimizedRMSD -1
REMARK  1 active torsions:
REMARK  status: ('A' for Active; 'I' for Inactive)
REMARK    1  A    between atoms: C1_2  and  C2_3 
ROOT
ATOM      1  C2  UNL d   1       0.398  -0.660  -0.275  0.00  0.00    -0.081 A 
ATOM      2  C3  UNL d   1      -0.114  -1.002   0.983  0.00  0.00     0.006 A 
ATOM      3  C4  UNL d   1      -1.019  -0.159   1.632  0.00  0.00     0.002 A 
ATOM      4  C5  UNL d   1      -1.433   1.035   1.032  0.00  0.00    -0.080 A 
ATOM      5  C6  UNL d   1      -2.428   1.934   1.705  0.00  0.00     0.076 C 
ATOM      6  C7  UNL d   1      -0.908   1.385  -0.217  0.00  0.00     0.002 A 
ATOM      7  C8  UNL d   1      -0.003   0.543  -0.866  0.00  0.00     0.006 A 
ENDROOT
BRANCH   1   8
ATOM      8  C1  UNL d   1       1.325  -1.597  -1.006  0.00  0.00     0.054 C 
ATOM      9  C   UNL d   1       0.553  -2.534  -1.924  0.00  0.00     0.018 C 
ENDBRANCH   1   8
TORSDOF 1
ENDMDL
