MODEL 1
REMARK minimizedAffinity -3.8738637
REMARK minimizedRMSD -1
REMARK  1 active torsions:
REMARK  status: ('A' for Active; 'I' for Inactive)
REMARK    1  A    between atoms: C1_2  and  C2_3 
ROOT
ATOM      1  C2  UNL d   1       0.133   0.119  -0.071  0.00  0.00    -0.081 A 
ATOM      2  C3  UNL d   1      -0.627  -0.185   1.065  0.00  0.00     0.006 A 
ATOM      3  C4  UNL d   1      -1.449   0.783   1.647  0.00  0.00     0.002 A 
ATOM      4  C5  UNL d   1      -1.530   2.068   1.099  0.00  0.00    -0.080 A 
ATOM      5  C6  UNL d   1      -2.431   3.107   1.697  0.00  0.00     0.076 C 
ATOM      6  C7  UNL d   1      -0.757   2.377  -0.025  0.00  0.00     0.002 A 
ATOM      7  C8  UNL d   1       0.065   1.410  -0.607  0.00  0.00     0.006 A 
ENDROOT
BRANCH   1   8
ATOM      8  C1  UNL d   1       0.971  -0.941  -0.739  0.00  0.00     0.054 C 
ATOM      9  C   UNL d   1       2.031  -0.323  -1.639  0.00  0.00     0.018 C 
ENDBRANCH   1   8
TORSDOF 1
ENDMDL
