MODEL 1
REMARK minimizedAffinity -6.23089266
REMARK minimizedRMSD -1
REMARK  1 active torsions:
REMARK  status: ('A' for Active; 'I' for Inactive)
REMARK    1  A    between atoms: C1_2  and  C2_3 
ROOT
ATOM      1  C2  UNL d   1      -0.215   1.715  -0.219  0.00  0.00    -0.081 A 
ATOM      2  C3  UNL d   1      -0.021   0.761   0.788  0.00  0.00     0.006 A 
ATOM      3  C4  UNL d   1       0.619  -0.448   0.503  0.00  0.00     0.002 A 
ATOM      4  C5  UNL d   1       1.082  -0.719  -0.789  0.00  0.00    -0.080 A 
ATOM      5  C6  UNL d   1       1.798  -2.000  -1.100  0.00  0.00     0.076 C 
ATOM      6  C7  UNL d   1       0.873   0.227  -1.798  0.00  0.00     0.002 A 
ATOM      7  C8  UNL d   1       0.232   1.435  -1.514  0.00  0.00     0.006 A 
ENDROOT
BRANCH   1   8
ATOM      8  C1  UNL d   1      -0.847   3.047   0.099  0.00  0.00     0.054 C 
ATOM      9  C   UNL d   1      -1.787   2.942   1.292  0.00  0.00     0.018 C 
ENDBRANCH   1   8
TORSDOF 1
ENDMDL
