MODEL 1
REMARK minimizedAffinity -2.72019482
REMARK minimizedRMSD -1
REMARK  1 active torsions:
REMARK  status: ('A' for Active; 'I' for Inactive)
REMARK    1  A    between atoms: C1_2  and  C2_3 
ROOT
ATOM      1  C2  UNL d   1       0.532  -0.708  -0.220  0.00  0.00    -0.081 A 
ATOM      2  C3  UNL d   1       0.126  -0.900   1.107  0.00  0.00     0.006 A 
ATOM      3  C4  UNL d   1      -0.584   0.095   1.781  0.00  0.00     0.002 A 
ATOM      4  C5  UNL d   1      -0.908   1.295   1.139  0.00  0.00    -0.080 A 
ATOM      5  C6  UNL d   1      -1.697   2.360   1.842  0.00  0.00     0.076 C 
ATOM      6  C7  UNL d   1      -0.488   1.495  -0.180  0.00  0.00     0.002 A 
ATOM      7  C8  UNL d   1       0.223   0.500  -0.855  0.00  0.00     0.006 A 
ENDROOT
BRANCH   1   8
ATOM      8  C1  UNL d   1       1.242  -1.805  -0.971  0.00  0.00     0.054 C 
ATOM      9  C   UNL d   1       0.252  -2.740  -1.651  0.00  0.00     0.018 C 
ENDBRANCH   1   8
TORSDOF 1
ENDMDL
