MODEL 1
REMARK minimizedAffinity -4.35020638
REMARK minimizedRMSD -1
REMARK  1 active torsions:
REMARK  status: ('A' for Active; 'I' for Inactive)
REMARK    1  A    between atoms: C1_2  and  C2_3 
ROOT
ATOM      1  C2  UNL d   1       0.194  -0.658  -0.404  0.00  0.00    -0.081 A 
ATOM      2  C3  UNL d   1      -0.268  -0.854   0.903  0.00  0.00     0.006 A 
ATOM      3  C4  UNL d   1      -1.030   0.129   1.539  0.00  0.00     0.002 A 
ATOM      4  C5  UNL d   1      -1.348   1.320   0.877  0.00  0.00    -0.080 A 
ATOM      5  C6  UNL d   1      -2.191   2.370   1.537  0.00  0.00     0.076 C 
ATOM      6  C7  UNL d   1      -0.871   1.523  -0.423  0.00  0.00     0.002 A 
ATOM      7  C8  UNL d   1      -0.109   0.540  -1.059  0.00  0.00     0.006 A 
ENDROOT
BRANCH   1   8
ATOM      8  C1  UNL d   1       0.961  -1.743  -1.116  0.00  0.00     0.054 C 
ATOM      9  C   UNL d   1       0.065  -2.520  -2.070  0.00  0.00     0.018 C 
ENDBRANCH   1   8
TORSDOF 1
ENDMDL
