MODEL 1
REMARK minimizedAffinity 1.34314394
REMARK minimizedRMSD -1
REMARK  0 active torsions:
REMARK  status: ('A' for Active; 'I' for Inactive)
ROOT
ATOM      1  C   UNL d   1       5.750   2.969  -2.742  0.00  0.00     0.078 C 
ATOM      2  C1  UNL d   1       5.130   1.860  -1.947  0.00  0.00    -0.077 A 
ATOM      3  C2  UNL d   1       4.415   0.833  -2.577  0.00  0.00    -0.001 A 
ATOM      4  C3  UNL d   1       3.835  -0.188  -1.823  0.00  0.00     0.003 A 
ATOM      5  C4  UNL d   1       3.962  -0.193  -0.435  0.00  0.00    -0.005 A 
ATOM      6  C5  UNL d   1       4.669   0.826   0.201  0.00  0.00     0.003 A 
ATOM      7  C6  UNL d   1       5.250   1.848  -0.552  0.00  0.00    -0.001 A 
ENDROOT
TORSDOF 0
ENDMDL
