MODEL 1
REMARK minimizedAffinity 11.5005159
REMARK minimizedRMSD -1
REMARK  0 active torsions:
REMARK  status: ('A' for Active; 'I' for Inactive)
ROOT
ATOM      1  C   UNL d   1       5.802   2.165  -2.429  0.00  0.00     0.078 C 
ATOM      2  C1  UNL d   1       4.716   1.169  -2.149  0.00  0.00    -0.077 A 
ATOM      3  C2  UNL d   1       4.358   0.206  -3.100  0.00  0.00    -0.001 A 
ATOM      4  C3  UNL d   1       3.338  -0.708  -2.830  0.00  0.00     0.003 A 
ATOM      5  C4  UNL d   1       2.667  -0.667  -1.610  0.00  0.00    -0.005 A 
ATOM      6  C5  UNL d   1       3.015   0.289  -0.658  0.00  0.00     0.003 A 
ATOM      7  C6  UNL d   1       4.034   1.204  -0.926  0.00  0.00    -0.001 A 
ENDROOT
TORSDOF 0
ENDMDL
