MODEL 1
REMARK minimizedAffinity 2.41645265
REMARK minimizedRMSD -1
REMARK  0 active torsions:
REMARK  status: ('A' for Active; 'I' for Inactive)
ROOT
ATOM      1  C   UNL d   1       6.000   2.271  -2.519  0.00  0.00     0.078 C 
ATOM      2  C1  UNL d   1       4.967   1.405  -1.863  0.00  0.00    -0.077 A 
ATOM      3  C2  UNL d   1       4.049   0.673  -2.626  0.00  0.00    -0.001 A 
ATOM      4  C3  UNL d   1       3.086  -0.122  -2.001  0.00  0.00     0.003 A 
ATOM      5  C4  UNL d   1       3.032  -0.191  -0.610  0.00  0.00    -0.005 A 
ATOM      6  C5  UNL d   1       3.939   0.536   0.157  0.00  0.00     0.003 A 
ATOM      7  C6  UNL d   1       4.903   1.331  -0.466  0.00  0.00    -0.001 A 
ENDROOT
TORSDOF 0
ENDMDL
