MODEL 1
REMARK minimizedAffinity 8.31120491
REMARK minimizedRMSD -1
REMARK  0 active torsions:
REMARK  status: ('A' for Active; 'I' for Inactive)
ROOT
ATOM      1  C   UNL d   1      -6.000  -1.428  -4.510  0.00  0.00     0.078 C 
ATOM      2  C1  UNL d   1      -5.360  -0.074  -4.441  0.00  0.00    -0.077 A 
ATOM      3  C2  UNL d   1      -5.620   0.794  -3.373  0.00  0.00    -0.001 A 
ATOM      4  C3  UNL d   1      -5.024   2.055  -3.328  0.00  0.00     0.003 A 
ATOM      5  C4  UNL d   1      -4.166   2.462  -4.348  0.00  0.00    -0.005 A 
ATOM      6  C5  UNL d   1      -3.903   1.606  -5.416  0.00  0.00     0.003 A 
ATOM      7  C6  UNL d   1      -4.498   0.344  -5.463  0.00  0.00    -0.001 A 
ENDROOT
TORSDOF 0
ENDMDL
