MODEL 1
REMARK minimizedAffinity 0.25458461
REMARK minimizedRMSD -1
REMARK  0 active torsions:
REMARK  status: ('A' for Active; 'I' for Inactive)
ROOT
ATOM      1  C   UNL d   1       1.439   2.255   5.613  0.00  0.00     0.078 C 
ATOM      2  C1  UNL d   1       2.619   3.036   5.115  0.00  0.00    -0.077 A 
ATOM      3  C2  UNL d   1       3.417   3.776   5.996  0.00  0.00    -0.001 A 
ATOM      4  C3  UNL d   1       4.506   4.506   5.518  0.00  0.00     0.003 A 
ATOM      5  C4  UNL d   1       4.807   4.504   4.158  0.00  0.00    -0.005 A 
ATOM      6  C5  UNL d   1       4.017   3.772   3.273  0.00  0.00     0.003 A 
ATOM      7  C6  UNL d   1       2.928   3.041   3.749  0.00  0.00    -0.001 A 
ENDROOT
TORSDOF 0
ENDMDL
