MODEL 1
REMARK minimizedAffinity 6.97782135
REMARK minimizedRMSD -1
REMARK  0 active torsions:
REMARK  status: ('A' for Active; 'I' for Inactive)
ROOT
ATOM      1  C   UNL d   1       4.602   5.185   5.999  0.00  0.00     0.078 C 
ATOM      2  C1  UNL d   1       4.547   4.983   4.514  0.00  0.00    -0.077 A 
ATOM      3  C2  UNL d   1       5.021   3.802   3.929  0.00  0.00    -0.001 A 
ATOM      4  C3  UNL d   1       4.973   3.633   2.544  0.00  0.00     0.003 A 
ATOM      5  C4  UNL d   1       4.453   4.640   1.733  0.00  0.00    -0.005 A 
ATOM      6  C5  UNL d   1       3.982   5.819   2.307  0.00  0.00     0.003 A 
ATOM      7  C6  UNL d   1       4.029   5.991   3.691  0.00  0.00    -0.001 A 
ENDROOT
TORSDOF 0
ENDMDL
