MODEL 1
REMARK minimizedAffinity -1.3498497
REMARK minimizedRMSD -1
REMARK  0 active torsions:
REMARK  status: ('A' for Active; 'I' for Inactive)
ROOT
ATOM      1  C   UNL d   1      -5.073   1.173   0.703  0.00  0.00     0.078 C 
ATOM      2  C1  UNL d   1      -3.765   1.895   0.837  0.00  0.00    -0.077 A 
ATOM      3  C2  UNL d   1      -2.831   1.895  -0.206  0.00  0.00    -0.001 A 
ATOM      4  C3  UNL d   1      -1.614   2.563  -0.064  0.00  0.00     0.003 A 
ATOM      5  C4  UNL d   1      -1.319   3.236   1.120  0.00  0.00    -0.005 A 
ATOM      6  C5  UNL d   1      -2.241   3.240   2.165  0.00  0.00     0.003 A 
ATOM      7  C6  UNL d   1      -3.459   2.572   2.024  0.00  0.00    -0.001 A 
ENDROOT
TORSDOF 0
ENDMDL
