MODEL 1
REMARK minimizedAffinity 7.31316805
REMARK minimizedRMSD -1
REMARK  0 active torsions:
REMARK  status: ('A' for Active; 'I' for Inactive)
ROOT
ATOM      1  C   UNL d   1       5.735   2.119  -2.324  0.00  0.00     0.078 C 
ATOM      2  C1  UNL d   1       4.734   1.081  -1.913  0.00  0.00    -0.077 A 
ATOM      3  C2  UNL d   1       4.162   0.217  -2.856  0.00  0.00    -0.001 A 
ATOM      4  C3  UNL d   1       3.224  -0.738  -2.460  0.00  0.00     0.003 A 
ATOM      5  C4  UNL d   1       2.849  -0.838  -1.122  0.00  0.00    -0.005 A 
ATOM      6  C5  UNL d   1       3.411   0.018  -0.177  0.00  0.00     0.003 A 
ATOM      7  C6  UNL d   1       4.349   0.974  -0.571  0.00  0.00    -0.001 A 
ENDROOT
TORSDOF 0
ENDMDL
