MODEL 1
REMARK minimizedAffinity 7.20329523
REMARK minimizedRMSD -1
REMARK  0 active torsions:
REMARK  status: ('A' for Active; 'I' for Inactive)
ROOT
ATOM      1  C   UNL d   1       5.944   2.049  -2.668  0.00  0.00     0.078 C 
ATOM      2  C1  UNL d   1       4.836   1.154  -2.199  0.00  0.00    -0.077 A 
ATOM      3  C2  UNL d   1       4.403   0.074  -2.978  0.00  0.00    -0.001 A 
ATOM      4  C3  UNL d   1       3.364  -0.745  -2.533  0.00  0.00     0.003 A 
ATOM      5  C4  UNL d   1       2.749  -0.492  -1.308  0.00  0.00    -0.005 A 
ATOM      6  C5  UNL d   1       3.172   0.581  -0.527  0.00  0.00     0.003 A 
ATOM      7  C6  UNL d   1       4.210   1.401  -0.970  0.00  0.00    -0.001 A 
ENDROOT
TORSDOF 0
ENDMDL
