MODEL 1
REMARK minimizedAffinity 3.33966327
REMARK minimizedRMSD -1
REMARK  0 active torsions:
REMARK  status: ('A' for Active; 'I' for Inactive)
ROOT
ATOM      1  C   UNL d   1       3.715  -1.732   0.647  0.00  0.00     0.078 C 
ATOM      2  C1  UNL d   1       2.319  -1.651   0.106  0.00  0.00    -0.077 A 
ATOM      3  C2  UNL d   1       1.414  -0.697   0.586  0.00  0.00    -0.001 A 
ATOM      4  C3  UNL d   1       0.114  -0.639   0.079  0.00  0.00     0.003 A 
ATOM      5  C4  UNL d   1      -0.292  -1.534  -0.909  0.00  0.00    -0.005 A 
ATOM      6  C5  UNL d   1       0.601  -2.488  -1.391  0.00  0.00     0.003 A 
ATOM      7  C6  UNL d   1       1.901  -2.547  -0.886  0.00  0.00    -0.001 A 
ENDROOT
TORSDOF 0
ENDMDL
