MODEL 1
REMARK minimizedAffinity 2.17010212
REMARK minimizedRMSD -1
REMARK  0 active torsions:
REMARK  status: ('A' for Active; 'I' for Inactive)
ROOT
ATOM      1  C   UNL d   1      -0.961  -2.591  -3.705  0.00  0.00     0.078 C 
ATOM      2  C1  UNL d   1      -0.550  -1.931  -2.423  0.00  0.00    -0.077 A 
ATOM      3  C2  UNL d   1       0.232  -2.611  -1.480  0.00  0.00    -0.001 A 
ATOM      4  C3  UNL d   1       0.599  -1.988  -0.286  0.00  0.00     0.003 A 
ATOM      5  C4  UNL d   1       0.188  -0.683  -0.023  0.00  0.00    -0.005 A 
ATOM      6  C5  UNL d   1      -0.592   0.001  -0.954  0.00  0.00     0.003 A 
ATOM      7  C6  UNL d   1      -0.960  -0.620  -2.148  0.00  0.00    -0.001 A 
ENDROOT
TORSDOF 0
ENDMDL
