MODEL 1
REMARK minimizedAffinity 1.0782212
REMARK minimizedRMSD -1
REMARK  0 active torsions:
REMARK  status: ('A' for Active; 'I' for Inactive)
ROOT
ATOM      1  C   UNL d   1       2.634   1.455  -0.257  0.00  0.00     0.078 C 
ATOM      2  C1  UNL d   1       1.672   0.310  -0.369  0.00  0.00    -0.077 A 
ATOM      3  C2  UNL d   1       2.123  -1.015  -0.363  0.00  0.00    -0.001 A 
ATOM      4  C3  UNL d   1       1.217  -2.070  -0.478  0.00  0.00     0.003 A 
ATOM      5  C4  UNL d   1      -0.147  -1.811  -0.601  0.00  0.00    -0.005 A 
ATOM      6  C5  UNL d   1      -0.606  -0.495  -0.611  0.00  0.00     0.003 A 
ATOM      7  C6  UNL d   1       0.299   0.561  -0.496  0.00  0.00    -0.001 A 
ENDROOT
TORSDOF 0
ENDMDL
