MODEL 1
REMARK minimizedAffinity 6.40961218
REMARK minimizedRMSD -1
REMARK  0 active torsions:
REMARK  status: ('A' for Active; 'I' for Inactive)
ROOT
ATOM      1  C1  DEN d   1      -0.768   2.253   2.262  0.00  0.00     0.130 A 
ATOM      2  C2  DEN d   1       0.369   2.435   3.160  0.00  0.00    -0.031 A 
ATOM      3  C3  DEN d   1       1.419   3.169   2.425  0.00  0.00     0.027 A 
ATOM      4  C4  DEN d   1       1.392   4.042  -0.002  0.00  0.00     0.027 A 
ATOM      5  C5  DEN d   1       0.649   4.117  -1.159  0.00  0.00    -0.003 A 
ATOM      6  C6  DEN d   1      -0.593   3.551  -1.268  0.00  0.00     0.001 A 
ATOM      7  C7  DEN d   1      -1.150   2.924  -0.185  0.00  0.00     0.017 A 
ATOM      8  C8  DEN d   1      -0.405   2.837   0.983  0.00  0.00    -0.094 A 
ATOM      9  C9  DEN d   1       0.845   3.426   1.077  0.00  0.00    -0.072 A 
ENDROOT
TORSDOF 0
ENDMDL
