MODEL 1
REMARK minimizedAffinity 12.1894579
REMARK minimizedRMSD -1
REMARK  0 active torsions:
REMARK  status: ('A' for Active; 'I' for Inactive)
ROOT
ATOM      1  C1  DEN d   1      -0.963   2.021   0.397  0.00  0.00     0.130 A 
ATOM      2  C2  DEN d   1      -0.168   2.125   1.618  0.00  0.00    -0.031 A 
ATOM      3  C3  DEN d   1       0.801   3.225   1.439  0.00  0.00     0.027 A 
ATOM      4  C4  DEN d   1       1.143   4.771  -0.598  0.00  0.00     0.027 A 
ATOM      5  C5  DEN d   1       0.714   5.057  -1.875  0.00  0.00    -0.003 A 
ATOM      6  C6  DEN d   1      -0.273   4.335  -2.492  0.00  0.00     0.001 A 
ATOM      7  C7  DEN d   1      -0.896   3.319  -1.815  0.00  0.00     0.017 A 
ATOM      8  C8  DEN d   1      -0.463   3.020  -0.530  0.00  0.00    -0.094 A 
ATOM      9  C9  DEN d   1       0.528   3.769   0.081  0.00  0.00    -0.072 A 
ENDROOT
TORSDOF 0
ENDMDL
