MODEL 1
REMARK minimizedAffinity -2.47175193
REMARK minimizedRMSD -1
REMARK  0 active torsions:
REMARK  status: ('A' for Active; 'I' for Inactive)
ROOT
ATOM      1  C1  DEN d   1      -5.940   4.824  -2.392  0.00  0.00     0.130 A 
ATOM      2  C2  DEN d   1      -5.970   3.821  -1.331  0.00  0.00    -0.031 A 
ATOM      3  C3  DEN d   1      -6.000   2.487  -1.965  0.00  0.00     0.027 A 
ATOM      4  C4  DEN d   1      -5.998   1.882  -4.472  0.00  0.00     0.027 A 
ATOM      5  C5  DEN d   1      -5.990   2.394  -5.750  0.00  0.00    -0.003 A 
ATOM      6  C6  DEN d   1      -5.999   3.741  -5.997  0.00  0.00     0.001 A 
ATOM      7  C7  DEN d   1      -5.971   4.623  -4.950  0.00  0.00     0.017 A 
ATOM      8  C8  DEN d   1      -5.987   4.114  -3.658  0.00  0.00    -0.094 A 
ATOM      9  C9  DEN d   1      -5.965   2.749  -3.429  0.00  0.00    -0.072 A 
ENDROOT
TORSDOF 0
ENDMDL
