MODEL 1
REMARK minimizedAffinity 3.6575892
REMARK minimizedRMSD -1
REMARK  0 active torsions:
REMARK  status: ('A' for Active; 'I' for Inactive)
ROOT
ATOM      1  C1  DEN d   1       2.068  -2.398   0.221  0.00  0.00     0.130 A 
ATOM      2  C2  DEN d   1       1.689  -0.988   0.226  0.00  0.00    -0.031 A 
ATOM      3  C3  DEN d   1       0.474  -0.839  -0.599  0.00  0.00     0.027 A 
ATOM      4  C4  DEN d   1      -0.854  -2.645  -1.874  0.00  0.00     0.027 A 
ATOM      5  C5  DEN d   1      -0.911  -3.986  -2.186  0.00  0.00    -0.003 A 
ATOM      6  C6  DEN d   1       0.032  -4.878  -1.749  0.00  0.00     0.001 A 
ATOM      7  C7  DEN d   1       1.048  -4.448  -0.937  0.00  0.00     0.017 A 
ATOM      8  C8  DEN d   1       1.117  -3.097  -0.625  0.00  0.00    -0.094 A 
ATOM      9  C9  DEN d   1       0.147  -2.213  -1.067  0.00  0.00    -0.072 A 
ENDROOT
TORSDOF 0
ENDMDL
