MODEL 1
REMARK minimizedAffinity 7.47444677
REMARK minimizedRMSD -1
REMARK  0 active torsions:
REMARK  status: ('A' for Active; 'I' for Inactive)
ROOT
ATOM      1  C1  DEN d   1      -3.899  -0.039   3.042  0.00  0.00     0.130 A 
ATOM      2  C2  DEN d   1      -4.984   0.938   2.993  0.00  0.00    -0.031 A 
ATOM      3  C3  DEN d   1      -5.999   0.542   3.990  0.00  0.00     0.027 A 
ATOM      4  C4  DEN d   1      -5.995  -1.474   5.599  0.00  0.00     0.027 A 
ATOM      5  C5  DEN d   1      -5.292  -2.589   5.999  0.00  0.00    -0.003 A 
ATOM      6  C6  DEN d   1      -4.103  -2.948   5.423  0.00  0.00     0.001 A 
ATOM      7  C7  DEN d   1      -3.556  -2.159   4.445  0.00  0.00     0.017 A 
ATOM      8  C8  DEN d   1      -4.262  -1.038   4.031  0.00  0.00    -0.094 A 
ATOM      9  C9  DEN d   1      -5.458  -0.684   4.634  0.00  0.00    -0.072 A 
ENDROOT
TORSDOF 0
ENDMDL
