MODEL 1
REMARK minimizedAffinity 9.23748684
REMARK minimizedRMSD -1
REMARK  0 active torsions:
REMARK  status: ('A' for Active; 'I' for Inactive)
ROOT
ATOM      1  C1  DEN d   1      -0.967  -6.000  -4.103  0.00  0.00     0.130 A 
ATOM      2  C2  DEN d   1      -1.972  -5.030  -4.530  0.00  0.00    -0.031 A 
ATOM      3  C3  DEN d   1      -1.907  -3.873  -3.615  0.00  0.00     0.027 A 
ATOM      4  C4  DEN d   1      -0.353  -3.488  -1.593  0.00  0.00     0.027 A 
ATOM      5  C5  DEN d   1       0.658  -4.035  -0.835  0.00  0.00    -0.003 A 
ATOM      6  C6  DEN d   1       1.171  -5.279  -1.089  0.00  0.00     0.001 A 
ATOM      7  C7  DEN d   1       0.705  -6.000  -2.157  0.00  0.00     0.017 A 
ATOM      8  C8  DEN d   1      -0.320  -5.458  -2.922  0.00  0.00    -0.094 A 
ATOM      9  C9  DEN d   1      -0.816  -4.193  -2.656  0.00  0.00    -0.072 A 
ENDROOT
TORSDOF 0
ENDMDL
