MODEL 1
REMARK minimizedAffinity 11.3176117
REMARK minimizedRMSD -1
REMARK  0 active torsions:
REMARK  status: ('A' for Active; 'I' for Inactive)
ROOT
ATOM      1  C1  DEN d   1      -5.984  -0.032   5.516  0.00  0.00     0.130 A 
ATOM      2  C2  DEN d   1      -5.997  -1.410   5.998  0.00  0.00    -0.031 A 
ATOM      3  C3  DEN d   1      -5.074  -2.198   5.157  0.00  0.00     0.027 A 
ATOM      4  C4  DEN d   1      -3.627  -1.419   3.169  0.00  0.00     0.027 A 
ATOM      5  C5  DEN d   1      -3.288  -0.341   2.381  0.00  0.00    -0.003 A 
ATOM      6  C6  DEN d   1      -3.845   0.898   2.560  0.00  0.00     0.001 A 
ATOM      7  C7  DEN d   1      -4.738   1.100   3.579  0.00  0.00     0.017 A 
ATOM      8  C8  DEN d   1      -5.090   0.016   4.373  0.00  0.00    -0.094 A 
ATOM      9  C9  DEN d   1      -4.507  -1.226   4.184  0.00  0.00    -0.072 A 
ENDROOT
TORSDOF 0
ENDMDL
