MODEL 1
REMARK minimizedAffinity 16.2681179
REMARK minimizedRMSD -1
REMARK  0 active torsions:
REMARK  status: ('A' for Active; 'I' for Inactive)
ROOT
ATOM      1  C1  DEN d   1       4.506  -3.744  -4.152  0.00  0.00     0.130 A 
ATOM      2  C2  DEN d   1       4.107  -5.074  -4.605  0.00  0.00    -0.031 A 
ATOM      3  C3  DEN d   1       4.213  -5.998  -3.458  0.00  0.00     0.027 A 
ATOM      4  C4  DEN d   1       4.949  -5.500  -1.037  0.00  0.00     0.027 A 
ATOM      5  C5  DEN d   1       5.393  -4.519  -0.177  0.00  0.00    -0.003 A 
ATOM      6  C6  DEN d   1       5.603  -3.230  -0.588  0.00  0.00     0.001 A 
ATOM      7  C7  DEN d   1       5.326  -2.875  -1.882  0.00  0.00     0.017 A 
ATOM      8  C8  DEN d   1       4.885  -3.860  -2.756  0.00  0.00    -0.094 A 
ATOM      9  C9  DEN d   1       4.667  -5.156  -2.319  0.00  0.00    -0.072 A 
ENDROOT
TORSDOF 0
ENDMDL
