MODEL 1
REMARK minimizedAffinity -3.43036079
REMARK minimizedRMSD -1
REMARK  0 active torsions:
REMARK  status: ('A' for Active; 'I' for Inactive)
ROOT
ATOM      1  C1  DEN d   1      -2.419  -6.000  -6.000  0.00  0.00     0.130 A 
ATOM      2  C2  DEN d   1      -1.329  -5.406  -5.230  0.00  0.00    -0.031 A 
ATOM      3  C3  DEN d   1      -1.914  -4.425  -4.294  0.00  0.00     0.027 A 
ATOM      4  C4  DEN d   1      -4.387  -3.775  -3.960  0.00  0.00     0.027 A 
ATOM      5  C5  DEN d   1      -5.675  -4.001  -4.391  0.00  0.00    -0.003 A 
ATOM      6  C6  DEN d   1      -5.963  -4.877  -5.404  0.00  0.00     0.001 A 
ATOM      7  C7  DEN d   1      -4.952  -5.594  -5.989  0.00  0.00     0.017 A 
ATOM      8  C8  DEN d   1      -3.650  -5.365  -5.565  0.00  0.00    -0.094 A 
ATOM      9  C9  DEN d   1      -3.381  -4.484  -4.531  0.00  0.00    -0.072 A 
ENDROOT
TORSDOF 0
ENDMDL
