MODEL 1
REMARK minimizedAffinity -4.32474899
REMARK minimizedRMSD -1
REMARK  0 active torsions:
REMARK  status: ('A' for Active; 'I' for Inactive)
ROOT
ATOM      1  C1  DEN d   1      -4.696  -2.576  -4.608  0.00  0.00     0.130 A 
ATOM      2  C2  DEN d   1      -5.978  -3.202  -4.296  0.00  0.00    -0.031 A 
ATOM      3  C3  DEN d   1      -5.834  -4.659  -4.492  0.00  0.00     0.027 A 
ATOM      4  C4  DEN d   1      -3.760  -5.999  -5.237  0.00  0.00     0.027 A 
ATOM      5  C5  DEN d   1      -2.442  -5.903  -5.626  0.00  0.00    -0.003 A 
ATOM      6  C6  DEN d   1      -1.798  -4.699  -5.735  0.00  0.00     0.001 A 
ATOM      7  C7  DEN d   1      -2.458  -3.545  -5.408  0.00  0.00     0.017 A 
ATOM      8  C8  DEN d   1      -3.790  -3.632  -5.022  0.00  0.00    -0.094 A 
ATOM      9  C9  DEN d   1      -4.419  -4.860  -4.906  0.00  0.00    -0.072 A 
ENDROOT
TORSDOF 0
ENDMDL
