MODEL 1
REMARK minimizedAffinity -3.05270147
REMARK minimizedRMSD -1
REMARK  0 active torsions:
REMARK  status: ('A' for Active; 'I' for Inactive)
ROOT
ATOM      1  C1  DEN d   1      -2.322  -4.510  -5.991  0.00  0.00     0.130 A 
ATOM      2  C2  DEN d   1      -1.467  -5.355  -5.163  0.00  0.00    -0.031 A 
ATOM      3  C3  DEN d   1      -2.312  -5.987  -4.130  0.00  0.00     0.027 A 
ATOM      4  C4  DEN d   1      -4.850  -5.746  -3.739  0.00  0.00     0.027 A 
ATOM      5  C5  DEN d   1      -6.000  -5.129  -4.180  0.00  0.00    -0.003 A 
ATOM      6  C6  DEN d   1      -5.999  -4.244  -5.226  0.00  0.00     0.001 A 
ATOM      7  C7  DEN d   1      -4.832  -3.985  -5.895  0.00  0.00     0.017 A 
ATOM      8  C8  DEN d   1      -3.667  -4.597  -5.451  0.00  0.00    -0.094 A 
ATOM      9  C9  DEN d   1      -3.691  -5.498  -4.400  0.00  0.00    -0.072 A 
ENDROOT
TORSDOF 0
ENDMDL
