MODEL 1
REMARK minimizedAffinity -0.790973663
REMARK minimizedRMSD -1
REMARK  0 active torsions:
REMARK  status: ('A' for Active; 'I' for Inactive)
ROOT
ATOM      1  C1  DEN d   1      -4.146  -5.324  -3.626  0.00  0.00     0.130 A 
ATOM      2  C2  DEN d   1      -3.721  -6.000  -4.849  0.00  0.00    -0.031 A 
ATOM      3  C3  DEN d   1      -4.133  -5.167  -5.997  0.00  0.00     0.027 A 
ATOM      4  C4  DEN d   1      -5.375  -2.906  -5.999  0.00  0.00     0.027 A 
ATOM      5  C5  DEN d   1      -5.953  -1.942  -5.203  0.00  0.00    -0.003 A 
ATOM      6  C6  DEN d   1      -5.999  -2.053  -3.839  0.00  0.00     0.001 A 
ATOM      7  C7  DEN d   1      -5.417  -3.131  -3.225  0.00  0.00     0.017 A 
ATOM      8  C8  DEN d   1      -4.838  -4.111  -4.022  0.00  0.00    -0.094 A 
ATOM      9  C9  DEN d   1      -4.791  -3.974  -5.399  0.00  0.00    -0.072 A 
ENDROOT
TORSDOF 0
ENDMDL
