MODEL 1
REMARK minimizedAffinity -3.93374228
REMARK minimizedRMSD -1
REMARK  0 active torsions:
REMARK  status: ('A' for Active; 'I' for Inactive)
ROOT
ATOM      1  C1  DEN d   1      -4.239  -6.000  -5.146  0.00  0.00     0.130 A 
ATOM      2  C2  DEN d   1      -2.823  -5.994  -4.787  0.00  0.00    -0.031 A 
ATOM      3  C3  DEN d   1      -2.362  -4.591  -4.768  0.00  0.00     0.027 A 
ATOM      4  C4  DEN d   1      -3.697  -2.438  -5.252  0.00  0.00     0.027 A 
ATOM      5  C5  DEN d   1      -4.929  -1.938  -5.611  0.00  0.00    -0.003 A 
ATOM      6  C6  DEN d   1      -6.000  -2.752  -5.871  0.00  0.00     0.001 A 
ATOM      7  C7  DEN d   1      -5.871  -4.109  -5.732  0.00  0.00     0.017 A 
ATOM      8  C8  DEN d   1      -4.630  -4.621  -5.378  0.00  0.00    -0.094 A 
ATOM      9  C9  DEN d   1      -3.563  -3.781  -5.107  0.00  0.00    -0.072 A 
ENDROOT
TORSDOF 0
ENDMDL
