MODEL 1
REMARK minimizedAffinity -3.36451626
REMARK minimizedRMSD -1
REMARK  0 active torsions:
REMARK  status: ('A' for Active; 'I' for Inactive)
ROOT
ATOM      1  C1  DEN d   1      -5.065  -5.276  -3.708  0.00  0.00     0.130 A 
ATOM      2  C2  DEN d   1      -4.477  -5.965  -4.853  0.00  0.00    -0.031 A 
ATOM      3  C3  DEN d   1      -4.350  -4.992  -5.956  0.00  0.00     0.027 A 
ATOM      4  C4  DEN d   1      -5.000  -2.496  -6.000  0.00  0.00     0.027 A 
ATOM      5  C5  DEN d   1      -5.547  -1.465  -5.268  0.00  0.00    -0.003 A 
ATOM      6  C6  DEN d   1      -6.000  -1.640  -3.987  0.00  0.00     0.001 A 
ATOM      7  C7  DEN d   1      -5.871  -2.862  -3.382  0.00  0.00     0.017 A 
ATOM      8  C8  DEN d   1      -5.328  -3.908  -4.116  0.00  0.00    -0.094 A 
ATOM      9  C9  DEN d   1      -4.865  -3.709  -5.406  0.00  0.00    -0.072 A 
ENDROOT
TORSDOF 0
ENDMDL
