MODEL 1
REMARK minimizedAffinity -1.65439296
REMARK minimizedRMSD -1
REMARK  0 active torsions:
REMARK  status: ('A' for Active; 'I' for Inactive)
ROOT
ATOM      1  C1  DEN d   1      -3.382  -4.933  -4.283  0.00  0.00     0.130 A 
ATOM      2  C2  DEN d   1      -3.824  -6.000  -5.177  0.00  0.00    -0.031 A 
ATOM      3  C3  DEN d   1      -4.933  -5.476  -6.000  0.00  0.00     0.027 A 
ATOM      4  C4  DEN d   1      -6.000  -3.128  -5.979  0.00  0.00     0.027 A 
ATOM      5  C5  DEN d   1      -5.969  -1.886  -5.383  0.00  0.00    -0.003 A 
ATOM      6  C6  DEN d   1      -5.104  -1.586  -4.364  0.00  0.00     0.001 A 
ATOM      7  C7  DEN d   1      -4.203  -2.527  -3.940  0.00  0.00     0.017 A 
ATOM      8  C8  DEN d   1      -4.232  -3.783  -4.531  0.00  0.00    -0.094 A 
ATOM      9  C9  DEN d   1      -5.106  -4.063  -5.568  0.00  0.00    -0.072 A 
ENDROOT
TORSDOF 0
ENDMDL
