MODEL 1
REMARK minimizedAffinity -3.62855649
REMARK minimizedRMSD -1
REMARK  0 active torsions:
REMARK  status: ('A' for Active; 'I' for Inactive)
ROOT
ATOM      1  C1  DEN d   1      -5.999  -4.696  -6.000  0.00  0.00     0.130 A 
ATOM      2  C2  DEN d   1      -5.341  -6.000  -5.997  0.00  0.00    -0.031 A 
ATOM      3  C3  DEN d   1      -4.048  -5.857  -5.297  0.00  0.00     0.027 A 
ATOM      4  C4  DEN d   1      -3.010  -3.757  -4.219  0.00  0.00     0.027 A 
ATOM      5  C5  DEN d   1      -3.190  -2.412  -3.978  0.00  0.00    -0.003 A 
ATOM      6  C6  DEN d   1      -4.294  -1.733  -4.421  0.00  0.00     0.001 A 
ATOM      7  C7  DEN d   1      -5.283  -2.407  -5.089  0.00  0.00     0.017 A 
ATOM      8  C8  DEN d   1      -5.105  -3.761  -5.341  0.00  0.00    -0.094 A 
ATOM      9  C9  DEN d   1      -3.987  -4.432  -4.875  0.00  0.00    -0.072 A 
ENDROOT
TORSDOF 0
ENDMDL
