MODEL 1
REMARK minimizedAffinity -3.77701545
REMARK minimizedRMSD -1
REMARK  0 active torsions:
REMARK  status: ('A' for Active; 'I' for Inactive)
ROOT
ATOM      1  C1  DEN d   1      -2.124  -3.755  -5.248  0.00  0.00     0.130 A 
ATOM      2  C2  DEN d   1      -1.376  -4.920  -5.712  0.00  0.00    -0.031 A 
ATOM      3  C3  DEN d   1      -2.343  -6.000  -5.996  0.00  0.00     0.027 A 
ATOM      4  C4  DEN d   1      -4.912  -5.979  -5.769  0.00  0.00     0.027 A 
ATOM      5  C5  DEN d   1      -6.000  -5.218  -5.401  0.00  0.00    -0.003 A 
ATOM      6  C6  DEN d   1      -5.871  -3.939  -4.929  0.00  0.00     0.001 A 
ATOM      7  C7  DEN d   1      -4.629  -3.365  -4.854  0.00  0.00     0.017 A 
ATOM      8  C8  DEN d   1      -3.527  -4.128  -5.215  0.00  0.00    -0.094 A 
ATOM      9  C9  DEN d   1      -3.679  -5.415  -5.702  0.00  0.00    -0.072 A 
ENDROOT
TORSDOF 0
ENDMDL
