MODEL 1
REMARK minimizedAffinity -3.316401
REMARK minimizedRMSD -1
REMARK  0 active torsions:
REMARK  status: ('A' for Active; 'I' for Inactive)
ROOT
ATOM      1  C1  DEN d   1      -5.983  -4.866  -4.191  0.00  0.00     0.130 A 
ATOM      2  C2  DEN d   1      -5.964  -3.692  -3.323  0.00  0.00    -0.031 A 
ATOM      3  C3  DEN d   1      -4.605  -3.116  -3.364  0.00  0.00     0.027 A 
ATOM      4  C4  DEN d   1      -2.541  -3.920  -4.686  0.00  0.00     0.027 A 
ATOM      5  C5  DEN d   1      -2.067  -4.881  -5.552  0.00  0.00    -0.003 A 
ATOM      6  C6  DEN d   1      -2.849  -5.914  -5.995  0.00  0.00     0.001 A 
ATOM      7  C7  DEN d   1      -4.161  -5.987  -5.608  0.00  0.00     0.017 A 
ATOM      8  C8  DEN d   1      -4.644  -5.026  -4.729  0.00  0.00    -0.094 A 
ATOM      9  C9  DEN d   1      -3.841  -3.982  -4.302  0.00  0.00    -0.072 A 
ENDROOT
TORSDOF 0
ENDMDL
