MODEL 1
REMARK minimizedAffinity 6.78459072
REMARK minimizedRMSD -1
REMARK  0 active torsions:
REMARK  status: ('A' for Active; 'I' for Inactive)
ROOT
ATOM      1  C1  DEN d   1      -1.278  -5.127  -6.000  0.00  0.00     0.130 A 
ATOM      2  C2  DEN d   1      -0.772  -6.000  -4.944  0.00  0.00    -0.031 A 
ATOM      3  C3  DEN d   1      -1.512  -5.691  -3.703  0.00  0.00     0.027 A 
ATOM      4  C4  DEN d   1      -3.384  -3.959  -3.319  0.00  0.00     0.027 A 
ATOM      5  C5  DEN d   1      -4.144  -2.977  -3.914  0.00  0.00    -0.003 A 
ATOM      6  C6  DEN d   1      -3.980  -2.622  -5.226  0.00  0.00     0.001 A 
ATOM      7  C7  DEN d   1      -3.064  -3.285  -6.000  0.00  0.00     0.017 A 
ATOM      8  C8  DEN d   1      -2.289  -4.272  -5.405  0.00  0.00    -0.094 A 
ATOM      9  C9  DEN d   1      -2.479  -4.625  -4.080  0.00  0.00    -0.072 A 
ENDROOT
TORSDOF 0
ENDMDL
