MODEL 1
REMARK minimizedAffinity -2.18003464
REMARK minimizedRMSD -1
REMARK  0 active torsions:
REMARK  status: ('A' for Active; 'I' for Inactive)
ROOT
ATOM      1  C1  DEN d   1      -4.693  -2.739  -5.995  0.00  0.00     0.130 A 
ATOM      2  C2  DEN d   1      -5.999  -3.239  -5.576  0.00  0.00    -0.031 A 
ATOM      3  C3  DEN d   1      -5.819  -4.610  -5.057  0.00  0.00     0.027 A 
ATOM      4  C4  DEN d   1      -3.653  -5.997  -4.857  0.00  0.00     0.027 A 
ATOM      5  C5  DEN d   1      -2.296  -6.000  -5.094  0.00  0.00    -0.003 A 
ATOM      6  C6  DEN d   1      -1.654  -4.938  -5.675  0.00  0.00     0.001 A 
ATOM      7  C7  DEN d   1      -2.361  -3.810  -5.996  0.00  0.00     0.017 A 
ATOM      8  C8  DEN d   1      -3.731  -3.802  -5.767  0.00  0.00    -0.094 A 
ATOM      9  C9  DEN d   1      -4.360  -4.881  -5.168  0.00  0.00    -0.072 A 
ENDROOT
TORSDOF 0
ENDMDL
