MODEL 1
REMARK minimizedAffinity -1.94415724
REMARK minimizedRMSD -1
REMARK  0 active torsions:
REMARK  status: ('A' for Active; 'I' for Inactive)
ROOT
ATOM      1  C1  DEN d   1      -4.627  -2.765  -3.753  0.00  0.00     0.130 A 
ATOM      2  C2  DEN d   1      -5.994  -2.932  -4.240  0.00  0.00    -0.031 A 
ATOM      3  C3  DEN d   1      -6.000  -4.047  -5.209  0.00  0.00     0.027 A 
ATOM      4  C4  DEN d   1      -4.038  -5.526  -5.993  0.00  0.00     0.027 A 
ATOM      5  C5  DEN d   1      -2.685  -5.755  -5.868  0.00  0.00    -0.003 A 
ATOM      6  C6  DEN d   1      -1.886  -4.989  -5.062  0.00  0.00     0.001 A 
ATOM      7  C7  DEN d   1      -2.440  -3.984  -4.314  0.00  0.00     0.017 A 
ATOM      8  C8  DEN d   1      -3.802  -3.742  -4.440  0.00  0.00    -0.094 A 
ATOM      9  C9  DEN d   1      -4.595  -4.536  -5.251  0.00  0.00    -0.072 A 
ENDROOT
TORSDOF 0
ENDMDL
