MODEL 1
REMARK minimizedAffinity 8.25884914
REMARK minimizedRMSD -1
REMARK  3 active torsions:
REMARK  status: ('A' for Active; 'I' for Inactive)
REMARK    1  A    between atoms: C3'_2  and  C2'_3 
REMARK    2  A    between atoms: C2'_3  and  C1'_4 
REMARK    3  A    between atoms: C1'_4  and  C1_5 
ROOT
ATOM      1  C1  N4B d   1       1.754   0.712  -0.759  0.00  0.00    -0.075 A 
ATOM      2  C2  N4B d   1       1.569  -0.578  -1.303  0.00  0.00     0.002 A 
ATOM      3  C3  N4B d   1       1.054  -0.723  -2.568  0.00  0.00     0.002 A 
ATOM      4  C4  N4B d   1       0.701   0.402  -3.298  0.00  0.00    -0.004 A 
ATOM      5  C5  N4B d   1       0.907   1.645  -2.776  0.00  0.00     0.002 A 
ATOM      6  C6  N4B d   1       1.428   1.806  -1.507  0.00  0.00     0.002 A 
ENDROOT
BRANCH   1   7
ATOM      7  C1' N4B d   1       2.233   0.918   0.652  0.00  0.00     0.057 C 
BRANCH   7   8
ATOM      8  C2' N4B d   1       1.701   2.251   1.171  0.00  0.00     0.009 C 
BRANCH   8   9
ATOM      9  C3' N4B d   1       0.713   2.062   2.310  0.00  0.00     0.004 C 
ATOM     10  C4' N4B d   1       1.157   1.026   3.299  0.00  0.00     0.003 C 
ENDBRANCH   8   9
ENDBRANCH   7   8
ENDBRANCH   1   7
TORSDOF 3
ENDMDL
