MODEL 1
REMARK minimizedAffinity 8.64019012
REMARK minimizedRMSD -1
REMARK  3 active torsions:
REMARK  status: ('A' for Active; 'I' for Inactive)
REMARK    1  A    between atoms: C3'_2  and  C2'_3 
REMARK    2  A    between atoms: C2'_3  and  C1'_4 
REMARK    3  A    between atoms: C1'_4  and  C1_5 
ROOT
ATOM      1  C1  N4B d   1       1.436   0.099   0.748  0.00  0.00    -0.075 A 
ATOM      2  C2  N4B d   1       1.805   1.451   0.917  0.00  0.00     0.002 A 
ATOM      3  C3  N4B d   1       1.277   2.183   1.952  0.00  0.00     0.002 A 
ATOM      4  C4  N4B d   1       0.367   1.592   2.816  0.00  0.00    -0.004 A 
ATOM      5  C5  N4B d   1       0.035   0.278   2.661  0.00  0.00     0.002 A 
ATOM      6  C6  N4B d   1       0.562  -0.471   1.628  0.00  0.00     0.002 A 
ENDROOT
BRANCH   1   7
ATOM      7  C1' N4B d   1       1.921  -0.717  -0.419  0.00  0.00     0.057 C 
BRANCH   7   8
ATOM      8  C2' N4B d   1       1.761   0.097  -1.700  0.00  0.00     0.009 C 
BRANCH   8   9
ATOM      9  C3' N4B d   1       0.553  -0.346  -2.507  0.00  0.00     0.004 C 
ATOM     10  C4' N4B d   1      -0.039   0.764  -3.322  0.00  0.00     0.003 C 
ENDBRANCH   8   9
ENDBRANCH   7   8
ENDBRANCH   1   7
TORSDOF 3
ENDMDL
