MODEL 1
REMARK minimizedAffinity 0.464491904
REMARK minimizedRMSD -1
REMARK  3 active torsions:
REMARK  status: ('A' for Active; 'I' for Inactive)
REMARK    1  A    between atoms: C3'_2  and  C2'_3 
REMARK    2  A    between atoms: C2'_3  and  C1'_4 
REMARK    3  A    between atoms: C1'_4  and  C1_5 
ROOT
ATOM      1  C1  N4B d   1       2.171   0.821   0.674  0.00  0.00    -0.075 A 
ATOM      2  C2  N4B d   1       3.448   0.966   0.089  0.00  0.00     0.002 A 
ATOM      3  C3  N4B d   1       3.949  -0.023  -0.721  0.00  0.00     0.002 A 
ATOM      4  C4  N4B d   1       3.202  -1.170  -0.945  0.00  0.00    -0.004 A 
ATOM      5  C5  N4B d   1       1.958  -1.291  -0.397  0.00  0.00     0.002 A 
ATOM      6  C6  N4B d   1       1.441  -0.303   0.416  0.00  0.00     0.002 A 
ENDROOT
BRANCH   1   7
ATOM      7  C1' N4B d   1       1.617   1.837   1.635  0.00  0.00     0.057 C 
BRANCH   7   8
ATOM      8  C2' N4B d   1       0.507   1.193   2.460  0.00  0.00     0.009 C 
BRANCH   8   9
ATOM      9  C3' N4B d   1      -0.674   2.129   2.653  0.00  0.00     0.004 C 
ATOM     10  C4' N4B d   1      -1.988   1.409   2.678  0.00  0.00     0.003 C 
ENDBRANCH   8   9
ENDBRANCH   7   8
ENDBRANCH   1   7
TORSDOF 3
ENDMDL
