MODEL 1
REMARK minimizedAffinity 5.10215712
REMARK minimizedRMSD -1
REMARK  3 active torsions:
REMARK  status: ('A' for Active; 'I' for Inactive)
REMARK    1  A    between atoms: C3'_2  and  C2'_3 
REMARK    2  A    between atoms: C2'_3  and  C1'_4 
REMARK    3  A    between atoms: C1'_4  and  C1_5 
ROOT
ATOM      1  C1  N4B d   1       1.226   2.066   1.373  0.00  0.00    -0.075 A 
ATOM      2  C2  N4B d   1       1.124   0.851   0.661  0.00  0.00     0.002 A 
ATOM      3  C3  N4B d   1       2.194   0.391  -0.067  0.00  0.00     0.002 A 
ATOM      4  C4  N4B d   1       3.363   1.134  -0.113  0.00  0.00    -0.004 A 
ATOM      5  C5  N4B d   1       3.462   2.295   0.598  0.00  0.00     0.002 A 
ATOM      6  C6  N4B d   1       2.396   2.767   1.337  0.00  0.00     0.002 A 
ENDROOT
BRANCH   1   7
ATOM      7  C1' N4B d   1       0.055   2.653   2.113  0.00  0.00     0.057 C 
BRANCH   7   8
ATOM      8  C2' N4B d   1      -0.944   1.544   2.431  0.00  0.00     0.009 C 
BRANCH   8   9
ATOM      9  C3' N4B d   1      -2.268   2.097   2.930  0.00  0.00     0.004 C 
ATOM     10  C4' N4B d   1      -3.432   1.220   2.579  0.00  0.00     0.003 C 
ENDBRANCH   8   9
ENDBRANCH   7   8
ENDBRANCH   1   7
TORSDOF 3
ENDMDL
