MODEL 1
REMARK minimizedAffinity 3.18395162
REMARK minimizedRMSD -1
REMARK  3 active torsions:
REMARK  status: ('A' for Active; 'I' for Inactive)
REMARK    1  A    between atoms: C3'_2  and  C2'_3 
REMARK    2  A    between atoms: C2'_3  and  C1'_4 
REMARK    3  A    between atoms: C1'_4  and  C1_5 
ROOT
ATOM      1  C1  N4B d   1       0.914   1.814   1.692  0.00  0.00    -0.075 A 
ATOM      2  C2  N4B d   1       0.328   3.037   2.087  0.00  0.00     0.002 A 
ATOM      3  C3  N4B d   1      -0.974   3.064   2.524  0.00  0.00     0.002 A 
ATOM      4  C4  N4B d   1      -1.711   1.890   2.558  0.00  0.00    -0.004 A 
ATOM      5  C5  N4B d   1      -1.129   0.710   2.199  0.00  0.00     0.002 A 
ATOM      6  C6  N4B d   1       0.179   0.666   1.761  0.00  0.00     0.002 A 
ENDROOT
BRANCH   1   7
ATOM      7  C1' N4B d   1       2.306   1.747   1.125  0.00  0.00     0.057 C 
BRANCH   7   8
ATOM      8  C2' N4B d   1       2.223   1.532  -0.383  0.00  0.00     0.009 C 
BRANCH   8   9
ATOM      9  C3' N4B d   1       2.799   0.189  -0.798  0.00  0.00     0.004 C 
ATOM     10  C4' N4B d   1       1.791  -0.693  -1.471  0.00  0.00     0.003 C 
ENDBRANCH   8   9
ENDBRANCH   7   8
ENDBRANCH   1   7
TORSDOF 3
ENDMDL
