MODEL 1
REMARK minimizedAffinity 8.14881706
REMARK minimizedRMSD -1
REMARK  3 active torsions:
REMARK  status: ('A' for Active; 'I' for Inactive)
REMARK    1  A    between atoms: C3'_2  and  C2'_3 
REMARK    2  A    between atoms: C2'_3  and  C1'_4 
REMARK    3  A    between atoms: C1'_4  and  C1_5 
ROOT
ATOM      1  C1  N4B d   1       1.345   2.548   0.845  0.00  0.00    -0.075 A 
ATOM      2  C2  N4B d   1       2.664   2.684   1.328  0.00  0.00     0.002 A 
ATOM      3  C3  N4B d   1       3.681   1.952   0.765  0.00  0.00     0.002 A 
ATOM      4  C4  N4B d   1       3.400   1.068  -0.265  0.00  0.00    -0.004 A 
ATOM      5  C5  N4B d   1       2.126   0.961  -0.744  0.00  0.00     0.002 A 
ATOM      6  C6  N4B d   1       1.096   1.694  -0.190  0.00  0.00     0.002 A 
ENDROOT
BRANCH   1   7
ATOM      7  C1' N4B d   1       0.186   3.263   1.486  0.00  0.00     0.057 C 
BRANCH   7   8
ATOM      8  C2' N4B d   1      -0.517   2.313   2.450  0.00  0.00     0.009 C 
BRANCH   8   9
ATOM      9  C3' N4B d   1       0.418   1.232   2.966  0.00  0.00     0.004 C 
ATOM     10  C4' N4B d   1      -0.027  -0.149   2.588  0.00  0.00     0.003 C 
ENDBRANCH   8   9
ENDBRANCH   7   8
ENDBRANCH   1   7
TORSDOF 3
ENDMDL
