MODEL 1
REMARK minimizedAffinity 8.13021755
REMARK minimizedRMSD -1
REMARK  3 active torsions:
REMARK  status: ('A' for Active; 'I' for Inactive)
REMARK    1  A    between atoms: C3'_2  and  C2'_3 
REMARK    2  A    between atoms: C2'_3  and  C1'_4 
REMARK    3  A    between atoms: C1'_4  and  C1_5 
ROOT
ATOM      1  C1  N4B d   1       1.750   0.750   0.181  0.00  0.00    -0.075 A 
ATOM      2  C2  N4B d   1       2.983   1.436   0.248  0.00  0.00     0.002 A 
ATOM      3  C3  N4B d   1       3.130   2.502   1.102  0.00  0.00     0.002 A 
ATOM      4  C4  N4B d   1       2.057   2.909   1.881  0.00  0.00    -0.004 A 
ATOM      5  C5  N4B d   1       0.878   2.225   1.829  0.00  0.00     0.002 A 
ATOM      6  C6  N4B d   1       0.717   1.150   0.978  0.00  0.00     0.002 A 
ENDROOT
BRANCH   1   7
ATOM      7  C1' N4B d   1       1.515  -0.366  -0.800  0.00  0.00     0.057 C 
BRANCH   7   8
ATOM      8  C2' N4B d   1       1.286   0.226  -2.187  0.00  0.00     0.009 C 
BRANCH   8   9
ATOM      9  C3' N4B d   1       0.396  -0.659  -3.043  0.00  0.00     0.004 C 
ATOM     10  C4' N4B d   1       1.136  -1.307  -4.174  0.00  0.00     0.003 C 
ENDBRANCH   8   9
ENDBRANCH   7   8
ENDBRANCH   1   7
TORSDOF 3
ENDMDL
