MODEL 1
REMARK minimizedAffinity 5.07483435
REMARK minimizedRMSD -1
REMARK  3 active torsions:
REMARK  status: ('A' for Active; 'I' for Inactive)
REMARK    1  A    between atoms: C3'_2  and  C2'_3 
REMARK    2  A    between atoms: C2'_3  and  C1'_4 
REMARK    3  A    between atoms: C1'_4  and  C1_5 
ROOT
ATOM      1  C1  N4B d   1       1.477   1.153  -1.126  0.00  0.00    -0.075 A 
ATOM      2  C2  N4B d   1       0.787   1.850  -2.142  0.00  0.00     0.002 A 
ATOM      3  C3  N4B d   1       0.215   1.158  -3.182  0.00  0.00     0.002 A 
ATOM      4  C4  N4B d   1       0.336  -0.222  -3.237  0.00  0.00    -0.004 A 
ATOM      5  C5  N4B d   1       0.982  -0.890  -2.238  0.00  0.00     0.002 A 
ATOM      6  C6  N4B d   1       1.558  -0.208  -1.184  0.00  0.00     0.002 A 
ENDROOT
BRANCH   1   7
ATOM      7  C1' N4B d   1       2.191   1.872  -0.014  0.00  0.00     0.057 C 
BRANCH   7   8
ATOM      8  C2' N4B d   1       1.859   1.197   1.313  0.00  0.00     0.009 C 
BRANCH   8   9
ATOM      9  C3' N4B d   1       1.111   2.127   2.252  0.00  0.00     0.004 C 
ATOM     10  C4' N4B d   1       0.640   1.439   3.499  0.00  0.00     0.003 C 
ENDBRANCH   8   9
ENDBRANCH   7   8
ENDBRANCH   1   7
TORSDOF 3
ENDMDL
