MODEL 1
REMARK minimizedAffinity 8.47450352
REMARK minimizedRMSD -1
REMARK  3 active torsions:
REMARK  status: ('A' for Active; 'I' for Inactive)
REMARK    1  A    between atoms: C3'_2  and  C2'_3 
REMARK    2  A    between atoms: C2'_3  and  C1'_4 
REMARK    3  A    between atoms: C1'_4  and  C1_5 
ROOT
ATOM      1  C1  N4B d   1       0.754   2.347   2.050  0.00  0.00    -0.075 A 
ATOM      2  C2  N4B d   1       1.469   3.384   1.412  0.00  0.00     0.002 A 
ATOM      3  C3  N4B d   1       2.575   3.089   0.653  0.00  0.00     0.002 A 
ATOM      4  C4  N4B d   1       2.993   1.772   0.533  0.00  0.00    -0.004 A 
ATOM      5  C5  N4B d   1       2.282   0.774   1.132  0.00  0.00     0.002 A 
ATOM      6  C6  N4B d   1       1.167   1.055   1.895  0.00  0.00     0.002 A 
ENDROOT
BRANCH   1   7
ATOM      7  C1' N4B d   1      -0.410   2.629   2.960  0.00  0.00     0.057 C 
BRANCH   7   8
ATOM      8  C2' N4B d   1      -1.418   1.488   2.853  0.00  0.00     0.009 C 
BRANCH   8   9
ATOM      9  C3' N4B d   1      -2.847   1.975   3.019  0.00  0.00     0.004 C 
ATOM     10  C4' N4B d   1      -3.810   0.862   3.306  0.00  0.00     0.003 C 
ENDBRANCH   8   9
ENDBRANCH   7   8
ENDBRANCH   1   7
TORSDOF 3
ENDMDL
