MODEL 1
REMARK minimizedAffinity -1.23868024
REMARK minimizedRMSD -1
REMARK  0 active torsions:
REMARK  status: ('A' for Active; 'I' for Inactive)
ROOT
ATOM      1  C   UNL d   1       0.463   1.906  -1.647  0.00  0.00     0.077 C 
ATOM      2  C1  UNL d   1       0.077   0.695  -0.851  0.00  0.00    -0.074 A 
ATOM      3  C2  UNL d   1       0.619  -0.560  -1.144  0.00  0.00    -0.005 A 
ATOM      4  C3  UNL d   1       0.258  -1.676  -0.389  0.00  0.00     0.006 A 
ATOM      5  C4  UNL d   1      -0.647  -1.547   0.666  0.00  0.00    -0.005 A 
ATOM      6  C5  UNL d   1      -1.198  -0.299   0.974  0.00  0.00    -0.074 A 
ATOM      7  C6  UNL d   1      -2.164  -0.142   2.111  0.00  0.00     0.077 C 
ATOM      8  C7  UNL d   1      -0.825   0.818   0.215  0.00  0.00    -0.001 A 
ENDROOT
TORSDOF 0
ENDMDL
