MODEL 1
REMARK minimizedAffinity -4.78414583
REMARK minimizedRMSD -1
REMARK  0 active torsions:
REMARK  status: ('A' for Active; 'I' for Inactive)
ROOT
ATOM      1  C   UNL d   1      -0.057  -2.330   0.495  0.00  0.00     0.077 C 
ATOM      2  C1  UNL d   1       0.139  -1.065  -0.287  0.00  0.00    -0.074 A 
ATOM      3  C2  UNL d   1      -0.773  -0.009  -0.185  0.00  0.00    -0.005 A 
ATOM      4  C3  UNL d   1      -0.573   1.165  -0.911  0.00  0.00     0.006 A 
ATOM      5  C4  UNL d   1       0.538   1.295  -1.745  0.00  0.00    -0.005 A 
ATOM      6  C5  UNL d   1       1.461   0.250  -1.859  0.00  0.00    -0.074 A 
ATOM      7  C6  UNL d   1       2.665   0.376  -2.744  0.00  0.00     0.077 C 
ATOM      8  C7  UNL d   1       1.256  -0.924  -1.121  0.00  0.00    -0.001 A 
ENDROOT
TORSDOF 0
ENDMDL
