MODEL 1
REMARK minimizedAffinity -0.849210858
REMARK minimizedRMSD -1
REMARK  0 active torsions:
REMARK  status: ('A' for Active; 'I' for Inactive)
ROOT
ATOM      1  C   UNL d   1       1.465  -1.469  -0.743  0.00  0.00     0.077 C 
ATOM      2  C1  UNL d   1       0.436  -0.435  -0.395  0.00  0.00    -0.074 A 
ATOM      3  C2  UNL d   1       0.277   0.713  -1.178  0.00  0.00    -0.005 A 
ATOM      4  C3  UNL d   1      -0.691   1.661  -0.848  0.00  0.00     0.006 A 
ATOM      5  C4  UNL d   1      -1.508   1.472   0.267  0.00  0.00    -0.005 A 
ATOM      6  C5  UNL d   1      -1.364   0.330   1.062  0.00  0.00    -0.074 A 
ATOM      7  C6  UNL d   1      -2.241   0.107   2.258  0.00  0.00     0.077 C 
ATOM      8  C7  UNL d   1      -0.394  -0.621   0.719  0.00  0.00    -0.001 A 
ENDROOT
TORSDOF 0
ENDMDL
