MODEL 1
REMARK minimizedAffinity -4.80837727
REMARK minimizedRMSD -1
REMARK  0 active torsions:
REMARK  status: ('A' for Active; 'I' for Inactive)
ROOT
ATOM      1  C   UNL d   1      -1.227  -0.093   0.914  0.00  0.00     0.077 C 
ATOM      2  C1  UNL d   1      -0.155  -0.121  -0.134  0.00  0.00    -0.074 A 
ATOM      3  C2  UNL d   1       0.645  -1.255  -0.314  0.00  0.00    -0.005 A 
ATOM      4  C3  UNL d   1       1.632  -1.269  -1.299  0.00  0.00     0.006 A 
ATOM      5  C4  UNL d   1       1.830  -0.152  -2.112  0.00  0.00    -0.005 A 
ATOM      6  C5  UNL d   1       1.040   0.989  -1.947  0.00  0.00    -0.074 A 
ATOM      7  C6  UNL d   1       1.233   2.195  -2.819  0.00  0.00     0.077 C 
ATOM      8  C7  UNL d   1       0.045   0.994  -0.960  0.00  0.00    -0.001 A 
ENDROOT
TORSDOF 0
ENDMDL
