MODEL 1
REMARK minimizedAffinity -2.74030423
REMARK minimizedRMSD -1
REMARK  0 active torsions:
REMARK  status: ('A' for Active; 'I' for Inactive)
ROOT
ATOM      1  C   UNL d   1      -1.293   0.166   1.031  0.00  0.00     0.077 C 
ATOM      2  C1  UNL d   1      -0.190  -0.155   0.067  0.00  0.00    -0.074 A 
ATOM      3  C2  UNL d   1       0.487  -1.378   0.131  0.00  0.00    -0.005 A 
ATOM      4  C3  UNL d   1       1.504  -1.667  -0.778  0.00  0.00     0.006 A 
ATOM      5  C4  UNL d   1       1.855  -0.738  -1.758  0.00  0.00    -0.005 A 
ATOM      6  C5  UNL d   1       1.189   0.489  -1.838  0.00  0.00    -0.074 A 
ATOM      7  C6  UNL d   1       1.547   1.495  -2.892  0.00  0.00     0.077 C 
ATOM      8  C7  UNL d   1       0.163   0.769  -0.926  0.00  0.00    -0.001 A 
ENDROOT
TORSDOF 0
ENDMDL
