MODEL 1
REMARK minimizedAffinity 0.202152327
REMARK minimizedRMSD -1
REMARK  0 active torsions:
REMARK  status: ('A' for Active; 'I' for Inactive)
ROOT
ATOM      1  C   UNL d   1      -0.955   0.479   0.871  0.00  0.00     0.077 C 
ATOM      2  C1  UNL d   1       0.001  -0.293   0.011  0.00  0.00    -0.074 A 
ATOM      3  C2  UNL d   1       0.273  -1.641   0.269  0.00  0.00    -0.005 A 
ATOM      4  C3  UNL d   1       1.156  -2.348  -0.545  0.00  0.00     0.006 A 
ATOM      5  C4  UNL d   1       1.777  -1.717  -1.624  0.00  0.00    -0.005 A 
ATOM      6  C5  UNL d   1       1.517  -0.371  -1.898  0.00  0.00    -0.074 A 
ATOM      7  C6  UNL d   1       2.167   0.320  -3.059  0.00  0.00     0.077 C 
ATOM      8  C7  UNL d   1       0.622   0.332  -1.079  0.00  0.00    -0.001 A 
ENDROOT
TORSDOF 0
ENDMDL
