MODEL 1
REMARK minimizedAffinity -1.34129107
REMARK minimizedRMSD -1
REMARK  0 active torsions:
REMARK  status: ('A' for Active; 'I' for Inactive)
ROOT
ATOM      1  C   UNL d   1      -1.149   0.547   0.967  0.00  0.00     0.077 C 
ATOM      2  C1  UNL d   1      -0.078  -0.008   0.076  0.00  0.00    -0.074 A 
ATOM      3  C2  UNL d   1       0.479  -1.267   0.319  0.00  0.00    -0.005 A 
ATOM      4  C3  UNL d   1       1.467  -1.774  -0.524  0.00  0.00     0.006 A 
ATOM      5  C4  UNL d   1       1.908  -1.028  -1.618  0.00  0.00    -0.005 A 
ATOM      6  C5  UNL d   1       1.362   0.233  -1.878  0.00  0.00    -0.074 A 
ATOM      7  C6  UNL d   1       1.817   1.044  -3.055  0.00  0.00     0.077 C 
ATOM      8  C7  UNL d   1       0.364   0.732  -1.030  0.00  0.00    -0.001 A 
ENDROOT
TORSDOF 0
ENDMDL
