MODEL 1
REMARK minimizedAffinity -4.16594267
REMARK minimizedRMSD -1
REMARK  0 active torsions:
REMARK  status: ('A' for Active; 'I' for Inactive)
ROOT
ATOM      1  C   UNL d   1      -1.264   0.559   0.897  0.00  0.00     0.077 C 
ATOM      2  C1  UNL d   1      -0.172   0.111  -0.029  0.00  0.00    -0.074 A 
ATOM      3  C2  UNL d   1       0.483  -1.109   0.168  0.00  0.00    -0.005 A 
ATOM      4  C3  UNL d   1       1.489  -1.516  -0.707  0.00  0.00     0.006 A 
ATOM      5  C4  UNL d   1       1.851  -0.709  -1.787  0.00  0.00    -0.005 A 
ATOM      6  C5  UNL d   1       1.206   0.513  -2.001  0.00  0.00    -0.074 A 
ATOM      7  C6  UNL d   1       1.575   1.387  -3.162  0.00  0.00     0.077 C 
ATOM      8  C7  UNL d   1       0.191   0.912  -1.121  0.00  0.00    -0.001 A 
ENDROOT
TORSDOF 0
ENDMDL
