MODEL 1
REMARK minimizedAffinity -3.61615014
REMARK minimizedRMSD -1
REMARK  0 active torsions:
REMARK  status: ('A' for Active; 'I' for Inactive)
ROOT
ATOM      1  C   UNL d   1      -1.171   0.721   3.983  0.00  0.00     0.077 C 
ATOM      2  C1  UNL d   1      -1.309   0.642   2.491  0.00  0.00    -0.074 A 
ATOM      3  C2  UNL d   1      -2.253   1.421   1.814  0.00  0.00    -0.005 A 
ATOM      4  C3  UNL d   1      -2.363   1.343   0.426  0.00  0.00     0.006 A 
ATOM      5  C4  UNL d   1      -1.532   0.488  -0.298  0.00  0.00    -0.005 A 
ATOM      6  C5  UNL d   1      -0.581  -0.297   0.361  0.00  0.00    -0.074 A 
ATOM      7  C6  UNL d   1       0.327  -1.214  -0.403  0.00  0.00     0.077 C 
ATOM      8  C7  UNL d   1      -0.472  -0.209   1.756  0.00  0.00    -0.001 A 
ENDROOT
TORSDOF 0
ENDMDL
