MODEL 1
REMARK minimizedAffinity -2.80347085
REMARK minimizedRMSD -1
REMARK  0 active torsions:
REMARK  status: ('A' for Active; 'I' for Inactive)
ROOT
ATOM      1  C   UNL d   1      -0.781   1.507   0.247  0.00  0.00     0.077 C 
ATOM      2  C1  UNL d   1       0.102   1.138  -0.908  0.00  0.00    -0.074 A 
ATOM      3  C2  UNL d   1       0.409   2.070  -1.905  0.00  0.00    -0.005 A 
ATOM      4  C3  UNL d   1       1.239   1.716  -2.968  0.00  0.00     0.006 A 
ATOM      5  C4  UNL d   1       1.771   0.428  -3.045  0.00  0.00    -0.005 A 
ATOM      6  C5  UNL d   1       1.476  -0.517  -2.057  0.00  0.00    -0.074 A 
ATOM      7  C6  UNL d   1       2.047  -1.903  -2.120  0.00  0.00     0.077 C 
ATOM      8  C7  UNL d   1       0.647  -0.151  -0.988  0.00  0.00    -0.001 A 
ENDROOT
TORSDOF 0
ENDMDL
