MODEL 1
REMARK minimizedAffinity -4.03802109
REMARK minimizedRMSD -1
REMARK  0 active torsions:
REMARK  status: ('A' for Active; 'I' for Inactive)
ROOT
ATOM      1  C   UNL d   1       1.130   1.258  -3.032  0.00  0.00     0.077 C 
ATOM      2  C1  UNL d   1       1.128   0.273  -1.901  0.00  0.00    -0.074 A 
ATOM      3  C2  UNL d   1       1.711  -0.990  -2.048  0.00  0.00    -0.005 A 
ATOM      4  C3  UNL d   1       1.710  -1.892  -0.984  0.00  0.00     0.006 A 
ATOM      5  C4  UNL d   1       1.127  -1.542   0.234  0.00  0.00    -0.005 A 
ATOM      6  C5  UNL d   1       0.540  -0.284   0.399  0.00  0.00    -0.074 A 
ATOM      7  C6  UNL d   1      -0.083   0.112   1.705  0.00  0.00     0.077 C 
ATOM      8  C7  UNL d   1       0.551   0.620  -0.672  0.00  0.00    -0.001 A 
ENDROOT
TORSDOF 0
ENDMDL
