MODEL 1
REMARK minimizedAffinity -4.57292414
REMARK minimizedRMSD -1
REMARK  0 active torsions:
REMARK  status: ('A' for Active; 'I' for Inactive)
ROOT
ATOM      1  C   UNL d   1      -2.304   0.339   1.300  0.00  0.00     0.077 C 
ATOM      2  C1  UNL d   1      -1.220   0.452   0.271  0.00  0.00    -0.074 A 
ATOM      3  C2  UNL d   1      -1.175   1.537  -0.610  0.00  0.00    -0.005 A 
ATOM      4  C3  UNL d   1      -0.155   1.634  -1.556  0.00  0.00     0.006 A 
ATOM      5  C4  UNL d   1       0.830   0.648  -1.630  0.00  0.00    -0.005 A 
ATOM      6  C5  UNL d   1       0.803  -0.444  -0.757  0.00  0.00    -0.074 A 
ATOM      7  C6  UNL d   1       1.859  -1.507  -0.817  0.00  0.00     0.077 C 
ATOM      8  C7  UNL d   1      -0.222  -0.530   0.195  0.00  0.00    -0.001 A 
ENDROOT
TORSDOF 0
ENDMDL
