MODEL 1
REMARK minimizedAffinity -3.33255768
REMARK minimizedRMSD -1
REMARK  0 active torsions:
REMARK  status: ('A' for Active; 'I' for Inactive)
ROOT
ATOM      1  C   UNL d   1       1.852   0.822  -2.957  0.00  0.00     0.077 C 
ATOM      2  C1  UNL d   1       1.448  -0.005  -1.772  0.00  0.00    -0.074 A 
ATOM      3  C2  UNL d   1       2.197  -1.121  -1.385  0.00  0.00    -0.005 A 
ATOM      4  C3  UNL d   1       1.813  -1.874  -0.275  0.00  0.00     0.006 A 
ATOM      5  C4  UNL d   1       0.679  -1.520   0.456  0.00  0.00    -0.005 A 
ATOM      6  C5  UNL d   1      -0.082  -0.408   0.084  0.00  0.00    -0.074 A 
ATOM      7  C6  UNL d   1      -1.298  -0.008   0.865  0.00  0.00     0.077 C 
ATOM      8  C7  UNL d   1       0.314   0.349  -1.028  0.00  0.00    -0.001 A 
ENDROOT
TORSDOF 0
ENDMDL
