MODEL 1
REMARK minimizedAffinity -4.85862303
REMARK minimizedRMSD -1
REMARK  3 active torsions:
REMARK  status: ('A' for Active; 'I' for Inactive)
REMARK    1  A    between atoms: C3'_2  and  C2'_3 
REMARK    2  A    between atoms: C2'_3  and  C1'_4 
REMARK    3  A    between atoms: C1'_4  and  C1_5 
ROOT
ATOM      1  C1  N4B d   1       0.013   0.161  -0.440  0.00  0.00    -0.075 A 
ATOM      2  C2  N4B d   1       1.121   0.592   0.322  0.00  0.00     0.002 A 
ATOM      3  C3  N4B d   1       1.114   1.838   0.900  0.00  0.00     0.002 A 
ATOM      4  C4  N4B d   1       0.023   2.674   0.715  0.00  0.00    -0.004 A 
ATOM      5  C5  N4B d   1      -1.054   2.240  -0.002  0.00  0.00     0.002 A 
ATOM      6  C6  N4B d   1      -1.062   0.989  -0.585  0.00  0.00     0.002 A 
ENDROOT
BRANCH   1   7
ATOM      7  C1' N4B d   1       0.011  -1.158  -1.162  0.00  0.00     0.057 C 
BRANCH   7   8
ATOM      8  C2' N4B d   1      -0.319  -2.271  -0.172  0.00  0.00     0.009 C 
BRANCH   8   9
ATOM      9  C3' N4B d   1      -0.950  -3.472  -0.856  0.00  0.00     0.004 C 
ATOM     10  C4' N4B d   1      -0.741  -3.471  -2.340  0.00  0.00     0.003 C 
ENDBRANCH   8   9
ENDBRANCH   7   8
ENDBRANCH   1   7
TORSDOF 3
ENDMDL
