MODEL 1
REMARK minimizedAffinity -4.15581894
REMARK minimizedRMSD -1
REMARK  3 active torsions:
REMARK  status: ('A' for Active; 'I' for Inactive)
REMARK    1  A    between atoms: C3'_2  and  C2'_3 
REMARK    2  A    between atoms: C2'_3  and  C1'_4 
REMARK    3  A    between atoms: C1'_4  and  C1_5 
ROOT
ATOM      1  C1  N4B d   1      -0.164   0.029  -0.126  0.00  0.00    -0.075 A 
ATOM      2  C2  N4B d   1      -1.285   0.439  -0.881  0.00  0.00     0.002 A 
ATOM      3  C3  N4B d   1      -1.765   1.720  -0.756  0.00  0.00     0.002 A 
ATOM      4  C4  N4B d   1      -1.155   2.598   0.126  0.00  0.00    -0.004 A 
ATOM      5  C5  N4B d   1      -0.057   2.202   0.832  0.00  0.00     0.002 A 
ATOM      6  C6  N4B d   1       0.439   0.920   0.714  0.00  0.00     0.002 A 
ENDROOT
BRANCH   1   7
ATOM      7  C1' N4B d   1       0.345  -1.386  -0.165  0.00  0.00     0.057 C 
BRANCH   7   8
ATOM      8  C2' N4B d   1      -0.623  -2.244  -0.974  0.00  0.00     0.009 C 
BRANCH   8   9
ATOM      9  C3' N4B d   1      -0.055  -2.612  -2.334  0.00  0.00     0.004 C 
ATOM     10  C4' N4B d   1      -0.700  -1.856  -3.457  0.00  0.00     0.003 C 
ENDBRANCH   8   9
ENDBRANCH   7   8
ENDBRANCH   1   7
TORSDOF 3
ENDMDL
