MODEL 1
REMARK minimizedAffinity -3.82547951
REMARK minimizedRMSD -1
REMARK  3 active torsions:
REMARK  status: ('A' for Active; 'I' for Inactive)
REMARK    1  A    between atoms: C3'_2  and  C2'_3 
REMARK    2  A    between atoms: C2'_3  and  C1'_4 
REMARK    3  A    between atoms: C1'_4  and  C1_5 
ROOT
ATOM      1  C1  N4B d   1       0.136  -0.084   0.051  0.00  0.00    -0.075 A 
ATOM      2  C2  N4B d   1       1.129   0.752   0.608  0.00  0.00     0.002 A 
ATOM      3  C3  N4B d   1       0.836   2.059   0.911  0.00  0.00     0.002 A 
ATOM      4  C4  N4B d   1      -0.432   2.556   0.651  0.00  0.00    -0.004 A 
ATOM      5  C5  N4B d   1      -1.393   1.736   0.136  0.00  0.00     0.002 A 
ATOM      6  C6  N4B d   1      -1.114   0.419  -0.170  0.00  0.00     0.002 A 
ENDROOT
BRANCH   1   7
ATOM      7  C1' N4B d   1       0.433  -1.495  -0.376  0.00  0.00     0.057 C 
BRANCH   7   8
ATOM      8  C2' N4B d   1      -0.732  -2.395   0.024  0.00  0.00     0.009 C 
BRANCH   8   9
ATOM      9  C3' N4B d   1      -1.068  -3.406  -1.059  0.00  0.00     0.004 C 
ATOM     10  C4' N4B d   1      -0.164  -3.301  -2.251  0.00  0.00     0.003 C 
ENDBRANCH   8   9
ENDBRANCH   7   8
ENDBRANCH   1   7
TORSDOF 3
ENDMDL
