MODEL 1
REMARK minimizedAffinity -2.31250572
REMARK minimizedRMSD -1
REMARK  3 active torsions:
REMARK  status: ('A' for Active; 'I' for Inactive)
REMARK    1  A    between atoms: C3'_2  and  C2'_3 
REMARK    2  A    between atoms: C2'_3  and  C1'_4 
REMARK    3  A    between atoms: C1'_4  and  C1_5 
ROOT
ATOM      1  C1  N4B d   1      -1.043  -1.489  -1.177  0.00  0.00    -0.075 A 
ATOM      2  C2  N4B d   1      -1.954  -0.428  -1.371  0.00  0.00     0.002 A 
ATOM      3  C3  N4B d   1      -1.874   0.698  -0.588  0.00  0.00     0.002 A 
ATOM      4  C4  N4B d   1      -0.906   0.777   0.402  0.00  0.00    -0.004 A 
ATOM      5  C5  N4B d   1      -0.013  -0.241   0.565  0.00  0.00     0.002 A 
ATOM      6  C6  N4B d   1      -0.080  -1.377  -0.216  0.00  0.00     0.002 A 
ENDROOT
BRANCH   1   7
ATOM      7  C1' N4B d   1      -1.145  -2.775  -1.950  0.00  0.00     0.057 C 
BRANCH   7   8
ATOM      8  C2' N4B d   1      -1.560  -3.897  -1.003  0.00  0.00     0.009 C 
BRANCH   8   9
ATOM      9  C3' N4B d   1      -2.896  -3.615  -0.338  0.00  0.00     0.004 C 
ATOM     10  C4' N4B d   1      -3.953  -4.610  -0.715  0.00  0.00     0.003 C 
ENDBRANCH   8   9
ENDBRANCH   7   8
ENDBRANCH   1   7
TORSDOF 3
ENDMDL
