MODEL 1
REMARK minimizedAffinity -3.63491154
REMARK minimizedRMSD -1
REMARK  3 active torsions:
REMARK  status: ('A' for Active; 'I' for Inactive)
REMARK    1  A    between atoms: C3'_2  and  C2'_3 
REMARK    2  A    between atoms: C2'_3  and  C1'_4 
REMARK    3  A    between atoms: C1'_4  and  C1_5 
ROOT
ATOM      1  C1  N4B d   1      -0.159  -1.111  -0.266  0.00  0.00    -0.075 A 
ATOM      2  C2  N4B d   1      -0.441  -0.325  -1.405  0.00  0.00     0.002 A 
ATOM      3  C3  N4B d   1      -1.042   0.901  -1.260  0.00  0.00     0.002 A 
ATOM      4  C4  N4B d   1      -1.385   1.353   0.005  0.00  0.00    -0.004 A 
ATOM      5  C5  N4B d   1      -1.086   0.598   1.102  0.00  0.00     0.002 A 
ATOM      6  C6  N4B d   1      -0.479  -0.635   0.972  0.00  0.00     0.002 A 
ENDROOT
BRANCH   1   7
ATOM      7  C1' N4B d   1       0.418  -2.496  -0.380  0.00  0.00     0.057 C 
BRANCH   7   8
ATOM      8  C2' N4B d   1       0.504  -2.883  -1.853  0.00  0.00     0.009 C 
BRANCH   8   9
ATOM      9  C3' N4B d   1      -0.453  -4.009  -2.202  0.00  0.00     0.004 C 
ATOM     10  C4' N4B d   1      -1.764  -3.901  -1.483  0.00  0.00     0.003 C 
ENDBRANCH   8   9
ENDBRANCH   7   8
ENDBRANCH   1   7
TORSDOF 3
ENDMDL
