MODEL 1
REMARK minimizedAffinity -4.6312356
REMARK minimizedRMSD -1
REMARK  3 active torsions:
REMARK  status: ('A' for Active; 'I' for Inactive)
REMARK    1  A    between atoms: C3'_2  and  C2'_3 
REMARK    2  A    between atoms: C2'_3  and  C1'_4 
REMARK    3  A    between atoms: C1'_4  and  C1_5 
ROOT
ATOM      1  C1  N4B d   1      -0.279  -1.631  -0.488  0.00  0.00    -0.075 A 
ATOM      2  C2  N4B d   1      -0.882  -1.208  -1.692  0.00  0.00     0.002 A 
ATOM      3  C3  N4B d   1      -1.069  -2.102  -2.718  0.00  0.00     0.002 A 
ATOM      4  C4  N4B d   1      -0.646  -3.414  -2.570  0.00  0.00    -0.004 A 
ATOM      5  C5  N4B d   1      -0.087  -3.821  -1.394  0.00  0.00     0.002 A 
ATOM      6  C6  N4B d   1       0.103  -2.935  -0.353  0.00  0.00     0.002 A 
ENDROOT
BRANCH   1   7
ATOM      7  C1' N4B d   1       0.024  -0.671   0.630  0.00  0.00     0.057 C 
BRANCH   7   8
ATOM      8  C2' N4B d   1      -1.266   0.023   1.057  0.00  0.00     0.009 C 
BRANCH   8   9
ATOM      9  C3' N4B d   1      -1.309   1.473   0.604  0.00  0.00     0.004 C 
ATOM     10  C4' N4B d   1      -0.250   2.315   1.252  0.00  0.00     0.003 C 
ENDBRANCH   8   9
ENDBRANCH   7   8
ENDBRANCH   1   7
TORSDOF 3
ENDMDL
