MODEL 1
REMARK minimizedAffinity -1.89644587
REMARK minimizedRMSD -1
REMARK  3 active torsions:
REMARK  status: ('A' for Active; 'I' for Inactive)
REMARK    1  A    between atoms: C3'_2  and  C2'_3 
REMARK    2  A    between atoms: C2'_3  and  C1'_4 
REMARK    3  A    between atoms: C1'_4  and  C1_5 
ROOT
ATOM      1  C1  N4B d   1      -0.172   0.176   0.649  0.00  0.00    -0.075 A 
ATOM      2  C2  N4B d   1       0.753   1.191   0.977  0.00  0.00     0.002 A 
ATOM      3  C3  N4B d   1       0.312   2.467   1.227  0.00  0.00     0.002 A 
ATOM      4  C4  N4B d   1      -1.042   2.755   1.137  0.00  0.00    -0.004 A 
ATOM      5  C5  N4B d   1      -1.932   1.763   0.845  0.00  0.00     0.002 A 
ATOM      6  C6  N4B d   1      -1.503   0.475   0.595  0.00  0.00     0.002 A 
ENDROOT
BRANCH   1   7
ATOM      7  C1' N4B d   1       0.271  -1.215   0.284  0.00  0.00     0.057 C 
BRANCH   7   8
ATOM      8  C2' N4B d   1      -0.262  -1.562  -1.103  0.00  0.00     0.009 C 
BRANCH   8   9
ATOM      9  C3' N4B d   1      -0.782  -2.987  -1.171  0.00  0.00     0.004 C 
ATOM     10  C4' N4B d   1      -0.711  -3.566  -2.553  0.00  0.00     0.003 C 
ENDBRANCH   8   9
ENDBRANCH   7   8
ENDBRANCH   1   7
TORSDOF 3
ENDMDL
