MODEL 1
REMARK minimizedAffinity -2.47673249
REMARK minimizedRMSD -1
REMARK  3 active torsions:
REMARK  status: ('A' for Active; 'I' for Inactive)
REMARK    1  A    between atoms: C3'_2  and  C2'_3 
REMARK    2  A    between atoms: C2'_3  and  C1'_4 
REMARK    3  A    between atoms: C1'_4  and  C1_5 
ROOT
ATOM      1  C1  N4B d   1      -0.367  -1.486  -0.671  0.00  0.00    -0.075 A 
ATOM      2  C2  N4B d   1      -1.237  -0.499  -1.186  0.00  0.00     0.002 A 
ATOM      3  C3  N4B d   1      -1.415   0.681  -0.508  0.00  0.00     0.002 A 
ATOM      4  C4  N4B d   1      -0.751   0.890   0.692  0.00  0.00    -0.004 A 
ATOM      5  C5  N4B d   1       0.107  -0.057   1.170  0.00  0.00     0.002 A 
ATOM      6  C6  N4B d   1       0.298  -1.247   0.497  0.00  0.00     0.002 A 
ENDROOT
BRANCH   1   7
ATOM      7  C1' N4B d   1      -0.207  -2.827  -1.332  0.00  0.00     0.057 C 
BRANCH   7   8
ATOM      8  C2' N4B d   1      -1.207  -3.807  -0.726  0.00  0.00     0.009 C 
BRANCH   8   9
ATOM      9  C3' N4B d   1      -2.416  -4.013  -1.623  0.00  0.00     0.004 C 
ATOM     10  C4' N4B d   1      -3.529  -4.748  -0.938  0.00  0.00     0.003 C 
ENDBRANCH   8   9
ENDBRANCH   7   8
ENDBRANCH   1   7
TORSDOF 3
ENDMDL
