MODEL 1
REMARK minimizedAffinity -1.90637147
REMARK minimizedRMSD -1
REMARK  3 active torsions:
REMARK  status: ('A' for Active; 'I' for Inactive)
REMARK    1  A    between atoms: C3'_2  and  C2'_3 
REMARK    2  A    between atoms: C2'_3  and  C1'_4 
REMARK    3  A    between atoms: C1'_4  and  C1_5 
ROOT
ATOM      1  C1  N4B d   1      -0.104  -2.244   0.092  0.00  0.00    -0.075 A 
ATOM      2  C2  N4B d   1       1.233  -2.146   0.536  0.00  0.00     0.002 A 
ATOM      3  C3  N4B d   1       1.780  -0.915   0.802  0.00  0.00     0.002 A 
ATOM      4  C4  N4B d   1       1.019   0.229   0.613  0.00  0.00    -0.004 A 
ATOM      5  C5  N4B d   1      -0.279   0.125   0.208  0.00  0.00     0.002 A 
ATOM      6  C6  N4B d   1      -0.843  -1.107  -0.059  0.00  0.00     0.002 A 
ENDROOT
BRANCH   1   7
ATOM      7  C1' N4B d   1      -0.718  -3.562  -0.293  0.00  0.00     0.057 C 
BRANCH   7   8
ATOM      8  C2' N4B d   1      -0.080  -4.052  -1.589  0.00  0.00     0.009 C 
BRANCH   8   9
ATOM      9  C3' N4B d   1      -0.761  -3.468  -2.815  0.00  0.00     0.004 C 
ATOM     10  C4' N4B d   1      -2.250  -3.650  -2.795  0.00  0.00     0.003 C 
ENDBRANCH   8   9
ENDBRANCH   7   8
ENDBRANCH   1   7
TORSDOF 3
ENDMDL
