MODEL 1
REMARK minimizedAffinity 11.6760216
REMARK minimizedRMSD -1
REMARK  0 active torsions:
REMARK  status: ('A' for Active; 'I' for Inactive)
ROOT
ATOM      1  N1  IND d   1      -6.000   4.867   1.539  0.00  0.00    -0.196 N 
ATOM      2  C2  IND d   1      -5.049   5.552   2.243  0.00  0.00     0.054 A 
ATOM      3  C3  IND d   1      -3.895   4.850   2.281  0.00  0.00    -0.031 A 
ATOM      4  C4  IND d   1      -3.311   2.602   1.170  0.00  0.00     0.051 A 
ATOM      5  C5  IND d   1      -3.864   1.579   0.453  0.00  0.00    -0.031 A 
ATOM      6  C6  IND d   1      -5.184   1.601   0.051  0.00  0.00     0.015 A 
ATOM      7  C7  IND d   1      -6.000   2.657   0.342  0.00  0.00    -0.016 A 
ATOM      8  C8  IND d   1      -5.443   3.695   1.076  0.00  0.00    -0.047 A 
ATOM      9  C9  IND d   1      -4.116   3.659   1.524  0.00  0.00    -0.096 A 
ATOM     10  HN1 IND d   1      -6.809   5.125   1.407  0.00  0.00     0.298 HD
ENDROOT
TORSDOF 0
ENDMDL
