MODEL 1
REMARK minimizedAffinity 10.773984
REMARK minimizedRMSD -1
REMARK  0 active torsions:
REMARK  status: ('A' for Active; 'I' for Inactive)
ROOT
ATOM      1  N1  IND d   1       4.903  -1.495   2.491  0.00  0.00    -0.196 N 
ATOM      2  C2  IND d   1       5.998  -2.309   2.578  0.00  0.00     0.054 A 
ATOM      3  C3  IND d   1       5.985  -2.992   3.745  0.00  0.00    -0.031 A 
ATOM      4  C4  IND d   1       4.212  -3.006   5.612  0.00  0.00     0.051 A 
ATOM      5  C5  IND d   1       3.052  -2.398   6.000  0.00  0.00    -0.031 A 
ATOM      6  C6  IND d   1       2.434  -1.440   5.221  0.00  0.00     0.015 A 
ATOM      7  C7  IND d   1       2.952  -1.062   4.014  0.00  0.00    -0.016 A 
ATOM      8  C8  IND d   1       4.134  -1.672   3.621  0.00  0.00    -0.047 A 
ATOM      9  C9  IND d   1       4.788  -2.613   4.427  0.00  0.00    -0.096 A 
ATOM     10  HN1 IND d   1       4.725  -0.962   1.841  0.00  0.00     0.298 HD
ENDROOT
TORSDOF 0
ENDMDL
