MODEL 1
REMARK minimizedAffinity 13.532362
REMARK minimizedRMSD -1
REMARK  0 active torsions:
REMARK  status: ('A' for Active; 'I' for Inactive)
ROOT
ATOM      1  N1  IND d   1      -4.793   4.113  -4.883  0.00  0.00    -0.196 N 
ATOM      2  C2  IND d   1      -4.123   5.043  -5.628  0.00  0.00     0.054 A 
ATOM      3  C3  IND d   1      -2.914   4.566  -6.000  0.00  0.00    -0.031 A 
ATOM      4  C4  IND d   1      -1.871   2.250  -5.583  0.00  0.00     0.051 A 
ATOM      5  C5  IND d   1      -2.088   1.074  -4.920  0.00  0.00    -0.031 A 
ATOM      6  C6  IND d   1      -3.242   0.846  -4.199  0.00  0.00     0.015 A 
ATOM      7  C7  IND d   1      -4.232   1.785  -4.123  0.00  0.00    -0.016 A 
ATOM      8  C8  IND d   1      -4.012   2.982  -4.788  0.00  0.00    -0.047 A 
ATOM      9  C9  IND d   1      -2.824   3.236  -5.487  0.00  0.00    -0.096 A 
ATOM     10  HN1 IND d   1      -5.571   4.217  -4.532  0.00  0.00     0.298 HD
ENDROOT
TORSDOF 0
ENDMDL
