MODEL 1
REMARK minimizedAffinity 11.935133
REMARK minimizedRMSD -1
REMARK  0 active torsions:
REMARK  status: ('A' for Active; 'I' for Inactive)
ROOT
ATOM      1  N1  IND d   1       0.839  -2.922  -1.750  0.00  0.00    -0.196 N 
ATOM      2  C2  IND d   1      -0.344  -3.395  -2.246  0.00  0.00     0.054 A 
ATOM      3  C3  IND d   1      -0.608  -4.622  -1.743  0.00  0.00    -0.031 A 
ATOM      4  C4  IND d   1       0.712  -5.999  -0.014  0.00  0.00     0.051 A 
ATOM      5  C5  IND d   1       1.877  -5.999   0.700  0.00  0.00    -0.031 A 
ATOM      6  C6  IND d   1       2.772  -4.951   0.635  0.00  0.00     0.015 A 
ATOM      7  C7  IND d   1       2.529  -3.854  -0.141  0.00  0.00    -0.016 A 
ATOM      8  C8  IND d   1       1.351  -3.854  -0.874  0.00  0.00    -0.047 A 
ATOM      9  C9  IND d   1       0.458  -4.933  -0.845  0.00  0.00    -0.096 A 
ATOM     10  HN1 IND d   1       1.202  -2.169  -1.952  0.00  0.00     0.298 HD
ENDROOT
TORSDOF 0
ENDMDL
