MODEL 1
REMARK minimizedAffinity 13.6722212
REMARK minimizedRMSD -1
REMARK  0 active torsions:
REMARK  status: ('A' for Active; 'I' for Inactive)
ROOT
ATOM      1  N1  IND d   1       2.594   4.984  -0.777  0.00  0.00    -0.196 N 
ATOM      2  C2  IND d   1       2.236   5.998  -1.621  0.00  0.00     0.054 A 
ATOM      3  C3  IND d   1       0.898   6.000  -1.814  0.00  0.00    -0.031 A 
ATOM      4  C4  IND d   1      -0.908   4.494  -0.764  0.00  0.00     0.051 A 
ATOM      5  C5  IND d   1      -1.064   3.400   0.040  0.00  0.00    -0.031 A 
ATOM      6  C6  IND d   1       0.012   2.767   0.627  0.00  0.00     0.015 A 
ATOM      7  C7  IND d   1       1.290   3.214   0.440  0.00  0.00    -0.016 A 
ATOM      8  C8  IND d   1       1.453   4.320  -0.382  0.00  0.00    -0.047 A 
ATOM      9  C9  IND d   1       0.368   4.941  -1.015  0.00  0.00    -0.096 A 
ATOM     10  HN1 IND d   1       3.396   4.793  -0.534  0.00  0.00     0.298 HD
ENDROOT
TORSDOF 0
ENDMDL
