MODEL 1
REMARK minimizedAffinity 8.77181244
REMARK minimizedRMSD -1
REMARK  0 active torsions:
REMARK  status: ('A' for Active; 'I' for Inactive)
ROOT
ATOM      1  N1  IND d   1      -5.222   3.766  -5.724  0.00  0.00    -0.196 N 
ATOM      2  C2  IND d   1      -4.038   4.448  -5.752  0.00  0.00     0.054 A 
ATOM      3  C3  IND d   1      -3.134   3.854  -4.942  0.00  0.00    -0.031 A 
ATOM      4  C4  IND d   1      -3.349   1.697  -3.554  0.00  0.00     0.051 A 
ATOM      5  C5  IND d   1      -4.253   0.742  -3.180  0.00  0.00    -0.031 A 
ATOM      6  C6  IND d   1      -5.552   0.745  -3.646  0.00  0.00     0.015 A 
ATOM      7  C7  IND d   1      -5.994   1.701  -4.517  0.00  0.00    -0.016 A 
ATOM      8  C8  IND d   1      -5.081   2.676  -4.893  0.00  0.00    -0.047 A 
ATOM      9  C9  IND d   1      -3.773   2.702  -4.390  0.00  0.00    -0.096 A 
ATOM     10  HN1 IND d   1      -5.936   3.981  -6.153  0.00  0.00     0.298 HD
ENDROOT
TORSDOF 0
ENDMDL
