MODEL 1
REMARK minimizedAffinity 4.4007163
REMARK minimizedRMSD -1
REMARK  0 active torsions:
REMARK  status: ('A' for Active; 'I' for Inactive)
ROOT
ATOM      1  N1  IND d   1       1.799   2.149   1.561  0.00  0.00    -0.196 N 
ATOM      2  C2  IND d   1       0.668   1.919   0.828  0.00  0.00     0.054 A 
ATOM      3  C3  IND d   1       0.501   2.891  -0.096  0.00  0.00    -0.031 A 
ATOM      4  C4  IND d   1       2.014   4.899  -0.650  0.00  0.00     0.051 A 
ATOM      5  C5  IND d   1       3.139   5.548  -0.227  0.00  0.00    -0.031 A 
ATOM      6  C6  IND d   1       3.893   5.087   0.833  0.00  0.00     0.015 A 
ATOM      7  C7  IND d   1       3.553   3.948   1.506  0.00  0.00    -0.016 A 
ATOM      8  C8  IND d   1       2.406   3.290   1.084  0.00  0.00    -0.047 A 
ATOM      9  C9  IND d   1       1.615   3.776   0.036  0.00  0.00    -0.096 A 
ATOM     10  HN1 IND d   1       2.083   1.663   2.212  0.00  0.00     0.298 HD
ENDROOT
TORSDOF 0
ENDMDL
