MODEL 1
REMARK minimizedAffinity 12.3494072
REMARK minimizedRMSD -1
REMARK  0 active torsions:
REMARK  status: ('A' for Active; 'I' for Inactive)
ROOT
ATOM      1  N1  IND d   1       0.887   1.831   1.075  0.00  0.00    -0.196 N 
ATOM      2  C2  IND d   1       0.308   2.930   0.505  0.00  0.00     0.054 A 
ATOM      3  C3  IND d   1       0.071   2.709  -0.807  0.00  0.00    -0.031 A 
ATOM      4  C4  IND d   1       0.457   0.581  -2.204  0.00  0.00     0.051 A 
ATOM      5  C5  IND d   1       0.998  -0.672  -2.131  0.00  0.00    -0.031 A 
ATOM      6  C6  IND d   1       1.538  -1.166  -0.961  0.00  0.00     0.015 A 
ATOM      7  C7  IND d   1       1.547  -0.426   0.188  0.00  0.00    -0.016 A 
ATOM      8  C8  IND d   1       1.005   0.850   0.115  0.00  0.00    -0.047 A 
ATOM      9  C9  IND d   1       0.494   1.372  -1.080  0.00  0.00    -0.096 A 
ATOM     10  HN1 IND d   1       1.136   1.763   1.896  0.00  0.00     0.298 HD
ENDROOT
TORSDOF 0
ENDMDL
