MODEL 1
REMARK minimizedAffinity 4.97968149
REMARK minimizedRMSD -1
REMARK  0 active torsions:
REMARK  status: ('A' for Active; 'I' for Inactive)
ROOT
ATOM      1  N1  IND d   1      -2.394   4.232  -4.487  0.00  0.00    -0.196 N 
ATOM      2  C2  IND d   1      -3.001   3.788  -5.629  0.00  0.00     0.054 A 
ATOM      3  C3  IND d   1      -2.489   2.593  -6.000  0.00  0.00    -0.031 A 
ATOM      4  C4  IND d   1      -0.720   1.136  -4.827  0.00  0.00     0.051 A 
ATOM      5  C5  IND d   1       0.149   1.137  -3.772  0.00  0.00    -0.031 A 
ATOM      6  C6  IND d   1       0.215   2.190  -2.882  0.00  0.00     0.015 A 
ATOM      7  C7  IND d   1      -0.598   3.281  -3.008  0.00  0.00    -0.016 A 
ATOM      8  C8  IND d   1      -1.477   3.286  -4.082  0.00  0.00    -0.047 A 
ATOM      9  C9  IND d   1      -1.519   2.240  -5.013  0.00  0.00    -0.096 A 
ATOM     10  HN1 IND d   1      -2.557   4.976  -4.089  0.00  0.00     0.298 HD
ENDROOT
TORSDOF 0
ENDMDL
