MODEL 1
REMARK minimizedAffinity -3.11053371
REMARK minimizedRMSD -1
REMARK  1 active torsions:
REMARK  status: ('A' for Active; 'I' for Inactive)
REMARK    1  A    between atoms: C1_2  and  C2_3 
ROOT
ATOM      1  C2  UNL d   1       0.365  -1.598  -1.120  0.00  0.00    -0.077 A 
ATOM      2  C3  UNL d   1      -0.666  -1.647  -2.070  0.00  0.00     0.002 A 
ATOM      3  C4  UNL d   1      -1.070  -2.869  -2.611  0.00  0.00     0.002 A 
ATOM      4  C5  UNL d   1      -0.452  -4.051  -2.206  0.00  0.00    -0.004 A 
ATOM      5  C6  UNL d   1       0.575  -4.012  -1.264  0.00  0.00     0.002 A 
ATOM      6  C7  UNL d   1       0.981  -2.792  -0.723  0.00  0.00     0.002 A 
ENDROOT
BRANCH   1   7
ATOM      7  C1  UNL d   1       0.768  -0.287  -0.499  0.00  0.00     0.055 C 
ATOM      8  C   UNL d   1       0.416  -0.244   0.981  0.00  0.00     0.019 C 
ENDBRANCH   1   7
TORSDOF 1
ENDMDL
