MODEL 1
REMARK minimizedAffinity -3.85151148
REMARK minimizedRMSD -1
REMARK  1 active torsions:
REMARK  status: ('A' for Active; 'I' for Inactive)
REMARK    1  A    between atoms: C1_2  and  C2_3 
ROOT
ATOM      1  C2  UNL d   1       0.220  -1.600  -0.753  0.00  0.00    -0.077 A 
ATOM      2  C3  UNL d   1      -0.964  -2.351  -0.732  0.00  0.00     0.002 A 
ATOM      3  C4  UNL d   1      -0.918  -3.744  -0.813  0.00  0.00     0.002 A 
ATOM      4  C5  UNL d   1       0.309  -4.398  -0.911  0.00  0.00    -0.004 A 
ATOM      5  C6  UNL d   1       1.491  -3.660  -0.935  0.00  0.00     0.002 A 
ATOM      6  C7  UNL d   1       1.447  -2.267  -0.855  0.00  0.00     0.002 A 
ENDROOT
BRANCH   1   7
ATOM      7  C1  UNL d   1       0.175  -0.100  -0.617  0.00  0.00     0.055 C 
ATOM      8  C   UNL d   1       0.271   0.326   0.841  0.00  0.00     0.019 C 
ENDBRANCH   1   7
TORSDOF 1
ENDMDL
