MODEL 1
REMARK minimizedAffinity 8.28122425
REMARK minimizedRMSD -1
REMARK  1 active torsions:
REMARK  status: ('A' for Active; 'I' for Inactive)
REMARK    1  A    between atoms: C1_2  and  C2_3 
ROOT
ATOM      1  C2  UNL d   1       0.549   2.471   1.638  0.00  0.00    -0.077 A 
ATOM      2  C3  UNL d   1       0.628   1.895   2.914  0.00  0.00     0.002 A 
ATOM      3  C4  UNL d   1       0.540   0.511   3.071  0.00  0.00     0.002 A 
ATOM      4  C5  UNL d   1       0.377  -0.309   1.956  0.00  0.00    -0.004 A 
ATOM      5  C6  UNL d   1       0.296   0.254   0.683  0.00  0.00     0.002 A 
ATOM      6  C7  UNL d   1       0.382   1.638   0.525  0.00  0.00     0.002 A 
ENDROOT
BRANCH   1   7
ATOM      7  C1  UNL d   1       0.693   3.960   1.463  0.00  0.00     0.055 C 
ATOM      8  C   UNL d   1       0.483   4.370   0.012  0.00  0.00     0.019 C 
ENDBRANCH   1   7
TORSDOF 1
ENDMDL
