MODEL 1
REMARK minimizedAffinity -0.681255519
REMARK minimizedRMSD -1
REMARK  0 active torsions:
REMARK  status: ('A' for Active; 'I' for Inactive)
ROOT
ATOM      1  C1  BNZ d   1      -1.068   2.283  -0.561  0.00  0.00     0.000 A 
ATOM      2  C2  BNZ d   1      -1.623   3.412  -1.103  0.00  0.00     0.000 A 
ATOM      3  C3  BNZ d   1      -2.866   3.833  -0.719  0.00  0.00     0.000 A 
ATOM      4  C4  BNZ d   1      -3.566   3.106   0.175  0.00  0.00     0.000 A 
ATOM      5  C5  BNZ d   1      -3.023   1.961   0.723  0.00  0.00     0.000 A 
ATOM      6  C6  BNZ d   1      -1.757   1.561   0.363  0.00  0.00     0.000 A 
ENDROOT
TORSDOF 0
ENDMDL
