MODEL 1
REMARK minimizedAffinity -4.02874517
REMARK minimizedRMSD -1
REMARK  0 active torsions:
REMARK  status: ('A' for Active; 'I' for Inactive)
ROOT
ATOM      1  C1  BNZ d   1      -2.374   1.862   1.230  0.00  0.00     0.000 A 
ATOM      2  C2  BNZ d   1      -2.455   1.440   2.530  0.00  0.00     0.000 A 
ATOM      3  C3  BNZ d   1      -3.004   0.227   2.839  0.00  0.00     0.000 A 
ATOM      4  C4  BNZ d   1      -3.506  -0.544   1.853  0.00  0.00     0.000 A 
ATOM      5  C5  BNZ d   1      -3.440  -0.129   0.538  0.00  0.00     0.000 A 
ATOM      6  C6  BNZ d   1      -2.852   1.076   0.227  0.00  0.00     0.000 A 
ENDROOT
TORSDOF 0
ENDMDL
