MODEL 1
REMARK minimizedAffinity 2.62842441
REMARK minimizedRMSD -1
REMARK  0 active torsions:
REMARK  status: ('A' for Active; 'I' for Inactive)
ROOT
ATOM      1  C1  BNZ d   1      -1.938  -0.160   3.280  0.00  0.00     0.000 A 
ATOM      2  C2  BNZ d   1      -2.818  -0.540   4.258  0.00  0.00     0.000 A 
ATOM      3  C3  BNZ d   1      -3.931  -1.272   3.952  0.00  0.00     0.000 A 
ATOM      4  C4  BNZ d   1      -4.183  -1.589   2.666  0.00  0.00     0.000 A 
ATOM      5  C5  BNZ d   1      -3.310  -1.206   1.667  0.00  0.00     0.000 A 
ATOM      6  C6  BNZ d   1      -2.171  -0.503   1.983  0.00  0.00     0.000 A 
ENDROOT
TORSDOF 0
ENDMDL
