MODEL 1
REMARK minimizedAffinity -3.21399117
REMARK minimizedRMSD -1
REMARK  0 active torsions:
REMARK  status: ('A' for Active; 'I' for Inactive)
ROOT
ATOM      1  C1  BNZ d   1      -2.363  -0.704   0.847  0.00  0.00     0.000 A 
ATOM      2  C2  BNZ d   1      -2.366  -1.450   1.996  0.00  0.00     0.000 A 
ATOM      3  C3  BNZ d   1      -2.495  -0.852   3.218  0.00  0.00     0.000 A 
ATOM      4  C4  BNZ d   1      -2.579   0.492   3.294  0.00  0.00     0.000 A 
ATOM      5  C5  BNZ d   1      -2.568   1.258   2.146  0.00  0.00     0.000 A 
ATOM      6  C6  BNZ d   1      -2.478   0.651   0.914  0.00  0.00     0.000 A 
ENDROOT
TORSDOF 0
ENDMDL
