MODEL 1
REMARK minimizedAffinity -2.02769017
REMARK minimizedRMSD -1
REMARK  0 active torsions:
REMARK  status: ('A' for Active; 'I' for Inactive)
ROOT
ATOM      1  C1  BNZ d   1       5.277   0.003   4.194  0.00  0.00     0.000 A 
ATOM      2  C2  BNZ d   1       5.995   1.088   4.621  0.00  0.00     0.000 A 
ATOM      3  C3  BNZ d   1       5.996   2.253   3.907  0.00  0.00     0.000 A 
ATOM      4  C4  BNZ d   1       5.313   2.319   2.746  0.00  0.00     0.000 A 
ATOM      5  C5  BNZ d   1       4.591   1.231   2.296  0.00  0.00     0.000 A 
ATOM      6  C6  BNZ d   1       4.561   0.073   3.038  0.00  0.00     0.000 A 
ENDROOT
TORSDOF 0
ENDMDL
