MODEL 1
REMARK minimizedAffinity -3.22334099
REMARK minimizedRMSD -1
REMARK  0 active torsions:
REMARK  status: ('A' for Active; 'I' for Inactive)
ROOT
ATOM      1  C1  BNZ d   1       3.414   0.765   2.610  0.00  0.00     0.000 A 
ATOM      2  C2  BNZ d   1       4.385   1.604   3.089  0.00  0.00     0.000 A 
ATOM      3  C3  BNZ d   1       5.118   1.267   4.193  0.00  0.00     0.000 A 
ATOM      4  C4  BNZ d   1       4.853   0.112   4.838  0.00  0.00     0.000 A 
ATOM      5  C5  BNZ d   1       3.871  -0.739   4.372  0.00  0.00     0.000 A 
ATOM      6  C6  BNZ d   1       3.162  -0.415   3.238  0.00  0.00     0.000 A 
ENDROOT
TORSDOF 0
ENDMDL
