MODEL 1
REMARK minimizedAffinity 3.36787462
REMARK minimizedRMSD -1
REMARK  0 active torsions:
REMARK  status: ('A' for Active; 'I' for Inactive)
ROOT
ATOM      1  C1  BNZ d   1       4.507   0.555   2.306  0.00  0.00     0.000 A 
ATOM      2  C2  BNZ d   1       5.269  -0.344   3.004  0.00  0.00     0.000 A 
ATOM      3  C3  BNZ d   1       6.000   0.053   4.089  0.00  0.00     0.000 A 
ATOM      4  C4  BNZ d   1       5.999   1.352   4.450  0.00  0.00     0.000 A 
ATOM      5  C5  BNZ d   1       5.243   2.272   3.751  0.00  0.00     0.000 A 
ATOM      6  C6  BNZ d   1       4.478   1.862   2.683  0.00  0.00     0.000 A 
ENDROOT
TORSDOF 0
ENDMDL
