MODEL 1
REMARK minimizedAffinity -0.723351717
REMARK minimizedRMSD -1
REMARK  0 active torsions:
REMARK  status: ('A' for Active; 'I' for Inactive)
ROOT
ATOM      1  C1  BNZ d   1       4.825  -2.183   5.183  0.00  0.00     0.000 A 
ATOM      2  C2  BNZ d   1       5.996  -1.478   5.261  0.00  0.00     0.000 A 
ATOM      3  C3  BNZ d   1       5.999  -0.114   5.174  0.00  0.00     0.000 A 
ATOM      4  C4  BNZ d   1       4.837   0.540   4.969  0.00  0.00     0.000 A 
ATOM      5  C5  BNZ d   1       3.649  -0.158   4.879  0.00  0.00     0.000 A 
ATOM      6  C6  BNZ d   1       3.645  -1.528   5.006  0.00  0.00     0.000 A 
ENDROOT
TORSDOF 0
ENDMDL
