MODEL 1
REMARK minimizedAffinity -1.74486184
REMARK minimizedRMSD -1
REMARK  0 active torsions:
REMARK  status: ('A' for Active; 'I' for Inactive)
ROOT
ATOM      1  C1  BNZ d   1      -2.685   3.649   1.195  0.00  0.00     0.000 A 
ATOM      2  C2  BNZ d   1      -2.302   2.339   1.087  0.00  0.00     0.000 A 
ATOM      3  C3  BNZ d   1      -2.954   1.486   0.241  0.00  0.00     0.000 A 
ATOM      4  C4  BNZ d   1      -4.011   1.934  -0.466  0.00  0.00     0.000 A 
ATOM      5  C5  BNZ d   1      -4.416   3.249  -0.361  0.00  0.00     0.000 A 
ATOM      6  C6  BNZ d   1      -3.733   4.115   0.463  0.00  0.00     0.000 A 
ENDROOT
TORSDOF 0
ENDMDL
