MODEL 1
REMARK minimizedAffinity 2.1432035
REMARK minimizedRMSD -1
REMARK  0 active torsions:
REMARK  status: ('A' for Active; 'I' for Inactive)
ROOT
ATOM      1  C1  BNZ d   1       4.527   1.308   3.037  0.00  0.00     0.000 A 
ATOM      2  C2  BNZ d   1       5.279   0.428   3.770  0.00  0.00     0.000 A 
ATOM      3  C3  BNZ d   1       6.000   0.854   4.850  0.00  0.00     0.000 A 
ATOM      4  C4  BNZ d   1       6.000   2.163   5.173  0.00  0.00     0.000 A 
ATOM      5  C5  BNZ d   1       5.254   3.064   4.439  0.00  0.00     0.000 A 
ATOM      6  C6  BNZ d   1       4.499   2.626   3.375  0.00  0.00     0.000 A 
ENDROOT
TORSDOF 0
ENDMDL
