MODEL 1
REMARK minimizedAffinity 5.71478415
REMARK minimizedRMSD -1
REMARK  0 active torsions:
REMARK  status: ('A' for Active; 'I' for Inactive)
ROOT
ATOM      1  C1  BNZ d   1       5.935   0.783   4.325  0.00  0.00     0.000 A 
ATOM      2  C2  BNZ d   1       5.153   0.172   3.381  0.00  0.00     0.000 A 
ATOM      3  C3  BNZ d   1       4.439   0.910   2.479  0.00  0.00     0.000 A 
ATOM      4  C4  BNZ d   1       4.475   2.256   2.548  0.00  0.00     0.000 A 
ATOM      5  C5  BNZ d   1       5.251   2.887   3.500  0.00  0.00     0.000 A 
ATOM      6  C6  BNZ d   1       5.999   2.141   4.381  0.00  0.00     0.000 A 
ENDROOT
TORSDOF 0
ENDMDL
