MODEL 1
REMARK minimizedAffinity -2.78888893
REMARK minimizedRMSD -1
REMARK  0 active torsions:
REMARK  status: ('A' for Active; 'I' for Inactive)
ROOT
ATOM      1  C1  BNZ d   1       5.509   0.508   4.188  0.00  0.00     0.000 A 
ATOM      2  C2  BNZ d   1       4.988   0.672   2.933  0.00  0.00     0.000 A 
ATOM      3  C3  BNZ d   1       3.821   0.058   2.573  0.00  0.00     0.000 A 
ATOM      4  C4  BNZ d   1       3.198  -0.751   3.455  0.00  0.00     0.000 A 
ATOM      5  C5  BNZ d   1       3.716  -0.934   4.722  0.00  0.00     0.000 A 
ATOM      6  C6  BNZ d   1       4.870  -0.283   5.093  0.00  0.00     0.000 A 
ENDROOT
TORSDOF 0
ENDMDL
