MODEL 1
REMARK minimizedAffinity 0.223184928
REMARK minimizedRMSD -1
REMARK  0 active torsions:
REMARK  status: ('A' for Active; 'I' for Inactive)
ROOT
ATOM      1  C1  BNZ d   1      -2.129   5.044   0.420  0.00  0.00     0.000 A 
ATOM      2  C2  BNZ d   1      -1.556   3.838   0.115  0.00  0.00     0.000 A 
ATOM      3  C3  BNZ d   1      -2.316   2.706   0.022  0.00  0.00     0.000 A 
ATOM      4  C4  BNZ d   1      -3.639   2.773   0.272  0.00  0.00     0.000 A 
ATOM      5  C5  BNZ d   1      -4.230   3.979   0.589  0.00  0.00     0.000 A 
ATOM      6  C6  BNZ d   1      -3.469   5.124   0.644  0.00  0.00     0.000 A 
ENDROOT
TORSDOF 0
ENDMDL
