MODEL 1
REMARK minimizedAffinity -0.88192445
REMARK minimizedRMSD -1
REMARK  0 active torsions:
REMARK  status: ('A' for Active; 'I' for Inactive)
ROOT
ATOM      1  C1  BNZ d   1       5.395   1.139   4.468  0.00  0.00     0.000 A 
ATOM      2  C2  BNZ d   1       5.056   2.241   3.730  0.00  0.00     0.000 A 
ATOM      3  C3  BNZ d   1       4.067   2.176   2.788  0.00  0.00     0.000 A 
ATOM      4  C4  BNZ d   1       3.447   1.000   2.559  0.00  0.00     0.000 A 
ATOM      5  C5  BNZ d   1       3.784  -0.122   3.289  0.00  0.00     0.000 A 
ATOM      6  C6  BNZ d   1       4.753  -0.043   4.262  0.00  0.00     0.000 A 
ENDROOT
TORSDOF 0
ENDMDL
