MODEL 1
REMARK minimizedAffinity -2.30415773
REMARK minimizedRMSD -1
REMARK  0 active torsions:
REMARK  status: ('A' for Active; 'I' for Inactive)
ROOT
ATOM      1  C1  BNZ d   1       3.869   0.475   2.429  0.00  0.00     0.000 A 
ATOM      2  C2  BNZ d   1       4.765   1.129   3.232  0.00  0.00     0.000 A 
ATOM      3  C3  BNZ d   1       5.170   0.583   4.418  0.00  0.00     0.000 A 
ATOM      4  C4  BNZ d   1       4.650  -0.595   4.818  0.00  0.00     0.000 A 
ATOM      5  C5  BNZ d   1       3.738  -1.262   4.024  0.00  0.00     0.000 A 
ATOM      6  C6  BNZ d   1       3.362  -0.728   2.813  0.00  0.00     0.000 A 
ENDROOT
TORSDOF 0
ENDMDL
