MODEL 1
REMARK minimizedAffinity 0.296623498
REMARK minimizedRMSD -1
REMARK  0 active torsions:
REMARK  status: ('A' for Active; 'I' for Inactive)
ROOT
ATOM      1  C1  BNZ d   1       5.072   1.819   3.036  0.00  0.00     0.000 A 
ATOM      2  C2  BNZ d   1       6.000   1.779   4.043  0.00  0.00     0.000 A 
ATOM      3  C3  BNZ d   1       6.000   0.761   4.955  0.00  0.00     0.000 A 
ATOM      4  C4  BNZ d   1       5.049  -0.193   4.884  0.00  0.00     0.000 A 
ATOM      5  C5  BNZ d   1       4.102  -0.162   3.880  0.00  0.00     0.000 A 
ATOM      6  C6  BNZ d   1       4.129   0.843   2.941  0.00  0.00     0.000 A 
ENDROOT
TORSDOF 0
ENDMDL
