MODEL 1
REMARK minimizedAffinity -6.30480957
REMARK minimizedRMSD -1
REMARK  1 active torsions:
REMARK  status: ('A' for Active; 'I' for Inactive)
REMARK    1  A    between atoms: C1_2  and  C2_3 
ROOT
ATOM      1  C2  UNL d   1      -0.217  -0.312   0.307  0.00  0.00    -0.076 A 
ATOM      2  C3  UNL d   1       0.938   0.038   1.028  0.00  0.00     0.004 A 
ATOM      3  C4  UNL d   1       0.877   0.940   2.089  0.00  0.00    -0.003 A 
ATOM      4  C5  UNL d   1      -0.341   1.507   2.447  0.00  0.00     0.000 A 
ATOM      5  C6  UNL d   1      -1.501   1.158   1.754  0.00  0.00     0.000 A 
ATOM      6  C7  UNL d   1      -1.459   0.238   0.693  0.00  0.00    -0.073 A 
ATOM      7  C8  UNL d   1      -2.739  -0.097  -0.023  0.00  0.00     0.078 C 
ENDROOT
BRANCH   1   8
ATOM      8  C1  UNL d   1      -0.085  -1.275  -0.851  0.00  0.00     0.053 C 
ATOM      9  C   UNL d   1       0.804  -0.733  -1.960  0.00  0.00     0.018 C 
ENDBRANCH   1   8
TORSDOF 1
ENDMDL
