MODEL 1
REMARK minimizedAffinity -0.752585411
REMARK minimizedRMSD -1
REMARK  1 active torsions:
REMARK  status: ('A' for Active; 'I' for Inactive)
REMARK    1  A    between atoms: C1_2  and  C2_3 
ROOT
ATOM      1  C2  UNL d   1       0.808  -0.238   1.276  0.00  0.00    -0.076 A 
ATOM      2  C3  UNL d   1       1.673  -1.331   1.101  0.00  0.00     0.004 A 
ATOM      3  C4  UNL d   1       2.969  -1.310   1.614  0.00  0.00    -0.003 A 
ATOM      4  C5  UNL d   1       3.421  -0.195   2.310  0.00  0.00     0.000 A 
ATOM      5  C6  UNL d   1       2.570   0.892   2.509  0.00  0.00     0.000 A 
ATOM      6  C7  UNL d   1       1.255   0.880   2.012  0.00  0.00    -0.073 A 
ATOM      7  C8  UNL d   1       0.383   2.082   2.250  0.00  0.00     0.078 C 
ENDROOT
BRANCH   1   8
ATOM      8  C1  UNL d   1      -0.577  -0.307   0.674  0.00  0.00     0.053 C 
ATOM      9  C   UNL d   1      -0.603   0.134  -0.781  0.00  0.00     0.018 C 
ENDBRANCH   1   8
TORSDOF 1
ENDMDL
