MODEL 1
REMARK minimizedAffinity -1.43446088
REMARK minimizedRMSD -1
REMARK  1 active torsions:
REMARK  status: ('A' for Active; 'I' for Inactive)
REMARK    1  A    between atoms: C1_2  and  C2_3 
ROOT
ATOM      1  C2  UNL d   1       0.081   0.035  -0.098  0.00  0.00    -0.076 A 
ATOM      2  C3  UNL d   1      -1.209   0.580  -0.227  0.00  0.00     0.004 A 
ATOM      3  C4  UNL d   1      -1.988   0.852   0.896  0.00  0.00    -0.003 A 
ATOM      4  C5  UNL d   1      -1.490   0.586   2.167  0.00  0.00     0.000 A 
ATOM      5  C6  UNL d   1      -0.206   0.063   2.314  0.00  0.00     0.000 A 
ATOM      6  C7  UNL d   1       0.599  -0.203   1.193  0.00  0.00    -0.073 A 
ATOM      7  C8  UNL d   1       1.974  -0.773   1.410  0.00  0.00     0.078 C 
ENDROOT
BRANCH   1   8
ATOM      8  C1  UNL d   1       0.869  -0.265  -1.352  0.00  0.00     0.053 C 
ATOM      9  C   UNL d   1       0.548   0.696  -2.486  0.00  0.00     0.018 C 
ENDBRANCH   1   8
TORSDOF 1
ENDMDL
