MODEL 1
REMARK minimizedAffinity 3.25595713
REMARK minimizedRMSD -1
REMARK  0 active torsions:
REMARK  status: ('A' for Active; 'I' for Inactive)
ROOT
ATOM      1  C1  DEN d   1       0.060  -2.723   4.200  0.00  0.00     0.130 A 
ATOM      2  C2  DEN d   1       1.424  -2.395   4.605  0.00  0.00    -0.031 A 
ATOM      3  C3  DEN d   1       1.871  -1.236   3.806  0.00  0.00     0.027 A 
ATOM      4  C4  DEN d   1       0.588   0.079   1.996  0.00  0.00     0.027 A 
ATOM      5  C5  DEN d   1      -0.597   0.165   1.299  0.00  0.00    -0.003 A 
ATOM      6  C6  DEN d   1      -1.625  -0.718   1.495  0.00  0.00     0.001 A 
ATOM      7  C7  DEN d   1      -1.505  -1.701   2.442  0.00  0.00     0.017 A 
ATOM      8  C8  DEN d   1      -0.310  -1.799   3.143  0.00  0.00    -0.094 A 
ATOM      9  C9  DEN d   1       0.713  -0.888   2.939  0.00  0.00    -0.072 A 
ENDROOT
TORSDOF 0
ENDMDL
