MODEL 1
REMARK minimizedAffinity -2.79837799
REMARK minimizedRMSD -1
REMARK  0 active torsions:
REMARK  status: ('A' for Active; 'I' for Inactive)
ROOT
ATOM      1  C1  DEN d   1      -0.593  -2.419   4.401  0.00  0.00     0.130 A 
ATOM      2  C2  DEN d   1       0.755  -2.749   4.857  0.00  0.00    -0.031 A 
ATOM      3  C3  DEN d   1       1.714  -1.979   4.040  0.00  0.00     0.027 A 
ATOM      4  C4  DEN d   1       1.247  -0.314   2.126  0.00  0.00     0.027 A 
ATOM      5  C5  DEN d   1       0.259   0.281   1.373  0.00  0.00    -0.003 A 
ATOM      6  C6  DEN d   1      -1.068  -0.005   1.552  0.00  0.00     0.001 A 
ATOM      7  C7  DEN d   1      -1.448  -0.877   2.537  0.00  0.00     0.017 A 
ATOM      8  C8  DEN d   1      -0.458  -1.487   3.296  0.00  0.00    -0.094 A 
ATOM      9  C9  DEN d   1       0.878  -1.175   3.108  0.00  0.00    -0.072 A 
ENDROOT
TORSDOF 0
ENDMDL
