MODEL 1
REMARK minimizedAffinity 0.819249034
REMARK minimizedRMSD -1
REMARK  0 active torsions:
REMARK  status: ('A' for Active; 'I' for Inactive)
ROOT
ATOM      1  C1  DEN d   1      -1.916  -0.922   2.738  0.00  0.00     0.130 A 
ATOM      2  C2  DEN d   1      -1.893  -0.176   1.483  0.00  0.00    -0.031 A 
ATOM      3  C3  DEN d   1      -0.484  -0.014   1.073  0.00  0.00     0.027 A 
ATOM      4  C4  DEN d   1       1.654  -0.847   2.252  0.00  0.00     0.027 A 
ATOM      5  C5  DEN d   1       2.141  -1.518   3.352  0.00  0.00    -0.003 A 
ATOM      6  C6  DEN d   1       1.319  -2.003   4.334  0.00  0.00     0.001 A 
ATOM      7  C7  DEN d   1      -0.039  -1.865   4.212  0.00  0.00     0.017 A 
ATOM      8  C8  DEN d   1      -0.536  -1.183   3.109  0.00  0.00    -0.094 A 
ATOM      9  C9  DEN d   1       0.310  -0.710   2.122  0.00  0.00    -0.072 A 
ENDROOT
TORSDOF 0
ENDMDL
