MODEL 1
REMARK minimizedAffinity 5.22581053
REMARK minimizedRMSD -1
REMARK  0 active torsions:
REMARK  status: ('A' for Active; 'I' for Inactive)
ROOT
ATOM      1  C1  DEN d   1      -1.913  -0.996   2.852  0.00  0.00     0.130 A 
ATOM      2  C2  DEN d   1      -1.638   0.214   2.082  0.00  0.00    -0.031 A 
ATOM      3  C3  DEN d   1      -0.173   0.370   1.985  0.00  0.00     0.027 A 
ATOM      4  C4  DEN d   1       1.686  -1.139   2.943  0.00  0.00     0.027 A 
ATOM      5  C5  DEN d   1       1.942  -2.275   3.679  0.00  0.00    -0.003 A 
ATOM      6  C6  DEN d   1       0.940  -3.039   4.216  0.00  0.00     0.001 A 
ATOM      7  C7  DEN d   1      -0.368  -2.701   3.985  0.00  0.00     0.017 A 
ATOM      8  C8  DEN d   1      -0.634  -1.554   3.250  0.00  0.00    -0.094 A 
ATOM      9  C9  DEN d   1       0.394  -0.801   2.706  0.00  0.00    -0.072 A 
ENDROOT
TORSDOF 0
ENDMDL
