MODEL 1
REMARK minimizedAffinity 4.33391285
REMARK minimizedRMSD -1
REMARK  0 active torsions:
REMARK  status: ('A' for Active; 'I' for Inactive)
ROOT
ATOM      1  C1  DEN d   1       0.237  -2.892   3.992  0.00  0.00     0.130 A 
ATOM      2  C2  DEN d   1       1.547  -2.263   4.130  0.00  0.00    -0.031 A 
ATOM      3  C3  DEN d   1       1.492  -0.942   3.471  0.00  0.00     0.027 A 
ATOM      4  C4  DEN d   1      -0.487   0.184   2.260  0.00  0.00     0.027 A 
ATOM      5  C5  DEN d   1      -1.801   0.033   1.876  0.00  0.00    -0.003 A 
ATOM      6  C6  DEN d   1      -2.512  -1.108   2.138  0.00  0.00     0.001 A 
ATOM      7  C7  DEN d   1      -1.926  -2.126   2.843  0.00  0.00     0.017 A 
ATOM      8  C8  DEN d   1      -0.599  -1.984   3.227  0.00  0.00    -0.094 A 
ATOM      9  C9  DEN d   1       0.099  -0.817   2.964  0.00  0.00    -0.072 A 
ENDROOT
TORSDOF 0
ENDMDL
