MODEL 1
REMARK minimizedAffinity 1.0267539
REMARK minimizedRMSD -1
REMARK  0 active torsions:
REMARK  status: ('A' for Active; 'I' for Inactive)
ROOT
ATOM      1  C1  DEN d   1       0.869  -2.275   4.166  0.00  0.00     0.130 A 
ATOM      2  C2  DEN d   1       1.812  -1.280   3.664  0.00  0.00    -0.031 A 
ATOM      3  C3  DEN d   1       1.069  -0.345   2.795  0.00  0.00     0.027 A 
ATOM      4  C4  DEN d   1      -1.437  -0.339   2.185  0.00  0.00     0.027 A 
ATOM      5  C5  DEN d   1      -2.636  -0.994   2.360  0.00  0.00    -0.003 A 
ATOM      6  C6  DEN d   1      -2.744  -2.131   3.115  0.00  0.00     0.001 A 
ATOM      7  C7  DEN d   1      -1.641  -2.624   3.761  0.00  0.00     0.017 A 
ATOM      8  C8  DEN d   1      -0.426  -1.974   3.584  0.00  0.00    -0.094 A 
ATOM      9  C9  DEN d   1      -0.341  -0.818   2.826  0.00  0.00    -0.072 A 
ENDROOT
TORSDOF 0
ENDMDL
