MODEL 1
REMARK minimizedAffinity 8.01378918
REMARK minimizedRMSD -1
REMARK  0 active torsions:
REMARK  status: ('A' for Active; 'I' for Inactive)
ROOT
ATOM      1  C1  DEN d   1      -0.786  -5.979  -4.773  0.00  0.00     0.130 A 
ATOM      2  C2  DEN d   1       0.007  -6.000  -5.999  0.00  0.00    -0.031 A 
ATOM      3  C3  DEN d   1       1.295  -5.334  -5.721  0.00  0.00     0.027 A 
ATOM      4  C4  DEN d   1       2.138  -4.283  -3.522  0.00  0.00     0.027 A 
ATOM      5  C5  DEN d   1       1.814  -4.013  -2.210  0.00  0.00    -0.003 A 
ATOM      6  C6  DEN d   1       0.598  -4.346  -1.675  0.00  0.00     0.001 A 
ATOM      7  C7  DEN d   1      -0.323  -5.010  -2.443  0.00  0.00     0.017 A 
ATOM      8  C8  DEN d   1      -0.006  -5.279  -3.768  0.00  0.00    -0.094 A 
ATOM      9  C9  DEN d   1       1.233  -4.945  -4.287  0.00  0.00    -0.072 A 
ENDROOT
TORSDOF 0
ENDMDL
