MODEL 1
REMARK minimizedAffinity 8.68813229
REMARK minimizedRMSD -1
REMARK  0 active torsions:
REMARK  status: ('A' for Active; 'I' for Inactive)
ROOT
ATOM      1  C1  DEN d   1      -1.879  -0.362   2.589  0.00  0.00     0.130 A 
ATOM      2  C2  DEN d   1      -1.851   0.507   1.416  0.00  0.00    -0.031 A 
ATOM      3  C3  DEN d   1      -0.446   0.649   0.986  0.00  0.00     0.027 A 
ATOM      4  C4  DEN d   1       1.678  -0.393   2.013  0.00  0.00     0.027 A 
ATOM      5  C5  DEN d   1       2.159  -1.194   3.026  0.00  0.00    -0.003 A 
ATOM      6  C6  DEN d   1       1.338  -1.742   3.975  0.00  0.00     0.001 A 
ATOM      7  C7  DEN d   1      -0.014  -1.533   3.906  0.00  0.00     0.017 A 
ATOM      8  C8  DEN d   1      -0.505  -0.720   2.893  0.00  0.00    -0.094 A 
ATOM      9  C9  DEN d   1       0.340  -0.185   1.935  0.00  0.00    -0.072 A 
ENDROOT
TORSDOF 0
ENDMDL
