MODEL 1
REMARK minimizedAffinity -2.12372422
REMARK minimizedRMSD -1
REMARK  0 active torsions:
REMARK  status: ('A' for Active; 'I' for Inactive)
ROOT
ATOM      1  C1  DEN d   1       0.765   0.432   3.017  0.00  0.00     0.130 A 
ATOM      2  C2  DEN d   1      -0.206  -0.257   2.171  0.00  0.00    -0.031 A 
ATOM      3  C3  DEN d   1      -0.125  -1.702   2.466  0.00  0.00     0.027 A 
ATOM      4  C4  DEN d   1       1.399  -2.931   4.145  0.00  0.00     0.027 A 
ATOM      5  C5  DEN d   1       2.397  -2.772   5.080  0.00  0.00    -0.003 A 
ATOM      6  C6  DEN d   1       2.940  -1.547   5.367  0.00  0.00     0.001 A 
ATOM      7  C7  DEN d   1       2.456  -0.427   4.744  0.00  0.00     0.017 A 
ATOM      8  C8  DEN d   1       1.455  -0.581   3.794  0.00  0.00    -0.094 A 
ATOM      9  C9  DEN d   1       0.911  -1.826   3.527  0.00  0.00    -0.072 A 
ENDROOT
TORSDOF 0
ENDMDL
