MODEL 1
REMARK minimizedAffinity 2.33836341
REMARK minimizedRMSD -1
REMARK  0 active torsions:
REMARK  status: ('A' for Active; 'I' for Inactive)
ROOT
ATOM      1  C1  DEN d   1       1.805  -0.415   1.974  0.00  0.00     0.130 A 
ATOM      2  C2  DEN d   1       1.747  -1.431   3.022  0.00  0.00    -0.031 A 
ATOM      3  C3  DEN d   1       2.645  -1.010   4.116  0.00  0.00     0.027 A 
ATOM      4  C4  DEN d   1       4.109   1.107   4.289  0.00  0.00     0.027 A 
ATOM      5  C5  DEN d   1       4.498   2.259   3.642  0.00  0.00    -0.003 A 
ATOM      6  C6  DEN d   1       4.047   2.580   2.389  0.00  0.00     0.001 A 
ATOM      7  C7  DEN d   1       3.144   1.762   1.762  0.00  0.00     0.017 A 
ATOM      8  C8  DEN d   1       2.753   0.596   2.406  0.00  0.00    -0.094 A 
ATOM      9  C9  DEN d   1       3.210   0.295   3.677  0.00  0.00    -0.072 A 
ENDROOT
TORSDOF 0
ENDMDL
