MODEL 1
REMARK minimizedAffinity 4.89691019
REMARK minimizedRMSD -1
REMARK  0 active torsions:
REMARK  status: ('A' for Active; 'I' for Inactive)
ROOT
ATOM      1  C   UNL d   1      -0.025   1.912   2.262  0.00  0.00     0.078 C 
ATOM      2  C1  UNL d   1      -0.012   2.501   0.883  0.00  0.00    -0.077 A 
ATOM      3  C2  UNL d   1       1.112   3.181   0.400  0.00  0.00    -0.001 A 
ATOM      4  C3  UNL d   1       1.107   3.732  -0.882  0.00  0.00     0.003 A 
ATOM      5  C4  UNL d   1      -0.022   3.611  -1.691  0.00  0.00    -0.005 A 
ATOM      6  C5  UNL d   1      -1.146   2.938  -1.218  0.00  0.00     0.003 A 
ATOM      7  C6  UNL d   1      -1.142   2.386   0.064  0.00  0.00    -0.001 A 
ENDROOT
TORSDOF 0
ENDMDL
