MODEL 1
REMARK minimizedAffinity 6.68332005
REMARK minimizedRMSD -1
REMARK  0 active torsions:
REMARK  status: ('A' for Active; 'I' for Inactive)
ROOT
ATOM      1  C   UNL d   1       1.107   3.412  -1.400  0.00  0.00     0.078 C 
ATOM      2  C1  UNL d   1       0.463   2.986  -0.115  0.00  0.00    -0.077 A 
ATOM      3  C2  UNL d   1      -0.873   3.301   0.162  0.00  0.00    -0.001 A 
ATOM      4  C3  UNL d   1      -1.457   2.906   1.367  0.00  0.00     0.003 A 
ATOM      5  C4  UNL d   1      -0.711   2.195   2.305  0.00  0.00    -0.005 A 
ATOM      6  C5  UNL d   1       0.620   1.879   2.040  0.00  0.00     0.003 A 
ATOM      7  C6  UNL d   1       1.205   2.273   0.835  0.00  0.00    -0.001 A 
ENDROOT
TORSDOF 0
ENDMDL
