MODEL 1
REMARK minimizedAffinity 7.33273077
REMARK minimizedRMSD -1
REMARK  0 active torsions:
REMARK  status: ('A' for Active; 'I' for Inactive)
ROOT
ATOM      1  C   UNL d   1       1.176   1.597   2.367  0.00  0.00     0.078 C 
ATOM      2  C1  UNL d   1       0.315   2.004   1.209  0.00  0.00    -0.077 A 
ATOM      3  C2  UNL d   1       0.616   1.588  -0.094  0.00  0.00    -0.001 A 
ATOM      4  C3  UNL d   1      -0.189   1.982  -1.164  0.00  0.00     0.003 A 
ATOM      5  C4  UNL d   1      -1.300   2.795  -0.942  0.00  0.00    -0.005 A 
ATOM      6  C5  UNL d   1      -1.605   3.215   0.350  0.00  0.00     0.003 A 
ATOM      7  C6  UNL d   1      -0.801   2.822   1.422  0.00  0.00    -0.001 A 
ENDROOT
TORSDOF 0
ENDMDL
