MODEL 1
REMARK minimizedAffinity 10.1488552
REMARK minimizedRMSD -1
REMARK  0 active torsions:
REMARK  status: ('A' for Active; 'I' for Inactive)
ROOT
ATOM      1  C   UNL d   1       0.298   3.718  -1.947  0.00  0.00     0.078 C 
ATOM      2  C1  UNL d   1      -0.174   3.159  -0.639  0.00  0.00    -0.077 A 
ATOM      3  C2  UNL d   1      -1.248   3.739   0.048  0.00  0.00    -0.001 A 
ATOM      4  C3  UNL d   1      -1.671   3.214   1.270  0.00  0.00     0.003 A 
ATOM      5  C4  UNL d   1      -1.025   2.107   1.817  0.00  0.00    -0.005 A 
ATOM      6  C5  UNL d   1       0.045   1.524   1.142  0.00  0.00     0.003 A 
ATOM      7  C6  UNL d   1       0.470   2.048  -0.080  0.00  0.00    -0.001 A 
ENDROOT
TORSDOF 0
ENDMDL
