MODEL 1
REMARK minimizedAffinity 10.7219162
REMARK minimizedRMSD -1
REMARK  0 active torsions:
REMARK  status: ('A' for Active; 'I' for Inactive)
ROOT
ATOM      1  C   UNL d   1      -2.310   5.582   1.214  0.00  0.00     0.078 C 
ATOM      2  C1  UNL d   1      -1.511   4.579   0.438  0.00  0.00    -0.077 A 
ATOM      3  C2  UNL d   1      -1.476   4.612  -0.962  0.00  0.00    -0.001 A 
ATOM      4  C3  UNL d   1      -0.735   3.665  -1.671  0.00  0.00     0.003 A 
ATOM      5  C4  UNL d   1      -0.025   2.678  -0.991  0.00  0.00    -0.005 A 
ATOM      6  C5  UNL d   1      -0.055   2.636   0.402  0.00  0.00     0.003 A 
ATOM      7  C6  UNL d   1      -0.796   3.582   1.113  0.00  0.00    -0.001 A 
ENDROOT
TORSDOF 0
ENDMDL
