MODEL 1
REMARK minimizedAffinity 8.08594131
REMARK minimizedRMSD -1
REMARK  0 active torsions:
REMARK  status: ('A' for Active; 'I' for Inactive)
ROOT
ATOM      1  C   UNL d   1       1.491  -5.999  -1.812  0.00  0.00     0.078 C 
ATOM      2  C1  UNL d   1       0.765  -4.723  -2.119  0.00  0.00    -0.077 A 
ATOM      3  C2  UNL d   1       0.947  -3.582  -1.328  0.00  0.00    -0.001 A 
ATOM      4  C3  UNL d   1       0.258  -2.404  -1.621  0.00  0.00     0.003 A 
ATOM      5  C4  UNL d   1      -0.618  -2.356  -2.703  0.00  0.00    -0.005 A 
ATOM      6  C5  UNL d   1      -0.807  -3.487  -3.495  0.00  0.00     0.003 A 
ATOM      7  C6  UNL d   1      -0.119  -4.666  -3.204  0.00  0.00    -0.001 A 
ENDROOT
TORSDOF 0
ENDMDL
