MODEL 1
REMARK minimizedAffinity -3.94687343
REMARK minimizedRMSD -1
REMARK  1 active torsions:
REMARK  status: ('A' for Active; 'I' for Inactive)
REMARK    1  A    between atoms: N_2  and  C1_3 
ROOT
ATOM      1  C1  UNL d   1      -2.736  -0.795   1.118  0.00  0.00     0.143 A 
ATOM      2  C2  UNL d   1      -3.379  -0.008   2.079  0.00  0.00    -0.057 A 
ATOM      3  C3  UNL d   1      -2.673   0.937   2.834  0.00  0.00     0.033 A 
ATOM      4  C4  UNL d   1      -1.302   1.090   2.662  0.00  0.00    -0.042 A 
ATOM      5  C5  UNL d   1      -0.637   0.300   1.730  0.00  0.00     0.033 A 
ATOM      6  C6  UNL d   1      -1.348  -0.636   0.974  0.00  0.00    -0.057 A 
ENDROOT
BRANCH   1   7
ATOM      7  N   UNL d   1      -3.363  -1.819   0.405  0.00  0.00    -0.732 N 
ATOM      8  C   UNL d   1      -2.858  -3.174   0.462  0.00  0.00     0.284 C 
ATOM      9  H3  UNL d   1      -4.378  -1.752   0.440  0.00  0.00     0.395 HD
ENDBRANCH   1   7
TORSDOF 1
ENDMDL
