MODEL 1
REMARK minimizedAffinity 2.52487826
REMARK minimizedRMSD -1
REMARK  1 active torsions:
REMARK  status: ('A' for Active; 'I' for Inactive)
REMARK    1  A    between atoms: N_2  and  C1_3 
ROOT
ATOM      1  C1  UNL d   1      -2.667   0.387   2.199  0.00  0.00     0.143 A 
ATOM      2  C2  UNL d   1      -3.363   0.414   0.985  0.00  0.00    -0.057 A 
ATOM      3  C3  UNL d   1      -4.713   0.781   0.930  0.00  0.00     0.033 A 
ATOM      4  C4  UNL d   1      -5.401   1.101   2.095  0.00  0.00    -0.042 A 
ATOM      5  C5  UNL d   1      -4.736   1.058   3.316  0.00  0.00     0.033 A 
ATOM      6  C6  UNL d   1      -3.387   0.697   3.364  0.00  0.00    -0.057 A 
ENDROOT
BRANCH   1   7
ATOM      7  N   UNL d   1      -1.352  -0.064   2.332  0.00  0.00    -0.732 N 
ATOM      8  C   UNL d   1      -1.050  -1.231   3.133  0.00  0.00     0.284 C 
ATOM      9  H3  UNL d   1      -0.834  -0.015   1.457  0.00  0.00     0.395 HD
ENDBRANCH   1   7
TORSDOF 1
ENDMDL
