MODEL 1
REMARK minimizedAffinity 5.84946775
REMARK minimizedRMSD -1
REMARK  1 active torsions:
REMARK  status: ('A' for Active; 'I' for Inactive)
REMARK    1  A    between atoms: N_2  and  C1_3 
ROOT
ATOM      1  C1  UNL d   1      -3.115   0.899   0.997  0.00  0.00     0.143 A 
ATOM      2  C2  UNL d   1      -1.847   0.352   1.219  0.00  0.00    -0.057 A 
ATOM      3  C3  UNL d   1      -0.833   1.096   1.835  0.00  0.00     0.033 A 
ATOM      4  C4  UNL d   1      -1.062   2.414   2.215  0.00  0.00    -0.042 A 
ATOM      5  C5  UNL d   1      -2.307   2.986   1.981  0.00  0.00     0.033 A 
ATOM      6  C6  UNL d   1      -3.318   2.236   1.372  0.00  0.00    -0.057 A 
ENDROOT
BRANCH   1   7
ATOM      7  N   UNL d   1      -4.134   0.244   0.301  0.00  0.00    -0.732 N 
ATOM      8  C   UNL d   1      -4.227  -1.201   0.317  0.00  0.00     0.284 C 
ATOM      9  H3  UNL d   1      -5.030   0.719   0.385  0.00  0.00     0.395 HD
ENDBRANCH   1   7
TORSDOF 1
ENDMDL
