MODEL 1
REMARK minimizedAffinity 3.13701892
REMARK minimizedRMSD -1
REMARK  1 active torsions:
REMARK  status: ('A' for Active; 'I' for Inactive)
REMARK    1  A    between atoms: N_2  and  C1_3 
ROOT
ATOM      1  C1  UNL d   1      -1.575   0.434   2.607  0.00  0.00     0.143 A 
ATOM      2  C2  UNL d   1      -2.732   0.567   3.382  0.00  0.00    -0.057 A 
ATOM      3  C3  UNL d   1      -4.006   0.442   2.814  0.00  0.00     0.033 A 
ATOM      4  C4  UNL d   1      -4.145   0.210   1.450  0.00  0.00    -0.042 A 
ATOM      5  C5  UNL d   1      -3.010   0.099   0.655  0.00  0.00     0.033 A 
ATOM      6  C6  UNL d   1      -1.741   0.218   1.230  0.00  0.00    -0.057 A 
ENDROOT
BRANCH   1   7
ATOM      7  N   UNL d   1      -0.284   0.646   3.094  0.00  0.00    -0.732 N 
ATOM      8  C   UNL d   1       0.581  -0.474   3.401  0.00  0.00     0.284 C 
ATOM      9  H3  UNL d   1       0.186   1.418   2.628  0.00  0.00     0.395 HD
ENDBRANCH   1   7
TORSDOF 1
ENDMDL
