MODEL 1
REMARK minimizedAffinity 5.66386938
REMARK minimizedRMSD -1
REMARK  1 active torsions:
REMARK  status: ('A' for Active; 'I' for Inactive)
REMARK    1  A    between atoms: N_2  and  C1_3 
ROOT
ATOM      1  C1  UNL d   1      -3.335  -3.165  -5.999  0.00  0.00     0.143 A 
ATOM      2  C2  UNL d   1      -4.468  -3.986  -5.983  0.00  0.00    -0.057 A 
ATOM      3  C3  UNL d   1      -5.758  -3.442  -5.992  0.00  0.00     0.033 A 
ATOM      4  C4  UNL d   1      -5.938  -2.063  -5.987  0.00  0.00    -0.042 A 
ATOM      5  C5  UNL d   1      -4.826  -1.228  -5.978  0.00  0.00     0.033 A 
ATOM      6  C6  UNL d   1      -3.541  -1.777  -5.976  0.00  0.00    -0.057 A 
ENDROOT
BRANCH   1   7
ATOM      7  N   UNL d   1      -2.026  -3.644  -5.891  0.00  0.00    -0.732 N 
ATOM      8  C   UNL d   1      -0.900  -2.741  -5.999  0.00  0.00     0.284 C 
ATOM      9  H3  UNL d   1      -1.928  -4.346  -5.162  0.00  0.00     0.395 HD
ENDBRANCH   1   7
TORSDOF 1
ENDMDL
