MODEL 1
REMARK minimizedAffinity -1.32636487
REMARK minimizedRMSD -1
REMARK  1 active torsions:
REMARK  status: ('A' for Active; 'I' for Inactive)
REMARK    1  A    between atoms: N_2  and  C1_3 
ROOT
ATOM      1  C1  UNL d   1      -4.034   0.911   3.641  0.00  0.00     0.143 A 
ATOM      2  C2  UNL d   1      -4.602   0.881   2.363  0.00  0.00    -0.057 A 
ATOM      3  C3  UNL d   1      -3.802   0.843   1.214  0.00  0.00     0.033 A 
ATOM      4  C4  UNL d   1      -2.416   0.864   1.324  0.00  0.00    -0.042 A 
ATOM      5  C5  UNL d   1      -1.830   0.918   2.583  0.00  0.00     0.033 A 
ATOM      6  C6  UNL d   1      -2.634   0.949   3.727  0.00  0.00    -0.057 A 
ENDROOT
BRANCH   1   7
ATOM      7  N   UNL d   1      -4.775   1.049   4.818  0.00  0.00    -0.732 N 
ATOM      8  C   UNL d   1      -4.554   0.158   5.936  0.00  0.00     0.284 C 
ATOM      9  H3  UNL d   1      -4.907   2.023   5.082  0.00  0.00     0.395 HD
ENDBRANCH   1   7
TORSDOF 1
ENDMDL
