MODEL 1
REMARK minimizedAffinity 9.7512064
REMARK minimizedRMSD -1
REMARK  1 active torsions:
REMARK  status: ('A' for Active; 'I' for Inactive)
REMARK    1  A    between atoms: N_2  and  C1_3 
ROOT
ATOM      1  C1  UNL d   1      -4.327   0.474   3.503  0.00  0.00     0.143 A 
ATOM      2  C2  UNL d   1      -4.028  -0.258   4.657  0.00  0.00    -0.057 A 
ATOM      3  C3  UNL d   1      -4.605   0.065   5.891  0.00  0.00     0.033 A 
ATOM      4  C4  UNL d   1      -5.471   1.148   5.999  0.00  0.00    -0.042 A 
ATOM      5  C5  UNL d   1      -5.763   1.905   4.870  0.00  0.00     0.033 A 
ATOM      6  C6  UNL d   1      -5.189   1.573   3.639  0.00  0.00    -0.057 A 
ENDROOT
BRANCH   1   7
ATOM      7  N   UNL d   1      -3.710   0.263   2.267  0.00  0.00    -0.732 N 
ATOM      8  C   UNL d   1      -2.955   1.321   1.631  0.00  0.00     0.284 C 
ATOM      9  H3  UNL d   1      -3.277  -0.655   2.201  0.00  0.00     0.395 HD
ENDBRANCH   1   7
TORSDOF 1
ENDMDL
