MODEL 1
REMARK minimizedAffinity 6.09697771
REMARK minimizedRMSD -1
REMARK  1 active torsions:
REMARK  status: ('A' for Active; 'I' for Inactive)
REMARK    1  A    between atoms: N_2  and  C1_3 
ROOT
ATOM      1  C1  UNL d   1      -0.595  -0.780  -5.244  0.00  0.00     0.143 A 
ATOM      2  C2  UNL d   1      -0.722  -2.124  -5.611  0.00  0.00    -0.057 A 
ATOM      3  C3  UNL d   1      -1.957  -2.657  -6.000  0.00  0.00     0.033 A 
ATOM      4  C4  UNL d   1      -3.096  -1.859  -6.000  0.00  0.00    -0.042 A 
ATOM      5  C5  UNL d   1      -2.999  -0.527  -5.615  0.00  0.00     0.033 A 
ATOM      6  C6  UNL d   1      -1.761   0.001  -5.234  0.00  0.00    -0.057 A 
ENDROOT
BRANCH   1   7
ATOM      7  N   UNL d   1       0.585  -0.215  -4.754  0.00  0.00    -0.732 N 
ATOM      8  C   UNL d   1       1.010  -0.460  -3.392  0.00  0.00     0.284 C 
ATOM      9  H3  UNL d   1       1.340  -0.240  -5.435  0.00  0.00     0.395 HD
ENDBRANCH   1   7
TORSDOF 1
ENDMDL
