MODEL 1
REMARK minimizedAffinity -1.04983616
REMARK minimizedRMSD -1
REMARK  1 active torsions:
REMARK  status: ('A' for Active; 'I' for Inactive)
REMARK    1  A    between atoms: N_2  and  C1_3 
ROOT
ATOM      1  C1  UNL d   1      -3.752  -1.885  -5.995  0.00  0.00     0.143 A 
ATOM      2  C2  UNL d   1      -3.101  -3.124  -5.979  0.00  0.00    -0.057 A 
ATOM      3  C3  UNL d   1      -3.824  -4.323  -5.994  0.00  0.00     0.033 A 
ATOM      4  C4  UNL d   1      -5.215  -4.305  -5.996  0.00  0.00    -0.042 A 
ATOM      5  C5  UNL d   1      -5.882  -3.085  -5.987  0.00  0.00     0.033 A 
ATOM      6  C6  UNL d   1      -5.155  -1.891  -5.978  0.00  0.00    -0.057 A 
ENDROOT
BRANCH   1   7
ATOM      7  N   UNL d   1      -3.092  -0.659  -5.882  0.00  0.00    -0.732 N 
ATOM      8  C   UNL d   1      -1.651  -0.585  -5.989  0.00  0.00     0.284 C 
ATOM      9  H3  UNL d   1      -3.584   0.092  -6.360  0.00  0.00     0.395 HD
ENDBRANCH   1   7
TORSDOF 1
ENDMDL
