MODEL 1
REMARK minimizedAffinity -2.53601146
REMARK minimizedRMSD -1
REMARK  1 active torsions:
REMARK  status: ('A' for Active; 'I' for Inactive)
REMARK    1  A    between atoms: N_2  and  C1_3 
ROOT
ATOM      1  C1  UNL d   1      -4.097  -2.386  -5.846  0.00  0.00     0.143 A 
ATOM      2  C2  UNL d   1      -3.920  -0.998  -5.826  0.00  0.00    -0.057 A 
ATOM      3  C3  UNL d   1      -2.644  -0.428  -5.917  0.00  0.00     0.033 A 
ATOM      4  C4  UNL d   1      -1.517  -1.240  -6.000  0.00  0.00    -0.042 A 
ATOM      5  C5  UNL d   1      -1.668  -2.622  -5.996  0.00  0.00     0.033 A 
ATOM      6  C6  UNL d   1      -2.945  -3.185  -5.912  0.00  0.00    -0.057 A 
ENDROOT
BRANCH   1   7
ATOM      7  N   UNL d   1      -5.331  -3.015  -5.661  0.00  0.00    -0.732 N 
ATOM      8  C   UNL d   1      -5.998  -2.965  -4.377  0.00  0.00     0.284 C 
ATOM      9  H3  UNL d   1      -5.952  -2.894  -6.457  0.00  0.00     0.395 HD
ENDBRANCH   1   7
TORSDOF 1
ENDMDL
