MODEL 1
REMARK minimizedAffinity 1.74808431
REMARK minimizedRMSD -1
REMARK  1 active torsions:
REMARK  status: ('A' for Active; 'I' for Inactive)
REMARK    1  A    between atoms: C1_2  and  C2_3 
ROOT
ATOM      1  C2  UNL d   1       3.116  -1.520  -4.304  0.00  0.00    -0.077 A 
ATOM      2  C3  UNL d   1       4.377  -1.747  -3.734  0.00  0.00     0.002 A 
ATOM      3  C4  UNL d   1       5.246  -2.686  -4.294  0.00  0.00     0.002 A 
ATOM      4  C5  UNL d   1       4.866  -3.401  -5.427  0.00  0.00    -0.004 A 
ATOM      5  C6  UNL d   1       3.614  -3.184  -6.000  0.00  0.00     0.002 A 
ATOM      6  C7  UNL d   1       2.743  -2.247  -5.441  0.00  0.00     0.002 A 
ENDROOT
BRANCH   1   7
ATOM      7  C1  UNL d   1       2.197  -0.473  -3.731  0.00  0.00     0.055 C 
ATOM      8  C   UNL d   1       2.671   0.930  -4.080  0.00  0.00     0.019 C 
ENDBRANCH   1   7
TORSDOF 1
ENDMDL
