MODEL 1
REMARK minimizedAffinity 7.57528448
REMARK minimizedRMSD -1
REMARK  1 active torsions:
REMARK  status: ('A' for Active; 'I' for Inactive)
REMARK    1  A    between atoms: C1_2  and  C2_3 
ROOT
ATOM      1  C2  UNL d   1      -0.778  -5.962   0.922  0.00  0.00    -0.077 A 
ATOM      2  C3  UNL d   1      -0.067  -5.955   2.130  0.00  0.00     0.002 A 
ATOM      3  C4  UNL d   1      -0.747  -5.969   3.350  0.00  0.00     0.002 A 
ATOM      4  C5  UNL d   1      -2.140  -5.994   3.373  0.00  0.00    -0.004 A 
ATOM      5  C6  UNL d   1      -2.856  -6.000   2.176  0.00  0.00     0.002 A 
ATOM      6  C7  UNL d   1      -2.179  -5.984   0.957  0.00  0.00     0.002 A 
ENDROOT
BRANCH   1   7
ATOM      7  C1  UNL d   1      -0.047  -5.997  -0.395  0.00  0.00     0.055 C 
ATOM      8  C   UNL d   1      -0.026  -4.625  -1.053  0.00  0.00     0.019 C 
ENDBRANCH   1   7
TORSDOF 1
ENDMDL
