MODEL 1
REMARK minimizedAffinity -0.297007918
REMARK minimizedRMSD -1
REMARK  1 active torsions:
REMARK  status: ('A' for Active; 'I' for Inactive)
REMARK    1  A    between atoms: C1_2  and  C2_3 
ROOT
ATOM      1  C2  UNL d   1      -0.755  -0.218  -1.225  0.00  0.00    -0.077 A 
ATOM      2  C3  UNL d   1      -1.559  -0.051  -2.361  0.00  0.00     0.002 A 
ATOM      3  C4  UNL d   1      -2.388  -1.086  -2.798  0.00  0.00     0.002 A 
ATOM      4  C5  UNL d   1      -2.425  -2.292  -2.101  0.00  0.00    -0.004 A 
ATOM      5  C6  UNL d   1      -1.628  -2.469  -0.971  0.00  0.00     0.002 A 
ATOM      6  C7  UNL d   1      -0.798  -1.436  -0.534  0.00  0.00     0.002 A 
ENDROOT
BRANCH   1   7
ATOM      7  C1  UNL d   1       0.103   0.914  -0.724  0.00  0.00     0.055 C 
ATOM      8  C   UNL d   1       0.186   0.916   0.795  0.00  0.00     0.019 C 
ENDBRANCH   1   7
TORSDOF 1
ENDMDL
