MODEL 1
REMARK minimizedAffinity 5.46376848
REMARK minimizedRMSD -1
REMARK  1 active torsions:
REMARK  status: ('A' for Active; 'I' for Inactive)
REMARK    1  A    between atoms: C1_2  and  C2_3 
ROOT
ATOM      1  C2  UNL d   1      -3.687  -2.212   1.892  0.00  0.00    -0.077 A 
ATOM      2  C3  UNL d   1      -5.030  -2.110   1.503  0.00  0.00     0.002 A 
ATOM      3  C4  UNL d   1      -5.960  -1.479   2.331  0.00  0.00     0.002 A 
ATOM      4  C5  UNL d   1      -5.556  -0.942   3.552  0.00  0.00    -0.004 A 
ATOM      5  C6  UNL d   1      -4.223  -1.039   3.949  0.00  0.00     0.002 A 
ATOM      6  C7  UNL d   1      -3.292  -1.671   3.122  0.00  0.00     0.002 A 
ENDROOT
BRANCH   1   7
ATOM      7  C1  UNL d   1      -2.673  -2.848   0.977  0.00  0.00     0.055 C 
ATOM      8  C   UNL d   1      -2.170  -4.168   1.542  0.00  0.00     0.019 C 
ENDBRANCH   1   7
TORSDOF 1
ENDMDL
