MODEL 1
REMARK minimizedAffinity 10.8766842
REMARK minimizedRMSD -1
REMARK  1 active torsions:
REMARK  status: ('A' for Active; 'I' for Inactive)
REMARK    1  A    between atoms: C1_2  and  C2_3 
ROOT
ATOM      1  C2  UNL d   1      -0.402  -0.945  -0.347  0.00  0.00    -0.077 A 
ATOM      2  C3  UNL d   1       0.859  -1.099  -0.941  0.00  0.00     0.002 A 
ATOM      3  C4  UNL d   1       1.866  -0.158  -0.715  0.00  0.00     0.002 A 
ATOM      4  C5  UNL d   1       1.624   0.939   0.108  0.00  0.00    -0.004 A 
ATOM      5  C6  UNL d   1       0.374   1.102   0.703  0.00  0.00     0.002 A 
ATOM      6  C7  UNL d   1      -0.635   0.164   0.477  0.00  0.00     0.002 A 
ENDROOT
BRANCH   1   7
ATOM      7  C1  UNL d   1      -1.474  -1.984  -0.549  0.00  0.00     0.055 C 
ATOM      8  C   UNL d   1      -1.815  -2.146  -2.023  0.00  0.00     0.019 C 
ENDBRANCH   1   7
TORSDOF 1
ENDMDL
