MODEL 1
REMARK minimizedAffinity 7.90089703
REMARK minimizedRMSD -1
REMARK  1 active torsions:
REMARK  status: ('A' for Active; 'I' for Inactive)
REMARK    1  A    between atoms: C1_2  and  C2_3 
ROOT
ATOM      1  C2  UNL d   1      -3.484  -5.993   0.287  0.00  0.00    -0.077 A 
ATOM      2  C3  UNL d   1      -2.476  -6.000   1.262  0.00  0.00     0.002 A 
ATOM      3  C4  UNL d   1      -1.131  -5.983   0.887  0.00  0.00     0.002 A 
ATOM      4  C5  UNL d   1      -0.782  -5.955  -0.462  0.00  0.00    -0.004 A 
ATOM      5  C6  UNL d   1      -1.778  -5.951  -1.438  0.00  0.00     0.002 A 
ATOM      6  C7  UNL d   1      -3.122  -5.969  -1.065  0.00  0.00     0.002 A 
ENDROOT
BRANCH   1   7
ATOM      7  C1  UNL d   1      -4.935  -5.962   0.691  0.00  0.00     0.055 C 
ATOM      8  C   UNL d   1      -5.090  -5.995   2.204  0.00  0.00     0.019 C 
ENDBRANCH   1   7
TORSDOF 1
ENDMDL
