MODEL 1
REMARK minimizedAffinity 4.37103176
REMARK minimizedRMSD -1
REMARK  1 active torsions:
REMARK  status: ('A' for Active; 'I' for Inactive)
REMARK    1  A    between atoms: C1_2  and  C2_3 
ROOT
ATOM      1  C2  UNL d   1      -0.822  -0.648  -0.632  0.00  0.00    -0.077 A 
ATOM      2  C3  UNL d   1       0.157  -1.016  -1.566  0.00  0.00     0.002 A 
ATOM      3  C4  UNL d   1      -0.150  -1.904  -2.599  0.00  0.00     0.002 A 
ATOM      4  C5  UNL d   1      -1.437  -2.426  -2.711  0.00  0.00    -0.004 A 
ATOM      5  C6  UNL d   1      -2.417  -2.068  -1.786  0.00  0.00     0.002 A 
ATOM      6  C7  UNL d   1      -2.111  -1.182  -0.752  0.00  0.00     0.002 A 
ENDROOT
BRANCH   1   7
ATOM      7  C1  UNL d   1      -0.506   0.347   0.453  0.00  0.00     0.055 C 
ATOM      8  C   UNL d   1       0.769   1.119   0.143  0.00  0.00     0.019 C 
ENDBRANCH   1   7
TORSDOF 1
ENDMDL
