MODEL 1
REMARK minimizedAffinity 1.24606049
REMARK minimizedRMSD -1
REMARK  1 active torsions:
REMARK  status: ('A' for Active; 'I' for Inactive)
REMARK    1  A    between atoms: C1_2  and  C2_3 
ROOT
ATOM      1  C2  UNL d   1      -0.989  -0.290  -0.770  0.00  0.00    -0.077 A 
ATOM      2  C3  UNL d   1      -1.504   0.213  -1.974  0.00  0.00     0.002 A 
ATOM      3  C4  UNL d   1      -2.353  -0.569  -2.760  0.00  0.00     0.002 A 
ATOM      4  C5  UNL d   1      -2.698  -1.855  -2.349  0.00  0.00    -0.004 A 
ATOM      5  C6  UNL d   1      -2.189  -2.364  -1.155  0.00  0.00     0.002 A 
ATOM      6  C7  UNL d   1      -1.340  -1.585  -0.369  0.00  0.00     0.002 A 
ENDROOT
BRANCH   1   7
ATOM      7  C1  UNL d   1      -0.113   0.570   0.103  0.00  0.00     0.055 C 
ATOM      8  C   UNL d   1      -0.787   0.876   1.432  0.00  0.00     0.019 C 
ENDBRANCH   1   7
TORSDOF 1
ENDMDL
