MODEL 1
REMARK minimizedAffinity 0.784925759
REMARK minimizedRMSD -1
REMARK  1 active torsions:
REMARK  status: ('A' for Active; 'I' for Inactive)
REMARK    1  A    between atoms: C1_2  and  C2_3 
ROOT
ATOM      1  C2  UNL d   1       5.638  -2.831   4.837  0.00  0.00    -0.077 A 
ATOM      2  C3  UNL d   1       5.999  -1.476   4.836  0.00  0.00     0.002 A 
ATOM      3  C4  UNL d   1       5.623  -0.645   3.779  0.00  0.00     0.002 A 
ATOM      4  C5  UNL d   1       4.882  -1.159   2.717  0.00  0.00    -0.004 A 
ATOM      5  C6  UNL d   1       4.520  -2.505   2.707  0.00  0.00     0.002 A 
ATOM      6  C7  UNL d   1       4.895  -3.337   3.763  0.00  0.00     0.002 A 
ENDROOT
BRANCH   1   7
ATOM      7  C1  UNL d   1       6.000  -3.717   6.000  0.00  0.00     0.055 C 
ATOM      8  C   UNL d   1       5.996  -5.185   5.600  0.00  0.00     0.019 C 
ENDBRANCH   1   7
TORSDOF 1
ENDMDL
