MODEL 1
REMARK minimizedAffinity 2.62272835
REMARK minimizedRMSD -1
REMARK  1 active torsions:
REMARK  status: ('A' for Active; 'I' for Inactive)
REMARK    1  A    between atoms: C1_2  and  C2_3 
ROOT
ATOM      1  C2  UNL d   1      -0.500  -0.385   0.218  0.00  0.00    -0.077 A 
ATOM      2  C3  UNL d   1      -0.956  -0.891  -1.008  0.00  0.00     0.002 A 
ATOM      3  C4  UNL d   1      -1.826  -1.982  -1.042  0.00  0.00     0.002 A 
ATOM      4  C5  UNL d   1      -2.251  -2.574   0.145  0.00  0.00    -0.004 A 
ATOM      5  C6  UNL d   1      -1.801  -2.080   1.369  0.00  0.00     0.002 A 
ATOM      6  C7  UNL d   1      -0.931  -0.990   1.405  0.00  0.00     0.002 A 
ENDROOT
BRANCH   1   7
ATOM      7  C1  UNL d   1       0.399   0.822   0.258  0.00  0.00     0.055 C 
ATOM      8  C   UNL d   1       0.453   1.426   1.654  0.00  0.00     0.019 C 
ENDBRANCH   1   7
TORSDOF 1
ENDMDL
