MODEL 1
REMARK minimizedAffinity 3.23863697
REMARK minimizedRMSD -1
REMARK  1 active torsions:
REMARK  status: ('A' for Active; 'I' for Inactive)
REMARK    1  A    between atoms: C1_2  and  C2_3 
ROOT
ATOM      1  C2  UNL d   1      -0.571  -0.462  -0.778  0.00  0.00    -0.077 A 
ATOM      2  C3  UNL d   1      -1.367  -0.099  -1.873  0.00  0.00     0.002 A 
ATOM      3  C4  UNL d   1      -2.356  -0.964  -2.345  0.00  0.00     0.002 A 
ATOM      4  C5  UNL d   1      -2.561  -2.195  -1.725  0.00  0.00    -0.004 A 
ATOM      5  C6  UNL d   1      -1.773  -2.566  -0.636  0.00  0.00     0.002 A 
ATOM      6  C7  UNL d   1      -0.783  -1.703  -0.164  0.00  0.00     0.002 A 
ENDROOT
BRANCH   1   7
ATOM      7  C1  UNL d   1       0.464   0.490  -0.237  0.00  0.00     0.055 C 
ATOM      8  C   UNL d   1       0.227   0.786   1.237  0.00  0.00     0.019 C 
ENDBRANCH   1   7
TORSDOF 1
ENDMDL
