MODEL 1
REMARK minimizedAffinity 1.38282108
REMARK minimizedRMSD -1
REMARK  1 active torsions:
REMARK  status: ('A' for Active; 'I' for Inactive)
REMARK    1  A    between atoms: C1_2  and  C2_3 
ROOT
ATOM      1  C2  UNL d   1      -1.165  -1.075  -0.042  0.00  0.00    -0.077 A 
ATOM      2  C3  UNL d   1      -1.068  -1.199   1.351  0.00  0.00     0.002 A 
ATOM      3  C4  UNL d   1      -0.358  -0.256   2.097  0.00  0.00     0.002 A 
ATOM      4  C5  UNL d   1       0.255   0.821   1.459  0.00  0.00    -0.004 A 
ATOM      5  C6  UNL d   1       0.166   0.952   0.074  0.00  0.00     0.002 A 
ATOM      6  C7  UNL d   1      -0.542   0.009  -0.673  0.00  0.00     0.002 A 
ENDROOT
BRANCH   1   7
ATOM      7  C1  UNL d   1      -1.971  -2.064  -0.842  0.00  0.00     0.055 C 
ATOM      8  C   UNL d   1      -2.709  -1.381  -1.985  0.00  0.00     0.019 C 
ENDBRANCH   1   7
TORSDOF 1
ENDMDL
