MODEL 1
REMARK minimizedAffinity 9.34251595
REMARK minimizedRMSD -1
REMARK  1 active torsions:
REMARK  status: ('A' for Active; 'I' for Inactive)
REMARK    1  A    between atoms: C1_2  and  C2_3 
ROOT
ATOM      1  C2  UNL d   1      -4.498  -1.758   2.274  0.00  0.00    -0.077 A 
ATOM      2  C3  UNL d   1      -4.684  -2.510   1.105  0.00  0.00     0.002 A 
ATOM      3  C4  UNL d   1      -3.615  -3.205   0.536  0.00  0.00     0.002 A 
ATOM      4  C5  UNL d   1      -2.356  -3.158   1.130  0.00  0.00    -0.004 A 
ATOM      5  C6  UNL d   1      -2.161  -2.411   2.291  0.00  0.00     0.002 A 
ATOM      6  C7  UNL d   1      -3.227  -1.715   2.861  0.00  0.00     0.002 A 
ENDROOT
BRANCH   1   7
ATOM      7  C1  UNL d   1      -5.660  -1.047   2.917  0.00  0.00     0.055 C 
ATOM      8  C   UNL d   1      -5.608  -1.160   4.434  0.00  0.00     0.019 C 
ENDBRANCH   1   7
TORSDOF 1
ENDMDL
