MODEL 1
REMARK minimizedAffinity 1.84294784
REMARK minimizedRMSD -1
REMARK  0 active torsions:
REMARK  status: ('A' for Active; 'I' for Inactive)
ROOT
ATOM      1  C1  DEN d   1       3.094  -1.182   1.669  0.00  0.00     0.130 A 
ATOM      2  C2  DEN d   1       2.267  -0.005   1.919  0.00  0.00    -0.031 A 
ATOM      3  C3  DEN d   1       1.244  -0.370   2.920  0.00  0.00     0.027 A 
ATOM      4  C4  DEN d   1       0.866  -2.630   4.104  0.00  0.00     0.027 A 
ATOM      5  C5  DEN d   1       1.310  -3.930   4.209  0.00  0.00    -0.003 A 
ATOM      6  C6  DEN d   1       2.348  -4.411   3.456  0.00  0.00     0.001 A 
ATOM      7  C7  DEN d   1       3.008  -3.573   2.597  0.00  0.00     0.017 A 
ATOM      8  C8  DEN d   1       2.562  -2.263   2.480  0.00  0.00    -0.094 A 
ATOM      9  C9  DEN d   1       1.519  -1.793   3.258  0.00  0.00    -0.072 A 
ENDROOT
TORSDOF 0
ENDMDL
