MODEL 1
REMARK minimizedAffinity 2.19996977
REMARK minimizedRMSD -1
REMARK  0 active torsions:
REMARK  status: ('A' for Active; 'I' for Inactive)
ROOT
ATOM      1  C1  DEN d   1       2.930  -0.939   1.546  0.00  0.00     0.130 A 
ATOM      2  C2  DEN d   1       2.092   0.212   1.874  0.00  0.00    -0.031 A 
ATOM      3  C3  DEN d   1       1.112  -0.212   2.893  0.00  0.00     0.027 A 
ATOM      4  C4  DEN d   1       0.816  -2.525   3.995  0.00  0.00     0.027 A 
ATOM      5  C5  DEN d   1       1.284  -3.820   4.031  0.00  0.00    -0.003 A 
ATOM      6  C6  DEN d   1       2.304  -4.250   3.224  0.00  0.00     0.001 A 
ATOM      7  C7  DEN d   1       2.918  -3.366   2.377  0.00  0.00     0.017 A 
ATOM      8  C8  DEN d   1       2.446  -2.061   2.330  0.00  0.00    -0.094 A 
ATOM      9  C9  DEN d   1       1.423  -1.642   3.163  0.00  0.00    -0.072 A 
ENDROOT
TORSDOF 0
ENDMDL
