MODEL 1
REMARK minimizedAffinity 10.2413206
REMARK minimizedRMSD -1
REMARK  0 active torsions:
REMARK  status: ('A' for Active; 'I' for Inactive)
ROOT
ATOM      1  C1  DEN d   1       3.605  -3.914   1.902  0.00  0.00     0.130 A 
ATOM      2  C2  DEN d   1       2.601  -4.961   1.730  0.00  0.00    -0.031 A 
ATOM      3  C3  DEN d   1       1.268  -4.330   1.794  0.00  0.00     0.027 A 
ATOM      4  C4  DEN d   1       0.662  -1.846   2.137  0.00  0.00     0.027 A 
ATOM      5  C5  DEN d   1       1.174  -0.584   2.341  0.00  0.00    -0.003 A 
ATOM      6  C6  DEN d   1       2.520  -0.350   2.446  0.00  0.00     0.001 A 
ATOM      7  C7  DEN d   1       3.402  -1.388   2.302  0.00  0.00     0.017 A 
ATOM      8  C8  DEN d   1       2.893  -2.664   2.104  0.00  0.00    -0.094 A 
ATOM      9  C9  DEN d   1       1.531  -2.879   1.988  0.00  0.00    -0.072 A 
ENDROOT
TORSDOF 0
ENDMDL
