MODEL 1
REMARK minimizedAffinity 1.71071064
REMARK minimizedRMSD -1
REMARK  0 active torsions:
REMARK  status: ('A' for Active; 'I' for Inactive)
ROOT
ATOM      1  C1  DEN d   1       3.378  -0.810   1.684  0.00  0.00     0.130 A 
ATOM      2  C2  DEN d   1       2.697   0.355   2.244  0.00  0.00    -0.031 A 
ATOM      3  C3  DEN d   1       1.628  -0.128   3.141  0.00  0.00     0.027 A 
ATOM      4  C4  DEN d   1       0.967  -2.553   3.718  0.00  0.00     0.027 A 
ATOM      5  C5  DEN d   1       1.248  -3.881   3.479  0.00  0.00    -0.003 A 
ATOM      6  C6  DEN d   1       2.228  -4.274   2.607  0.00  0.00     0.001 A 
ATOM      7  C7  DEN d   1       2.993  -3.330   1.975  0.00  0.00     0.017 A 
ATOM      8  C8  DEN d   1       2.711  -1.990   2.205  0.00  0.00    -0.094 A 
ATOM      9  C9  DEN d   1       1.725  -1.612   3.100  0.00  0.00    -0.072 A 
ENDROOT
TORSDOF 0
ENDMDL
