MODEL 1
REMARK minimizedAffinity 9.08030319
REMARK minimizedRMSD -1
REMARK  0 active torsions:
REMARK  status: ('A' for Active; 'I' for Inactive)
ROOT
ATOM      1  C1  DEN d   1       1.324  -5.952  -3.880  0.00  0.00     0.130 A 
ATOM      2  C2  DEN d   1       1.408  -5.948  -5.338  0.00  0.00    -0.031 A 
ATOM      3  C3  DEN d   1       2.836  -5.962  -5.713  0.00  0.00     0.027 A 
ATOM      4  C4  DEN d   1       4.914  -5.997  -4.186  0.00  0.00     0.027 A 
ATOM      5  C5  DEN d   1       5.346  -5.996  -2.878  0.00  0.00    -0.003 A 
ATOM      6  C6  DEN d   1       4.476  -5.946  -1.821  0.00  0.00     0.001 A 
ATOM      7  C7  DEN d   1       3.126  -5.941  -2.054  0.00  0.00     0.017 A 
ATOM      8  C8  DEN d   1       2.683  -5.935  -3.370  0.00  0.00    -0.094 A 
ATOM      9  C9  DEN d   1       3.578  -5.997  -4.424  0.00  0.00    -0.072 A 
ENDROOT
TORSDOF 0
ENDMDL
