MODEL 1
REMARK minimizedAffinity 14.2635031
REMARK minimizedRMSD -1
REMARK  0 active torsions:
REMARK  status: ('A' for Active; 'I' for Inactive)
ROOT
ATOM      1  C1  DEN d   1       2.951  -1.299   1.882  0.00  0.00     0.130 A 
ATOM      2  C2  DEN d   1       2.105  -0.174   2.272  0.00  0.00    -0.031 A 
ATOM      3  C3  DEN d   1       0.967  -0.706   3.047  0.00  0.00     0.027 A 
ATOM      4  C4  DEN d   1       0.436  -3.148   3.684  0.00  0.00     0.027 A 
ATOM      5  C5  DEN d   1       0.857  -4.455   3.569  0.00  0.00    -0.003 A 
ATOM      6  C6  DEN d   1       1.976  -4.802   2.861  0.00  0.00     0.001 A 
ATOM      7  C7  DEN d   1       2.740  -3.826   2.278  0.00  0.00     0.017 A 
ATOM      8  C8  DEN d   1       2.319  -2.507   2.383  0.00  0.00    -0.094 A 
ATOM      9  C9  DEN d   1       1.191  -2.175   3.114  0.00  0.00    -0.072 A 
ENDROOT
TORSDOF 0
ENDMDL
