MODEL 1
REMARK minimizedAffinity 12.1163244
REMARK minimizedRMSD -1
REMARK  0 active torsions:
REMARK  status: ('A' for Active; 'I' for Inactive)
ROOT
ATOM      1  C1  DEN d   1      -4.735   0.251  -5.601  0.00  0.00     0.130 A 
ATOM      2  C2  DEN d   1      -4.776   1.692  -5.832  0.00  0.00    -0.031 A 
ATOM      3  C3  DEN d   1      -4.185   2.360  -4.656  0.00  0.00     0.027 A 
ATOM      4  C4  DEN d   1      -3.210   1.308  -2.512  0.00  0.00     0.027 A 
ATOM      5  C5  DEN d   1      -2.966   0.123  -1.854  0.00  0.00    -0.003 A 
ATOM      6  C6  DEN d   1      -3.322  -1.090  -2.379  0.00  0.00     0.001 A 
ATOM      7  C7  DEN d   1      -3.902  -1.150  -3.619  0.00  0.00     0.017 A 
ATOM      8  C8  DEN d   1      -4.158   0.042  -4.285  0.00  0.00    -0.094 A 
ATOM      9  C9  DEN d   1      -3.779   1.258  -3.743  0.00  0.00    -0.072 A 
ENDROOT
TORSDOF 0
ENDMDL
