MODEL 1
REMARK minimizedAffinity 0.23988694
REMARK minimizedRMSD -1
REMARK  0 active torsions:
REMARK  status: ('A' for Active; 'I' for Inactive)
ROOT
ATOM      1  C1  DEN d   1       1.312  -0.612   3.337  0.00  0.00     0.130 A 
ATOM      2  C2  DEN d   1       1.993  -0.211   2.109  0.00  0.00    -0.031 A 
ATOM      3  C3  DEN d   1       2.797  -1.356   1.638  0.00  0.00     0.027 A 
ATOM      4  C4  DEN d   1       3.049  -3.701   2.683  0.00  0.00     0.027 A 
ATOM      5  C5  DEN d   1       2.673  -4.508   3.734  0.00  0.00    -0.003 A 
ATOM      6  C6  DEN d   1       1.852  -4.065   4.737  0.00  0.00     0.001 A 
ATOM      7  C7  DEN d   1       1.342  -2.795   4.685  0.00  0.00     0.017 A 
ATOM      8  C8  DEN d   1       1.722  -1.973   3.632  0.00  0.00    -0.094 A 
ATOM      9  C9  DEN d   1       2.544  -2.443   2.622  0.00  0.00    -0.072 A 
ENDROOT
TORSDOF 0
ENDMDL
