MODEL 1
REMARK minimizedAffinity 8.58891296
REMARK minimizedRMSD -1
REMARK  0 active torsions:
REMARK  status: ('A' for Active; 'I' for Inactive)
ROOT
ATOM      1  C1  DEN d   1      -2.442  -0.538  -2.908  0.00  0.00     0.130 A 
ATOM      2  C2  DEN d   1      -3.333   0.106  -3.869  0.00  0.00    -0.031 A 
ATOM      3  C3  DEN d   1      -3.691   1.437  -3.339  0.00  0.00     0.027 A 
ATOM      4  C4  DEN d   1      -2.952   2.560  -1.137  0.00  0.00     0.027 A 
ATOM      5  C5  DEN d   1      -2.208   2.398   0.011  0.00  0.00    -0.003 A 
ATOM      6  C6  DEN d   1      -1.523   1.243   0.280  0.00  0.00     0.001 A 
ATOM      7  C7  DEN d   1      -1.531   0.220  -0.632  0.00  0.00     0.017 A 
ATOM      8  C8  DEN d   1      -2.285   0.373  -1.788  0.00  0.00    -0.094 A 
ATOM      9  C9  DEN d   1      -2.961   1.553  -2.048  0.00  0.00    -0.072 A 
ENDROOT
TORSDOF 0
ENDMDL
