MODEL 1
REMARK minimizedAffinity 1.41066933
REMARK minimizedRMSD -1
REMARK  3 active torsions:
REMARK  status: ('A' for Active; 'I' for Inactive)
REMARK    1  A    between atoms: C3'_2  and  C2'_3 
REMARK    2  A    between atoms: C2'_3  and  C1'_4 
REMARK    3  A    between atoms: C1'_4  and  C1_5 
ROOT
ATOM      1  C1  N4B d   1      -2.028   0.802  -0.404  0.00  0.00    -0.075 A 
ATOM      2  C2  N4B d   1      -1.916   1.152  -1.768  0.00  0.00     0.002 A 
ATOM      3  C3  N4B d   1      -2.986   0.978  -2.611  0.00  0.00     0.002 A 
ATOM      4  C4  N4B d   1      -4.166   0.440  -2.119  0.00  0.00    -0.004 A 
ATOM      5  C5  N4B d   1      -4.274   0.128  -0.795  0.00  0.00     0.002 A 
ATOM      6  C6  N4B d   1      -3.208   0.301   0.064  0.00  0.00     0.002 A 
ENDROOT
BRANCH   1   7
ATOM      7  C1' N4B d   1      -0.858   0.894   0.537  0.00  0.00     0.057 C 
BRANCH   7   8
ATOM      8  C2' N4B d   1       0.358   0.236  -0.109  0.00  0.00     0.009 C 
BRANCH   8   9
ATOM      9  C3' N4B d   1       0.733  -1.065   0.579  0.00  0.00     0.004 C 
ATOM     10  C4' N4B d   1       1.307  -0.853   1.949  0.00  0.00     0.003 C 
ENDBRANCH   8   9
ENDBRANCH   7   8
ENDBRANCH   1   7
TORSDOF 3
ENDMDL
