MODEL 1
REMARK minimizedAffinity 2.41234779
REMARK minimizedRMSD -1
REMARK  3 active torsions:
REMARK  status: ('A' for Active; 'I' for Inactive)
REMARK    1  A    between atoms: C3'_2  and  C2'_3 
REMARK    2  A    between atoms: C2'_3  and  C1'_4 
REMARK    3  A    between atoms: C1'_4  and  C1_5 
ROOT
ATOM      1  C1  N4B d   1       1.195   0.089   1.149  0.00  0.00    -0.075 A 
ATOM      2  C2  N4B d   1       2.235  -0.264   0.261  0.00  0.00     0.002 A 
ATOM      3  C3  N4B d   1       3.039  -1.342   0.539  0.00  0.00     0.002 A 
ATOM      4  C4  N4B d   1       2.836  -2.067   1.703  0.00  0.00    -0.004 A 
ATOM      5  C5  N4B d   1       1.813  -1.735   2.543  0.00  0.00     0.002 A 
ATOM      6  C6  N4B d   1       0.994  -0.657   2.274  0.00  0.00     0.002 A 
ENDROOT
BRANCH   1   7
ATOM      7  C1' N4B d   1       0.345   1.310   0.930  0.00  0.00     0.057 C 
BRANCH   7   8
ATOM      8  C2' N4B d   1       0.974   2.171  -0.161  0.00  0.00     0.009 C 
BRANCH   8   9
ATOM      9  C3' N4B d   1       1.651   3.406   0.408  0.00  0.00     0.004 C 
ATOM     10  C4' N4B d   1       3.133   3.414   0.179  0.00  0.00     0.003 C 
ENDBRANCH   8   9
ENDBRANCH   7   8
ENDBRANCH   1   7
TORSDOF 3
ENDMDL
