MODEL 1
REMARK minimizedAffinity 4.05214548
REMARK minimizedRMSD -1
REMARK  3 active torsions:
REMARK  status: ('A' for Active; 'I' for Inactive)
REMARK    1  A    between atoms: C3'_2  and  C2'_3 
REMARK    2  A    between atoms: C2'_3  and  C1'_4 
REMARK    3  A    between atoms: C1'_4  and  C1_5 
ROOT
ATOM      1  C1  N4B d   1       2.680   1.816  -0.369  0.00  0.00    -0.075 A 
ATOM      2  C2  N4B d   1       4.050   2.119  -0.524  0.00  0.00     0.002 A 
ATOM      3  C3  N4B d   1       4.489   3.411  -0.367  0.00  0.00     0.002 A 
ATOM      4  C4  N4B d   1       3.578   4.414  -0.076  0.00  0.00    -0.004 A 
ATOM      5  C5  N4B d   1       2.259   4.109   0.097  0.00  0.00     0.002 A 
ATOM      6  C6  N4B d   1       1.805   2.814  -0.053  0.00  0.00     0.002 A 
ENDROOT
BRANCH   1   7
ATOM      7  C1' N4B d   1       2.139   0.433  -0.615  0.00  0.00     0.057 C 
BRANCH   7   8
ATOM      8  C2' N4B d   1       2.139  -0.345   0.697  0.00  0.00     0.009 C 
BRANCH   8   9
ATOM      9  C3' N4B d   1       3.311  -1.307   0.788  0.00  0.00     0.004 C 
ATOM     10  C4' N4B d   1       4.120  -1.121   2.037  0.00  0.00     0.003 C 
ENDBRANCH   8   9
ENDBRANCH   7   8
ENDBRANCH   1   7
TORSDOF 3
ENDMDL
