MODEL 1
REMARK minimizedAffinity 1.78058279
REMARK minimizedRMSD -1
REMARK  3 active torsions:
REMARK  status: ('A' for Active; 'I' for Inactive)
REMARK    1  A    between atoms: C3'_2  and  C2'_3 
REMARK    2  A    between atoms: C2'_3  and  C1'_4 
REMARK    3  A    between atoms: C1'_4  and  C1_5 
ROOT
ATOM      1  C1  N4B d   1       0.487  -5.176  -3.543  0.00  0.00    -0.075 A 
ATOM      2  C2  N4B d   1      -0.370  -5.610  -4.579  0.00  0.00     0.002 A 
ATOM      3  C3  N4B d   1       0.156  -6.000  -5.786  0.00  0.00     0.002 A 
ATOM      4  C4  N4B d   1       1.527  -5.947  -5.986  0.00  0.00    -0.004 A 
ATOM      5  C5  N4B d   1       2.350  -5.551  -4.972  0.00  0.00     0.002 A 
ATOM      6  C6  N4B d   1       1.836  -5.160  -3.752  0.00  0.00     0.002 A 
ENDROOT
BRANCH   1   7
ATOM      7  C1' N4B d   1      -0.047  -4.658  -2.235  0.00  0.00     0.057 C 
BRANCH   7   8
ATOM      8  C2' N4B d   1      -1.546  -4.932  -2.163  0.00  0.00     0.009 C 
BRANCH   8   9
ATOM      9  C3' N4B d   1      -2.215  -4.145  -1.049  0.00  0.00     0.004 C 
ATOM     10  C4' N4B d   1      -2.689  -5.017   0.075  0.00  0.00     0.003 C 
ENDBRANCH   8   9
ENDBRANCH   7   8
ENDBRANCH   1   7
TORSDOF 3
ENDMDL
