MODEL 1
REMARK minimizedAffinity 4.89405823
REMARK minimizedRMSD -1
REMARK  3 active torsions:
REMARK  status: ('A' for Active; 'I' for Inactive)
REMARK    1  A    between atoms: C3'_2  and  C2'_3 
REMARK    2  A    between atoms: C2'_3  and  C1'_4 
REMARK    3  A    between atoms: C1'_4  and  C1_5 
ROOT
ATOM      1  C1  N4B d   1       0.545  -0.928   0.398  0.00  0.00    -0.075 A 
ATOM      2  C2  N4B d   1       1.654  -1.463   1.090  0.00  0.00     0.002 A 
ATOM      3  C3  N4B d   1       2.904  -0.925   0.904  0.00  0.00     0.002 A 
ATOM      4  C4  N4B d   1       3.072   0.130   0.021  0.00  0.00    -0.004 A 
ATOM      5  C5  N4B d   1       1.992   0.658  -0.625  0.00  0.00     0.002 A 
ATOM      6  C6  N4B d   1       0.729   0.130  -0.444  0.00  0.00     0.002 A 
ENDROOT
BRANCH   1   7
ATOM      7  C1' N4B d   1      -0.826  -1.537   0.503  0.00  0.00     0.057 C 
BRANCH   7   8
ATOM      8  C2' N4B d   1      -0.721  -3.046   0.299  0.00  0.00     0.009 C 
BRANCH   8   9
ATOM      9  C3' N4B d   1      -1.914  -3.782   0.882  0.00  0.00     0.004 C 
ATOM     10  C4' N4B d   1      -2.649  -4.598  -0.140  0.00  0.00     0.003 C 
ENDBRANCH   8   9
ENDBRANCH   7   8
ENDBRANCH   1   7
TORSDOF 3
ENDMDL
