MODEL 1
REMARK minimizedAffinity 2.6668179
REMARK minimizedRMSD -1
REMARK  3 active torsions:
REMARK  status: ('A' for Active; 'I' for Inactive)
REMARK    1  A    between atoms: C3'_2  and  C2'_3 
REMARK    2  A    between atoms: C2'_3  and  C1'_4 
REMARK    3  A    between atoms: C1'_4  and  C1_5 
ROOT
ATOM      1  C1  N4B d   1      -1.035   1.564  -3.220  0.00  0.00    -0.075 A 
ATOM      2  C2  N4B d   1      -0.841   2.806  -3.864  0.00  0.00     0.002 A 
ATOM      3  C3  N4B d   1      -1.921   3.504  -4.349  0.00  0.00     0.002 A 
ATOM      4  C4  N4B d   1      -3.195   2.974  -4.217  0.00  0.00    -0.004 A 
ATOM      5  C5  N4B d   1      -3.376   1.786  -3.571  0.00  0.00     0.002 A 
ATOM      6  C6  N4B d   1      -2.301   1.075  -3.076  0.00  0.00     0.002 A 
ENDROOT
BRANCH   1   7
ATOM      7  C1' N4B d   1       0.121   0.724  -2.750  0.00  0.00     0.057 C 
BRANCH   7   8
ATOM      8  C2' N4B d   1      -0.080   0.373  -1.279  0.00  0.00     0.009 C 
BRANCH   8   9
ATOM      9  C3' N4B d   1       1.241   0.171  -0.558  0.00  0.00     0.004 C 
ATOM     10  C4' N4B d   1       1.090  -0.575   0.734  0.00  0.00     0.003 C 
ENDBRANCH   8   9
ENDBRANCH   7   8
ENDBRANCH   1   7
TORSDOF 3
ENDMDL
