MODEL 1
REMARK minimizedAffinity -2.26067615
REMARK minimizedRMSD -1
REMARK  3 active torsions:
REMARK  status: ('A' for Active; 'I' for Inactive)
REMARK    1  A    between atoms: C3'_2  and  C2'_3 
REMARK    2  A    between atoms: C2'_3  and  C1'_4 
REMARK    3  A    between atoms: C1'_4  and  C1_5 
ROOT
ATOM      1  C1  N4B d   1      -0.767  -5.999  -3.099  0.00  0.00    -0.075 A 
ATOM      2  C2  N4B d   1      -1.964  -5.987  -3.849  0.00  0.00     0.002 A 
ATOM      3  C3  N4B d   1      -1.914  -5.911  -5.219  0.00  0.00     0.002 A 
ATOM      4  C4  N4B d   1      -0.686  -5.825  -5.857  0.00  0.00    -0.004 A 
ATOM      5  C5  N4B d   1       0.466  -5.863  -5.127  0.00  0.00     0.002 A 
ATOM      6  C6  N4B d   1       0.431  -5.944  -3.750  0.00  0.00     0.002 A 
ENDROOT
BRANCH   1   7
ATOM      7  C1' N4B d   1      -0.773  -5.995  -1.594  0.00  0.00     0.057 C 
BRANCH   7   8
ATOM      8  C2' N4B d   1      -2.216  -5.999  -1.099  0.00  0.00     0.009 C 
BRANCH   8   9
ATOM      9  C3' N4B d   1      -2.296  -6.000   0.418  0.00  0.00     0.004 C 
ATOM     10  C4' N4B d   1      -2.626  -4.650   0.982  0.00  0.00     0.003 C 
ENDBRANCH   8   9
ENDBRANCH   7   8
ENDBRANCH   1   7
TORSDOF 3
ENDMDL
