MODEL 1
REMARK minimizedAffinity -5.44713306
REMARK minimizedRMSD -1
REMARK  2 active torsions:
REMARK  status: ('A' for Active; 'I' for Inactive)
REMARK    1  A    between atoms: C2'_3  and  C1'_4 
REMARK    2  A    between atoms: C1'_4  and  C1_5 
ROOT
ATOM      1  C1  I4B d   1       0.434   0.573   1.487  0.00  0.00    -0.075 A 
ATOM      2  C2  I4B d   1      -0.624   0.955   2.273  0.00  0.00     0.003 A 
ATOM      3  C3  I4B d   1      -0.616   0.679   3.662  0.00  0.00     0.002 A 
ATOM      4  C4  I4B d   1       0.439  -0.021   4.210  0.00  0.00    -0.004 A 
ATOM      5  C5  I4B d   1       1.522  -0.387   3.415  0.00  0.00     0.002 A 
ATOM      6  C6  I4B d   1       1.525  -0.078   2.047  0.00  0.00     0.003 A 
ENDROOT
BRANCH   1   7
ATOM      7  C1' I4B d   1       0.377   0.851   0.018  0.00  0.00     0.060 C 
BRANCH   7   8
ATOM      8  C2' I4B d   1       0.223  -0.472  -0.703  0.00  0.00    -0.013 C 
ATOM      9  C4' I4B d   1      -1.168  -1.026  -0.534  0.00  0.00     0.013 C 
ATOM     10  C3' I4B d   1       0.546  -0.252  -2.150  0.00  0.00     0.013 C 
ENDBRANCH   7   8
ENDBRANCH   1   7
TORSDOF 2
ENDMDL
