MODEL 1
REMARK minimizedAffinity -5.09105301
REMARK minimizedRMSD -1
REMARK  2 active torsions:
REMARK  status: ('A' for Active; 'I' for Inactive)
REMARK    1  A    between atoms: C2'_3  and  C1'_4 
REMARK    2  A    between atoms: C1'_4  and  C1_5 
ROOT
ATOM      1  C1  I4B d   1      -0.341   0.008  -0.013  0.00  0.00    -0.075 A 
ATOM      2  C2  I4B d   1       0.676   0.638   0.659  0.00  0.00     0.003 A 
ATOM      3  C3  I4B d   1       0.451   1.183   1.946  0.00  0.00     0.002 A 
ATOM      4  C4  I4B d   1      -0.812   1.121   2.499  0.00  0.00    -0.004 A 
ATOM      5  C5  I4B d   1      -1.837   0.461   1.826  0.00  0.00     0.002 A 
ATOM      6  C6  I4B d   1      -1.598  -0.110   0.568  0.00  0.00     0.003 A 
ENDROOT
BRANCH   1   7
ATOM      7  C1' I4B d   1      -0.077  -0.527  -1.384  0.00  0.00     0.060 C 
BRANCH   7   8
ATOM      8  C2' I4B d   1       0.153   0.651  -2.309  0.00  0.00    -0.013 C 
ATOM      9  C4' I4B d   1       0.686   0.201  -3.644  0.00  0.00     0.013 C 
ATOM     10  C3' I4B d   1      -1.149   1.378  -2.464  0.00  0.00     0.013 C 
ENDBRANCH   7   8
ENDBRANCH   1   7
TORSDOF 2
ENDMDL
