MODEL 1
REMARK minimizedAffinity -3.1326766
REMARK minimizedRMSD -1
REMARK  2 active torsions:
REMARK  status: ('A' for Active; 'I' for Inactive)
REMARK    1  A    between atoms: C2'_3  and  C1'_4 
REMARK    2  A    between atoms: C1'_4  and  C1_5 
ROOT
ATOM      1  C1  I4B d   1       0.070  -0.060  -0.550  0.00  0.00    -0.075 A 
ATOM      2  C2  I4B d   1       1.086   0.298   0.301  0.00  0.00     0.003 A 
ATOM      3  C3  I4B d   1       0.792   0.825   1.581  0.00  0.00     0.002 A 
ATOM      4  C4  I4B d   1      -0.524   1.024   1.948  0.00  0.00    -0.004 A 
ATOM      5  C5  I4B d   1      -1.553   0.640   1.094  0.00  0.00     0.002 A 
ATOM      6  C6  I4B d   1      -1.255   0.083  -0.158  0.00  0.00     0.003 A 
ENDROOT
BRANCH   1   7
ATOM      7  C1' I4B d   1       0.417  -0.583  -1.907  0.00  0.00     0.060 C 
BRANCH   7   8
ATOM      8  C2' I4B d   1       0.673   0.604  -2.814  0.00  0.00    -0.013 C 
ATOM      9  C4' I4B d   1       2.128   0.990  -2.809  0.00  0.00     0.013 C 
ATOM     10  C3' I4B d   1       0.214   0.240  -4.194  0.00  0.00     0.013 C 
ENDBRANCH   7   8
ENDBRANCH   1   7
TORSDOF 2
ENDMDL
