MODEL 1
REMARK minimizedAffinity 0.948863149
REMARK minimizedRMSD -1
REMARK  2 active torsions:
REMARK  status: ('A' for Active; 'I' for Inactive)
REMARK    1  A    between atoms: C2'_3  and  C1'_4 
REMARK    2  A    between atoms: C1'_4  and  C1_5 
ROOT
ATOM      1  C1  I4B d   1       0.075   0.076   0.573  0.00  0.00    -0.075 A 
ATOM      2  C2  I4B d   1      -0.951  -0.397  -0.207  0.00  0.00     0.003 A 
ATOM      3  C3  I4B d   1      -2.285  -0.349   0.264  0.00  0.00     0.002 A 
ATOM      4  C4  I4B d   1      -2.541   0.130   1.533  0.00  0.00    -0.004 A 
ATOM      5  C5  I4B d   1      -1.503   0.630   2.313  0.00  0.00     0.002 A 
ATOM      6  C6  I4B d   1      -0.188   0.615   1.826  0.00  0.00     0.003 A 
ENDROOT
BRANCH   1   7
ATOM      7  C1' I4B d   1       1.476  -0.021   0.058  0.00  0.00     0.060 C 
BRANCH   7   8
ATOM      8  C2' I4B d   1       2.266  -0.890   1.014  0.00  0.00    -0.013 C 
ATOM      9  C4' I4B d   1       3.541  -1.380   0.379  0.00  0.00     0.013 C 
ATOM     10  C3' I4B d   1       2.550  -0.083   2.246  0.00  0.00     0.013 C 
ENDBRANCH   7   8
ENDBRANCH   1   7
TORSDOF 2
ENDMDL
