MODEL 1
REMARK minimizedAffinity 24.4456177
REMARK minimizedRMSD -1
REMARK  0 active torsions:
REMARK  status: ('A' for Active; 'I' for Inactive)
ROOT
ATOM      1  N1  IND d   1       2.821  -3.681  -1.014  0.00  0.00    -0.196 N 
ATOM      2  C2  IND d   1       1.505  -3.766  -1.374  0.00  0.00     0.054 A 
ATOM      3  C3  IND d   1       0.748  -2.977  -0.580  0.00  0.00    -0.031 A 
ATOM      4  C4  IND d   1       1.470  -1.381   1.306  0.00  0.00     0.051 A 
ATOM      5  C5  IND d   1       2.565  -0.988   2.025  0.00  0.00    -0.031 A 
ATOM      6  C6  IND d   1       3.826  -1.480   1.760  0.00  0.00     0.015 A 
ATOM      7  C7  IND d   1       4.043  -2.380   0.755  0.00  0.00    -0.016 A 
ATOM      8  C8  IND d   1       2.933  -2.786   0.028  0.00  0.00    -0.047 A 
ATOM      9  C9  IND d   1       1.644  -2.322   0.320  0.00  0.00    -0.096 A 
ATOM     10  HN1 IND d   1       3.470  -4.113  -1.377  0.00  0.00     0.298 HD
ENDROOT
TORSDOF 0
ENDMDL
