MODEL 1
REMARK minimizedAffinity 13.3230572
REMARK minimizedRMSD -1
REMARK  0 active torsions:
REMARK  status: ('A' for Active; 'I' for Inactive)
ROOT
ATOM      1  N1  IND d   1       5.978  -3.136   1.431  0.00  0.00    -0.196 N 
ATOM      2  C2  IND d   1       6.000  -4.467   1.117  0.00  0.00     0.054 A 
ATOM      3  C3  IND d   1       4.836  -4.831   0.534  0.00  0.00    -0.031 A 
ATOM      4  C4  IND d   1       2.799  -3.388  -0.096  0.00  0.00     0.051 A 
ATOM      5  C5  IND d   1       2.298  -2.122   0.023  0.00  0.00    -0.031 A 
ATOM      6  C6  IND d   1       3.013  -1.108   0.628  0.00  0.00     0.015 A 
ATOM      7  C7  IND d   1       4.267  -1.321   1.127  0.00  0.00    -0.016 A 
ATOM      8  C8  IND d   1       4.776  -2.607   1.014  0.00  0.00    -0.047 A 
ATOM      9  C9  IND d   1       4.038  -3.650   0.440  0.00  0.00    -0.096 A 
ATOM     10  HN1 IND d   1       6.609  -2.703   1.823  0.00  0.00     0.298 HD
ENDROOT
TORSDOF 0
ENDMDL
