MODEL 1
REMARK minimizedAffinity 20.2142467
REMARK minimizedRMSD -1
REMARK  0 active torsions:
REMARK  status: ('A' for Active; 'I' for Inactive)
ROOT
ATOM      1  N1  IND d   1       4.313  -5.691  -1.011  0.00  0.00    -0.196 N 
ATOM      2  C2  IND d   1       5.632  -5.615  -1.363  0.00  0.00     0.054 A 
ATOM      3  C3  IND d   1       5.771  -4.929  -2.519  0.00  0.00    -0.031 A 
ATOM      4  C4  IND d   1       3.982  -3.754  -3.950  0.00  0.00     0.051 A 
ATOM      5  C5  IND d   1       2.631  -3.577  -4.053  0.00  0.00    -0.031 A 
ATOM      6  C6  IND d   1       1.754  -4.103  -3.127  0.00  0.00     0.015 A 
ATOM      7  C7  IND d   1       2.198  -4.821  -2.053  0.00  0.00    -0.016 A 
ATOM      8  C8  IND d   1       3.569  -5.009  -1.949  0.00  0.00    -0.047 A 
ATOM      9  C9  IND d   1       4.461  -4.513  -2.908  0.00  0.00    -0.096 A 
ATOM     10  HN1 IND d   1       4.001  -6.097  -0.320  0.00  0.00     0.298 HD
ENDROOT
TORSDOF 0
ENDMDL
