MODEL 1
REMARK minimizedAffinity 17.4639359
REMARK minimizedRMSD -1
REMARK  0 active torsions:
REMARK  status: ('A' for Active; 'I' for Inactive)
ROOT
ATOM      1  N1  IND d   1       0.743  -3.218  -2.343  0.00  0.00    -0.196 N 
ATOM      2  C2  IND d   1       1.188  -4.509  -2.280  0.00  0.00     0.054 A 
ATOM      3  C3  IND d   1       1.945  -4.693  -1.175  0.00  0.00    -0.031 A 
ATOM      4  C4  IND d   1       2.500  -3.042   0.720  0.00  0.00     0.051 A 
ATOM      5  C5  IND d   1       2.349  -1.734   1.088  0.00  0.00    -0.031 A 
ATOM      6  C6  IND d   1       1.639  -0.837   0.317  0.00  0.00     0.015 A 
ATOM      7  C7  IND d   1       1.040  -1.218  -0.850  0.00  0.00    -0.016 A 
ATOM      8  C8  IND d   1       1.197  -2.544  -1.231  0.00  0.00    -0.047 A 
ATOM      9  C9  IND d   1       1.953  -3.448  -0.474  0.00  0.00    -0.096 A 
ATOM     10  HN1 IND d   1       0.261  -2.883  -2.971  0.00  0.00     0.298 HD
ENDROOT
TORSDOF 0
ENDMDL
