MODEL 1
REMARK minimizedAffinity 16.2641239
REMARK minimizedRMSD -1
REMARK  0 active torsions:
REMARK  status: ('A' for Active; 'I' for Inactive)
ROOT
ATOM      1  N1  IND d   1       0.898  -3.592  -1.647  0.00  0.00    -0.196 N 
ATOM      2  C2  IND d   1       1.514  -4.735  -2.074  0.00  0.00     0.054 A 
ATOM      3  C3  IND d   1       2.710  -4.883  -1.460  0.00  0.00    -0.031 A 
ATOM      4  C4  IND d   1       3.808  -3.423   0.353  0.00  0.00     0.051 A 
ATOM      5  C5  IND d   1       3.644  -2.253   1.040  0.00  0.00    -0.031 A 
ATOM      6  C6  IND d   1       2.533  -1.454   0.864  0.00  0.00     0.015 A 
ATOM      7  C7  IND d   1       1.534  -1.804  -0.000  0.00  0.00    -0.016 A 
ATOM      8  C8  IND d   1       1.700  -2.988  -0.704  0.00  0.00    -0.047 A 
ATOM      9  C9  IND d   1       2.846  -3.781  -0.561  0.00  0.00    -0.096 A 
ATOM     10  HN1 IND d   1       0.138  -3.299  -1.921  0.00  0.00     0.298 HD
ENDROOT
TORSDOF 0
ENDMDL
