MODEL 1
REMARK minimizedAffinity 18.6151905
REMARK minimizedRMSD -1
REMARK  0 active torsions:
REMARK  status: ('A' for Active; 'I' for Inactive)
ROOT
ATOM      1  N1  IND d   1       4.971  -5.511  -0.487  0.00  0.00    -0.196 N 
ATOM      2  C2  IND d   1       5.518  -4.978   0.646  0.00  0.00     0.054 A 
ATOM      3  C3  IND d   1       4.734  -3.985   1.125  0.00  0.00    -0.031 A 
ATOM      4  C4  IND d   1       2.460  -3.139   0.266  0.00  0.00     0.051 A 
ATOM      5  C5  IND d   1       1.572  -3.292  -0.762  0.00  0.00    -0.031 A 
ATOM      6  C6  IND d   1       1.774  -4.213  -1.769  0.00  0.00     0.015 A 
ATOM      7  C7  IND d   1       2.871  -5.027  -1.780  0.00  0.00    -0.016 A 
ATOM      8  C8  IND d   1       3.779  -4.869  -0.742  0.00  0.00    -0.047 A 
ATOM      9  C9  IND d   1       3.601  -3.907   0.260  0.00  0.00    -0.096 A 
ATOM     10  HN1 IND d   1       5.314  -6.141  -0.961  0.00  0.00     0.298 HD
ENDROOT
TORSDOF 0
ENDMDL
