MODEL 1
REMARK minimizedAffinity 1.67445827
REMARK minimizedRMSD -1
REMARK  0 active torsions:
REMARK  status: ('A' for Active; 'I' for Inactive)
ROOT
ATOM      1  N1  IND d   1      -3.922   1.583  -4.262  0.00  0.00    -0.196 N 
ATOM      2  C2  IND d   1      -5.239   1.670  -4.619  0.00  0.00     0.054 A 
ATOM      3  C3  IND d   1      -5.564   2.949  -4.910  0.00  0.00    -0.031 A 
ATOM      4  C4  IND d   1      -4.068   5.044  -4.967  0.00  0.00     0.051 A 
ATOM      5  C5  IND d   1      -2.801   5.471  -4.684  0.00  0.00    -0.031 A 
ATOM      6  C6  IND d   1      -1.823   4.606  -4.239  0.00  0.00     0.015 A 
ATOM      7  C7  IND d   1      -2.073   3.273  -4.071  0.00  0.00    -0.016 A 
ATOM      8  C8  IND d   1      -3.360   2.837  -4.351  0.00  0.00    -0.047 A 
ATOM      9  C9  IND d   1      -4.369   3.718  -4.762  0.00  0.00    -0.096 A 
ATOM     10  HN1 IND d   1      -3.514   0.865  -4.023  0.00  0.00     0.298 HD
ENDROOT
TORSDOF 0
ENDMDL
