MODEL 1
REMARK minimizedAffinity 22.5107307
REMARK minimizedRMSD -1
REMARK  0 active torsions:
REMARK  status: ('A' for Active; 'I' for Inactive)
ROOT
ATOM      1  N1  IND d   1       1.587   2.586   3.623  0.00  0.00    -0.196 N 
ATOM      2  C2  IND d   1       0.932   1.427   3.934  0.00  0.00     0.054 A 
ATOM      3  C3  IND d   1       0.281   0.950   2.849  0.00  0.00    -0.031 A 
ATOM      4  C4  IND d   1       0.237   1.854   0.439  0.00  0.00     0.051 A 
ATOM      5  C5  IND d   1       0.655   2.908  -0.324  0.00  0.00    -0.031 A 
ATOM      6  C6  IND d   1       1.422   3.928   0.200  0.00  0.00     0.015 A 
ATOM      7  C7  IND d   1       1.812   3.926   1.510  0.00  0.00    -0.016 A 
ATOM      8  C8  IND d   1       1.384   2.861   2.289  0.00  0.00    -0.047 A 
ATOM      9  C9  IND d   1       0.569   1.844   1.773  0.00  0.00    -0.096 A 
ATOM     10  HN1 IND d   1       2.048   3.063   4.170  0.00  0.00     0.298 HD
ENDROOT
TORSDOF 0
ENDMDL
