MODEL 1
REMARK minimizedAffinity 10.282876
REMARK minimizedRMSD -1
REMARK  0 active torsions:
REMARK  status: ('A' for Active; 'I' for Inactive)
ROOT
ATOM      1  N1  IND d   1       6.000  -3.529   1.121  0.00  0.00    -0.196 N 
ATOM      2  C2  IND d   1       6.000  -4.845   0.752  0.00  0.00     0.054 A 
ATOM      3  C3  IND d   1       4.776  -5.208   0.305  0.00  0.00    -0.031 A 
ATOM      4  C4  IND d   1       2.657  -3.779  -0.003  0.00  0.00     0.051 A 
ATOM      5  C5  IND d   1       2.158  -2.528   0.231  0.00  0.00    -0.031 A 
ATOM      6  C6  IND d   1       2.931  -1.526   0.782  0.00  0.00     0.015 A 
ATOM      7  C7  IND d   1       4.240  -1.735   1.110  0.00  0.00    -0.016 A 
ATOM      8  C8  IND d   1       4.748  -3.006   0.881  0.00  0.00    -0.047 A 
ATOM      9  C9  IND d   1       3.957  -4.039   0.362  0.00  0.00    -0.096 A 
ATOM     10  HN1 IND d   1       6.669  -3.100   1.448  0.00  0.00     0.298 HD
ENDROOT
TORSDOF 0
ENDMDL
