MODEL 1
REMARK minimizedAffinity 13.5083828
REMARK minimizedRMSD -1
REMARK  0 active torsions:
REMARK  status: ('A' for Active; 'I' for Inactive)
ROOT
ATOM      1  N1  IND d   1       5.992  -3.123   1.455  0.00  0.00    -0.196 N 
ATOM      2  C2  IND d   1       6.000  -4.485   1.342  0.00  0.00     0.054 A 
ATOM      3  C3  IND d   1       4.785  -4.931   0.952  0.00  0.00    -0.031 A 
ATOM      4  C4  IND d   1       2.670  -3.595   0.343  0.00  0.00     0.051 A 
ATOM      5  C5  IND d   1       2.166  -2.325   0.327  0.00  0.00    -0.031 A 
ATOM      6  C6  IND d   1       2.927  -1.234   0.691  0.00  0.00     0.015 A 
ATOM      7  C7  IND d   1       4.231  -1.371   1.075  0.00  0.00    -0.016 A 
ATOM      8  C8  IND d   1       4.744  -2.660   1.100  0.00  0.00    -0.047 A 
ATOM      9  C9  IND d   1       3.964  -3.776   0.772  0.00  0.00    -0.096 A 
ATOM     10  HN1 IND d   1       6.656  -2.637   1.706  0.00  0.00     0.298 HD
ENDROOT
TORSDOF 0
ENDMDL
