MODEL 1
REMARK minimizedAffinity 18.4724369
REMARK minimizedRMSD -1
REMARK  0 active torsions:
REMARK  status: ('A' for Active; 'I' for Inactive)
ROOT
ATOM      1  N1  IND d   1      -5.998  -4.990   1.692  0.00  0.00    -0.196 N 
ATOM      2  C2  IND d   1      -5.773  -4.978   3.040  0.00  0.00     0.054 A 
ATOM      3  C3  IND d   1      -5.488  -3.724   3.458  0.00  0.00    -0.031 A 
ATOM      4  C4  IND d   1      -5.436  -1.526   2.119  0.00  0.00     0.051 A 
ATOM      5  C5  IND d   1      -5.539  -1.037   0.847  0.00  0.00    -0.031 A 
ATOM      6  C6  IND d   1      -5.809  -1.857  -0.230  0.00  0.00     0.015 A 
ATOM      7  C7  IND d   1      -5.997  -3.201  -0.072  0.00  0.00    -0.016 A 
ATOM      8  C8  IND d   1      -5.886  -3.702   1.217  0.00  0.00    -0.047 A 
ATOM      9  C9  IND d   1      -5.571  -2.882   2.308  0.00  0.00    -0.096 A 
ATOM     10  HN1 IND d   1      -6.178  -5.686   1.219  0.00  0.00     0.298 HD
ENDROOT
TORSDOF 0
ENDMDL
