MODEL 1
REMARK minimizedAffinity 16.0607185
REMARK minimizedRMSD -1
REMARK  0 active torsions:
REMARK  status: ('A' for Active; 'I' for Inactive)
ROOT
ATOM      1  N1  IND d   1       0.604   1.478   0.874  0.00  0.00    -0.196 N 
ATOM      2  C2  IND d   1       0.072   2.627   0.358  0.00  0.00     0.054 A 
ATOM      3  C3  IND d   1      -1.198   2.793   0.793  0.00  0.00    -0.031 A 
ATOM      4  C4  IND d   1      -2.565   1.357   2.435  0.00  0.00     0.051 A 
ATOM      5  C5  IND d   1      -2.517   0.188   3.142  0.00  0.00    -0.031 A 
ATOM      6  C6  IND d   1      -1.403  -0.625   3.131  0.00  0.00     0.015 A 
ATOM      7  C7  IND d   1      -0.285  -0.293   2.418  0.00  0.00    -0.016 A 
ATOM      8  C8  IND d   1      -0.333   0.889   1.693  0.00  0.00    -0.047 A 
ATOM      9  C9  IND d   1      -1.477   1.698   1.667  0.00  0.00    -0.096 A 
ATOM     10  HN1 IND d   1       1.392   1.174   0.713  0.00  0.00     0.298 HD
ENDROOT
TORSDOF 0
ENDMDL
