MODEL 1
REMARK minimizedAffinity 10.4572725
REMARK minimizedRMSD -1
REMARK  0 active torsions:
REMARK  status: ('A' for Active; 'I' for Inactive)
ROOT
ATOM      1  N1  IND d   1       5.626  -4.895   1.477  0.00  0.00    -0.196 N 
ATOM      2  C2  IND d   1       5.891  -5.976   0.682  0.00  0.00     0.054 A 
ATOM      3  C3  IND d   1       5.145  -5.925  -0.444  0.00  0.00    -0.031 A 
ATOM      4  C4  IND d   1       3.500  -4.110  -1.237  0.00  0.00     0.051 A 
ATOM      5  C5  IND d   1       2.901  -2.950  -0.834  0.00  0.00    -0.031 A 
ATOM      6  C6  IND d   1       3.187  -2.365   0.382  0.00  0.00     0.015 A 
ATOM      7  C7  IND d   1       4.096  -2.916   1.241  0.00  0.00    -0.016 A 
ATOM      8  C8  IND d   1       4.701  -4.098   0.839  0.00  0.00    -0.047 A 
ATOM      9  C9  IND d   1       4.383  -4.719  -0.376  0.00  0.00    -0.096 A 
ATOM     10  HN1 IND d   1       5.978  -4.740   2.246  0.00  0.00     0.298 HD
ENDROOT
TORSDOF 0
ENDMDL
