MODEL 1
REMARK minimizedAffinity 17.7899761
REMARK minimizedRMSD -1
REMARK  0 active torsions:
REMARK  status: ('A' for Active; 'I' for Inactive)
ROOT
ATOM      1  N1  IND d   1      -1.694   1.788  -2.412  0.00  0.00    -0.196 N 
ATOM      2  C2  IND d   1      -1.601   2.666  -3.456  0.00  0.00     0.054 A 
ATOM      3  C3  IND d   1      -0.727   3.655  -3.164  0.00  0.00    -0.031 A 
ATOM      4  C4  IND d   1       0.741   3.974  -1.073  0.00  0.00     0.051 A 
ATOM      5  C5  IND d   1       0.979   3.450   0.166  0.00  0.00    -0.031 A 
ATOM      6  C6  IND d   1       0.328   2.320   0.618  0.00  0.00     0.015 A 
ATOM      7  C7  IND d   1      -0.582   1.664  -0.162  0.00  0.00    -0.016 A 
ATOM      8  C8  IND d   1      -0.832   2.197  -1.418  0.00  0.00    -0.047 A 
ATOM      9  C9  IND d   1      -0.205   3.368  -1.865  0.00  0.00    -0.096 A 
ATOM     10  HN1 IND d   1      -2.204   1.097  -2.381  0.00  0.00     0.298 HD
ENDROOT
TORSDOF 0
ENDMDL
