MODEL 1
REMARK minimizedAffinity 4.52072048
REMARK minimizedRMSD -1
REMARK  0 active torsions:
REMARK  status: ('A' for Active; 'I' for Inactive)
ROOT
ATOM      1  N1  IND d   1      -1.372  -5.871   5.999  0.00  0.00    -0.196 N 
ATOM      2  C2  IND d   1      -0.057  -5.895   5.627  0.00  0.00     0.054 A 
ATOM      3  C3  IND d   1       0.322  -4.683   5.162  0.00  0.00    -0.031 A 
ATOM      4  C4  IND d   1      -1.023  -2.492   5.019  0.00  0.00     0.051 A 
ATOM      5  C5  IND d   1      -2.278  -1.984   5.209  0.00  0.00    -0.031 A 
ATOM      6  C6  IND d   1      -3.315  -2.761   5.684  0.00  0.00     0.015 A 
ATOM      7  C7  IND d   1      -3.132  -4.078   5.999  0.00  0.00    -0.016 A 
ATOM      8  C8  IND d   1      -1.862  -4.599   5.801  0.00  0.00    -0.047 A 
ATOM      9  C9  IND d   1      -0.816  -3.826   5.279  0.00  0.00    -0.096 A 
ATOM     10  HN1 IND d   1      -1.819  -6.539   6.306  0.00  0.00     0.298 HD
ENDROOT
TORSDOF 0
ENDMDL
