MODEL 1
REMARK minimizedAffinity 6.51920462
REMARK minimizedRMSD -1
REMARK  0 active torsions:
REMARK  status: ('A' for Active; 'I' for Inactive)
ROOT
ATOM      1  N1  IND d   1      -3.264   5.627  -1.467  0.00  0.00    -0.196 N 
ATOM      2  C2  IND d   1      -3.677   6.000  -0.218  0.00  0.00     0.054 A 
ATOM      3  C3  IND d   1      -2.746   5.667   0.704  0.00  0.00    -0.031 A 
ATOM      4  C4  IND d   1      -0.428   4.597   0.376  0.00  0.00     0.051 A 
ATOM      5  C5  IND d   1       0.379   4.045  -0.580  0.00  0.00    -0.031 A 
ATOM      6  C6  IND d   1       0.006   3.994  -1.907  0.00  0.00     0.015 A 
ATOM      7  C7  IND d   1      -1.188   4.505  -2.332  0.00  0.00    -0.016 A 
ATOM      8  C8  IND d   1      -2.012   5.060  -1.363  0.00  0.00    -0.047 A 
ATOM      9  C9  IND d   1      -1.658   5.076  -0.008  0.00  0.00    -0.096 A 
ATOM     10  HN1 IND d   1      -3.710   5.729  -2.195  0.00  0.00     0.298 HD
ENDROOT
TORSDOF 0
ENDMDL
