MODEL 1
REMARK minimizedAffinity 23.2631168
REMARK minimizedRMSD -1
REMARK  0 active torsions:
REMARK  status: ('A' for Active; 'I' for Inactive)
ROOT
ATOM      1  N1  IND d   1       2.609   0.221  -3.814  0.00  0.00    -0.196 N 
ATOM      2  C2  IND d   1       2.936  -0.412  -4.980  0.00  0.00     0.054 A 
ATOM      3  C3  IND d   1       2.185   0.064  -6.000  0.00  0.00    -0.031 A 
ATOM      4  C4  IND d   1       0.434   1.950  -6.000  0.00  0.00     0.051 A 
ATOM      5  C5  IND d   1      -0.233   2.801  -5.163  0.00  0.00    -0.031 A 
ATOM      6  C6  IND d   1       0.021   2.839  -3.808  0.00  0.00     0.015 A 
ATOM      7  C7  IND d   1       0.963   2.030  -3.237  0.00  0.00    -0.016 A 
ATOM      8  C8  IND d   1       1.637   1.160  -4.082  0.00  0.00    -0.047 A 
ATOM      9  C9  IND d   1       1.354   1.087  -5.452  0.00  0.00    -0.096 A 
ATOM     10  HN1 IND d   1       2.952   0.060  -3.042  0.00  0.00     0.298 HD
ENDROOT
TORSDOF 0
ENDMDL
