MODEL 1
REMARK minimizedAffinity 27.4805012
REMARK minimizedRMSD -1
REMARK  0 active torsions:
REMARK  status: ('A' for Active; 'I' for Inactive)
ROOT
ATOM      1  N1  IND d   1      -0.913   1.139   3.245  0.00  0.00    -0.196 N 
ATOM      2  C2  IND d   1       0.366   1.221   3.720  0.00  0.00     0.054 A 
ATOM      3  C3  IND d   1       1.138   1.935   2.871  0.00  0.00    -0.031 A 
ATOM      4  C4  IND d   1       0.487   3.148   0.695  0.00  0.00     0.051 A 
ATOM      5  C5  IND d   1      -0.559   3.331  -0.165  0.00  0.00    -0.031 A 
ATOM      6  C6  IND d   1      -1.803   2.784   0.075  0.00  0.00     0.015 A 
ATOM      7  C7  IND d   1      -2.051   2.039   1.193  0.00  0.00    -0.016 A 
ATOM      8  C8  IND d   1      -0.989   1.846   2.065  0.00  0.00    -0.047 A 
ATOM      9  C9  IND d   1       0.287   2.363   1.806  0.00  0.00    -0.096 A 
ATOM     10  HN1 IND d   1      -1.562   0.718   3.620  0.00  0.00     0.298 HD
ENDROOT
TORSDOF 0
ENDMDL
