MODEL 1
REMARK minimizedAffinity 13.7664404
REMARK minimizedRMSD -1
REMARK  0 active torsions:
REMARK  status: ('A' for Active; 'I' for Inactive)
ROOT
ATOM      1  N1  IND d   1      -2.455   2.243  -2.954  0.00  0.00    -0.196 N 
ATOM      2  C2  IND d   1      -3.068   1.061  -2.644  0.00  0.00     0.054 A 
ATOM      3  C3  IND d   1      -2.569   0.561  -1.492  0.00  0.00    -0.031 A 
ATOM      4  C4  IND d   1      -0.815   1.565   0.104  0.00  0.00     0.051 A 
ATOM      5  C5  IND d   1       0.055   2.612   0.227  0.00  0.00    -0.031 A 
ATOM      6  C6  IND d   1       0.132   3.611  -0.722  0.00  0.00     0.015 A 
ATOM      7  C7  IND d   1      -0.669   3.606  -1.828  0.00  0.00    -0.016 A 
ATOM      8  C8  IND d   1      -1.548   2.541  -1.960  0.00  0.00    -0.047 A 
ATOM      9  C9  IND d   1      -1.602   1.502  -1.022  0.00  0.00    -0.096 A 
ATOM     10  HN1 IND d   1      -2.609   2.721  -3.653  0.00  0.00     0.298 HD
ENDROOT
TORSDOF 0
ENDMDL
