MODEL 1
REMARK minimizedAffinity 0.170194745
REMARK minimizedRMSD -1
REMARK  0 active torsions:
REMARK  status: ('A' for Active; 'I' for Inactive)
ROOT
ATOM      1  N1  IND d   1      -0.816  -1.526  -0.712  0.00  0.00    -0.196 N 
ATOM      2  C2  IND d   1      -0.883  -1.026   0.558  0.00  0.00     0.054 A 
ATOM      3  C3  IND d   1      -1.729   0.028   0.605  0.00  0.00    -0.031 A 
ATOM      4  C4  IND d   1      -3.187   1.039  -1.259  0.00  0.00     0.051 A 
ATOM      5  C5  IND d   1      -3.441   0.945  -2.599  0.00  0.00    -0.031 A 
ATOM      6  C6  IND d   1      -2.822   0.002  -3.394  0.00  0.00     0.015 A 
ATOM      7  C7  IND d   1      -1.931  -0.894  -2.874  0.00  0.00    -0.016 A 
ATOM      8  C8  IND d   1      -1.666  -0.797  -1.515  0.00  0.00    -0.047 A 
ATOM      9  C9  IND d   1      -2.259   0.185  -0.712  0.00  0.00    -0.096 A 
ATOM     10  HN1 IND d   1      -0.326  -2.184  -0.967  0.00  0.00     0.298 HD
ENDROOT
TORSDOF 0
ENDMDL
