MODEL 1
REMARK minimizedAffinity -5.48965406
REMARK minimizedRMSD -1
REMARK  0 active torsions:
REMARK  status: ('A' for Active; 'I' for Inactive)
ROOT
ATOM      1  N1  IND d   1      -0.908  -1.355   1.145  0.00  0.00    -0.196 N 
ATOM      2  C2  IND d   1      -1.330  -0.414   0.247  0.00  0.00     0.054 A 
ATOM      3  C3  IND d   1      -0.270   0.218  -0.305  0.00  0.00    -0.031 A 
ATOM      4  C4  IND d   1       2.246  -0.201   0.043  0.00  0.00     0.051 A 
ATOM      5  C5  IND d   1       3.123  -0.933   0.793  0.00  0.00    -0.031 A 
ATOM      6  C6  IND d   1       2.692  -1.864   1.716  0.00  0.00     0.015 A 
ATOM      7  C7  IND d   1       1.362  -2.107   1.915  0.00  0.00    -0.016 A 
ATOM      8  C8  IND d   1       0.469  -1.360   1.160  0.00  0.00    -0.047 A 
ATOM      9  C9  IND d   1       0.900  -0.383   0.252  0.00  0.00    -0.096 A 
ATOM     10  HN1 IND d   1      -1.418  -1.858   1.620  0.00  0.00     0.298 HD
ENDROOT
TORSDOF 0
ENDMDL
