MODEL 1
REMARK minimizedAffinity -0.461369902
REMARK minimizedRMSD -1
REMARK  0 active torsions:
REMARK  status: ('A' for Active; 'I' for Inactive)
ROOT
ATOM      1  N1  IND d   1      -0.793   0.492  -1.146  0.00  0.00    -0.196 N 
ATOM      2  C2  IND d   1      -1.457  -0.465  -0.430  0.00  0.00     0.054 A 
ATOM      3  C3  IND d   1      -0.780  -0.759   0.702  0.00  0.00    -0.031 A 
ATOM      4  C4  IND d   1       1.385   0.281   1.630  0.00  0.00     0.051 A 
ATOM      5  C5  IND d   1       2.376   1.167   1.314  0.00  0.00    -0.031 A 
ATOM      6  C6  IND d   1       2.360   1.889   0.138  0.00  0.00     0.015 A 
ATOM      7  C7  IND d   1       1.342   1.761  -0.763  0.00  0.00    -0.016 A 
ATOM      8  C8  IND d   1       0.337   0.857  -0.448  0.00  0.00    -0.047 A 
ATOM      9  C9  IND d   1       0.369   0.090   0.724  0.00  0.00    -0.096 A 
ATOM     10  HN1 IND d   1      -1.040   0.812  -1.905  0.00  0.00     0.298 HD
ENDROOT
TORSDOF 0
ENDMDL
