MODEL 1
REMARK minimizedAffinity -2.59979391
REMARK minimizedRMSD -1
REMARK  0 active torsions:
REMARK  status: ('A' for Active; 'I' for Inactive)
ROOT
ATOM      1  N1  IND d   1       0.616   1.761   0.112  0.00  0.00    -0.196 N 
ATOM      2  C2  IND d   1       1.927   1.611   0.470  0.00  0.00     0.054 A 
ATOM      3  C3  IND d   1       2.144   0.366   0.952  0.00  0.00    -0.031 A 
ATOM      4  C4  IND d   1       0.516  -1.618   1.148  0.00  0.00     0.051 A 
ATOM      5  C5  IND d   1      -0.799  -1.954   0.982  0.00  0.00    -0.031 A 
ATOM      6  C6  IND d   1      -1.727  -1.051   0.504  0.00  0.00     0.015 A 
ATOM      7  C7  IND d   1      -1.371   0.223   0.164  0.00  0.00    -0.016 A 
ATOM      8  C8  IND d   1      -0.039   0.570   0.338  0.00  0.00    -0.047 A 
ATOM      9  C9  IND d   1       0.899  -0.329   0.862  0.00  0.00    -0.096 A 
ATOM     10  HN1 IND d   1       0.260   2.478  -0.202  0.00  0.00     0.298 HD
ENDROOT
TORSDOF 0
ENDMDL
