MODEL 1
REMARK minimizedAffinity -3.87068892
REMARK minimizedRMSD -1
REMARK  0 active torsions:
REMARK  status: ('A' for Active; 'I' for Inactive)
ROOT
ATOM      1  N1  IND d   1      -0.199  -0.782  -0.020  0.00  0.00    -0.196 N 
ATOM      2  C2  IND d   1      -0.192   0.503  -0.487  0.00  0.00     0.054 A 
ATOM      3  C3  IND d   1       1.003   1.085  -0.244  0.00  0.00    -0.031 A 
ATOM      4  C4  IND d   1       3.126   0.083   0.813  0.00  0.00     0.051 A 
ATOM      5  C5  IND d   1       3.594  -1.044   1.428  0.00  0.00    -0.031 A 
ATOM      6  C6  IND d   1       2.807  -2.165   1.592  0.00  0.00     0.015 A 
ATOM      7  C7  IND d   1       1.520  -2.205   1.135  0.00  0.00    -0.016 A 
ATOM      8  C8  IND d   1       1.039  -1.060   0.517  0.00  0.00    -0.047 A 
ATOM      9  C9  IND d   1       1.819   0.096   0.386  0.00  0.00    -0.096 A 
ATOM     10  HN1 IND d   1      -0.864  -1.325  -0.056  0.00  0.00     0.298 HD
ENDROOT
TORSDOF 0
ENDMDL
