MODEL 1
REMARK minimizedAffinity -5.39637375
REMARK minimizedRMSD -1
REMARK  0 active torsions:
REMARK  status: ('A' for Active; 'I' for Inactive)
ROOT
ATOM      1  N1  IND d   1       2.175   0.551   0.366  0.00  0.00    -0.196 N 
ATOM      2  C2  IND d   1       3.225  -0.209   0.799  0.00  0.00     0.054 A 
ATOM      3  C3  IND d   1       2.782  -1.389   1.287  0.00  0.00    -0.031 A 
ATOM      4  C4  IND d   1       0.386  -2.325   1.380  0.00  0.00     0.051 A 
ATOM      5  C5  IND d   1      -0.914  -1.982   1.135  0.00  0.00    -0.031 A 
ATOM      6  C6  IND d   1      -1.258  -0.754   0.609  0.00  0.00     0.015 A 
ATOM      7  C7  IND d   1      -0.309   0.178   0.295  0.00  0.00    -0.016 A 
ATOM      8  C8  IND d   1       1.012  -0.164   0.549  0.00  0.00    -0.047 A 
ATOM      9  C9  IND d   1       1.363  -1.393   1.122  0.00  0.00    -0.096 A 
ATOM     10  HN1 IND d   1       2.231   1.343   0.035  0.00  0.00     0.298 HD
ENDROOT
TORSDOF 0
ENDMDL
