MODEL 1
REMARK minimizedAffinity -3.35062861
REMARK minimizedRMSD -1
REMARK  0 active torsions:
REMARK  status: ('A' for Active; 'I' for Inactive)
ROOT
ATOM      1  N1  IND d   1      -0.795  -1.068   0.666  0.00  0.00    -0.196 N 
ATOM      2  C2  IND d   1      -1.054  -0.018  -0.170  0.00  0.00     0.054 A 
ATOM      3  C3  IND d   1       0.017   0.803  -0.240  0.00  0.00    -0.031 A 
ATOM      4  C4  IND d   1       2.336   0.564   0.853  0.00  0.00     0.051 A 
ATOM      5  C5  IND d   1       3.037  -0.211   1.733  0.00  0.00    -0.031 A 
ATOM      6  C6  IND d   1       2.486  -1.336   2.312  0.00  0.00     0.015 A 
ATOM      7  C7  IND d   1       1.212  -1.736   2.023  0.00  0.00    -0.016 A 
ATOM      8  C8  IND d   1       0.495  -0.947   1.135  0.00  0.00    -0.047 A 
ATOM      9  C9  IND d   1       1.034   0.220   0.577  0.00  0.00    -0.096 A 
ATOM     10  HN1 IND d   1      -1.345  -1.698   0.866  0.00  0.00     0.298 HD
ENDROOT
TORSDOF 0
ENDMDL
