MODEL 1
REMARK minimizedAffinity -5.06808853
REMARK minimizedRMSD -1
REMARK  0 active torsions:
REMARK  status: ('A' for Active; 'I' for Inactive)
ROOT
ATOM      1  N1  IND d   1      -0.573   0.134   0.622  0.00  0.00    -0.196 N 
ATOM      2  C2  IND d   1      -0.408   1.314  -0.048  0.00  0.00     0.054 A 
ATOM      3  C3  IND d   1       0.905   1.560  -0.251  0.00  0.00    -0.031 A 
ATOM      4  C4  IND d   1       2.951   0.115   0.342  0.00  0.00     0.051 A 
ATOM      5  C5  IND d   1       3.307  -1.033   0.995  0.00  0.00    -0.031 A 
ATOM      6  C6  IND d   1       2.368  -1.868   1.565  0.00  0.00     0.015 A 
ATOM      7  C7  IND d   1       1.032  -1.592   1.494  0.00  0.00    -0.016 A 
ATOM      8  C8  IND d   1       0.668  -0.424   0.839  0.00  0.00    -0.047 A 
ATOM      9  C9  IND d   1       1.618   0.449   0.295  0.00  0.00    -0.096 A 
ATOM     10  HN1 IND d   1      -1.325  -0.203   0.868  0.00  0.00     0.298 HD
ENDROOT
TORSDOF 0
ENDMDL
