MODEL 1
REMARK minimizedAffinity 1.52402651
REMARK minimizedRMSD -1
REMARK  2 active torsions:
REMARK  status: ('A' for Active; 'I' for Inactive)
REMARK    1  A    between atoms: C1_2  and  C2_3 
REMARK    2  A    between atoms: C2_3  and  C3_4 
ROOT
ATOM      1  C3  UNL d   1      -5.341   3.880  -4.154  0.00  0.00    -0.075 A 
ATOM      2  C4  UNL d   1      -4.412   3.537  -3.161  0.00  0.00     0.002 A 
ATOM      3  C5  UNL d   1      -4.166   4.401  -2.093  0.00  0.00     0.002 A 
ATOM      4  C6  UNL d   1      -4.836   5.619  -2.009  0.00  0.00    -0.004 A 
ATOM      5  C7  UNL d   1      -5.749   5.977  -2.999  0.00  0.00     0.002 A 
ATOM      6  C8  UNL d   1      -6.000   5.114  -4.067  0.00  0.00     0.002 A 
ENDROOT
BRANCH   1   7
ATOM      7  C2  UNL d   1      -5.633   2.937  -5.297  0.00  0.00     0.056 C 
BRANCH   7   8
ATOM      8  C1  UNL d   1      -5.999   1.517  -4.855  0.00  0.00     0.007 C 
ATOM      9  C   UNL d   1      -5.840   0.484  -5.963  0.00  0.00     0.009 C 
ENDBRANCH   7   8
ENDBRANCH   1   7
TORSDOF 2
ENDMDL
