MODEL 1
REMARK minimizedAffinity -0.939872503
REMARK minimizedRMSD -1
REMARK  2 active torsions:
REMARK  status: ('A' for Active; 'I' for Inactive)
REMARK    1  A    between atoms: C1_2  and  C2_3 
REMARK    2  A    between atoms: C2_3  and  C3_4 
ROOT
ATOM      1  C3  UNL d   1      -0.526   2.267  -0.865  0.00  0.00    -0.075 A 
ATOM      2  C4  UNL d   1       0.005   0.995  -0.604  0.00  0.00     0.002 A 
ATOM      3  C5  UNL d   1      -0.396  -0.108  -1.357  0.00  0.00     0.002 A 
ATOM      4  C6  UNL d   1      -1.339   0.043  -2.372  0.00  0.00    -0.004 A 
ATOM      5  C7  UNL d   1      -1.886   1.298  -2.629  0.00  0.00     0.002 A 
ATOM      6  C8  UNL d   1      -1.483   2.405  -1.879  0.00  0.00     0.002 A 
ENDROOT
BRANCH   1   7
ATOM      7  C2  UNL d   1      -0.074   3.470  -0.073  0.00  0.00     0.056 C 
BRANCH   7   8
ATOM      8  C1  UNL d   1       0.212   4.709  -0.929  0.00  0.00     0.007 C 
ATOM      9  C   UNL d   1      -0.405   5.983  -0.366  0.00  0.00     0.009 C 
ENDBRANCH   7   8
ENDBRANCH   1   7
TORSDOF 2
ENDMDL
