MODEL 1
REMARK minimizedAffinity 9.07886219
REMARK minimizedRMSD -1
REMARK  2 active torsions:
REMARK  status: ('A' for Active; 'I' for Inactive)
REMARK    1  A    between atoms: C1_2  and  C2_3 
REMARK    2  A    between atoms: C2_3  and  C3_4 
ROOT
ATOM      1  C3  UNL d   1      -0.728   4.757  -0.017  0.00  0.00    -0.075 A 
ATOM      2  C4  UNL d   1      -1.224   3.966   1.030  0.00  0.00     0.002 A 
ATOM      3  C5  UNL d   1      -0.515   2.849   1.471  0.00  0.00     0.002 A 
ATOM      4  C6  UNL d   1       0.692   2.502   0.866  0.00  0.00    -0.004 A 
ATOM      5  C7  UNL d   1       1.186   3.271  -0.186  0.00  0.00     0.002 A 
ATOM      6  C8  UNL d   1       0.480   4.392  -0.626  0.00  0.00     0.002 A 
ENDROOT
BRANCH   1   7
ATOM      7  C2  UNL d   1      -1.476   5.985  -0.479  0.00  0.00     0.056 C 
BRANCH   7   8
ATOM      8  C1  UNL d   1      -1.829   5.975  -1.970  0.00  0.00     0.007 C 
ATOM      9  C   UNL d   1      -1.719   4.595  -2.604  0.00  0.00     0.009 C 
ENDBRANCH   7   8
ENDBRANCH   1   7
TORSDOF 2
ENDMDL
