MODEL 1
REMARK minimizedAffinity 9.16002369
REMARK minimizedRMSD -1
REMARK  2 active torsions:
REMARK  status: ('A' for Active; 'I' for Inactive)
REMARK    1  A    between atoms: C1_2  and  C2_3 
REMARK    2  A    between atoms: C2_3  and  C3_4 
ROOT
ATOM      1  C3  UNL d   1      -4.657   3.300  -3.105  0.00  0.00    -0.075 A 
ATOM      2  C4  UNL d   1      -4.306   3.753  -4.385  0.00  0.00     0.002 A 
ATOM      3  C5  UNL d   1      -4.808   3.119  -5.523  0.00  0.00     0.002 A 
ATOM      4  C6  UNL d   1      -5.657   2.022  -5.395  0.00  0.00    -0.004 A 
ATOM      5  C7  UNL d   1      -5.999   1.554  -4.129  0.00  0.00     0.002 A 
ATOM      6  C8  UNL d   1      -5.502   2.188  -2.989  0.00  0.00     0.002 A 
ENDROOT
BRANCH   1   7
ATOM      7  C2  UNL d   1      -4.141   4.000  -1.870  0.00  0.00     0.056 C 
BRANCH   7   8
ATOM      8  C1  UNL d   1      -2.628   4.237  -1.875  0.00  0.00     0.007 C 
ATOM      9  C   UNL d   1      -2.095   4.741  -0.540  0.00  0.00     0.009 C 
ENDBRANCH   7   8
ENDBRANCH   1   7
TORSDOF 2
ENDMDL
