MODEL 1
REMARK minimizedAffinity 6.79230499
REMARK minimizedRMSD -1
REMARK  2 active torsions:
REMARK  status: ('A' for Active; 'I' for Inactive)
REMARK    1  A    between atoms: C1_2  and  C2_3 
REMARK    2  A    between atoms: C2_3  and  C3_4 
ROOT
ATOM      1  C3  UNL d   1       2.416  -2.312  -0.810  0.00  0.00    -0.075 A 
ATOM      2  C4  UNL d   1       1.663  -3.491  -0.715  0.00  0.00     0.002 A 
ATOM      3  C5  UNL d   1       0.329  -3.515  -1.122  0.00  0.00     0.002 A 
ATOM      4  C6  UNL d   1      -0.272  -2.360  -1.619  0.00  0.00    -0.004 A 
ATOM      5  C7  UNL d   1       0.462  -1.179  -1.702  0.00  0.00     0.002 A 
ATOM      6  C8  UNL d   1       1.798  -1.153  -1.299  0.00  0.00     0.002 A 
ENDROOT
BRANCH   1   7
ATOM      7  C2  UNL d   1       3.869  -2.287  -0.399  0.00  0.00     0.056 C 
BRANCH   7   8
ATOM      8  C1  UNL d   1       4.828  -2.829  -1.464  0.00  0.00     0.007 C 
ATOM      9  C   UNL d   1       5.417  -4.187  -1.106  0.00  0.00     0.009 C 
ENDBRANCH   7   8
ENDBRANCH   1   7
TORSDOF 2
ENDMDL
