MODEL 1
REMARK minimizedAffinity -2.36381078
REMARK minimizedRMSD -1
REMARK  2 active torsions:
REMARK  status: ('A' for Active; 'I' for Inactive)
REMARK    1  A    between atoms: C1_2  and  C2_3 
REMARK    2  A    between atoms: C2_3  and  C3_4 
ROOT
ATOM      1  C3  UNL d   1      -1.333   2.333  -1.492  0.00  0.00    -0.075 A 
ATOM      2  C4  UNL d   1      -2.243   3.346  -1.830  0.00  0.00     0.002 A 
ATOM      3  C5  UNL d   1      -1.965   4.678  -1.524  0.00  0.00     0.002 A 
ATOM      4  C6  UNL d   1      -0.783   5.014  -0.867  0.00  0.00    -0.004 A 
ATOM      5  C7  UNL d   1       0.120   4.014  -0.512  0.00  0.00     0.002 A 
ATOM      6  C8  UNL d   1      -0.153   2.681  -0.821  0.00  0.00     0.002 A 
ENDROOT
BRANCH   1   7
ATOM      7  C2  UNL d   1      -1.614   0.893  -1.847  0.00  0.00     0.056 C 
BRANCH   7   8
ATOM      8  C1  UNL d   1      -0.428   0.167  -2.493  0.00  0.00     0.007 C 
ATOM      9  C   UNL d   1      -0.694  -1.311  -2.745  0.00  0.00     0.009 C 
ENDBRANCH   7   8
ENDBRANCH   1   7
TORSDOF 2
ENDMDL
