MODEL 1
REMARK minimizedAffinity 3.8145237
REMARK minimizedRMSD -1
REMARK  2 active torsions:
REMARK  status: ('A' for Active; 'I' for Inactive)
REMARK    1  A    between atoms: C1_2  and  C2_3 
REMARK    2  A    between atoms: C2_3  and  C3_4 
ROOT
ATOM      1  C3  UNL d   1       0.182   4.575  -1.499  0.00  0.00    -0.075 A 
ATOM      2  C4  UNL d   1      -1.166   4.636  -1.883  0.00  0.00     0.002 A 
ATOM      3  C5  UNL d   1      -1.546   5.340  -3.026  0.00  0.00     0.002 A 
ATOM      4  C6  UNL d   1      -0.588   5.999  -3.792  0.00  0.00    -0.004 A 
ATOM      5  C7  UNL d   1       0.752   5.960  -3.411  0.00  0.00     0.002 A 
ATOM      6  C8  UNL d   1       1.136   5.253  -2.270  0.00  0.00     0.002 A 
ENDROOT
BRANCH   1   7
ATOM      7  C2  UNL d   1       0.603   3.791  -0.280  0.00  0.00     0.056 C 
BRANCH   7   8
ATOM      8  C1  UNL d   1      -0.538   3.501   0.701  0.00  0.00     0.007 C 
ATOM      9  C   UNL d   1      -0.086   2.742   1.941  0.00  0.00     0.009 C 
ENDBRANCH   7   8
ENDBRANCH   1   7
TORSDOF 2
ENDMDL
