MODEL 1
REMARK minimizedAffinity 1.3395319
REMARK minimizedRMSD -1
REMARK  2 active torsions:
REMARK  status: ('A' for Active; 'I' for Inactive)
REMARK    1  A    between atoms: C1_2  and  C2_3 
REMARK    2  A    between atoms: C2_3  and  C3_4 
ROOT
ATOM      1  C3  UNL d   1      -0.008   3.062   0.604  0.00  0.00    -0.075 A 
ATOM      2  C4  UNL d   1       0.084   4.385   0.147  0.00  0.00     0.002 A 
ATOM      3  C5  UNL d   1      -0.352   4.723  -1.134  0.00  0.00     0.002 A 
ATOM      4  C6  UNL d   1      -0.876   3.745  -1.976  0.00  0.00    -0.004 A 
ATOM      5  C7  UNL d   1      -0.957   2.424  -1.538  0.00  0.00     0.002 A 
ATOM      6  C8  UNL d   1      -0.525   2.084  -0.255  0.00  0.00     0.002 A 
ENDROOT
BRANCH   1   7
ATOM      7  C2  UNL d   1       0.435   2.695   2.001  0.00  0.00     0.056 C 
BRANCH   7   8
ATOM      8  C1  UNL d   1      -0.525   1.749   2.731  0.00  0.00     0.007 C 
ATOM      9  C   UNL d   1       0.183   0.793   3.682  0.00  0.00     0.009 C 
ENDBRANCH   7   8
ENDBRANCH   1   7
TORSDOF 2
ENDMDL
