MODEL 1
REMARK minimizedAffinity 0.526708782
REMARK minimizedRMSD -1
REMARK  2 active torsions:
REMARK  status: ('A' for Active; 'I' for Inactive)
REMARK    1  A    between atoms: C1_2  and  C2_3 
REMARK    2  A    between atoms: C2_3  and  C3_4 
ROOT
ATOM      1  C3  UNL d   1      -0.356   3.364   0.118  0.00  0.00    -0.075 A 
ATOM      2  C4  UNL d   1      -0.455   4.687   0.572  0.00  0.00     0.002 A 
ATOM      3  C5  UNL d   1      -0.715   5.725  -0.323  0.00  0.00     0.002 A 
ATOM      4  C6  UNL d   1      -0.870   5.457  -1.681  0.00  0.00    -0.004 A 
ATOM      5  C7  UNL d   1      -0.757   4.148  -2.146  0.00  0.00     0.002 A 
ATOM      6  C8  UNL d   1      -0.501   3.106  -1.252  0.00  0.00     0.002 A 
ENDROOT
BRANCH   1   7
ATOM      7  C2  UNL d   1      -0.104   2.232   1.085  0.00  0.00     0.056 C 
BRANCH   7   8
ATOM      8  C1  UNL d   1       0.241   2.690   2.506  0.00  0.00     0.007 C 
ATOM      9  C   UNL d   1      -0.661   2.078   3.569  0.00  0.00     0.009 C 
ENDBRANCH   7   8
ENDBRANCH   1   7
TORSDOF 2
ENDMDL
