MODEL 1
REMARK minimizedAffinity 7.55863285
REMARK minimizedRMSD -1
REMARK  2 active torsions:
REMARK  status: ('A' for Active; 'I' for Inactive)
REMARK    1  A    between atoms: C1_2  and  C2_3 
REMARK    2  A    between atoms: C2_3  and  C3_4 
ROOT
ATOM      1  C3  UNL d   1       4.514  -4.605  -1.541  0.00  0.00    -0.075 A 
ATOM      2  C4  UNL d   1       3.767  -3.427  -1.683  0.00  0.00     0.002 A 
ATOM      3  C5  UNL d   1       4.142  -2.265  -1.007  0.00  0.00     0.002 A 
ATOM      4  C6  UNL d   1       5.259  -2.270  -0.175  0.00  0.00    -0.004 A 
ATOM      5  C7  UNL d   1       5.999  -3.440  -0.014  0.00  0.00     0.002 A 
ATOM      6  C8  UNL d   1       5.629  -4.602  -0.693  0.00  0.00     0.002 A 
ENDROOT
BRANCH   1   7
ATOM      7  C2  UNL d   1       4.130  -5.858  -2.293  0.00  0.00     0.056 C 
BRANCH   7   8
ATOM      8  C1  UNL d   1       4.810  -5.998  -3.659  0.00  0.00     0.007 C 
ATOM      9  C   UNL d   1       4.153  -5.157  -4.746  0.00  0.00     0.009 C 
ENDBRANCH   7   8
ENDBRANCH   1   7
TORSDOF 2
ENDMDL
