MODEL 1
REMARK minimizedAffinity 2.00307488
REMARK minimizedRMSD -1
REMARK  3 active torsions:
REMARK  status: ('A' for Active; 'I' for Inactive)
REMARK    1  A    between atoms: C3'_2  and  C2'_3 
REMARK    2  A    between atoms: C2'_3  and  C1'_4 
REMARK    3  A    between atoms: C1'_4  and  C1_5 
ROOT
ATOM      1  C1  N4B d   1       4.024  -0.462  -1.639  0.00  0.00    -0.075 A 
ATOM      2  C2  N4B d   1       4.002   0.933  -1.854  0.00  0.00     0.002 A 
ATOM      3  C3  N4B d   1       4.982   1.527  -2.611  0.00  0.00     0.002 A 
ATOM      4  C4  N4B d   1       6.000   0.752  -3.146  0.00  0.00    -0.004 A 
ATOM      5  C5  N4B d   1       6.000  -0.599  -2.955  0.00  0.00     0.002 A 
ATOM      6  C6  N4B d   1       5.019  -1.210  -2.199  0.00  0.00     0.002 A 
ENDROOT
BRANCH   1   7
ATOM      7  C1' N4B d   1       3.023  -1.144  -0.747  0.00  0.00     0.057 C 
BRANCH   7   8
ATOM      8  C2' N4B d   1       1.701  -0.385  -0.805  0.00  0.00     0.009 C 
BRANCH   8   9
ATOM      9  C3' N4B d   1       1.206  -0.000   0.579  0.00  0.00     0.004 C 
ATOM     10  C4' N4B d   1       1.933   1.181   1.149  0.00  0.00     0.003 C 
ENDBRANCH   8   9
ENDBRANCH   7   8
ENDBRANCH   1   7
TORSDOF 3
ENDMDL
