MODEL 1
REMARK minimizedAffinity 3.92225361
REMARK minimizedRMSD -1
REMARK  3 active torsions:
REMARK  status: ('A' for Active; 'I' for Inactive)
REMARK    1  A    between atoms: C3'_2  and  C2'_3 
REMARK    2  A    between atoms: C2'_3  and  C1'_4 
REMARK    3  A    between atoms: C1'_4  and  C1_5 
ROOT
ATOM      1  C1  N4B d   1       1.802  -0.779  -0.420  0.00  0.00    -0.075 A 
ATOM      2  C2  N4B d   1       2.073   0.555  -0.044  0.00  0.00     0.002 A 
ATOM      3  C3  N4B d   1       1.371   1.135   0.984  0.00  0.00     0.002 A 
ATOM      4  C4  N4B d   1       0.384   0.410   1.635  0.00  0.00    -0.004 A 
ATOM      5  C5  N4B d   1       0.145  -0.887   1.282  0.00  0.00     0.002 A 
ATOM      6  C6  N4B d   1       0.846  -1.483   0.253  0.00  0.00     0.002 A 
ENDROOT
BRANCH   1   7
ATOM      7  C1' N4B d   1       2.484  -1.427  -1.594  0.00  0.00     0.057 C 
BRANCH   7   8
ATOM      8  C2' N4B d   1       3.995  -1.307  -1.424  0.00  0.00     0.009 C 
BRANCH   8   9
ATOM      9  C3' N4B d   1       4.592  -0.273  -2.363  0.00  0.00     0.004 C 
ATOM     10  C4' N4B d   1       6.000  -0.598  -2.766  0.00  0.00     0.003 C 
ENDBRANCH   8   9
ENDBRANCH   7   8
ENDBRANCH   1   7
TORSDOF 3
ENDMDL
