MODEL 1
REMARK minimizedAffinity -1.49371648
REMARK minimizedRMSD -1
REMARK  3 active torsions:
REMARK  status: ('A' for Active; 'I' for Inactive)
REMARK    1  A    between atoms: C3'_2  and  C2'_3 
REMARK    2  A    between atoms: C2'_3  and  C1'_4 
REMARK    3  A    between atoms: C1'_4  and  C1_5 
ROOT
ATOM      1  C1  N4B d   1       0.609  -1.212   0.956  0.00  0.00    -0.075 A 
ATOM      2  C2  N4B d   1       1.504  -2.110   0.334  0.00  0.00     0.002 A 
ATOM      3  C3  N4B d   1       2.680  -1.647  -0.203  0.00  0.00     0.002 A 
ATOM      4  C4  N4B d   1       2.972  -0.292  -0.148  0.00  0.00    -0.004 A 
ATOM      5  C5  N4B d   1       2.114   0.565   0.476  0.00  0.00     0.002 A 
ATOM      6  C6  N4B d   1       0.931   0.113   1.024  0.00  0.00     0.002 A 
ENDROOT
BRANCH   1   7
ATOM      7  C1' N4B d   1      -0.728  -1.658   1.481  0.00  0.00     0.057 C 
BRANCH   7   8
ATOM      8  C2' N4B d   1      -1.412  -0.483   2.173  0.00  0.00     0.009 C 
BRANCH   8   9
ATOM      9  C3' N4B d   1      -2.844  -0.808   2.562  0.00  0.00     0.004 C 
ATOM     10  C4' N4B d   1      -3.341  -2.078   1.938  0.00  0.00     0.003 C 
ENDBRANCH   8   9
ENDBRANCH   7   8
ENDBRANCH   1   7
TORSDOF 3
ENDMDL
