MODEL 1
REMARK minimizedAffinity 7.0791111
REMARK minimizedRMSD -1
REMARK  1 active torsions:
REMARK  status: ('A' for Active; 'I' for Inactive)
REMARK    1  A    between atoms: C1_2  and  C2_3 
ROOT
ATOM      1  C2  UNL d   1       1.700  -0.328   1.651  0.00  0.00    -0.073 A 
ATOM      2  C3  UNL d   1       2.036  -1.028   2.815  0.00  0.00    -0.002 A 
ATOM      3  C4  UNL d   1       1.531  -2.309   3.039  0.00  0.00     0.004 A 
ATOM      4  C5  UNL d   1       0.692  -2.907   2.098  0.00  0.00    -0.004 A 
ATOM      5  C6  UNL d   1       0.354  -2.229   0.923  0.00  0.00    -0.075 A 
ATOM      6  C7  UNL d   1      -0.550  -2.857  -0.097  0.00  0.00     0.076 C 
ATOM      7  C8  UNL d   1       0.863  -0.941   0.707  0.00  0.00     0.001 A 
ENDROOT
BRANCH   1   8
ATOM      8  C1  UNL d   1       2.248   1.053   1.402  0.00  0.00     0.053 C 
ATOM      9  C   UNL d   1       2.601   1.272  -0.060  0.00  0.00     0.018 C 
ENDBRANCH   1   8
TORSDOF 1
ENDMDL
