MODEL 1
REMARK minimizedAffinity 0.319143116
REMARK minimizedRMSD -1
REMARK  0 active torsions:
REMARK  status: ('A' for Active; 'I' for Inactive)
ROOT
ATOM      1  C   UNL d   1       0.873   4.436  -4.056  0.00  0.00     0.023 A 
ATOM      2  C1  UNL d   1       0.996   4.557  -5.441  0.00  0.00     0.003 A 
ATOM      3  C2  UNL d   1       2.195   5.004  -6.000  0.00  0.00     0.048 A 
ATOM      4  C3  UNL d   1       3.267   5.328  -5.169  0.00  0.00     0.023 A 
ATOM      5  C4  UNL d   1       3.149   5.208  -3.784  0.00  0.00     0.048 A 
ATOM      6  C5  UNL d   1       1.948   4.762  -3.229  0.00  0.00     0.003 A 
ATOM      7  I   UNL d   1       5.053   5.994  -5.999  0.00  0.00    -0.146 I 
ENDROOT
TORSDOF 0
ENDMDL
