MODEL 1
REMARK minimizedAffinity 4.75067711
REMARK minimizedRMSD -1
REMARK  0 active torsions:
REMARK  status: ('A' for Active; 'I' for Inactive)
ROOT
ATOM      1  C   UNL d   1       1.046   5.803  -5.895  0.00  0.00     0.023 A 
ATOM      2  C1  UNL d   1       0.395   4.571  -5.967  0.00  0.00     0.003 A 
ATOM      3  C2  UNL d   1       1.136   3.388  -5.997  0.00  0.00     0.048 A 
ATOM      4  C3  UNL d   1       2.529   3.444  -5.953  0.00  0.00     0.023 A 
ATOM      5  C4  UNL d   1       3.185   4.674  -5.880  0.00  0.00     0.048 A 
ATOM      6  C5  UNL d   1       2.439   5.854  -5.852  0.00  0.00     0.003 A 
ATOM      7  I   UNL d   1       3.635   1.685  -5.996  0.00  0.00    -0.146 I 
ENDROOT
TORSDOF 0
ENDMDL
