MODEL 1
REMARK minimizedAffinity 9.904953
REMARK minimizedRMSD -1
REMARK  0 active torsions:
REMARK  status: ('A' for Active; 'I' for Inactive)
ROOT
ATOM      1  C   UNL d   1      -1.159  -1.393   1.135  0.00  0.00     0.023 A 
ATOM      2  C1  UNL d   1      -0.254  -2.098   0.341  0.00  0.00     0.003 A 
ATOM      3  C2  UNL d   1      -0.568  -2.388  -0.989  0.00  0.00     0.048 A 
ATOM      4  C3  UNL d   1      -1.788  -1.968  -1.518  0.00  0.00     0.023 A 
ATOM      5  C4  UNL d   1      -2.696  -1.260  -0.728  0.00  0.00     0.048 A 
ATOM      6  C5  UNL d   1      -2.378  -0.974   0.601  0.00  0.00     0.003 A 
ATOM      7  I   UNL d   1      -2.258  -2.397  -3.497  0.00  0.00    -0.146 I 
ENDROOT
TORSDOF 0
ENDMDL
