MODEL 1
REMARK minimizedAffinity -0.883590698
REMARK minimizedRMSD -1
REMARK  0 active torsions:
REMARK  status: ('A' for Active; 'I' for Inactive)
ROOT
ATOM      1  C   UNL d   1       2.726   2.277   1.460  0.00  0.00     0.023 A 
ATOM      2  C1  UNL d   1       3.659   1.240   1.487  0.00  0.00     0.003 A 
ATOM      3  C2  UNL d   1       4.597   1.115   0.461  0.00  0.00     0.048 A 
ATOM      4  C3  UNL d   1       4.598   2.032  -0.590  0.00  0.00     0.023 A 
ATOM      5  C4  UNL d   1       3.667   3.072  -0.621  0.00  0.00     0.048 A 
ATOM      6  C5  UNL d   1       2.730   3.192   0.407  0.00  0.00     0.003 A 
ATOM      7  I   UNL d   1       5.994   1.849  -2.119  0.00  0.00    -0.146 I 
ENDROOT
TORSDOF 0
ENDMDL
