MODEL 1
REMARK minimizedAffinity 16.3005638
REMARK minimizedRMSD -1
REMARK  0 active torsions:
REMARK  status: ('A' for Active; 'I' for Inactive)
ROOT
ATOM      1  C   UNL d   1      -3.052  -2.177  -1.308  0.00  0.00     0.023 A 
ATOM      2  C1  UNL d   1      -1.914  -1.590  -1.861  0.00  0.00     0.003 A 
ATOM      3  C2  UNL d   1      -1.602  -1.797  -3.206  0.00  0.00     0.048 A 
ATOM      4  C3  UNL d   1      -2.434  -2.593  -3.993  0.00  0.00     0.023 A 
ATOM      5  C4  UNL d   1      -3.574  -3.182  -3.445  0.00  0.00     0.048 A 
ATOM      6  C5  UNL d   1      -3.881  -2.973  -2.100  0.00  0.00     0.003 A 
ATOM      7  I   UNL d   1      -1.972  -2.903  -5.996  0.00  0.00    -0.146 I 
ENDROOT
TORSDOF 0
ENDMDL
