MODEL 1
REMARK minimizedAffinity 6.92345476
REMARK minimizedRMSD -1
REMARK  0 active torsions:
REMARK  status: ('A' for Active; 'I' for Inactive)
ROOT
ATOM      1  C   UNL d   1      -2.512  -3.639  -5.387  0.00  0.00     0.023 A 
ATOM      2  C1  UNL d   1      -1.408  -2.788  -5.439  0.00  0.00     0.003 A 
ATOM      3  C2  UNL d   1      -0.785  -2.377  -4.259  0.00  0.00     0.048 A 
ATOM      4  C3  UNL d   1      -1.270  -2.822  -3.030  0.00  0.00     0.023 A 
ATOM      5  C4  UNL d   1      -2.374  -3.675  -2.973  0.00  0.00     0.048 A 
ATOM      6  C5  UNL d   1      -2.995  -4.081  -4.156  0.00  0.00     0.003 A 
ATOM      7  I   UNL d   1      -0.345  -2.213  -1.272  0.00  0.00    -0.146 I 
ENDROOT
TORSDOF 0
ENDMDL
