MODEL 1
REMARK minimizedAffinity 4.30127096
REMARK minimizedRMSD -1
REMARK  0 active torsions:
REMARK  status: ('A' for Active; 'I' for Inactive)
ROOT
ATOM      1  C   UNL d   1      -2.917  -3.549  -5.447  0.00  0.00     0.023 A 
ATOM      2  C1  UNL d   1      -3.358  -4.152  -4.268  0.00  0.00     0.003 A 
ATOM      3  C2  UNL d   1      -3.020  -3.599  -3.031  0.00  0.00     0.048 A 
ATOM      4  C3  UNL d   1      -2.242  -2.443  -2.979  0.00  0.00     0.023 A 
ATOM      5  C4  UNL d   1      -1.800  -1.836  -4.156  0.00  0.00     0.048 A 
ATOM      6  C5  UNL d   1      -2.139  -2.392  -5.390  0.00  0.00     0.003 A 
ATOM      7  I   UNL d   1      -1.739  -1.619  -1.139  0.00  0.00    -0.146 I 
ENDROOT
TORSDOF 0
ENDMDL
