MODEL 1
REMARK minimizedAffinity 6.97918749
REMARK minimizedRMSD -1
REMARK  0 active torsions:
REMARK  status: ('A' for Active; 'I' for Inactive)
ROOT
ATOM      1  C   UNL d   1       4.229  -0.703   1.527  0.00  0.00     0.023 A 
ATOM      2  C1  UNL d   1       3.076  -0.307   0.851  0.00  0.00     0.003 A 
ATOM      3  C2  UNL d   1       1.882  -0.124   1.551  0.00  0.00     0.048 A 
ATOM      4  C3  UNL d   1       1.849  -0.337   2.929  0.00  0.00     0.023 A 
ATOM      5  C4  UNL d   1       3.001  -0.732   3.610  0.00  0.00     0.048 A 
ATOM      6  C5  UNL d   1       4.192  -0.915   2.905  0.00  0.00     0.003 A 
ATOM      7  I   UNL d   1       0.074  -0.064   3.975  0.00  0.00    -0.146 I 
ENDROOT
TORSDOF 0
ENDMDL
