MODEL 1
REMARK minimizedAffinity 8.48550797
REMARK minimizedRMSD -1
REMARK  0 active torsions:
REMARK  status: ('A' for Active; 'I' for Inactive)
ROOT
ATOM      1  C   UNL d   1       5.966   4.232   5.904  0.00  0.00     0.023 A 
ATOM      2  C1  UNL d   1       5.968   3.481   4.728  0.00  0.00     0.003 A 
ATOM      3  C2  UNL d   1       5.366   3.986   3.574  0.00  0.00     0.048 A 
ATOM      4  C3  UNL d   1       4.764   5.244   3.603  0.00  0.00     0.023 A 
ATOM      5  C4  UNL d   1       4.761   5.999   4.776  0.00  0.00     0.048 A 
ATOM      6  C5  UNL d   1       5.363   5.489   5.928  0.00  0.00     0.003 A 
ATOM      7  I   UNL d   1       3.867   5.999   1.886  0.00  0.00    -0.146 I 
ENDROOT
TORSDOF 0
ENDMDL
