MODEL 1
REMARK minimizedAffinity -0.905961812
REMARK minimizedRMSD -1
REMARK  0 active torsions:
REMARK  status: ('A' for Active; 'I' for Inactive)
ROOT
ATOM      1  C   UNL d   1      -3.583  -3.529  -0.900  0.00  0.00     0.023 A 
ATOM      2  C1  UNL d   1      -2.932  -2.296  -0.856  0.00  0.00     0.003 A 
ATOM      3  C2  UNL d   1      -2.328  -1.782  -2.005  0.00  0.00     0.048 A 
ATOM      4  C3  UNL d   1      -2.381  -2.506  -3.196  0.00  0.00     0.023 A 
ATOM      5  C4  UNL d   1      -3.033  -3.739  -3.245  0.00  0.00     0.048 A 
ATOM      6  C5  UNL d   1      -3.634  -4.249  -2.093  0.00  0.00     0.003 A 
ATOM      7  I   UNL d   1      -1.484  -1.743  -4.909  0.00  0.00    -0.146 I 
ENDROOT
TORSDOF 0
ENDMDL
