MODEL 1
REMARK minimizedAffinity 1.23922288
REMARK minimizedRMSD -1
REMARK  0 active torsions:
REMARK  status: ('A' for Active; 'I' for Inactive)
ROOT
ATOM      1  C   UNL d   1      -5.466  -4.915  -1.016  0.00  0.00     0.023 A 
ATOM      2  C1  UNL d   1      -4.427  -5.220  -1.895  0.00  0.00     0.003 A 
ATOM      3  C2  UNL d   1      -3.266  -4.444  -1.902  0.00  0.00     0.048 A 
ATOM      4  C3  UNL d   1      -3.151  -3.365  -1.027  0.00  0.00     0.023 A 
ATOM      5  C4  UNL d   1      -4.188  -3.056  -0.145  0.00  0.00     0.048 A 
ATOM      6  C5  UNL d   1      -5.347  -3.834  -0.143  0.00  0.00     0.003 A 
ATOM      7  I   UNL d   1      -1.424  -2.208  -1.036  0.00  0.00    -0.146 I 
ENDROOT
TORSDOF 0
ENDMDL
