MODEL 1
REMARK minimizedAffinity 2.49886131
REMARK minimizedRMSD -1
REMARK  0 active torsions:
REMARK  status: ('A' for Active; 'I' for Inactive)
ROOT
ATOM      1  C   UNL d   1       1.895   5.998  -5.280  0.00  0.00     0.023 A 
ATOM      2  C1  UNL d   1       1.059   4.924  -4.974  0.00  0.00     0.003 A 
ATOM      3  C2  UNL d   1       1.498   3.615  -5.180  0.00  0.00     0.048 A 
ATOM      4  C3  UNL d   1       2.774   3.386  -5.692  0.00  0.00     0.023 A 
ATOM      5  C4  UNL d   1       3.615   4.457  -5.999  0.00  0.00     0.048 A 
ATOM      6  C5  UNL d   1       3.172   5.765  -5.792  0.00  0.00     0.003 A 
ATOM      7  I   UNL d   1       3.430   1.438  -6.000  0.00  0.00    -0.146 I 
ENDROOT
TORSDOF 0
ENDMDL
