MODEL 1
REMARK minimizedAffinity 5.7248044
REMARK minimizedRMSD -1
REMARK  0 active torsions:
REMARK  status: ('A' for Active; 'I' for Inactive)
ROOT
ATOM      1  C   UNL d   1      -1.556  -2.795  -1.600  0.00  0.00     0.023 A 
ATOM      2  C1  UNL d   1      -2.749  -2.391  -1.000  0.00  0.00     0.003 A 
ATOM      3  C2  UNL d   1      -2.762  -2.012   0.344  0.00  0.00     0.048 A 
ATOM      4  C3  UNL d   1      -1.580  -2.039   1.082  0.00  0.00     0.023 A 
ATOM      5  C4  UNL d   1      -0.384  -2.443   0.486  0.00  0.00     0.048 A 
ATOM      6  C5  UNL d   1      -0.375  -2.821  -0.858  0.00  0.00     0.003 A 
ATOM      7  I   UNL d   1      -1.597  -1.476   3.082  0.00  0.00    -0.146 I 
ENDROOT
TORSDOF 0
ENDMDL
