MODEL 1
REMARK minimizedAffinity 8.21988487
REMARK minimizedRMSD -1
REMARK  0 active torsions:
REMARK  status: ('A' for Active; 'I' for Inactive)
ROOT
ATOM      1  C   UNL d   1      -0.263  -4.591   0.772  0.00  0.00     0.023 A 
ATOM      2  C1  UNL d   1      -0.906  -4.796   1.992  0.00  0.00     0.003 A 
ATOM      3  C2  UNL d   1      -1.448  -3.714   2.688  0.00  0.00     0.048 A 
ATOM      4  C3  UNL d   1      -1.345  -2.429   2.156  0.00  0.00     0.023 A 
ATOM      5  C4  UNL d   1      -0.703  -2.219   0.935  0.00  0.00     0.048 A 
ATOM      6  C5  UNL d   1      -0.162  -3.304   0.243  0.00  0.00     0.003 A 
ATOM      7  I   UNL d   1      -2.152  -0.816   3.190  0.00  0.00    -0.146 I 
ENDROOT
TORSDOF 0
ENDMDL
