MODEL 1
REMARK minimizedAffinity 10.6170826
REMARK minimizedRMSD -1
REMARK  0 active torsions:
REMARK  status: ('A' for Active; 'I' for Inactive)
ROOT
ATOM      1  C   UNL d   1      -1.574  -3.296  -1.329  0.00  0.00     0.023 A 
ATOM      2  C1  UNL d   1      -2.426  -2.294  -0.864  0.00  0.00     0.003 A 
ATOM      3  C2  UNL d   1      -2.002  -1.430   0.148  0.00  0.00     0.048 A 
ATOM      4  C3  UNL d   1      -0.725  -1.574   0.690  0.00  0.00     0.023 A 
ATOM      5  C4  UNL d   1       0.130  -2.574   0.228  0.00  0.00     0.048 A 
ATOM      6  C5  UNL d   1      -0.298  -3.436  -0.784  0.00  0.00     0.003 A 
ATOM      7  I   UNL d   1      -0.093  -0.289   2.197  0.00  0.00    -0.146 I 
ENDROOT
TORSDOF 0
ENDMDL
