MODEL 1
REMARK minimizedAffinity 5.37089014
REMARK minimizedRMSD -1
REMARK  0 active torsions:
REMARK  status: ('A' for Active; 'I' for Inactive)
ROOT
ATOM      1  C   UNL d   1      -3.521  -2.196  -1.262  0.00  0.00     0.023 A 
ATOM      2  C1  UNL d   1      -4.528  -2.739  -2.061  0.00  0.00     0.003 A 
ATOM      3  C2  UNL d   1      -4.274  -3.034  -3.402  0.00  0.00     0.048 A 
ATOM      4  C3  UNL d   1      -3.011  -2.785  -3.938  0.00  0.00     0.023 A 
ATOM      5  C4  UNL d   1      -2.000  -2.244  -3.142  0.00  0.00     0.048 A 
ATOM      6  C5  UNL d   1      -2.259  -1.949  -1.802  0.00  0.00     0.003 A 
ATOM      7  I   UNL d   1      -2.631  -3.224  -5.933  0.00  0.00    -0.146 I 
ENDROOT
TORSDOF 0
ENDMDL
