MODEL 1
REMARK minimizedAffinity 2.45191884
REMARK minimizedRMSD -1
REMARK  0 active torsions:
REMARK  status: ('A' for Active; 'I' for Inactive)
ROOT
ATOM      1  C   UNL d   1       2.957   5.985  -6.000  0.00  0.00     0.023 A 
ATOM      2  C1  UNL d   1       4.350   5.999  -5.929  0.00  0.00     0.003 A 
ATOM      3  C2  UNL d   1       5.009   5.238  -4.961  0.00  0.00     0.048 A 
ATOM      4  C3  UNL d   1       4.268   4.465  -4.068  0.00  0.00     0.023 A 
ATOM      5  C4  UNL d   1       2.874   4.447  -4.136  0.00  0.00     0.048 A 
ATOM      6  C5  UNL d   1       2.220   5.210  -5.105  0.00  0.00     0.003 A 
ATOM      7  I   UNL d   1       5.246   3.331  -2.626  0.00  0.00    -0.146 I 
ENDROOT
TORSDOF 0
ENDMDL
