MODEL 1
REMARK minimizedAffinity 0.339953035
REMARK minimizedRMSD -1
REMARK  0 active torsions:
REMARK  status: ('A' for Active; 'I' for Inactive)
ROOT
ATOM      1  C   UNL d   1      -1.534  -1.547  -0.324  0.00  0.00     0.124 A 
ATOM      2  C1  UNL d   1      -0.496  -1.645   0.592  0.00  0.00     0.062 A 
ATOM      3  C2  UNL d   1       0.520  -0.694   0.604  0.00  0.00     0.162 A 
ATOM      4  C3  UNL d   1       0.503   0.365  -0.304  0.00  0.00    -0.034 A 
ATOM      5  C4  UNL d   1      -0.544   0.457  -1.223  0.00  0.00     0.162 A 
ATOM      6  C5  UNL d   1      -1.557  -0.496  -1.230  0.00  0.00     0.062 A 
ATOM      7  F   UNL d   1      -2.559  -0.400  -2.116  0.00  0.00    -0.097 F 
ATOM      8  F1  UNL d   1      -0.592   1.463  -2.109  0.00  0.00    -0.096 F 
ATOM      9  I   UNL d   1       2.020   1.790  -0.290  0.00  0.00    -0.060 I 
ATOM     10  F2  UNL d   1       1.511  -0.814   1.500  0.00  0.00    -0.096 F 
ATOM     11  F3  UNL d   1      -0.471  -2.660   1.469  0.00  0.00    -0.097 F 
ATOM     12  F4  UNL d   1      -2.510  -2.464  -0.333  0.00  0.00    -0.092 F 
ENDROOT
TORSDOF 0
ENDMDL
