MODEL 1
REMARK minimizedAffinity 2.3886745
REMARK minimizedRMSD -1
REMARK  0 active torsions:
REMARK  status: ('A' for Active; 'I' for Inactive)
ROOT
ATOM      1  C   UNL d   1      -1.482  -1.184  -0.436  0.00  0.00     0.124 A 
ATOM      2  C1  UNL d   1      -1.446  -0.050  -1.236  0.00  0.00     0.062 A 
ATOM      3  C2  UNL d   1      -0.348   0.805  -1.188  0.00  0.00     0.162 A 
ATOM      4  C3  UNL d   1       0.723   0.529  -0.339  0.00  0.00    -0.034 A 
ATOM      5  C4  UNL d   1       0.679  -0.613   0.463  0.00  0.00     0.162 A 
ATOM      6  C5  UNL d   1      -0.421  -1.464   0.412  0.00  0.00     0.062 A 
ATOM      7  F   UNL d   1      -0.454  -2.559   1.186  0.00  0.00    -0.097 F 
ATOM      8  F1  UNL d   1       1.691  -0.908   1.292  0.00  0.00    -0.096 F 
ATOM      9  I   UNL d   1       2.366   1.805  -0.265  0.00  0.00    -0.060 I 
ATOM     10  F2  UNL d   1      -0.340   1.894  -1.972  0.00  0.00    -0.096 F 
ATOM     11  F3  UNL d   1      -2.471   0.224  -2.056  0.00  0.00    -0.097 F 
ATOM     12  F4  UNL d   1      -2.540  -2.004  -0.483  0.00  0.00    -0.092 F 
ENDROOT
TORSDOF 0
ENDMDL
