MODEL 1
REMARK minimizedAffinity -0.301614106
REMARK minimizedRMSD -1
REMARK  0 active torsions:
REMARK  status: ('A' for Active; 'I' for Inactive)
ROOT
ATOM      1  C   UNL d   1      -1.889  -1.948   0.104  0.00  0.00     0.124 A 
ATOM      2  C1  UNL d   1      -1.808  -0.782  -0.644  0.00  0.00     0.062 A 
ATOM      3  C2  UNL d   1      -0.644  -0.019  -0.627  0.00  0.00     0.162 A 
ATOM      4  C3  UNL d   1       0.449  -0.419   0.141  0.00  0.00    -0.034 A 
ATOM      5  C4  UNL d   1       0.359  -1.592   0.893  0.00  0.00     0.162 A 
ATOM      6  C5  UNL d   1      -0.806  -2.352   0.872  0.00  0.00     0.062 A 
ATOM      7  F   UNL d   1      -0.882  -3.478   1.596  0.00  0.00    -0.097 F 
ATOM      8  F1  UNL d   1       1.392  -2.006   1.643  0.00  0.00    -0.096 F 
ATOM      9  I   UNL d   1       2.190   0.720   0.170  0.00  0.00    -0.060 I 
ATOM     10  F2  UNL d   1      -0.594   1.103  -1.361  0.00  0.00    -0.096 F 
ATOM     11  F3  UNL d   1      -2.854  -0.390  -1.386  0.00  0.00    -0.097 F 
ATOM     12  F4  UNL d   1      -3.010  -2.680   0.087  0.00  0.00    -0.092 F 
ENDROOT
TORSDOF 0
ENDMDL
