MODEL 1
REMARK minimizedAffinity -2.30959225
REMARK minimizedRMSD -1
REMARK  0 active torsions:
REMARK  status: ('A' for Active; 'I' for Inactive)
ROOT
ATOM      1  C   UNL d   1       2.649   2.940   1.224  0.00  0.00     0.124 A 
ATOM      2  C1  UNL d   1       1.412   3.108   1.831  0.00  0.00     0.062 A 
ATOM      3  C2  UNL d   1       0.431   2.129   1.703  0.00  0.00     0.162 A 
ATOM      4  C3  UNL d   1       0.683   0.972   0.965  0.00  0.00    -0.034 A 
ATOM      5  C4  UNL d   1       1.928   0.811   0.356  0.00  0.00     0.162 A 
ATOM      6  C5  UNL d   1       2.906   1.793   0.487  0.00  0.00     0.062 A 
ATOM      7  F   UNL d   1       4.100   1.629  -0.100  0.00  0.00    -0.097 F 
ATOM      8  F1  UNL d   1       2.204  -0.288  -0.360  0.00  0.00    -0.096 F 
ATOM      9  I   UNL d   1      -0.782  -0.494   0.772  0.00  0.00    -0.060 I 
ATOM     10  F2  UNL d   1      -0.755   2.318   2.301  0.00  0.00    -0.096 F 
ATOM     11  F3  UNL d   1       1.161   4.217   2.542  0.00  0.00    -0.097 F 
ATOM     12  F4  UNL d   1       3.590   3.885   1.347  0.00  0.00    -0.092 F 
ENDROOT
TORSDOF 0
ENDMDL
