MODEL 1
REMARK minimizedAffinity -1.72797596
REMARK minimizedRMSD -1
REMARK  0 active torsions:
REMARK  status: ('A' for Active; 'I' for Inactive)
ROOT
ATOM      1  C   UNL d   1      -1.862  -1.923  -0.352  0.00  0.00     0.124 A 
ATOM      2  C1  UNL d   1      -1.709  -0.716  -1.019  0.00  0.00     0.062 A 
ATOM      3  C2  UNL d   1      -0.570   0.058  -0.813  0.00  0.00     0.162 A 
ATOM      4  C3  UNL d   1       0.425  -0.374   0.064  0.00  0.00    -0.034 A 
ATOM      5  C4  UNL d   1       0.263  -1.589   0.732  0.00  0.00     0.162 A 
ATOM      6  C5  UNL d   1      -0.877  -2.359   0.523  0.00  0.00     0.062 A 
ATOM      7  F   UNL d   1      -1.024  -3.525   1.168  0.00  0.00    -0.097 F 
ATOM      8  F1  UNL d   1       1.200  -2.034   1.582  0.00  0.00    -0.096 F 
ATOM      9  I   UNL d   1       2.129   0.780   0.375  0.00  0.00    -0.060 I 
ATOM     10  F2  UNL d   1      -0.448   1.220  -1.471  0.00  0.00    -0.096 F 
ATOM     11  F3  UNL d   1      -2.660  -0.292  -1.864  0.00  0.00    -0.097 F 
ATOM     12  F4  UNL d   1      -2.960  -2.665  -0.551  0.00  0.00    -0.092 F 
ENDROOT
TORSDOF 0
ENDMDL
