MODEL 1
REMARK minimizedAffinity 0.41051504
REMARK minimizedRMSD -1
REMARK  0 active torsions:
REMARK  status: ('A' for Active; 'I' for Inactive)
ROOT
ATOM      1  C   UNL d   1      -1.933  -1.732  -0.232  0.00  0.00     0.124 A 
ATOM      2  C1  UNL d   1      -0.869  -2.068   0.594  0.00  0.00     0.062 A 
ATOM      3  C2  UNL d   1       0.253  -1.247   0.659  0.00  0.00     0.162 A 
ATOM      4  C3  UNL d   1       0.317  -0.081  -0.104  0.00  0.00    -0.034 A 
ATOM      5  C4  UNL d   1      -0.757   0.250  -0.933  0.00  0.00     0.162 A 
ATOM      6  C5  UNL d   1      -1.876  -0.574  -0.995  0.00  0.00     0.062 A 
ATOM      7  F   UNL d   1      -2.903  -0.248  -1.793  0.00  0.00    -0.097 F 
ATOM      8  F1  UNL d   1      -0.728   1.363  -1.680  0.00  0.00    -0.096 F 
ATOM      9  I   UNL d   1       1.992   1.150  -0.010  0.00  0.00    -0.060 I 
ATOM     10  F2  UNL d   1       1.266  -1.596   1.466  0.00  0.00    -0.096 F 
ATOM     11  F3  UNL d   1      -0.922  -3.187   1.331  0.00  0.00    -0.097 F 
ATOM     12  F4  UNL d   1      -3.011  -2.525  -0.293  0.00  0.00    -0.092 F 
ENDROOT
TORSDOF 0
ENDMDL
