MODEL 1
REMARK minimizedAffinity 2.80851269
REMARK minimizedRMSD -1
REMARK  0 active torsions:
REMARK  status: ('A' for Active; 'I' for Inactive)
ROOT
ATOM      1  C   UNL d   1      -1.652  -1.481  -0.434  0.00  0.00     0.124 A 
ATOM      2  C1  UNL d   1      -1.561  -0.261  -1.088  0.00  0.00     0.062 A 
ATOM      3  C2  UNL d   1      -0.501   0.600  -0.818  0.00  0.00     0.162 A 
ATOM      4  C3  UNL d   1       0.477   0.243   0.110  0.00  0.00    -0.034 A 
ATOM      5  C4  UNL d   1       0.378  -0.986   0.765  0.00  0.00     0.162 A 
ATOM      6  C5  UNL d   1      -0.683  -1.843   0.491  0.00  0.00     0.062 A 
ATOM      7  F   UNL d   1      -0.770  -3.022   1.124  0.00  0.00    -0.097 F 
ATOM      8  F1  UNL d   1       1.301  -1.361   1.663  0.00  0.00    -0.096 F 
ATOM      9  I   UNL d   1       2.064   1.528   0.516  0.00  0.00    -0.060 I 
ATOM     10  F2  UNL d   1      -0.438   1.774  -1.465  0.00  0.00    -0.096 F 
ATOM     11  F3  UNL d   1      -2.496   0.091  -1.982  0.00  0.00    -0.097 F 
ATOM     12  F4  UNL d   1      -2.674  -2.307  -0.695  0.00  0.00    -0.092 F 
ENDROOT
TORSDOF 0
ENDMDL
