MODEL 1
REMARK minimizedAffinity -1.35187161
REMARK minimizedRMSD -1
REMARK  0 active torsions:
REMARK  status: ('A' for Active; 'I' for Inactive)
ROOT
ATOM      1  C   UNL d   1      -1.730  -1.969  -0.063  0.00  0.00     0.124 A 
ATOM      2  C1  UNL d   1      -1.716  -0.825  -0.849  0.00  0.00     0.062 A 
ATOM      3  C2  UNL d   1      -0.638   0.052  -0.789  0.00  0.00     0.162 A 
ATOM      4  C3  UNL d   1       0.437  -0.210   0.060  0.00  0.00    -0.034 A 
ATOM      5  C4  UNL d   1       0.415  -1.362   0.849  0.00  0.00     0.162 A 
ATOM      6  C5  UNL d   1      -0.665  -2.236   0.786  0.00  0.00     0.062 A 
ATOM      7  F   UNL d   1      -0.677  -3.340   1.546  0.00  0.00    -0.097 F 
ATOM      8  F1  UNL d   1       1.432  -1.645   1.677  0.00  0.00    -0.096 F 
ATOM      9  I   UNL d   1       2.051   1.100   0.153  0.00  0.00    -0.060 I 
ATOM     10  F2  UNL d   1      -0.651   1.150  -1.561  0.00  0.00    -0.096 F 
ATOM     11  F3  UNL d   1      -2.745  -0.565  -1.669  0.00  0.00    -0.097 F 
ATOM     12  F4  UNL d   1      -2.770  -2.811  -0.122  0.00  0.00    -0.092 F 
ENDROOT
TORSDOF 0
ENDMDL
