MODEL 1
REMARK minimizedAffinity -2.65081859
REMARK minimizedRMSD -1
REMARK  0 active torsions:
REMARK  status: ('A' for Active; 'I' for Inactive)
ROOT
ATOM      1  C   UNL d   1      -1.839  -2.338  -0.263  0.00  0.00     0.124 A 
ATOM      2  C1  UNL d   1      -1.688  -1.202  -1.046  0.00  0.00     0.062 A 
ATOM      3  C2  UNL d   1      -0.572  -0.386  -0.889  0.00  0.00     0.162 A 
ATOM      4  C3  UNL d   1       0.404  -0.703   0.056  0.00  0.00    -0.034 A 
ATOM      5  C4  UNL d   1       0.245  -1.846   0.841  0.00  0.00     0.162 A 
ATOM      6  C5  UNL d   1      -0.872  -2.658   0.680  0.00  0.00     0.062 A 
ATOM      7  F   UNL d   1      -1.016  -3.755   1.439  0.00  0.00    -0.097 F 
ATOM      8  F1  UNL d   1       1.165  -2.180   1.759  0.00  0.00    -0.096 F 
ATOM      9  I   UNL d   1       2.075   0.515   0.294  0.00  0.00    -0.060 I 
ATOM     10  F2  UNL d   1      -0.452   0.705  -1.660  0.00  0.00    -0.096 F 
ATOM     11  F3  UNL d   1      -2.621  -0.889  -1.957  0.00  0.00    -0.097 F 
ATOM     12  F4  UNL d   1      -2.915  -3.121  -0.415  0.00  0.00    -0.092 F 
ENDROOT
TORSDOF 0
ENDMDL
