MODEL 1
REMARK minimizedAffinity -0.282748401
REMARK minimizedRMSD -1
REMARK  0 active torsions:
REMARK  status: ('A' for Active; 'I' for Inactive)
ROOT
ATOM      1  C   UNL d   1       1.676   1.309   1.480  0.00  0.00     0.124 A 
ATOM      2  C1  UNL d   1       0.740   2.167   0.921  0.00  0.00     0.062 A 
ATOM      3  C2  UNL d   1      -0.331   1.657   0.193  0.00  0.00     0.162 A 
ATOM      4  C3  UNL d   1      -0.472   0.280   0.020  0.00  0.00    -0.034 A 
ATOM      5  C4  UNL d   1       0.475  -0.577   0.584  0.00  0.00     0.162 A 
ATOM      6  C5  UNL d   1       1.543  -0.062   1.311  0.00  0.00     0.062 A 
ATOM      7  F   UNL d   1       2.447  -0.893   1.850  0.00  0.00    -0.097 F 
ATOM      8  F1  UNL d   1       0.370  -1.906   0.436  0.00  0.00    -0.096 F 
ATOM      9  I   UNL d   1      -2.071  -0.487  -1.069  0.00  0.00    -0.060 I 
ATOM     10  F2  UNL d   1      -1.221   2.510  -0.336  0.00  0.00    -0.096 F 
ATOM     11  F3  UNL d   1       0.867   3.492   1.082  0.00  0.00    -0.097 F 
ATOM     12  F4  UNL d   1       2.706   1.802   2.179  0.00  0.00    -0.092 F 
ENDROOT
TORSDOF 0
ENDMDL
