MODEL 1
REMARK minimizedAffinity -0.401769668
REMARK minimizedRMSD -1
REMARK  0 active torsions:
REMARK  status: ('A' for Active; 'I' for Inactive)
ROOT
ATOM      1  C   UNL d   1      -1.054  -0.767   1.446  0.00  0.00     0.124 A 
ATOM      2  C1  UNL d   1      -1.240   0.523   0.966  0.00  0.00     0.062 A 
ATOM      3  C2  UNL d   1      -0.156   1.256   0.492  0.00  0.00     0.162 A 
ATOM      4  C3  UNL d   1       1.124   0.701   0.493  0.00  0.00    -0.034 A 
ATOM      5  C4  UNL d   1       1.303  -0.596   0.978  0.00  0.00     0.162 A 
ATOM      6  C5  UNL d   1       0.216  -1.325   1.451  0.00  0.00     0.062 A 
ATOM      7  F   UNL d   1       0.398  -2.570   1.914  0.00  0.00    -0.097 F 
ATOM      8  F1  UNL d   1       2.520  -1.160   0.993  0.00  0.00    -0.096 F 
ATOM      9  I   UNL d   1       2.747   1.794  -0.216  0.00  0.00    -0.060 I 
ATOM     10  F2  UNL d   1      -0.365   2.499   0.034  0.00  0.00    -0.096 F 
ATOM     11  F3  UNL d   1      -2.466   1.064   0.961  0.00  0.00    -0.097 F 
ATOM     12  F4  UNL d   1      -2.099  -1.469   1.903  0.00  0.00    -0.092 F 
ENDROOT
TORSDOF 0
ENDMDL
