MODEL 1
REMARK minimizedAffinity 0.0252470151
REMARK minimizedRMSD -1
REMARK  0 active torsions:
REMARK  status: ('A' for Active; 'I' for Inactive)
ROOT
ATOM      1  C   UNL d   1      -1.936  -1.379  -0.205  0.00  0.00     0.124 A 
ATOM      2  C1  UNL d   1      -0.954  -1.596   0.752  0.00  0.00     0.062 A 
ATOM      3  C2  UNL d   1       0.274  -0.948   0.655  0.00  0.00     0.162 A 
ATOM      4  C3  UNL d   1       0.527  -0.075  -0.403  0.00  0.00    -0.034 A 
ATOM      5  C4  UNL d   1      -0.465   0.138  -1.362  0.00  0.00     0.162 A 
ATOM      6  C5  UNL d   1      -1.691  -0.512  -1.260  0.00  0.00     0.062 A 
ATOM      7  F   UNL d   1      -2.638  -0.301  -2.186  0.00  0.00    -0.097 F 
ATOM      8  F1  UNL d   1      -0.255   0.971  -2.392  0.00  0.00    -0.096 F 
ATOM      9  I   UNL d   1       2.362   0.897  -0.552  0.00  0.00    -0.060 I 
ATOM     10  F2  UNL d   1       1.205  -1.177   1.593  0.00  0.00    -0.096 F 
ATOM     11  F3  UNL d   1      -1.188  -2.434   1.773  0.00  0.00    -0.097 F 
ATOM     12  F4  UNL d   1      -3.116  -2.005  -0.109  0.00  0.00    -0.092 F 
ENDROOT
TORSDOF 0
ENDMDL
