MODEL 1
REMARK minimizedAffinity -4.05832291
REMARK minimizedRMSD -1
REMARK  0 active torsions:
REMARK  status: ('A' for Active; 'I' for Inactive)
ROOT
ATOM      1  C   UNL d   1       2.204   2.435   1.053  0.00  0.00     0.124 A 
ATOM      2  C1  UNL d   1       2.455   1.254   0.368  0.00  0.00     0.062 A 
ATOM      3  C2  UNL d   1       1.413   0.381   0.073  0.00  0.00     0.162 A 
ATOM      4  C3  UNL d   1       0.108   0.686   0.461  0.00  0.00    -0.034 A 
ATOM      5  C4  UNL d   1      -0.137   1.875   1.151  0.00  0.00     0.162 A 
ATOM      6  C5  UNL d   1       0.909   2.744   1.444  0.00  0.00     0.062 A 
ATOM      7  F   UNL d   1       0.665   3.885   2.105  0.00  0.00    -0.097 F 
ATOM      8  F1  UNL d   1      -1.379   2.199   1.539  0.00  0.00    -0.096 F 
ATOM      9  I   UNL d   1      -1.454  -0.617   0.022  0.00  0.00    -0.060 I 
ATOM     10  F2  UNL d   1       1.684  -0.753  -0.590  0.00  0.00    -0.096 F 
ATOM     11  F3  UNL d   1       3.706   0.953  -0.010  0.00  0.00    -0.097 F 
ATOM     12  F4  UNL d   1       3.210   3.273   1.337  0.00  0.00    -0.092 F 
ENDROOT
TORSDOF 0
ENDMDL
