MODEL 1
REMARK minimizedAffinity -0.0855126008
REMARK minimizedRMSD -1
REMARK  0 active torsions:
REMARK  status: ('A' for Active; 'I' for Inactive)
ROOT
ATOM      1  C   UNL d   1      -0.793  -0.393  -0.582  0.00  0.00     0.124 A 
ATOM      2  C1  UNL d   1      -1.387   0.847  -0.766  0.00  0.00     0.062 A 
ATOM      3  C2  UNL d   1      -0.660   2.012  -0.538  0.00  0.00     0.162 A 
ATOM      4  C3  UNL d   1       0.670   1.942  -0.124  0.00  0.00    -0.034 A 
ATOM      5  C4  UNL d   1       1.260   0.691   0.060  0.00  0.00     0.162 A 
ATOM      6  C5  UNL d   1       0.530  -0.471  -0.169  0.00  0.00     0.062 A 
ATOM      7  F   UNL d   1       1.106  -1.668   0.010  0.00  0.00    -0.097 F 
ATOM      8  F1  UNL d   1       2.537   0.587   0.458  0.00  0.00    -0.096 F 
ATOM      9  I   UNL d   1       1.760   3.682   0.218  0.00  0.00    -0.060 I 
ATOM     10  F2  UNL d   1      -1.260   3.198  -0.725  0.00  0.00    -0.096 F 
ATOM     11  F3  UNL d   1      -2.665   0.924  -1.164  0.00  0.00    -0.097 F 
ATOM     12  F4  UNL d   1      -1.495  -1.513  -0.801  0.00  0.00    -0.092 F 
ENDROOT
TORSDOF 0
ENDMDL
