MODEL 1
REMARK minimizedAffinity -2.90710473
REMARK minimizedRMSD -1
REMARK  0 active torsions:
REMARK  status: ('A' for Active; 'I' for Inactive)
ROOT
ATOM      1  C   UNL d   1      -1.529  -0.579  -0.811  0.00  0.00     0.124 A 
ATOM      2  C1  UNL d   1      -0.225  -0.345  -1.225  0.00  0.00     0.062 A 
ATOM      3  C2  UNL d   1       0.660   0.339  -0.397  0.00  0.00     0.162 A 
ATOM      4  C3  UNL d   1       0.245   0.793   0.854  0.00  0.00    -0.034 A 
ATOM      5  C4  UNL d   1      -1.068   0.556   1.264  0.00  0.00     0.162 A 
ATOM      6  C5  UNL d   1      -1.949  -0.128   0.433  0.00  0.00     0.062 A 
ATOM      7  F   UNL d   1      -3.209  -0.353   0.835  0.00  0.00    -0.097 F 
ATOM      8  F1  UNL d   1      -1.500   0.979   2.461  0.00  0.00    -0.096 F 
ATOM      9  I   UNL d   1       1.567   1.816   2.095  0.00  0.00    -0.060 I 
ATOM     10  F2  UNL d   1       1.914   0.550  -0.824  0.00  0.00    -0.096 F 
ATOM     11  F3  UNL d   1       0.183  -0.778  -2.427  0.00  0.00    -0.097 F 
ATOM     12  F4  UNL d   1      -2.380  -1.236  -1.610  0.00  0.00    -0.092 F 
ENDROOT
TORSDOF 0
ENDMDL
