MODEL 1
REMARK minimizedAffinity 2.75348711
REMARK minimizedRMSD -1
REMARK  0 active torsions:
REMARK  status: ('A' for Active; 'I' for Inactive)
ROOT
ATOM      1  C   UNL d   1      -1.796  -1.088  -0.671  0.00  0.00     0.124 A 
ATOM      2  C1  UNL d   1      -1.593  -0.230  -1.743  0.00  0.00     0.062 A 
ATOM      3  C2  UNL d   1      -0.454   0.568  -1.795  0.00  0.00     0.162 A 
ATOM      4  C3  UNL d   1       0.493   0.510  -0.772  0.00  0.00    -0.034 A 
ATOM      5  C4  UNL d   1       0.282  -0.355   0.303  0.00  0.00     0.162 A 
ATOM      6  C5  UNL d   1      -0.859  -1.150   0.351  0.00  0.00     0.062 A 
ATOM      7  F   UNL d   1      -1.053  -1.978   1.387  0.00  0.00    -0.097 F 
ATOM      8  F1  UNL d   1       1.172  -0.435   1.303  0.00  0.00    -0.096 F 
ATOM      9  I   UNL d   1       2.198   1.701  -0.846  0.00  0.00    -0.060 I 
ATOM     10  F2  UNL d   1      -0.284   1.388  -2.842  0.00  0.00    -0.096 F 
ATOM     11  F3  UNL d   1      -2.498  -0.168  -2.730  0.00  0.00    -0.097 F 
ATOM     12  F4  UNL d   1      -2.894  -1.854  -0.623  0.00  0.00    -0.092 F 
ENDROOT
TORSDOF 0
ENDMDL
