MODEL 1
REMARK minimizedAffinity 2.6747396
REMARK minimizedRMSD -1
REMARK  0 active torsions:
REMARK  status: ('A' for Active; 'I' for Inactive)
ROOT
ATOM      1  C   UNL d   1       1.071   0.539   2.762  0.00  0.00     0.023 A 
ATOM      2  C1  UNL d   1       1.021   1.726   2.031  0.00  0.00     0.003 A 
ATOM      3  C2  UNL d   1       0.672   1.700   0.679  0.00  0.00     0.048 A 
ATOM      4  C3  UNL d   1       0.374   0.485   0.065  0.00  0.00     0.023 A 
ATOM      5  C4  UNL d   1       0.422  -0.705   0.792  0.00  0.00     0.048 A 
ATOM      6  C5  UNL d   1       0.772  -0.675   2.144  0.00  0.00     0.003 A 
ATOM      7  I   UNL d   1      -0.146   0.445  -1.947  0.00  0.00    -0.146 I 
ENDROOT
TORSDOF 0
ENDMDL
