MODEL 1
REMARK minimizedAffinity 7.63303709
REMARK minimizedRMSD -1
REMARK  0 active torsions:
REMARK  status: ('A' for Active; 'I' for Inactive)
ROOT
ATOM      1  C   UNL d   1       2.175  -1.292   0.480  0.00  0.00     0.023 A 
ATOM      2  C1  UNL d   1       1.417  -1.045   1.624  0.00  0.00     0.003 A 
ATOM      3  C2  UNL d   1       0.224  -0.324   1.532  0.00  0.00     0.048 A 
ATOM      4  C3  UNL d   1      -0.205   0.146   0.291  0.00  0.00     0.023 A 
ATOM      5  C4  UNL d   1       0.550  -0.100  -0.857  0.00  0.00     0.048 A 
ATOM      6  C5  UNL d   1       1.742  -0.820  -0.760  0.00  0.00     0.003 A 
ATOM      7  I   UNL d   1      -1.980   1.218   0.151  0.00  0.00    -0.146 I 
ENDROOT
TORSDOF 0
ENDMDL
