MODEL 1
REMARK minimizedAffinity 12.6896238
REMARK minimizedRMSD -1
REMARK  0 active torsions:
REMARK  status: ('A' for Active; 'I' for Inactive)
ROOT
ATOM      1  C   UNL d   1       2.507  -5.012   0.251  0.00  0.00     0.023 A 
ATOM      2  C1  UNL d   1       2.096  -3.680   0.203  0.00  0.00     0.003 A 
ATOM      3  C2  UNL d   1       0.928  -3.332  -0.479  0.00  0.00     0.048 A 
ATOM      4  C3  UNL d   1       0.175  -4.322  -1.109  0.00  0.00     0.023 A 
ATOM      5  C4  UNL d   1       0.581  -5.657  -1.062  0.00  0.00     0.048 A 
ATOM      6  C5  UNL d   1       1.750  -5.999  -0.381  0.00  0.00     0.003 A 
ATOM      7  I   UNL d   1      -1.565  -3.807  -2.123  0.00  0.00    -0.146 I 
ENDROOT
TORSDOF 0
ENDMDL
