MODEL 1
REMARK minimizedAffinity 7.30205345
REMARK minimizedRMSD -1
REMARK  0 active torsions:
REMARK  status: ('A' for Active; 'I' for Inactive)
ROOT
ATOM      1  C   UNL d   1       1.744   4.497   1.955  0.00  0.00     0.023 A 
ATOM      2  C1  UNL d   1       2.287   3.688   2.954  0.00  0.00     0.003 A 
ATOM      3  C2  UNL d   1       1.779   2.405   3.168  0.00  0.00     0.048 A 
ATOM      4  C3  UNL d   1       0.728   1.937   2.380  0.00  0.00     0.023 A 
ATOM      5  C4  UNL d   1       0.182   2.742   1.379  0.00  0.00     0.048 A 
ATOM      6  C5  UNL d   1       0.693   4.024   1.169  0.00  0.00     0.003 A 
ATOM      7  I   UNL d   1      -0.029   0.028   2.697  0.00  0.00    -0.146 I 
ENDROOT
TORSDOF 0
ENDMDL
