MODEL 1
REMARK minimizedAffinity 4.18873024
REMARK minimizedRMSD -1
REMARK  0 active torsions:
REMARK  status: ('A' for Active; 'I' for Inactive)
ROOT
ATOM      1  C   UNL d   1      -5.980  -3.249   5.979  0.00  0.00     0.023 A 
ATOM      2  C1  UNL d   1      -5.973  -1.855   5.923  0.00  0.00     0.003 A 
ATOM      3  C2  UNL d   1      -5.978  -1.205   4.687  0.00  0.00     0.048 A 
ATOM      4  C3  UNL d   1      -5.992  -1.955   3.512  0.00  0.00     0.023 A 
ATOM      5  C4  UNL d   1      -6.000  -3.350   3.563  0.00  0.00     0.048 A 
ATOM      6  C5  UNL d   1      -5.994  -3.995   4.801  0.00  0.00     0.003 A 
ATOM      7  I   UNL d   1      -6.000  -0.989   1.671  0.00  0.00    -0.146 I 
ENDROOT
TORSDOF 0
ENDMDL
