MODEL 1
REMARK minimizedAffinity 7.96692848
REMARK minimizedRMSD -1
REMARK  0 active torsions:
REMARK  status: ('A' for Active; 'I' for Inactive)
ROOT
ATOM      1  C   UNL d   1       1.946   4.684   2.247  0.00  0.00     0.023 A 
ATOM      2  C1  UNL d   1       1.004   4.088   1.410  0.00  0.00     0.003 A 
ATOM      3  C2  UNL d   1       0.532   2.804   1.690  0.00  0.00     0.048 A 
ATOM      4  C3  UNL d   1       1.007   2.122   2.810  0.00  0.00     0.023 A 
ATOM      5  C4  UNL d   1       1.949   2.715   3.651  0.00  0.00     0.048 A 
ATOM      6  C5  UNL d   1       2.419   3.999   3.367  0.00  0.00     0.003 A 
ATOM      7  I   UNL d   1       0.306   0.211   3.229  0.00  0.00    -0.146 I 
ENDROOT
TORSDOF 0
ENDMDL
