MODEL 1
REMARK minimizedAffinity 4.29461241
REMARK minimizedRMSD -1
REMARK  0 active torsions:
REMARK  status: ('A' for Active; 'I' for Inactive)
ROOT
ATOM      1  C   UNL d   1       0.385   3.675   0.113  0.00  0.00     0.023 A 
ATOM      2  C1  UNL d   1       0.058   2.402  -0.355  0.00  0.00     0.003 A 
ATOM      3  C2  UNL d   1       0.090   1.308   0.513  0.00  0.00     0.048 A 
ATOM      4  C3  UNL d   1       0.449   1.495   1.847  0.00  0.00     0.023 A 
ATOM      5  C4  UNL d   1       0.776   2.766   2.320  0.00  0.00     0.048 A 
ATOM      6  C5  UNL d   1       0.744   3.857   1.449  0.00  0.00     0.003 A 
ATOM      7  I   UNL d   1       0.497  -0.132   3.140  0.00  0.00    -0.146 I 
ENDROOT
TORSDOF 0
ENDMDL
