MODEL 1
REMARK minimizedAffinity 8.97774887
REMARK minimizedRMSD -1
REMARK  0 active torsions:
REMARK  status: ('A' for Active; 'I' for Inactive)
ROOT
ATOM      1  C   UNL d   1       0.499   3.993   0.889  0.00  0.00     0.023 A 
ATOM      2  C1  UNL d   1       0.897   3.624   2.174  0.00  0.00     0.003 A 
ATOM      3  C2  UNL d   1       0.756   2.300   2.596  0.00  0.00     0.048 A 
ATOM      4  C3  UNL d   1       0.218   1.351   1.728  0.00  0.00     0.023 A 
ATOM      5  C4  UNL d   1      -0.180   1.716   0.441  0.00  0.00     0.048 A 
ATOM      6  C5  UNL d   1      -0.039   3.041   0.023  0.00  0.00     0.003 A 
ATOM      7  I   UNL d   1       0.008  -0.619   2.354  0.00  0.00    -0.146 I 
ENDROOT
TORSDOF 0
ENDMDL
