MODEL 1
REMARK minimizedAffinity 16.424715
REMARK minimizedRMSD -1
REMARK  0 active torsions:
REMARK  status: ('A' for Active; 'I' for Inactive)
ROOT
ATOM      1  C   UNL d   1       1.382  -0.463   3.021  0.00  0.00     0.023 A 
ATOM      2  C1  UNL d   1       1.586  -1.054   1.774  0.00  0.00     0.003 A 
ATOM      3  C2  UNL d   1       0.868  -0.609   0.662  0.00  0.00     0.048 A 
ATOM      4  C3  UNL d   1      -0.053   0.428   0.804  0.00  0.00     0.023 A 
ATOM      5  C4  UNL d   1      -0.261   1.024   2.050  0.00  0.00     0.048 A 
ATOM      6  C5  UNL d   1       0.459   0.575   3.158  0.00  0.00     0.003 A 
ATOM      7  I   UNL d   1      -1.124   1.092  -0.849  0.00  0.00    -0.146 I 
ENDROOT
TORSDOF 0
ENDMDL
