MODEL 1
REMARK minimizedAffinity -3.60874438
REMARK minimizedRMSD -1
REMARK  0 active torsions:
REMARK  status: ('A' for Active; 'I' for Inactive)
ROOT
ATOM      1  C4' PXY d   1       1.520  -0.387   3.353  0.00  0.00     0.077 C 
ATOM      2  C1' PXY d   1      -0.675   0.250  -1.956  0.00  0.00     0.077 C 
ATOM      3  C1  PXY d   1      -0.110   0.087  -0.559  0.00  0.00    -0.082 A 
ATOM      4  C2  PXY d   1       1.200   0.098  -0.378  0.00  0.00     0.003 A 
ATOM      5  C3  PXY d   1       1.728  -0.080   0.875  0.00  0.00     0.003 A 
ATOM      6  C4  PXY d   1       0.906  -0.217   1.961  0.00  0.00    -0.082 A 
ATOM      7  C5  PXY d   1      -0.433  -0.219   1.785  0.00  0.00     0.003 A 
ATOM      8  C6  PXY d   1      -0.948  -0.078   0.500  0.00  0.00     0.003 A 
ENDROOT
TORSDOF 0
ENDMDL
