MODEL 1
REMARK minimizedAffinity -1.89813483
REMARK minimizedRMSD -1
REMARK  0 active torsions:
REMARK  status: ('A' for Active; 'I' for Inactive)
ROOT
ATOM      1  C4' PXY d   1      -2.657  -0.636   1.489  0.00  0.00     0.077 C 
ATOM      2  C1' PXY d   1       2.848  -0.762  -0.270  0.00  0.00     0.077 C 
ATOM      3  C1  PXY d   1       1.407  -0.738   0.200  0.00  0.00    -0.082 A 
ATOM      4  C2  PXY d   1       0.452  -0.365  -0.636  0.00  0.00     0.003 A 
ATOM      5  C3  PXY d   1      -0.852  -0.306  -0.217  0.00  0.00     0.003 A 
ATOM      6  C4  PXY d   1      -1.189  -0.685   1.055  0.00  0.00    -0.082 A 
ATOM      7  C5  PXY d   1      -0.222  -1.077   1.910  0.00  0.00     0.003 A 
ATOM      8  C6  PXY d   1       1.101  -1.090   1.479  0.00  0.00     0.003 A 
ENDROOT
TORSDOF 0
ENDMDL
