MODEL 1
REMARK minimizedAffinity -5.45185947
REMARK minimizedRMSD -1
REMARK  0 active torsions:
REMARK  status: ('A' for Active; 'I' for Inactive)
ROOT
ATOM      1  C4' PXY d   1      -1.037   0.996  -1.969  0.00  0.00     0.077 C 
ATOM      2  C1' PXY d   1       0.982  -0.882   3.112  0.00  0.00     0.077 C 
ATOM      3  C1  PXY d   1       0.442  -0.397   1.781  0.00  0.00    -0.082 A 
ATOM      4  C2  PXY d   1       1.281   0.020   0.847  0.00  0.00     0.003 A 
ATOM      5  C3  PXY d   1       0.808   0.492  -0.350  0.00  0.00     0.003 A 
ATOM      6  C4  PXY d   1      -0.535   0.488  -0.614  0.00  0.00    -0.082 A 
ATOM      7  C5  PXY d   1      -1.398   0.055   0.330  0.00  0.00     0.003 A 
ATOM      8  C6  PXY d   1      -0.900  -0.382   1.554  0.00  0.00     0.003 A 
ENDROOT
TORSDOF 0
ENDMDL
