MODEL 1
REMARK minimizedAffinity -3.36414289
REMARK minimizedRMSD -1
REMARK  0 active torsions:
REMARK  status: ('A' for Active; 'I' for Inactive)
ROOT
ATOM      1  C4' PXY d   1      -1.038   0.530  -1.691  0.00  0.00     0.077 C 
ATOM      2  C1' PXY d   1       1.351  -1.010   3.342  0.00  0.00     0.077 C 
ATOM      3  C1  PXY d   1       0.713  -0.611   2.026  0.00  0.00    -0.082 A 
ATOM      4  C2  PXY d   1       1.459  -0.524   0.937  0.00  0.00     0.003 A 
ATOM      5  C3  PXY d   1       0.905  -0.133  -0.254  0.00  0.00     0.003 A 
ATOM      6  C4  PXY d   1      -0.438   0.121  -0.343  0.00  0.00    -0.082 A 
ATOM      7  C5  PXY d   1      -1.208   0.025   0.761  0.00  0.00     0.003 A 
ATOM      8  C6  PXY d   1      -0.618  -0.334   1.970  0.00  0.00     0.003 A 
ENDROOT
TORSDOF 0
ENDMDL
