MODEL 1
REMARK minimizedAffinity -5.02365971
REMARK minimizedRMSD -1
REMARK  0 active torsions:
REMARK  status: ('A' for Active; 'I' for Inactive)
ROOT
ATOM      1  C4' PXY d   1      -0.762   0.654  -1.821  0.00  0.00     0.077 C 
ATOM      2  C1' PXY d   1       1.205  -0.823   3.410  0.00  0.00     0.077 C 
ATOM      3  C1  PXY d   1       0.700  -0.429   2.036  0.00  0.00    -0.082 A 
ATOM      4  C2  PXY d   1      -0.601  -0.428   1.793  0.00  0.00     0.003 A 
ATOM      5  C3  PXY d   1      -1.073  -0.105   0.546  0.00  0.00     0.003 A 
ATOM      6  C4  PXY d   1      -0.208   0.272  -0.446  0.00  0.00    -0.082 A 
ATOM      7  C5  PXY d   1       1.120   0.285  -0.202  0.00  0.00     0.003 A 
ATOM      8  C6  PXY d   1       1.581  -0.086   1.058  0.00  0.00     0.003 A 
ENDROOT
TORSDOF 0
ENDMDL
