MODEL 1
REMARK minimizedAffinity -2.75391579
REMARK minimizedRMSD -1
REMARK  0 active torsions:
REMARK  status: ('A' for Active; 'I' for Inactive)
ROOT
ATOM      1  C4' PXY d   1       1.502  -1.509   2.905  0.00  0.00     0.077 C 
ATOM      2  C1' PXY d   1      -1.322   0.475  -1.733  0.00  0.00     0.077 C 
ATOM      3  C1  PXY d   1      -0.591  -0.041  -0.509  0.00  0.00    -0.082 A 
ATOM      4  C2  PXY d   1       0.726  -0.161  -0.536  0.00  0.00     0.003 A 
ATOM      5  C3  PXY d   1       1.400  -0.657   0.551  0.00  0.00     0.003 A 
ATOM      6  C4  PXY d   1       0.723  -0.983   1.695  0.00  0.00    -0.082 A 
ATOM      7  C5  PXY d   1      -0.620  -0.853   1.734  0.00  0.00     0.003 A 
ATOM      8  C6  PXY d   1      -1.289  -0.387   0.606  0.00  0.00     0.003 A 
ENDROOT
TORSDOF 0
ENDMDL
