MODEL 1
REMARK minimizedAffinity -4.53607082
REMARK minimizedRMSD -1
REMARK  0 active torsions:
REMARK  status: ('A' for Active; 'I' for Inactive)
ROOT
ATOM      1  C4' PXY d   1      -0.392   0.992  -2.171  0.00  0.00     0.077 C 
ATOM      2  C1' PXY d   1       1.077  -0.863   3.103  0.00  0.00     0.077 C 
ATOM      3  C1  PXY d   1       0.679  -0.379   1.722  0.00  0.00    -0.082 A 
ATOM      4  C2  PXY d   1       1.576  -0.368   0.750  0.00  0.00     0.003 A 
ATOM      5  C3  PXY d   1       1.242   0.096  -0.497  0.00  0.00     0.003 A 
ATOM      6  C4  PXY d   1      -0.038   0.503  -0.764  0.00  0.00    -0.082 A 
ATOM      7  C5  PXY d   1      -0.961   0.485   0.220  0.00  0.00     0.003 A 
ATOM      8  C6  PXY d   1      -0.591   0.049   1.489  0.00  0.00     0.003 A 
ENDROOT
TORSDOF 0
ENDMDL
