MODEL 1
REMARK minimizedAffinity -4.80297756
REMARK minimizedRMSD -1
REMARK  0 active torsions:
REMARK  status: ('A' for Active; 'I' for Inactive)
ROOT
ATOM      1  C4' PXY d   1      -0.722  -1.277   3.409  0.00  0.00     0.077 C 
ATOM      2  C1' PXY d   1       0.270   0.669  -1.943  0.00  0.00     0.077 C 
ATOM      3  C1  PXY d   1       0.021   0.153  -0.539  0.00  0.00    -0.082 A 
ATOM      4  C2  PXY d   1      -1.220   0.011  -0.105  0.00  0.00     0.003 A 
ATOM      5  C3  PXY d   1      -1.463  -0.424   1.173  0.00  0.00     0.003 A 
ATOM      6  C4  PXY d   1      -0.424  -0.768   1.996  0.00  0.00    -0.082 A 
ATOM      7  C5  PXY d   1       0.845  -0.636   1.557  0.00  0.00     0.003 A 
ATOM      8  C6  PXY d   1       1.071  -0.154   0.271  0.00  0.00     0.003 A 
ENDROOT
TORSDOF 0
ENDMDL
