MODEL 1
REMARK minimizedAffinity -3.35241699
REMARK minimizedRMSD -1
REMARK  0 active torsions:
REMARK  status: ('A' for Active; 'I' for Inactive)
ROOT
ATOM      1  C4' PXY d   1      -0.526   1.523  -2.449  0.00  0.00     0.077 C 
ATOM      2  C1' PXY d   1      -0.169  -1.155   2.662  0.00  0.00     0.077 C 
ATOM      3  C1  PXY d   1      -0.250  -0.451   1.321  0.00  0.00    -0.082 A 
ATOM      4  C2  PXY d   1      -1.370   0.158   0.969  0.00  0.00     0.003 A 
ATOM      5  C3  PXY d   1      -1.471   0.772  -0.253  0.00  0.00     0.003 A 
ATOM      6  C4  PXY d   1      -0.396   0.808  -1.101  0.00  0.00    -0.082 A 
ATOM      7  C5  PXY d   1       0.754   0.197  -0.744  0.00  0.00     0.003 A 
ATOM      8  C6  PXY d   1       0.822  -0.456   0.483  0.00  0.00     0.003 A 
ENDROOT
TORSDOF 0
ENDMDL
