MODEL 1
REMARK minimizedAffinity -3.46043444
REMARK minimizedRMSD -1
REMARK  0 active torsions:
REMARK  status: ('A' for Active; 'I' for Inactive)
ROOT
ATOM      1  C4' PXY d   1       1.283  -0.483  -0.244  0.00  0.00     0.077 C 
ATOM      2  C1' PXY d   1      -2.684   2.605  -3.098  0.00  0.00     0.077 C 
ATOM      3  C1  PXY d   1      -1.634   1.800  -2.357  0.00  0.00    -0.082 A 
ATOM      4  C2  PXY d   1      -1.986   0.695  -1.720  0.00  0.00     0.003 A 
ATOM      5  C3  PXY d   1      -1.056  -0.027  -1.019  0.00  0.00     0.003 A 
ATOM      6  C4  PXY d   1       0.259   0.356  -1.013  0.00  0.00    -0.082 A 
ATOM      7  C5  PXY d   1       0.628   1.477  -1.670  0.00  0.00     0.003 A 
ATOM      8  C6  PXY d   1      -0.340   2.219  -2.341  0.00  0.00     0.003 A 
ENDROOT
TORSDOF 0
ENDMDL
