MODEL 1
REMARK minimizedAffinity -4.00513315
REMARK minimizedRMSD -1
REMARK  0 active torsions:
REMARK  status: ('A' for Active; 'I' for Inactive)
ROOT
ATOM      1  C4' PXY d   1      -0.556  -0.186  -1.572  0.00  0.00     0.077 C 
ATOM      2  C1' PXY d   1       1.619  -0.731   3.756  0.00  0.00     0.077 C 
ATOM      3  C1  PXY d   1       1.039  -0.596   2.362  0.00  0.00    -0.082 A 
ATOM      4  C2  PXY d   1       1.817  -0.208   1.364  0.00  0.00     0.003 A 
ATOM      5  C3  PXY d   1       1.302  -0.050   0.103  0.00  0.00     0.003 A 
ATOM      6  C4  PXY d   1      -0.011  -0.344  -0.150  0.00  0.00    -0.082 A 
ATOM      7  C5  PXY d   1      -0.809  -0.751   0.860  0.00  0.00     0.003 A 
ATOM      8  C6  PXY d   1      -0.276  -0.865   2.141  0.00  0.00     0.003 A 
ENDROOT
TORSDOF 0
ENDMDL
