MODEL 1
REMARK minimizedAffinity -3.17697787
REMARK minimizedRMSD -1
REMARK  3 active torsions:
REMARK  status: ('A' for Active; 'I' for Inactive)
REMARK    1  A    between atoms: C3'_2  and  C2'_3 
REMARK    2  A    between atoms: C2'_3  and  C1'_4 
REMARK    3  A    between atoms: C1'_4  and  C1_5 
ROOT
ATOM      1  C1  N4B d   1       0.072   0.672  -0.051  0.00  0.00    -0.075 A 
ATOM      2  C2  N4B d   1       0.069  -0.710  -0.343  0.00  0.00     0.002 A 
ATOM      3  C3  N4B d   1       1.256  -1.394  -0.440  0.00  0.00     0.002 A 
ATOM      4  C4  N4B d   1       2.454  -0.717  -0.268  0.00  0.00    -0.004 A 
ATOM      5  C5  N4B d   1       2.448   0.613   0.039  0.00  0.00     0.002 A 
ATOM      6  C6  N4B d   1       1.262   1.312   0.144  0.00  0.00     0.002 A 
ENDROOT
BRANCH   1   7
ATOM      7  C1' N4B d   1      -1.196   1.480  -0.019  0.00  0.00     0.057 C 
BRANCH   7   8
ATOM      8  C2' N4B d   1      -1.403   2.140  -1.379  0.00  0.00     0.009 C 
BRANCH   8   9
ATOM      9  C3' N4B d   1      -2.369   1.355  -2.250  0.00  0.00     0.004 C 
ATOM     10  C4' N4B d   1      -1.914   1.252  -3.675  0.00  0.00     0.003 C 
ENDBRANCH   8   9
ENDBRANCH   7   8
ENDBRANCH   1   7
TORSDOF 3
ENDMDL
