MODEL 1
REMARK minimizedAffinity -4.1497283
REMARK minimizedRMSD -1
REMARK  3 active torsions:
REMARK  status: ('A' for Active; 'I' for Inactive)
REMARK    1  A    between atoms: C3'_2  and  C2'_3 
REMARK    2  A    between atoms: C2'_3  and  C1'_4 
REMARK    3  A    between atoms: C1'_4  and  C1_5 
ROOT
ATOM      1  C1  N4B d   1       0.227   0.061   0.351  0.00  0.00    -0.075 A 
ATOM      2  C2  N4B d   1       1.303   0.150  -0.559  0.00  0.00     0.002 A 
ATOM      3  C3  N4B d   1       2.398  -0.667  -0.410  0.00  0.00     0.002 A 
ATOM      4  C4  N4B d   1       2.447  -1.562   0.648  0.00  0.00    -0.004 A 
ATOM      5  C5  N4B d   1       1.392  -1.660   1.508  0.00  0.00     0.002 A 
ATOM      6  C6  N4B d   1       0.284  -0.848   1.368  0.00  0.00     0.002 A 
ENDROOT
BRANCH   1   7
ATOM      7  C1' N4B d   1      -0.952   0.991   0.280  0.00  0.00     0.057 C 
BRANCH   7   8
ATOM      8  C2' N4B d   1      -1.022   1.605  -1.116  0.00  0.00     0.009 C 
BRANCH   8   9
ATOM      9  C3' N4B d   1      -2.265   1.164  -1.869  0.00  0.00     0.004 C 
ATOM     10  C4' N4B d   1      -2.212   1.506  -3.328  0.00  0.00     0.003 C 
ENDBRANCH   8   9
ENDBRANCH   7   8
ENDBRANCH   1   7
TORSDOF 3
ENDMDL
