MODEL 1
REMARK minimizedAffinity -2.58559346
REMARK minimizedRMSD -1
REMARK  3 active torsions:
REMARK  status: ('A' for Active; 'I' for Inactive)
REMARK    1  A    between atoms: C3'_2  and  C2'_3 
REMARK    2  A    between atoms: C2'_3  and  C1'_4 
REMARK    3  A    between atoms: C1'_4  and  C1_5 
ROOT
ATOM      1  C1  N4B d   1      -0.088   0.218  -0.355  0.00  0.00    -0.075 A 
ATOM      2  C2  N4B d   1       1.194   0.682  -0.723  0.00  0.00     0.002 A 
ATOM      3  C3  N4B d   1       2.315   0.120  -0.162  0.00  0.00     0.002 A 
ATOM      4  C4  N4B d   1       2.178  -0.889   0.780  0.00  0.00    -0.004 A 
ATOM      5  C5  N4B d   1       0.937  -1.348   1.111  0.00  0.00     0.002 A 
ATOM      6  C6  N4B d   1      -0.198  -0.795   0.552  0.00  0.00     0.002 A 
ENDROOT
BRANCH   1   7
ATOM      7  C1' N4B d   1      -1.344   0.860  -0.877  0.00  0.00     0.057 C 
BRANCH   7   8
ATOM      8  C2' N4B d   1      -0.976   2.108  -1.674  0.00  0.00     0.009 C 
BRANCH   8   9
ATOM      9  C3' N4B d   1      -1.786   2.225  -2.953  0.00  0.00     0.004 C 
ATOM     10  C4' N4B d   1      -3.010   1.359  -2.947  0.00  0.00     0.003 C 
ENDBRANCH   8   9
ENDBRANCH   7   8
ENDBRANCH   1   7
TORSDOF 3
ENDMDL
