MODEL 1
REMARK minimizedAffinity -3.92768717
REMARK minimizedRMSD -1
REMARK  3 active torsions:
REMARK  status: ('A' for Active; 'I' for Inactive)
REMARK    1  A    between atoms: C3'_2  and  C2'_3 
REMARK    2  A    between atoms: C2'_3  and  C1'_4 
REMARK    3  A    between atoms: C1'_4  and  C1_5 
ROOT
ATOM      1  C1  N4B d   1       1.156  -0.338   0.392  0.00  0.00    -0.075 A 
ATOM      2  C2  N4B d   1       2.161   0.321  -0.349  0.00  0.00     0.002 A 
ATOM      3  C3  N4B d   1       3.485   0.096  -0.060  0.00  0.00     0.002 A 
ATOM      4  C4  N4B d   1       3.825  -0.766   0.971  0.00  0.00    -0.004 A 
ATOM      5  C5  N4B d   1       2.848  -1.418   1.665  0.00  0.00     0.002 A 
ATOM      6  C6  N4B d   1       1.514  -1.205   1.383  0.00  0.00     0.002 A 
ENDROOT
BRANCH   1   7
ATOM      7  C1' N4B d   1      -0.306  -0.059   0.170  0.00  0.00     0.057 C 
BRANCH   7   8
ATOM      8  C2' N4B d   1      -0.548   1.445   0.267  0.00  0.00     0.009 C 
BRANCH   8   9
ATOM      9  C3' N4B d   1      -0.950   2.042  -1.071  0.00  0.00     0.004 C 
ATOM     10  C4' N4B d   1      -2.072   1.295  -1.727  0.00  0.00     0.003 C 
ENDBRANCH   8   9
ENDBRANCH   7   8
ENDBRANCH   1   7
TORSDOF 3
ENDMDL
