MODEL 1
REMARK minimizedAffinity -6.45848465
REMARK minimizedRMSD -1
REMARK  3 active torsions:
REMARK  status: ('A' for Active; 'I' for Inactive)
REMARK    1  A    between atoms: C3'_2  and  C2'_3 
REMARK    2  A    between atoms: C2'_3  and  C1'_4 
REMARK    3  A    between atoms: C1'_4  and  C1_5 
ROOT
ATOM      1  C1  N4B d   1       0.756   0.361   0.096  0.00  0.00    -0.075 A 
ATOM      2  C2  N4B d   1       0.433  -0.920   0.594  0.00  0.00     0.002 A 
ATOM      3  C3  N4B d   1       1.427  -1.839   0.821  0.00  0.00     0.002 A 
ATOM      4  C4  N4B d   1       2.745  -1.508   0.540  0.00  0.00    -0.004 A 
ATOM      5  C5  N4B d   1       3.051  -0.260   0.083  0.00  0.00     0.002 A 
ATOM      6  C6  N4B d   1       2.062   0.676  -0.146  0.00  0.00     0.002 A 
ENDROOT
BRANCH   1   7
ATOM      7  C1' N4B d   1      -0.305   1.370  -0.249  0.00  0.00     0.057 C 
BRANCH   7   8
ATOM      8  C2' N4B d   1       0.303   2.454  -1.134  0.00  0.00     0.009 C 
BRANCH   8   9
ATOM      9  C3' N4B d   1      -0.667   2.924  -2.205  0.00  0.00     0.004 C 
ATOM     10  C4' N4B d   1      -0.188   4.148  -2.926  0.00  0.00     0.003 C 
ENDBRANCH   8   9
ENDBRANCH   7   8
ENDBRANCH   1   7
TORSDOF 3
ENDMDL
