MODEL 1
REMARK minimizedAffinity -3.78642821
REMARK minimizedRMSD -1
REMARK  3 active torsions:
REMARK  status: ('A' for Active; 'I' for Inactive)
REMARK    1  A    between atoms: C3'_2  and  C2'_3 
REMARK    2  A    between atoms: C2'_3  and  C1'_4 
REMARK    3  A    between atoms: C1'_4  and  C1_5 
ROOT
ATOM      1  C1  N4B d   1      -0.328  -1.461   0.553  0.00  0.00    -0.075 A 
ATOM      2  C2  N4B d   1      -1.254  -1.110   1.560  0.00  0.00     0.002 A 
ATOM      3  C3  N4B d   1      -1.705   0.184   1.656  0.00  0.00     0.002 A 
ATOM      4  C4  N4B d   1      -1.232   1.143   0.773  0.00  0.00    -0.004 A 
ATOM      5  C5  N4B d   1      -0.357   0.790  -0.212  0.00  0.00     0.002 A 
ATOM      6  C6  N4B d   1       0.102  -0.507  -0.323  0.00  0.00     0.002 A 
ENDROOT
BRANCH   1   7
ATOM      7  C1' N4B d   1       0.259  -2.843   0.462  0.00  0.00     0.057 C 
BRANCH   7   8
ATOM      8  C2' N4B d   1       1.465  -2.937   1.393  0.00  0.00     0.009 C 
BRANCH   8   9
ATOM      9  C3' N4B d   1       1.964  -1.567   1.817  0.00  0.00     0.004 C 
ATOM     10  C4' N4B d   1       3.241  -1.177   1.134  0.00  0.00     0.003 C 
ENDBRANCH   8   9
ENDBRANCH   7   8
ENDBRANCH   1   7
TORSDOF 3
ENDMDL
