MODEL 1
REMARK minimizedAffinity -0.59814477
REMARK minimizedRMSD -1
REMARK  3 active torsions:
REMARK  status: ('A' for Active; 'I' for Inactive)
REMARK    1  A    between atoms: C3'_2  and  C2'_3 
REMARK    2  A    between atoms: C2'_3  and  C1'_4 
REMARK    3  A    between atoms: C1'_4  and  C1_5 
ROOT
ATOM      1  C1  N4B d   1       0.201  -0.849   0.720  0.00  0.00    -0.075 A 
ATOM      2  C2  N4B d   1       0.624   0.165  -0.167  0.00  0.00     0.002 A 
ATOM      3  C3  N4B d   1      -0.067   1.350  -0.236  0.00  0.00     0.002 A 
ATOM      4  C4  N4B d   1      -1.191   1.535   0.555  0.00  0.00    -0.004 A 
ATOM      5  C5  N4B d   1      -1.578   0.561   1.428  0.00  0.00     0.002 A 
ATOM      6  C6  N4B d   1      -0.890  -0.633   1.511  0.00  0.00     0.002 A 
ENDROOT
BRANCH   1   7
ATOM      7  C1' N4B d   1       0.874  -2.193   0.769  0.00  0.00     0.057 C 
BRANCH   7   8
ATOM      8  C2' N4B d   1       1.944  -2.179   1.857  0.00  0.00     0.009 C 
BRANCH   8   9
ATOM      9  C3' N4B d   1       2.946  -1.055   1.653  0.00  0.00     0.004 C 
ATOM     10  C4' N4B d   1       3.924  -0.937   2.784  0.00  0.00     0.003 C 
ENDBRANCH   8   9
ENDBRANCH   7   8
ENDBRANCH   1   7
TORSDOF 3
ENDMDL
