MODEL 1
REMARK minimizedAffinity 20.5464554
REMARK minimizedRMSD -1
REMARK  0 active torsions:
REMARK  status: ('A' for Active; 'I' for Inactive)
ROOT
ATOM      1  O1  BZF d   1      -4.307  -1.819   4.139  0.00  0.00    -0.204 OA
ATOM      2  C2  BZF d   1      -2.972  -2.025   3.847  0.00  0.00     0.174 A 
ATOM      3  C3  BZF d   1      -2.228  -0.971   4.239  0.00  0.00    -0.012 A 
ATOM      4  C3A BZF d   1      -3.143  -0.088   4.896  0.00  0.00    -0.107 A 
ATOM      5  C4  BZF d   1      -3.000   1.121   5.515  0.00  0.00     0.055 A 
ATOM      6  C5  BZF d   1      -4.104   1.754   5.991  0.00  0.00    -0.016 A 
ATOM      7  C6  BZF d   1      -5.365   1.210   5.860  0.00  0.00     0.022 A 
ATOM      8  C7  BZF d   1      -5.556   0.011   5.258  0.00  0.00     0.029 A 
ATOM      9  C7A BZF d   1      -4.439  -0.647   4.806  0.00  0.00     0.058 A 
ENDROOT
TORSDOF 0
ENDMDL
