MODEL 1
REMARK minimizedAffinity 1.78856289
REMARK minimizedRMSD -1
REMARK  0 active torsions:
REMARK  status: ('A' for Active; 'I' for Inactive)
ROOT
ATOM      1  O1  BZF d   1      -1.867  -4.738   4.095  0.00  0.00    -0.204 OA
ATOM      2  C2  BZF d   1      -1.217  -5.940   3.890  0.00  0.00     0.174 A 
ATOM      3  C3  BZF d   1      -0.703  -6.000   2.645  0.00  0.00    -0.012 A 
ATOM      4  C3A BZF d   1      -0.974  -4.720   2.064  0.00  0.00    -0.107 A 
ATOM      5  C4  BZF d   1      -0.695  -4.163   0.849  0.00  0.00     0.055 A 
ATOM      6  C5  BZF d   1      -1.162  -2.917   0.571  0.00  0.00    -0.016 A 
ATOM      7  C6  BZF d   1      -1.914  -2.204   1.482  0.00  0.00     0.022 A 
ATOM      8  C7  BZF d   1      -2.212  -2.713   2.702  0.00  0.00     0.029 A 
ATOM      9  C7A BZF d   1      -1.713  -3.958   2.998  0.00  0.00     0.058 A 
ENDROOT
TORSDOF 0
ENDMDL
