MODEL 1
REMARK minimizedAffinity 11.9321585
REMARK minimizedRMSD -1
REMARK  0 active torsions:
REMARK  status: ('A' for Active; 'I' for Inactive)
ROOT
ATOM      1  O1  BZF d   1       0.610  -0.234  -3.533  0.00  0.00    -0.204 OA
ATOM      2  C2  BZF d   1       0.066  -1.311  -2.861  0.00  0.00     0.174 A 
ATOM      3  C3  BZF d   1      -1.239  -1.099  -2.594  0.00  0.00    -0.012 A 
ATOM      4  C3A BZF d   1      -1.551   0.151  -3.214  0.00  0.00    -0.107 A 
ATOM      5  C4  BZF d   1      -2.695   0.890  -3.313  0.00  0.00     0.055 A 
ATOM      6  C5  BZF d   1      -2.648   2.103  -3.924  0.00  0.00    -0.016 A 
ATOM      7  C6  BZF d   1      -1.474   2.609  -4.442  0.00  0.00     0.022 A 
ATOM      8  C7  BZF d   1      -0.314   1.911  -4.372  0.00  0.00     0.029 A 
ATOM      9  C7A BZF d   1      -0.366   0.671  -3.785  0.00  0.00     0.058 A 
ENDROOT
TORSDOF 0
ENDMDL
