MODEL 1
REMARK minimizedAffinity 17.7874203
REMARK minimizedRMSD -1
REMARK  0 active torsions:
REMARK  status: ('A' for Active; 'I' for Inactive)
ROOT
ATOM      1  O1  BZF d   1      -0.036  -4.574  -0.452  0.00  0.00    -0.204 OA
ATOM      2  C2  BZF d   1       0.090  -3.927   0.762  0.00  0.00     0.174 A 
ATOM      3  C3  BZF d   1      -0.350  -2.656   0.675  0.00  0.00    -0.012 A 
ATOM      4  C3A BZF d   1      -0.864  -2.526  -0.655  0.00  0.00    -0.107 A 
ATOM      5  C4  BZF d   1      -1.452  -1.500  -1.337  0.00  0.00     0.055 A 
ATOM      6  C5  BZF d   1      -1.772  -1.675  -2.647  0.00  0.00    -0.016 A 
ATOM      7  C6  BZF d   1      -1.512  -2.860  -3.305  0.00  0.00     0.022 A 
ATOM      8  C7  BZF d   1      -0.935  -3.907  -2.668  0.00  0.00     0.029 A 
ATOM      9  C7A BZF d   1      -0.641  -3.744  -1.336  0.00  0.00     0.058 A 
ENDROOT
TORSDOF 0
ENDMDL
