MODEL 1
REMARK minimizedAffinity 12.1261463
REMARK minimizedRMSD -1
REMARK  0 active torsions:
REMARK  status: ('A' for Active; 'I' for Inactive)
ROOT
ATOM      1  O1  BZF d   1      -0.466  -4.033  -0.002  0.00  0.00    -0.204 OA
ATOM      2  C2  BZF d   1      -0.895  -4.522   1.217  0.00  0.00     0.174 A 
ATOM      3  C3  BZF d   1      -1.955  -3.819   1.667  0.00  0.00    -0.012 A 
ATOM      4  C3A BZF d   1      -2.261  -2.889   0.623  0.00  0.00    -0.107 A 
ATOM      5  C4  BZF d   1      -3.220  -1.929   0.473  0.00  0.00     0.055 A 
ATOM      6  C5  BZF d   1      -3.199  -1.142  -0.635  0.00  0.00    -0.016 A 
ATOM      7  C6  BZF d   1      -2.232  -1.284  -1.608  0.00  0.00     0.022 A 
ATOM      8  C7  BZF d   1      -1.262  -2.226  -1.505  0.00  0.00     0.029 A 
ATOM      9  C7A BZF d   1      -1.300  -3.044  -0.403  0.00  0.00     0.058 A 
ENDROOT
TORSDOF 0
ENDMDL
