MODEL 1
REMARK minimizedAffinity 13.4115944
REMARK minimizedRMSD -1
REMARK  0 active torsions:
REMARK  status: ('A' for Active; 'I' for Inactive)
ROOT
ATOM      1  O1  BZF d   1       1.849  -2.566   2.089  0.00  0.00    -0.204 OA
ATOM      2  C2  BZF d   1       0.835  -2.928   1.225  0.00  0.00     0.174 A 
ATOM      3  C3  BZF d   1      -0.356  -2.926   1.857  0.00  0.00    -0.012 A 
ATOM      4  C3A BZF d   1      -0.081  -2.449   3.177  0.00  0.00    -0.107 A 
ATOM      5  C4  BZF d   1      -0.862  -2.210   4.272  0.00  0.00     0.055 A 
ATOM      6  C5  BZF d   1      -0.272  -1.816   5.431  0.00  0.00    -0.016 A 
ATOM      7  C6  BZF d   1       1.094  -1.656   5.533  0.00  0.00     0.022 A 
ATOM      8  C7  BZF d   1       1.910  -1.876   4.473  0.00  0.00     0.029 A 
ATOM      9  C7A BZF d   1       1.314  -2.242   3.291  0.00  0.00     0.058 A 
ENDROOT
TORSDOF 0
ENDMDL
