MODEL 1
REMARK minimizedAffinity 18.1807632
REMARK minimizedRMSD -1
REMARK  0 active torsions:
REMARK  status: ('A' for Active; 'I' for Inactive)
ROOT
ATOM      1  O1  BZF d   1      -0.311   3.814  -4.812  0.00  0.00    -0.204 OA
ATOM      2  C2  BZF d   1       0.403   2.835  -5.476  0.00  0.00     0.174 A 
ATOM      3  C3  BZF d   1      -0.427   1.910  -6.000  0.00  0.00    -0.012 A 
ATOM      4  C3A BZF d   1      -1.747   2.386  -5.719  0.00  0.00    -0.107 A 
ATOM      5  C4  BZF d   1      -2.996   1.911  -6.000  0.00  0.00     0.055 A 
ATOM      6  C5  BZF d   1      -4.079   2.578  -5.521  0.00  0.00    -0.016 A 
ATOM      7  C6  BZF d   1      -3.950   3.717  -4.755  0.00  0.00     0.022 A 
ATOM      8  C7  BZF d   1      -2.732   4.230  -4.454  0.00  0.00     0.029 A 
ATOM      9  C7A BZF d   1      -1.636   3.577  -4.965  0.00  0.00     0.058 A 
ENDROOT
TORSDOF 0
ENDMDL
