MODEL 1
REMARK minimizedAffinity 15.3990726
REMARK minimizedRMSD -1
REMARK  0 active torsions:
REMARK  status: ('A' for Active; 'I' for Inactive)
ROOT
ATOM      1  O1  BZF d   1      -0.146  -4.282  -0.228  0.00  0.00    -0.204 OA
ATOM      2  C2  BZF d   1      -0.426  -4.783   1.029  0.00  0.00     0.174 A 
ATOM      3  C3  BZF d   1      -1.193  -3.922   1.727  0.00  0.00    -0.012 A 
ATOM      4  C3A BZF d   1      -1.482  -2.854   0.820  0.00  0.00    -0.107 A 
ATOM      5  C4  BZF d   1      -2.214  -1.705   0.923  0.00  0.00     0.055 A 
ATOM      6  C5  BZF d   1      -2.235  -0.839  -0.124  0.00  0.00    -0.016 A 
ATOM      7  C6  BZF d   1      -1.534  -1.087  -1.285  0.00  0.00     0.022 A 
ATOM      8  C7  BZF d   1      -0.798  -2.215  -1.437  0.00  0.00     0.029 A 
ATOM      9  C7A BZF d   1      -0.801  -3.108  -0.393  0.00  0.00     0.058 A 
ENDROOT
TORSDOF 0
ENDMDL
