MODEL 1
REMARK minimizedAffinity 21.1527081
REMARK minimizedRMSD -1
REMARK  0 active torsions:
REMARK  status: ('A' for Active; 'I' for Inactive)
ROOT
ATOM      1  O1  BZF d   1      -5.906   4.751  -5.978  0.00  0.00    -0.204 OA
ATOM      2  C2  BZF d   1      -5.777   5.915  -5.246  0.00  0.00     0.174 A 
ATOM      3  C3  BZF d   1      -4.791   5.799  -4.333  0.00  0.00    -0.012 A 
ATOM      4  C3A BZF d   1      -4.210   4.513  -4.568  0.00  0.00    -0.107 A 
ATOM      5  C4  BZF d   1      -3.177   3.830  -3.992  0.00  0.00     0.055 A 
ATOM      6  C5  BZF d   1      -2.911   2.563  -4.405  0.00  0.00    -0.016 A 
ATOM      7  C6  BZF d   1      -3.659   1.948  -5.388  0.00  0.00     0.022 A 
ATOM      8  C7  BZF d   1      -4.690   2.587  -5.992  0.00  0.00     0.029 A 
ATOM      9  C7A BZF d   1      -4.941   3.879  -5.600  0.00  0.00     0.058 A 
ENDROOT
TORSDOF 0
ENDMDL
