MODEL 1
REMARK minimizedAffinity 17.7031803
REMARK minimizedRMSD -1
REMARK  0 active torsions:
REMARK  status: ('A' for Active; 'I' for Inactive)
ROOT
ATOM      1  O1  BZF d   1      -0.424  -4.486  -1.303  0.00  0.00    -0.204 OA
ATOM      2  C2  BZF d   1      -0.324  -4.585   0.071  0.00  0.00     0.174 A 
ATOM      3  C3  BZF d   1      -0.774  -3.461   0.666  0.00  0.00    -0.012 A 
ATOM      4  C3A BZF d   1      -1.266  -2.642  -0.400  0.00  0.00    -0.107 A 
ATOM      5  C4  BZF d   1      -1.852  -1.410  -0.443  0.00  0.00     0.055 A 
ATOM      6  C5  BZF d   1      -2.148  -0.861  -1.651  0.00  0.00    -0.016 A 
ATOM      7  C6  BZF d   1      -1.867  -1.514  -2.833  0.00  0.00     0.022 A 
ATOM      8  C7  BZF d   1      -1.291  -2.741  -2.841  0.00  0.00     0.029 A 
ATOM      9  C7A BZF d   1      -1.021  -3.312  -1.621  0.00  0.00     0.058 A 
ENDROOT
TORSDOF 0
ENDMDL
