MODEL 1
REMARK minimizedAffinity 19.5869389
REMARK minimizedRMSD -1
REMARK  0 active torsions:
REMARK  status: ('A' for Active; 'I' for Inactive)
ROOT
ATOM      1  O1  BZF d   1      -0.138  -4.718  -0.767  0.00  0.00    -0.204 OA
ATOM      2  C2  BZF d   1      -0.034  -4.733   0.611  0.00  0.00     0.174 A 
ATOM      3  C3  BZF d   1      -0.461  -3.566   1.136  0.00  0.00    -0.012 A 
ATOM      4  C3A BZF d   1      -0.943  -2.807   0.023  0.00  0.00    -0.107 A 
ATOM      5  C4  BZF d   1      -1.508  -1.569  -0.095  0.00  0.00     0.055 A 
ATOM      6  C5  BZF d   1      -1.800  -1.092  -1.333  0.00  0.00    -0.016 A 
ATOM      7  C6  BZF d   1      -1.536  -1.822  -2.474  0.00  0.00     0.022 A 
ATOM      8  C7  BZF d   1      -0.982  -3.057  -2.407  0.00  0.00     0.029 A 
ATOM      9  C7A BZF d   1      -0.716  -3.556  -1.155  0.00  0.00     0.058 A 
ENDROOT
TORSDOF 0
ENDMDL
