MODEL 1
REMARK minimizedAffinity 15.3656378
REMARK minimizedRMSD -1
REMARK  0 active torsions:
REMARK  status: ('A' for Active; 'I' for Inactive)
ROOT
ATOM      1  O1  BZF d   1      -4.427  -1.004   3.964  0.00  0.00    -0.204 OA
ATOM      2  C2  BZF d   1      -3.058  -1.026   3.779  0.00  0.00     0.174 A 
ATOM      3  C3  BZF d   1      -2.488   0.086   4.286  0.00  0.00    -0.012 A 
ATOM      4  C3A BZF d   1      -3.558   0.809   4.904  0.00  0.00    -0.107 A 
ATOM      5  C4  BZF d   1      -3.621   1.987   5.592  0.00  0.00     0.055 A 
ATOM      6  C5  BZF d   1      -4.832   2.449   6.000  0.00  0.00    -0.016 A 
ATOM      7  C6  BZF d   1      -5.998   1.763   5.733  0.00  0.00     0.022 A 
ATOM      8  C7  BZF d   1      -5.986   0.588   5.059  0.00  0.00     0.029 A 
ATOM      9  C7A BZF d   1      -4.760   0.101   4.674  0.00  0.00     0.058 A 
ENDROOT
TORSDOF 0
ENDMDL
