MODEL 1
REMARK minimizedAffinity 12.9227543
REMARK minimizedRMSD -1
REMARK  0 active torsions:
REMARK  status: ('A' for Active; 'I' for Inactive)
ROOT
ATOM      1  O1  BZF d   1      -4.483   6.000  -1.660  0.00  0.00    -0.204 OA
ATOM      2  C2  BZF d   1      -3.398   5.256  -2.082  0.00  0.00     0.174 A 
ATOM      3  C3  BZF d   1      -3.023   4.376  -1.131  0.00  0.00    -0.012 A 
ATOM      4  C3A BZF d   1      -3.988   4.518  -0.085  0.00  0.00    -0.107 A 
ATOM      5  C4  BZF d   1      -4.161   3.904   1.123  0.00  0.00     0.055 A 
ATOM      6  C5  BZF d   1      -5.160   4.326   1.941  0.00  0.00    -0.016 A 
ATOM      7  C6  BZF d   1      -6.000   5.362   1.587  0.00  0.00     0.022 A 
ATOM      8  C7  BZF d   1      -5.870   5.999   0.398  0.00  0.00     0.029 A 
ATOM      9  C7A BZF d   1      -4.882   5.552  -0.445  0.00  0.00     0.058 A 
ENDROOT
TORSDOF 0
ENDMDL
