MODEL 1
REMARK minimizedAffinity 22.2687054
REMARK minimizedRMSD -1
REMARK  0 active torsions:
REMARK  status: ('A' for Active; 'I' for Inactive)
ROOT
ATOM      1  O1  BZF d   1       2.778  -1.022  -2.845  0.00  0.00    -0.204 OA
ATOM      2  C2  BZF d   1       2.053   0.012  -2.285  0.00  0.00     0.174 A 
ATOM      3  C3  BZF d   1       2.728   1.176  -2.381  0.00  0.00    -0.012 A 
ATOM      4  C3A BZF d   1       3.910   0.865  -3.125  0.00  0.00    -0.107 A 
ATOM      5  C4  BZF d   1       4.969   1.610  -3.558  0.00  0.00     0.055 A 
ATOM      6  C5  BZF d   1       5.996   0.989  -4.196  0.00  0.00    -0.016 A 
ATOM      7  C6  BZF d   1       5.999  -0.373  -4.413  0.00  0.00     0.022 A 
ATOM      8  C7  BZF d   1       4.968  -1.153  -4.006  0.00  0.00     0.029 A 
ATOM      9  C7A BZF d   1       3.913  -0.524  -3.390  0.00  0.00     0.058 A 
ENDROOT
TORSDOF 0
ENDMDL
