MODEL 1
REMARK minimizedAffinity 19.3670139
REMARK minimizedRMSD -1
REMARK  0 active torsions:
REMARK  status: ('A' for Active; 'I' for Inactive)
ROOT
ATOM      1  O1  BZF d   1      -2.612   1.217   6.000  0.00  0.00    -0.204 OA
ATOM      2  C2  BZF d   1      -3.761   1.470   5.275  0.00  0.00     0.174 A 
ATOM      3  C3  BZF d   1      -3.940   0.535   4.320  0.00  0.00    -0.012 A 
ATOM      4  C3A BZF d   1      -2.883  -0.410   4.516  0.00  0.00    -0.107 A 
ATOM      5  C4  BZF d   1      -2.535  -1.571   3.889  0.00  0.00     0.055 A 
ATOM      6  C5  BZF d   1      -1.404  -2.218   4.277  0.00  0.00    -0.016 A 
ATOM      7  C6  BZF d   1      -0.597  -1.729   5.284  0.00  0.00     0.022 A 
ATOM      8  C7  BZF d   1      -0.905  -0.583   5.939  0.00  0.00     0.029 A 
ATOM      9  C7A BZF d   1      -2.064   0.055   5.571  0.00  0.00     0.058 A 
ENDROOT
TORSDOF 0
ENDMDL
