MODEL 1
REMARK minimizedAffinity 16.0614128
REMARK minimizedRMSD -1
REMARK  0 active torsions:
REMARK  status: ('A' for Active; 'I' for Inactive)
ROOT
ATOM      1  O1  BZF d   1      -0.227  -4.721  -0.997  0.00  0.00    -0.204 OA
ATOM      2  C2  BZF d   1      -0.201  -4.354   0.334  0.00  0.00     0.174 A 
ATOM      3  C3  BZF d   1      -0.649  -3.091   0.490  0.00  0.00    -0.012 A 
ATOM      4  C3A BZF d   1      -1.062  -2.674  -0.815  0.00  0.00    -0.107 A 
ATOM      5  C4  BZF d   1      -1.609  -1.522  -1.303  0.00  0.00     0.055 A 
ATOM      6  C5  BZF d   1      -1.826  -1.409  -2.640  0.00  0.00    -0.016 A 
ATOM      7  C6  BZF d   1      -1.503  -2.424  -3.516  0.00  0.00     0.022 A 
ATOM      8  C7  BZF d   1      -0.963  -3.587  -3.079  0.00  0.00     0.029 A 
ATOM      9  C7A BZF d   1      -0.773  -3.717  -1.725  0.00  0.00     0.058 A 
ENDROOT
TORSDOF 0
ENDMDL
