MODEL 1
REMARK minimizedAffinity 8.67431164
REMARK minimizedRMSD -1
REMARK  0 active torsions:
REMARK  status: ('A' for Active; 'I' for Inactive)
ROOT
ATOM      1  O1  BZF d   1       1.199  -0.131  -3.168  0.00  0.00    -0.204 OA
ATOM      2  C2  BZF d   1       1.917   0.666  -2.298  0.00  0.00     0.174 A 
ATOM      3  C3  BZF d   1       1.275   0.786  -1.118  0.00  0.00    -0.012 A 
ATOM      4  C3A BZF d   1       0.125  -0.059  -1.228  0.00  0.00    -0.107 A 
ATOM      5  C4  BZF d   1      -0.893  -0.373  -0.375  0.00  0.00     0.055 A 
ATOM      6  C5  BZF d   1      -1.900  -1.173  -0.815  0.00  0.00    -0.016 A 
ATOM      7  C6  BZF d   1      -1.922  -1.672  -2.101  0.00  0.00     0.022 A 
ATOM      8  C7  BZF d   1      -0.931  -1.392  -2.982  0.00  0.00     0.029 A 
ATOM      9  C7A BZF d   1       0.104  -0.610  -2.530  0.00  0.00     0.058 A 
ENDROOT
TORSDOF 0
ENDMDL
