MODEL 1
REMARK minimizedAffinity 14.3095551
REMARK minimizedRMSD -1
REMARK  0 active torsions:
REMARK  status: ('A' for Active; 'I' for Inactive)
ROOT
ATOM      1  O1  BZF d   1       2.745   2.958   2.896  0.00  0.00    -0.204 OA
ATOM      2  C2  BZF d   1       2.945   2.249   1.728  0.00  0.00     0.174 A 
ATOM      3  C3  BZF d   1       4.109   1.569   1.774  0.00  0.00    -0.012 A 
ATOM      4  C3A BZF d   1       4.627   1.799   3.088  0.00  0.00    -0.107 A 
ATOM      5  C4  BZF d   1       5.748   1.377   3.742  0.00  0.00     0.055 A 
ATOM      6  C5  BZF d   1       5.997   1.841   4.995  0.00  0.00    -0.016 A 
ATOM      7  C6  BZF d   1       5.150   2.732   5.620  0.00  0.00     0.022 A 
ATOM      8  C7  BZF d   1       4.022   3.176   5.014  0.00  0.00     0.029 A 
ATOM      9  C7A BZF d   1       3.751   2.682   3.761  0.00  0.00     0.058 A 
ENDROOT
TORSDOF 0
ENDMDL
