MODEL 1
REMARK minimizedAffinity 1.29130054
REMARK minimizedRMSD -1
REMARK  0 active torsions:
REMARK  status: ('A' for Active; 'I' for Inactive)
ROOT
ATOM      1  C   UNL d   1       0.276   0.987  -1.378  0.00  0.00    -0.002 A 
ATOM      2  C1  UNL d   1       0.336  -0.013  -2.339  0.00  0.00     0.010 A 
ATOM      3  C2  UNL d   1      -0.035  -1.322  -2.025  0.00  0.00     0.041 A 
ATOM      4  C3  UNL d   1      -0.473  -1.611  -0.718  0.00  0.00    -0.075 A 
ATOM      5  S   UNL d   1      -0.979  -3.142  -0.106  0.00  0.00     0.015 SA
ATOM      6  C4  UNL d   1      -1.287  -2.504   1.444  0.00  0.00     0.022 A 
ATOM      7  C5  UNL d   1      -1.017  -1.158   1.511  0.00  0.00     0.026 A 
ATOM      8  C6  UNL d   1      -0.544  -0.621   0.266  0.00  0.00    -0.082 A 
ATOM      9  C7  UNL d   1      -0.160   0.696  -0.083  0.00  0.00     0.045 A 
ENDROOT
TORSDOF 0
ENDMDL
