MODEL 1
REMARK minimizedAffinity 5.43104124
REMARK minimizedRMSD -1
REMARK  0 active torsions:
REMARK  status: ('A' for Active; 'I' for Inactive)
ROOT
ATOM      1  C   UNL d   1      -1.808  -0.242   1.185  0.00  0.00    -0.002 A 
ATOM      2  C1  UNL d   1      -0.759   0.172   1.993  0.00  0.00     0.010 A 
ATOM      3  C2  UNL d   1       0.493   0.455   1.442  0.00  0.00     0.041 A 
ATOM      4  C3  UNL d   1       0.673   0.315   0.052  0.00  0.00    -0.075 A 
ATOM      5  S   UNL d   1       2.117   0.606  -0.843  0.00  0.00     0.015 SA
ATOM      6  C4  UNL d   1       1.375   0.188  -2.319  0.00  0.00     0.022 A 
ATOM      7  C5  UNL d   1       0.057  -0.167  -2.152  0.00  0.00     0.026 A 
ATOM      8  C6  UNL d   1      -0.369  -0.100  -0.782  0.00  0.00    -0.082 A 
ATOM      9  C7  UNL d   1      -1.626  -0.380  -0.193  0.00  0.00     0.045 A 
ENDROOT
TORSDOF 0
ENDMDL
