MODEL 1
REMARK minimizedAffinity 5.62346697
REMARK minimizedRMSD -1
REMARK  0 active torsions:
REMARK  status: ('A' for Active; 'I' for Inactive)
ROOT
ATOM      1  C   UNL d   1       0.609   1.118  -1.352  0.00  0.00    -0.002 A 
ATOM      2  C1  UNL d   1       0.301   0.115  -2.259  0.00  0.00     0.010 A 
ATOM      3  C2  UNL d   1      -0.301  -1.070  -1.831  0.00  0.00     0.041 A 
ATOM      4  C3  UNL d   1      -0.592  -1.231  -0.462  0.00  0.00    -0.075 A 
ATOM      5  S   UNL d   1      -1.327  -2.596   0.291  0.00  0.00     0.015 SA
ATOM      6  C4  UNL d   1      -1.250  -1.879   1.836  0.00  0.00     0.022 A 
ATOM      7  C5  UNL d   1      -0.680  -0.629   1.796  0.00  0.00     0.026 A 
ATOM      8  C6  UNL d   1      -0.292  -0.234   0.471  0.00  0.00    -0.082 A 
ATOM      9  C7  UNL d   1       0.319   0.955   0.006  0.00  0.00     0.045 A 
ENDROOT
TORSDOF 0
ENDMDL
