MODEL 1
REMARK minimizedAffinity 0.528359771
REMARK minimizedRMSD -1
REMARK  0 active torsions:
REMARK  status: ('A' for Active; 'I' for Inactive)
ROOT
ATOM      1  C   UNL d   1       1.703   3.871   1.361  0.00  0.00    -0.002 A 
ATOM      2  C1  UNL d   1       2.963   3.487   0.926  0.00  0.00     0.010 A 
ATOM      3  C2  UNL d   1       3.130   2.325   0.169  0.00  0.00     0.041 A 
ATOM      4  C3  UNL d   1       1.997   1.550  -0.148  0.00  0.00    -0.075 A 
ATOM      5  S   UNL d   1       1.960   0.090  -1.064  0.00  0.00     0.015 SA
ATOM      6  C4  UNL d   1       0.270  -0.058  -0.900  0.00  0.00     0.022 A 
ATOM      7  C5  UNL d   1      -0.269   0.973  -0.168  0.00  0.00     0.026 A 
ATOM      8  C6  UNL d   1       0.717   1.917   0.277  0.00  0.00    -0.082 A 
ATOM      9  C7  UNL d   1       0.581   3.099   1.044  0.00  0.00     0.045 A 
ENDROOT
TORSDOF 0
ENDMDL
