MODEL 1
REMARK minimizedAffinity -0.973155499
REMARK minimizedRMSD -1
REMARK  0 active torsions:
REMARK  status: ('A' for Active; 'I' for Inactive)
ROOT
ATOM      1  C   UNL d   1      -0.824   0.769  -0.017  0.00  0.00    -0.002 A 
ATOM      2  C1  UNL d   1       0.072   0.098  -0.837  0.00  0.00     0.010 A 
ATOM      3  C2  UNL d   1       1.417   0.472  -0.874  0.00  0.00     0.041 A 
ATOM      4  C3  UNL d   1       1.851   1.539  -0.064  0.00  0.00    -0.075 A 
ATOM      5  S   UNL d   1       3.451   2.170   0.055  0.00  0.00     0.015 SA
ATOM      6  C4  UNL d   1       2.983   3.345   1.198  0.00  0.00     0.022 A 
ATOM      7  C5  UNL d   1       1.642   3.272   1.493  0.00  0.00     0.026 A 
ATOM      8  C6  UNL d   1       0.968   2.230   0.771  0.00  0.00    -0.082 A 
ATOM      9  C7  UNL d   1      -0.390   1.828   0.786  0.00  0.00     0.045 A 
ENDROOT
TORSDOF 0
ENDMDL
