MODEL 1
REMARK minimizedAffinity 8.16468239
REMARK minimizedRMSD -1
REMARK  0 active torsions:
REMARK  status: ('A' for Active; 'I' for Inactive)
ROOT
ATOM      1  C   UNL d   1       1.218   0.009  -0.570  0.00  0.00    -0.002 A 
ATOM      2  C1  UNL d   1      -0.032   0.107   0.024  0.00  0.00     0.010 A 
ATOM      3  C2  UNL d   1      -0.312   1.137   0.924  0.00  0.00     0.041 A 
ATOM      4  C3  UNL d   1       0.695   2.077   1.219  0.00  0.00    -0.075 A 
ATOM      5  S   UNL d   1       0.579   3.423   2.290  0.00  0.00     0.015 SA
ATOM      6  C4  UNL d   1       2.186   3.900   1.984  0.00  0.00     0.022 A 
ATOM      7  C5  UNL d   1       2.811   3.064   1.089  0.00  0.00     0.026 A 
ATOM      8  C6  UNL d   1       1.962   2.000   0.633  0.00  0.00    -0.082 A 
ATOM      9  C7  UNL d   1       2.215   0.944  -0.275  0.00  0.00     0.045 A 
ENDROOT
TORSDOF 0
ENDMDL
