MODEL 1
REMARK minimizedAffinity -5.42453623
REMARK minimizedRMSD -1
REMARK  0 active torsions:
REMARK  status: ('A' for Active; 'I' for Inactive)
ROOT
ATOM      1  C   UNL d   1      -0.043  -3.481  -0.801  0.00  0.00    -0.002 A 
ATOM      2  C1  UNL d   1       0.095  -2.616  -1.878  0.00  0.00     0.010 A 
ATOM      3  C2  UNL d   1       0.085  -1.233  -1.684  0.00  0.00     0.041 A 
ATOM      4  C3  UNL d   1      -0.065  -0.729  -0.377  0.00  0.00    -0.075 A 
ATOM      5  S   UNL d   1      -0.105   0.927   0.101  0.00  0.00     0.015 SA
ATOM      6  C4  UNL d   1      -0.305   0.525   1.745  0.00  0.00     0.022 A 
ATOM      7  C5  UNL d   1      -0.342  -0.835   1.943  0.00  0.00     0.026 A 
ATOM      8  C6  UNL d   1      -0.204  -1.580   0.724  0.00  0.00    -0.082 A 
ATOM      9  C7  UNL d   1      -0.191  -2.977   0.494  0.00  0.00     0.045 A 
ENDROOT
TORSDOF 0
ENDMDL
