MODEL 1
REMARK minimizedAffinity 0.0276034214
REMARK minimizedRMSD -1
REMARK  0 active torsions:
REMARK  status: ('A' for Active; 'I' for Inactive)
ROOT
ATOM      1  C   UNL d   1      -0.678  -0.474   1.954  0.00  0.00    -0.002 A 
ATOM      2  C1  UNL d   1      -0.365   0.786   1.465  0.00  0.00     0.010 A 
ATOM      3  C2  UNL d   1      -0.089   0.973   0.109  0.00  0.00     0.041 A 
ATOM      4  C3  UNL d   1      -0.135  -0.138  -0.755  0.00  0.00    -0.075 A 
ATOM      5  S   UNL d   1       0.166  -0.148  -2.453  0.00  0.00     0.015 SA
ATOM      6  C4  UNL d   1      -0.114  -1.825  -2.569  0.00  0.00     0.022 A 
ATOM      7  C5  UNL d   1      -0.431  -2.380  -1.351  0.00  0.00     0.026 A 
ATOM      8  C6  UNL d   1      -0.448  -1.417  -0.286  0.00  0.00    -0.082 A 
ATOM      9  C7  UNL d   1      -0.722  -1.574   1.094  0.00  0.00     0.045 A 
ENDROOT
TORSDOF 0
ENDMDL
