MODEL 1
REMARK minimizedAffinity -2.03622699
REMARK minimizedRMSD -1
REMARK  0 active torsions:
REMARK  status: ('A' for Active; 'I' for Inactive)
ROOT
ATOM      1  C   UNL d   1      -1.268   0.434  -0.995  0.00  0.00     0.020 A 
ATOM      2  C1  UNL d   1      -0.462   1.572  -1.007  0.00  0.00     0.020 A 
ATOM      3  C2  UNL d   1       0.643   1.654  -0.158  0.00  0.00     0.034 A 
ATOM      4  C3  UNL d   1       0.946   0.597   0.707  0.00  0.00     0.017 A 
ATOM      5  C4  UNL d   1       0.137  -0.545   0.718  0.00  0.00     0.017 A 
ATOM      6  C5  UNL d   1      -0.969  -0.622  -0.134  0.00  0.00     0.034 A 
ATOM      7 Cl   UNL d   1       0.447  -1.891   1.758  0.00  0.00    -0.070 Cl
ATOM      8 Cl1  UNL d   1       2.328   0.766   1.730  0.00  0.00    -0.070 Cl
ENDROOT
TORSDOF 0
ENDMDL
