MODEL 1
REMARK minimizedAffinity -0.684264541
REMARK minimizedRMSD -1
REMARK  0 active torsions:
REMARK  status: ('A' for Active; 'I' for Inactive)
ROOT
ATOM      1  C   UNL d   1      -0.282  -1.681   0.756  0.00  0.00     0.020 A 
ATOM      2  C1  UNL d   1      -1.191  -0.805   0.165  0.00  0.00     0.020 A 
ATOM      3  C2  UNL d   1      -0.857   0.541   0.001  0.00  0.00     0.034 A 
ATOM      4  C3  UNL d   1       0.389   1.014   0.428  0.00  0.00     0.017 A 
ATOM      5  C4  UNL d   1       1.301   0.134   1.021  0.00  0.00     0.017 A 
ATOM      6  C5  UNL d   1       0.961  -1.213   1.183  0.00  0.00     0.034 A 
ATOM      7 Cl   UNL d   1       2.857   0.644   1.573  0.00  0.00    -0.070 Cl
ATOM      8 Cl1  UNL d   1       0.736   2.691   0.192  0.00  0.00    -0.070 Cl
ENDROOT
TORSDOF 0
ENDMDL
