MODEL 1
REMARK minimizedAffinity -3.82754588
REMARK minimizedRMSD -1
REMARK  0 active torsions:
REMARK  status: ('A' for Active; 'I' for Inactive)
ROOT
ATOM      1  C   UNL d   1      -0.100   0.096  -3.243  0.00  0.00     0.020 A 
ATOM      2  C1  UNL d   1      -1.420  -0.277  -2.990  0.00  0.00     0.020 A 
ATOM      3  C2  UNL d   1      -1.910  -0.266  -1.682  0.00  0.00     0.034 A 
ATOM      4  C3  UNL d   1      -1.080   0.118  -0.623  0.00  0.00     0.017 A 
ATOM      5  C4  UNL d   1       0.245   0.492  -0.878  0.00  0.00     0.017 A 
ATOM      6  C5  UNL d   1       0.730   0.480  -2.189  0.00  0.00     0.034 A 
ATOM      7 Cl   UNL d   1       1.329   0.978   0.377  0.00  0.00    -0.070 Cl
ATOM      8 Cl1  UNL d   1      -1.752   0.108   0.969  0.00  0.00    -0.070 Cl
ENDROOT
TORSDOF 0
ENDMDL
