MODEL 1
REMARK minimizedAffinity 1.41261017
REMARK minimizedRMSD -1
REMARK  0 active torsions:
REMARK  status: ('A' for Active; 'I' for Inactive)
ROOT
ATOM      1  C   UNL d   1      -0.813  -0.870   0.181  0.00  0.00     0.020 A 
ATOM      2  C1  UNL d   1      -1.406   0.067  -0.664  0.00  0.00     0.020 A 
ATOM      3  C2  UNL d   1      -0.763   1.279  -0.923  0.00  0.00     0.034 A 
ATOM      4  C3  UNL d   1       0.476   1.558  -0.335  0.00  0.00     0.017 A 
ATOM      5  C4  UNL d   1       1.070   0.617   0.513  0.00  0.00     0.017 A 
ATOM      6  C5  UNL d   1       0.422  -0.595   0.769  0.00  0.00     0.034 A 
ATOM      7 Cl   UNL d   1       2.598   0.890   1.275  0.00  0.00    -0.070 Cl
ATOM      8 Cl1  UNL d   1       1.215   3.077  -0.700  0.00  0.00    -0.070 Cl
ENDROOT
TORSDOF 0
ENDMDL
