MODEL 1
REMARK minimizedAffinity -0.917020679
REMARK minimizedRMSD -1
REMARK  0 active torsions:
REMARK  status: ('A' for Active; 'I' for Inactive)
ROOT
ATOM      1  C   UNL d   1      -1.362  -0.286  -0.080  0.00  0.00     0.020 A 
ATOM      2  C1  UNL d   1      -0.714  -1.516  -0.191  0.00  0.00     0.020 A 
ATOM      3  C2  UNL d   1       0.678  -1.582  -0.099  0.00  0.00     0.034 A 
ATOM      4  C3  UNL d   1       1.426  -0.417   0.104  0.00  0.00     0.017 A 
ATOM      5  C4  UNL d   1       0.775   0.817   0.215  0.00  0.00     0.017 A 
ATOM      6  C5  UNL d   1      -0.619   0.878   0.122  0.00  0.00     0.034 A 
ATOM      7 Cl   UNL d   1       1.630   2.298   0.466  0.00  0.00    -0.070 Cl
ATOM      8 Cl1  UNL d   1       3.144  -0.573   0.208  0.00  0.00    -0.070 Cl
ENDROOT
TORSDOF 0
ENDMDL
