MODEL 1
REMARK minimizedAffinity -3.53537774
REMARK minimizedRMSD -1
REMARK  0 active torsions:
REMARK  status: ('A' for Active; 'I' for Inactive)
ROOT
ATOM      1  C   UNL d   1       2.107  -1.081   2.288  0.00  0.00     0.020 A 
ATOM      2  C1  UNL d   1       0.902  -1.782   2.260  0.00  0.00     0.020 A 
ATOM      3  C2  UNL d   1      -0.175  -1.290   1.520  0.00  0.00     0.034 A 
ATOM      4  C3  UNL d   1      -0.050  -0.094   0.804  0.00  0.00     0.017 A 
ATOM      5  C4  UNL d   1       1.160   0.609   0.832  0.00  0.00     0.017 A 
ATOM      6  C5  UNL d   1       2.236   0.112   1.575  0.00  0.00     0.034 A 
ATOM      7 Cl   UNL d   1       1.391   2.092  -0.026  0.00  0.00    -0.070 Cl
ATOM      8 Cl1  UNL d   1      -1.422   0.455  -0.090  0.00  0.00    -0.070 Cl
ENDROOT
TORSDOF 0
ENDMDL
