MODEL 1
REMARK minimizedAffinity 0.000288324547
REMARK minimizedRMSD -1
REMARK  0 active torsions:
REMARK  status: ('A' for Active; 'I' for Inactive)
ROOT
ATOM      1  C   UNL d   1      -3.214   2.326  -2.394  0.00  0.00     0.020 A 
ATOM      2  C1  UNL d   1      -3.553   1.560  -3.508  0.00  0.00     0.020 A 
ATOM      3  C2  UNL d   1      -3.367   0.176  -3.486  0.00  0.00     0.034 A 
ATOM      4  C3  UNL d   1      -2.841  -0.446  -2.348  0.00  0.00     0.017 A 
ATOM      5  C4  UNL d   1      -2.502   0.325  -1.230  0.00  0.00     0.017 A 
ATOM      6  C5  UNL d   1      -2.690   1.710  -1.257  0.00  0.00     0.034 A 
ATOM      7 Cl   UNL d   1      -1.848  -0.371   0.211  0.00  0.00    -0.070 Cl
ATOM      8 Cl1  UNL d   1      -2.639  -2.161  -2.390  0.00  0.00    -0.070 Cl
ENDROOT
TORSDOF 0
ENDMDL
