MODEL 1
REMARK minimizedAffinity -2.77365232
REMARK minimizedRMSD -1
REMARK  0 active torsions:
REMARK  status: ('A' for Active; 'I' for Inactive)
ROOT
ATOM      1  C   UNL d   1       0.957  -0.803   1.070  0.00  0.00     0.020 A 
ATOM      2  C1  UNL d   1       2.262  -0.342   0.898  0.00  0.00     0.020 A 
ATOM      3  C2  UNL d   1       2.511   0.756   0.072  0.00  0.00     0.034 A 
ATOM      4  C3  UNL d   1       1.454   1.397  -0.585  0.00  0.00     0.017 A 
ATOM      5  C4  UNL d   1       0.145   0.934  -0.411  0.00  0.00     0.017 A 
ATOM      6  C5  UNL d   1      -0.099  -0.167   0.417  0.00  0.00     0.034 A 
ATOM      7 Cl   UNL d   1      -1.210   1.673  -1.188  0.00  0.00    -0.070 Cl
ATOM      8 Cl1  UNL d   1       1.835   2.750  -1.590  0.00  0.00    -0.070 Cl
ENDROOT
TORSDOF 0
ENDMDL
