MODEL 1
REMARK minimizedAffinity 11.7826004
REMARK minimizedRMSD -1
REMARK  0 active torsions:
REMARK  status: ('A' for Active; 'I' for Inactive)
ROOT
ATOM      1  C   UNL d   1       1.007  -2.236   3.109  0.00  0.00    -0.002 A 
ATOM      2  C1  UNL d   1       1.741  -1.410   2.270  0.00  0.00     0.010 A 
ATOM      3  C2  UNL d   1       1.977  -1.775   0.943  0.00  0.00     0.041 A 
ATOM      4  C3  UNL d   1       1.456  -2.995   0.468  0.00  0.00    -0.075 A 
ATOM      5  S   UNL d   1       1.618  -3.646  -1.120  0.00  0.00     0.015 SA
ATOM      6  C4  UNL d   1       0.715  -5.036  -0.722  0.00  0.00     0.022 A 
ATOM      7  C5  UNL d   1       0.293  -5.020   0.586  0.00  0.00     0.026 A 
ATOM      8  C6  UNL d   1       0.713  -3.843   1.294  0.00  0.00    -0.082 A 
ATOM      9  C7  UNL d   1       0.492  -3.446   2.635  0.00  0.00     0.045 A 
ENDROOT
TORSDOF 0
ENDMDL
