MODEL 1
REMARK minimizedAffinity 11.5208845
REMARK minimizedRMSD -1
REMARK  0 active torsions:
REMARK  status: ('A' for Active; 'I' for Inactive)
ROOT
ATOM      1  C   UNL d   1       1.413  -0.632   2.080  0.00  0.00    -0.002 A 
ATOM      2  C1  UNL d   1       0.783  -0.701   3.315  0.00  0.00     0.010 A 
ATOM      3  C2  UNL d   1       0.650  -1.922   3.978  0.00  0.00     0.041 A 
ATOM      4  C3  UNL d   1       1.167  -3.085   3.374  0.00  0.00    -0.075 A 
ATOM      5  S   UNL d   1       1.121  -4.691   4.001  0.00  0.00     0.015 SA
ATOM      6  C4  UNL d   1       1.936  -5.324   2.645  0.00  0.00     0.022 A 
ATOM      7  C5  UNL d   1       2.244  -4.348   1.726  0.00  0.00     0.026 A 
ATOM      8  C6  UNL d   1       1.807  -3.042   2.131  0.00  0.00    -0.082 A 
ATOM      9  C7  UNL d   1       1.925  -1.788   1.484  0.00  0.00     0.045 A 
ENDROOT
TORSDOF 0
ENDMDL
