MODEL 1
REMARK minimizedAffinity 6.21310472
REMARK minimizedRMSD -1
REMARK  0 active torsions:
REMARK  status: ('A' for Active; 'I' for Inactive)
ROOT
ATOM      1  C   UNL d   1       5.363  -2.376   5.784  0.00  0.00    -0.002 A 
ATOM      2  C1  UNL d   1       6.000  -2.491   4.557  0.00  0.00     0.010 A 
ATOM      3  C2  UNL d   1       5.261  -2.505   3.372  0.00  0.00     0.041 A 
ATOM      4  C3  UNL d   1       3.858  -2.398   3.443  0.00  0.00    -0.075 A 
ATOM      5  S   UNL d   1       2.748  -2.392   2.123  0.00  0.00     0.015 SA
ATOM      6  C4  UNL d   1       1.403  -2.235   3.158  0.00  0.00     0.022 A 
ATOM      7  C5  UNL d   1       1.773  -2.188   4.481  0.00  0.00     0.026 A 
ATOM      8  C6  UNL d   1       3.194  -2.280   4.667  0.00  0.00    -0.082 A 
ATOM      9  C7  UNL d   1       3.971  -2.270   5.850  0.00  0.00     0.045 A 
ENDROOT
TORSDOF 0
ENDMDL
