MODEL 1
REMARK minimizedAffinity 4.80538607
REMARK minimizedRMSD -1
REMARK  0 active torsions:
REMARK  status: ('A' for Active; 'I' for Inactive)
ROOT
ATOM      1  C   UNL d   1       2.235  -2.425   2.823  0.00  0.00    -0.002 A 
ATOM      2  C1  UNL d   1       3.380  -3.209   2.859  0.00  0.00     0.010 A 
ATOM      3  C2  UNL d   1       3.443  -4.335   3.683  0.00  0.00     0.041 A 
ATOM      4  C3  UNL d   1       2.326  -4.664   4.474  0.00  0.00    -0.075 A 
ATOM      5  S   UNL d   1       2.176  -5.998   5.557  0.00  0.00     0.015 SA
ATOM      6  C4  UNL d   1       0.588  -5.559   5.995  0.00  0.00     0.022 A 
ATOM      7  C5  UNL d   1       0.167  -4.425   5.342  0.00  0.00     0.026 A 
ATOM      8  C6  UNL d   1       1.161  -3.891   4.454  0.00  0.00    -0.082 A 
ATOM      9  C7  UNL d   1       1.128  -2.755   3.609  0.00  0.00     0.045 A 
ENDROOT
TORSDOF 0
ENDMDL
