MODEL 1
REMARK minimizedAffinity -0.00219597295
REMARK minimizedRMSD -1
REMARK  0 active torsions:
REMARK  status: ('A' for Active; 'I' for Inactive)
ROOT
ATOM      1  C   UNL d   1       1.560  -2.471   3.070  0.00  0.00    -0.002 A 
ATOM      2  C1  UNL d   1       2.827  -2.979   3.321  0.00  0.00     0.010 A 
ATOM      3  C2  UNL d   1       2.998  -4.072   4.172  0.00  0.00     0.041 A 
ATOM      4  C3  UNL d   1       1.864  -4.653   4.772  0.00  0.00    -0.075 A 
ATOM      5  S   UNL d   1       1.832  -5.999   5.848  0.00  0.00     0.015 SA
ATOM      6  C4  UNL d   1       0.135  -5.933   6.000  0.00  0.00     0.022 A 
ATOM      7  C5  UNL d   1      -0.410  -4.914   5.254  0.00  0.00     0.026 A 
ATOM      8  C6  UNL d   1       0.577  -4.160   4.534  0.00  0.00    -0.082 A 
ATOM      9  C7  UNL d   1       0.437  -3.050   3.667  0.00  0.00     0.045 A 
ENDROOT
TORSDOF 0
ENDMDL
