MODEL 1
REMARK minimizedAffinity -2.62699056
REMARK minimizedRMSD -1
REMARK  0 active torsions:
REMARK  status: ('A' for Active; 'I' for Inactive)
ROOT
ATOM      1  C   UNL d   1      -4.097  -5.464  -1.307  0.00  0.00    -0.002 A 
ATOM      2  C1  UNL d   1      -5.148  -4.559  -1.265  0.00  0.00     0.010 A 
ATOM      3  C2  UNL d   1      -5.786  -4.156  -2.440  0.00  0.00     0.041 A 
ATOM      4  C3  UNL d   1      -5.347  -4.685  -3.670  0.00  0.00    -0.075 A 
ATOM      5  S   UNL d   1      -5.979  -4.338  -5.236  0.00  0.00     0.015 SA
ATOM      6  C4  UNL d   1      -4.869  -5.383  -5.998  0.00  0.00     0.022 A 
ATOM      7  C5  UNL d   1      -4.029  -5.991  -5.094  0.00  0.00     0.026 A 
ATOM      8  C6  UNL d   1      -4.291  -5.599  -3.738  0.00  0.00    -0.082 A 
ATOM      9  C7  UNL d   1      -3.665  -5.987  -2.529  0.00  0.00     0.045 A 
ENDROOT
TORSDOF 0
ENDMDL
