MODEL 1
REMARK minimizedAffinity 1.62597644
REMARK minimizedRMSD -1
REMARK  0 active torsions:
REMARK  status: ('A' for Active; 'I' for Inactive)
ROOT
ATOM      1  C   UNL d   1       5.305   6.000  -5.258  0.00  0.00     0.078 C 
ATOM      2  C1  UNL d   1       4.385   4.850  -4.976  0.00  0.00    -0.077 A 
ATOM      3  C2  UNL d   1       4.880   3.629  -4.502  0.00  0.00    -0.001 A 
ATOM      4  C3  UNL d   1       4.012   2.564  -4.253  0.00  0.00     0.003 A 
ATOM      5  C4  UNL d   1       2.645   2.709  -4.476  0.00  0.00    -0.005 A 
ATOM      6  C5  UNL d   1       2.143   3.920  -4.950  0.00  0.00     0.003 A 
ATOM      7  C6  UNL d   1       3.009   4.986  -5.199  0.00  0.00    -0.001 A 
ENDROOT
TORSDOF 0
ENDMDL
