MODEL 1
REMARK minimizedAffinity -1.07423949
REMARK minimizedRMSD -1
REMARK  0 active torsions:
REMARK  status: ('A' for Active; 'I' for Inactive)
ROOT
ATOM      1  C   UNL d   1       5.074   2.964  -2.998  0.00  0.00     0.078 C 
ATOM      2  C1  UNL d   1       4.889   4.014  -4.053  0.00  0.00    -0.077 A 
ATOM      3  C2  UNL d   1       5.870   4.241  -5.026  0.00  0.00    -0.001 A 
ATOM      4  C3  UNL d   1       5.688   5.228  -5.995  0.00  0.00     0.003 A 
ATOM      5  C4  UNL d   1       4.527   5.998  -6.000  0.00  0.00    -0.005 A 
ATOM      6  C5  UNL d   1       3.546   5.781  -5.034  0.00  0.00     0.003 A 
ATOM      7  C6  UNL d   1       3.726   4.794  -4.064  0.00  0.00    -0.001 A 
ENDROOT
TORSDOF 0
ENDMDL
