MODEL 1
REMARK minimizedAffinity 0.0706982389
REMARK minimizedRMSD -1
REMARK  0 active torsions:
REMARK  status: ('A' for Active; 'I' for Inactive)
ROOT
ATOM      1  C   UNL d   1       5.873   5.608  -5.320  0.00  0.00     0.078 C 
ATOM      2  C1  UNL d   1       4.422   5.231  -5.293  0.00  0.00    -0.077 A 
ATOM      3  C2  UNL d   1       3.981   4.110  -4.581  0.00  0.00    -0.001 A 
ATOM      4  C3  UNL d   1       2.628   3.766  -4.572  0.00  0.00     0.003 A 
ATOM      5  C4  UNL d   1       1.705   4.537  -5.276  0.00  0.00    -0.005 A 
ATOM      6  C5  UNL d   1       2.135   5.654  -5.990  0.00  0.00     0.003 A 
ATOM      7  C6  UNL d   1       3.487   6.000  -5.999  0.00  0.00    -0.001 A 
ENDROOT
TORSDOF 0
ENDMDL
