MODEL 1
REMARK minimizedAffinity -0.715978146
REMARK minimizedRMSD -1
REMARK  0 active torsions:
REMARK  status: ('A' for Active; 'I' for Inactive)
ROOT
ATOM      1  C   UNL d   1       4.126   2.329  -3.889  0.00  0.00     0.078 C 
ATOM      2  C1  UNL d   1       3.852   3.612  -4.616  0.00  0.00    -0.077 A 
ATOM      3  C2  UNL d   1       2.568   4.172  -4.631  0.00  0.00    -0.001 A 
ATOM      4  C3  UNL d   1       2.325   5.361  -5.320  0.00  0.00     0.003 A 
ATOM      5  C4  UNL d   1       3.361   6.000  -6.000  0.00  0.00    -0.005 A 
ATOM      6  C5  UNL d   1       4.640   5.449  -5.992  0.00  0.00     0.003 A 
ATOM      7  C6  UNL d   1       4.885   4.260  -5.304  0.00  0.00    -0.001 A 
ENDROOT
TORSDOF 0
ENDMDL
