MODEL 1
REMARK minimizedAffinity -1.23809016
REMARK minimizedRMSD -1
REMARK  0 active torsions:
REMARK  status: ('A' for Active; 'I' for Inactive)
ROOT
ATOM      1  C   UNL d   1       5.945   5.995  -5.902  0.00  0.00     0.078 C 
ATOM      2  C1  UNL d   1       4.617   5.385  -5.565  0.00  0.00    -0.077 A 
ATOM      3  C2  UNL d   1       4.536   4.195  -4.831  0.00  0.00    -0.001 A 
ATOM      4  C3  UNL d   1       3.294   3.633  -4.533  0.00  0.00     0.003 A 
ATOM      5  C4  UNL d   1       2.123   4.253  -4.965  0.00  0.00    -0.005 A 
ATOM      6  C5  UNL d   1       2.194   5.436  -5.698  0.00  0.00     0.003 A 
ATOM      7  C6  UNL d   1       3.435   5.999  -5.998  0.00  0.00    -0.001 A 
ENDROOT
TORSDOF 0
ENDMDL
