MODEL 1
REMARK minimizedAffinity 3.5329988
REMARK minimizedRMSD -1
REMARK  0 active torsions:
REMARK  status: ('A' for Active; 'I' for Inactive)
ROOT
ATOM      1  C   UNL d   1      -3.275  -5.588  -1.578  0.00  0.00     0.078 C 
ATOM      2  C1  UNL d   1      -3.197  -4.100  -1.752  0.00  0.00    -0.077 A 
ATOM      3  C2  UNL d   1      -3.369  -3.237  -0.663  0.00  0.00    -0.001 A 
ATOM      4  C3  UNL d   1      -3.303  -1.854  -0.841  0.00  0.00     0.003 A 
ATOM      5  C4  UNL d   1      -3.067  -1.322  -2.108  0.00  0.00    -0.005 A 
ATOM      6  C5  UNL d   1      -2.897  -2.174  -3.198  0.00  0.00     0.003 A 
ATOM      7  C6  UNL d   1      -2.962  -3.557  -3.021  0.00  0.00    -0.001 A 
ENDROOT
TORSDOF 0
ENDMDL
