MODEL 1
REMARK minimizedAffinity -1.13663483
REMARK minimizedRMSD -1
REMARK  0 active torsions:
REMARK  status: ('A' for Active; 'I' for Inactive)
ROOT
ATOM      1  C   UNL d   1      -0.505   2.242   2.241  0.00  0.00     0.078 C 
ATOM      2  C1  UNL d   1      -1.731   1.519   2.711  0.00  0.00    -0.077 A 
ATOM      3  C2  UNL d   1      -1.866   0.137   2.533  0.00  0.00    -0.001 A 
ATOM      4  C3  UNL d   1      -3.018  -0.522   2.967  0.00  0.00     0.003 A 
ATOM      5  C4  UNL d   1      -4.044   0.194   3.581  0.00  0.00    -0.005 A 
ATOM      6  C5  UNL d   1      -3.920   1.570   3.761  0.00  0.00     0.003 A 
ATOM      7  C6  UNL d   1      -2.769   2.230   3.327  0.00  0.00    -0.001 A 
ENDROOT
TORSDOF 0
ENDMDL
