MODEL 1
REMARK minimizedAffinity 0.434573412
REMARK minimizedRMSD -1
REMARK  0 active torsions:
REMARK  status: ('A' for Active; 'I' for Inactive)
ROOT
ATOM      1  C   UNL d   1      -0.733   2.760   1.938  0.00  0.00     0.078 C 
ATOM      2  C1  UNL d   1      -1.715   1.806   2.549  0.00  0.00    -0.077 A 
ATOM      3  C2  UNL d   1      -2.847   2.272   3.228  0.00  0.00    -0.001 A 
ATOM      4  C3  UNL d   1      -3.747   1.372   3.801  0.00  0.00     0.003 A 
ATOM      5  C4  UNL d   1      -3.523   0.000   3.702  0.00  0.00    -0.005 A 
ATOM      6  C5  UNL d   1      -2.398  -0.473   3.031  0.00  0.00     0.003 A 
ATOM      7  C6  UNL d   1      -1.497   0.425   2.457  0.00  0.00    -0.001 A 
ENDROOT
TORSDOF 0
ENDMDL
