MODEL 1
REMARK minimizedAffinity 6.6806283
REMARK minimizedRMSD -1
REMARK  0 active torsions:
REMARK  status: ('A' for Active; 'I' for Inactive)
ROOT
ATOM      1  C   UNL d   1       4.948   6.000  -6.000  0.00  0.00     0.078 C 
ATOM      2  C1  UNL d   1       4.174   5.042  -5.145  0.00  0.00    -0.077 A 
ATOM      3  C2  UNL d   1       4.237   3.661  -5.370  0.00  0.00    -0.001 A 
ATOM      4  C3  UNL d   1       3.503   2.782  -4.572  0.00  0.00     0.003 A 
ATOM      5  C4  UNL d   1       2.700   3.274  -3.545  0.00  0.00    -0.005 A 
ATOM      6  C5  UNL d   1       2.630   4.646  -3.314  0.00  0.00     0.003 A 
ATOM      7  C6  UNL d   1       3.363   5.527  -4.111  0.00  0.00    -0.001 A 
ENDROOT
TORSDOF 0
ENDMDL
