MODEL 1
REMARK minimizedAffinity 1.93424261
REMARK minimizedRMSD -1
REMARK  0 active torsions:
REMARK  status: ('A' for Active; 'I' for Inactive)
ROOT
ATOM      1  C   UNL d   1      -4.727   2.049   4.572  0.00  0.00     0.078 C 
ATOM      2  C1  UNL d   1      -3.576   1.503   3.781  0.00  0.00    -0.077 A 
ATOM      3  C2  UNL d   1      -3.457   0.129   3.535  0.00  0.00    -0.001 A 
ATOM      4  C3  UNL d   1      -2.376  -0.366   2.806  0.00  0.00     0.003 A 
ATOM      5  C4  UNL d   1      -1.403   0.504   2.317  0.00  0.00    -0.005 A 
ATOM      6  C5  UNL d   1      -1.511   1.872   2.559  0.00  0.00     0.003 A 
ATOM      7  C6  UNL d   1      -2.593   2.370   3.288  0.00  0.00    -0.001 A 
ENDROOT
TORSDOF 0
ENDMDL
