MODEL 1
REMARK minimizedAffinity -4.67714548
REMARK minimizedRMSD -1
REMARK  0 active torsions:
REMARK  status: ('A' for Active; 'I' for Inactive)
ROOT
ATOM      1  C   UNL d   1       1.159   1.020   0.873  0.00  0.00     0.078 C 
ATOM      2  C1  UNL d   1      -0.183   0.931   1.536  0.00  0.00    -0.077 A 
ATOM      3  C2  UNL d   1      -0.726   2.029   2.215  0.00  0.00    -0.001 A 
ATOM      4  C3  UNL d   1      -1.972   1.928   2.837  0.00  0.00     0.003 A 
ATOM      5  C4  UNL d   1      -2.685   0.732   2.787  0.00  0.00    -0.005 A 
ATOM      6  C5  UNL d   1      -2.151  -0.366   2.115  0.00  0.00     0.003 A 
ATOM      7  C6  UNL d   1      -0.906  -0.268   1.493  0.00  0.00    -0.001 A 
ENDROOT
TORSDOF 0
ENDMDL
