MODEL 1
REMARK minimizedAffinity 5.35202599
REMARK minimizedRMSD -1
REMARK  0 active torsions:
REMARK  status: ('A' for Active; 'I' for Inactive)
ROOT
ATOM      1  C   UNL d   1      -2.590  -5.089  -0.828  0.00  0.00     0.078 C 
ATOM      2  C1  UNL d   1      -2.877  -3.693  -1.295  0.00  0.00    -0.077 A 
ATOM      3  C2  UNL d   1      -3.473  -2.756  -0.442  0.00  0.00    -0.001 A 
ATOM      4  C3  UNL d   1      -3.743  -1.463  -0.892  0.00  0.00     0.003 A 
ATOM      5  C4  UNL d   1      -3.421  -1.095  -2.198  0.00  0.00    -0.005 A 
ATOM      6  C5  UNL d   1      -2.830  -2.022  -3.054  0.00  0.00     0.003 A 
ATOM      7  C6  UNL d   1      -2.560  -3.315  -2.605  0.00  0.00    -0.001 A 
ENDROOT
TORSDOF 0
ENDMDL
