MODEL 1
REMARK minimizedAffinity 3.62679887
REMARK minimizedRMSD -1
REMARK  0 active torsions:
REMARK  status: ('A' for Active; 'I' for Inactive)
ROOT
ATOM      1  C   UNL d   1      -2.902  -2.488  -0.686  0.00  0.00     0.078 C 
ATOM      2  C1  UNL d   1      -2.742  -2.253   0.787  0.00  0.00    -0.077 A 
ATOM      3  C2  UNL d   1      -3.831  -2.373   1.659  0.00  0.00    -0.001 A 
ATOM      4  C3  UNL d   1      -3.669  -2.142   3.026  0.00  0.00     0.003 A 
ATOM      5  C4  UNL d   1      -2.420  -1.789   3.533  0.00  0.00    -0.005 A 
ATOM      6  C5  UNL d   1      -1.331  -1.665   2.672  0.00  0.00     0.003 A 
ATOM      7  C6  UNL d   1      -1.491  -1.895   1.305  0.00  0.00    -0.001 A 
ENDROOT
TORSDOF 0
ENDMDL
