MODEL 1
REMARK minimizedAffinity 1.31650543
REMARK minimizedRMSD -1
REMARK  0 active torsions:
REMARK  status: ('A' for Active; 'I' for Inactive)
ROOT
ATOM      1  C   UNL d   1      -4.088   1.950   4.080  0.00  0.00     0.078 C 
ATOM      2  C1  UNL d   1      -2.995   2.362   3.139  0.00  0.00    -0.077 A 
ATOM      3  C2  UNL d   1      -1.714   1.805   3.234  0.00  0.00    -0.001 A 
ATOM      4  C3  UNL d   1      -0.704   2.205   2.358  0.00  0.00     0.003 A 
ATOM      5  C4  UNL d   1      -0.964   3.163   1.381  0.00  0.00    -0.005 A 
ATOM      6  C5  UNL d   1      -2.236   3.725   1.280  0.00  0.00     0.003 A 
ATOM      7  C6  UNL d   1      -3.247   3.326   2.155  0.00  0.00    -0.001 A 
ENDROOT
TORSDOF 0
ENDMDL
