MODEL 1
REMARK minimizedAffinity 3.42550611
REMARK minimizedRMSD -1
REMARK  0 active torsions:
REMARK  status: ('A' for Active; 'I' for Inactive)
ROOT
ATOM      1  C   UNL d   1       3.266  -0.522   3.016  0.00  0.00     0.078 C 
ATOM      2  C1  UNL d   1       3.902  -0.754   1.678  0.00  0.00    -0.077 A 
ATOM      3  C2  UNL d   1       3.126  -1.064   0.555  0.00  0.00    -0.001 A 
ATOM      4  C3  UNL d   1       3.732  -1.287  -0.682  0.00  0.00     0.003 A 
ATOM      5  C4  UNL d   1       5.117  -1.203  -0.808  0.00  0.00    -0.005 A 
ATOM      6  C5  UNL d   1       5.898  -0.898   0.305  0.00  0.00     0.003 A 
ATOM      7  C6  UNL d   1       5.294  -0.674   1.543  0.00  0.00    -0.001 A 
ENDROOT
TORSDOF 0
ENDMDL
