MODEL 1
REMARK minimizedAffinity 2.66316509
REMARK minimizedRMSD -1
REMARK  0 active torsions:
REMARK  status: ('A' for Active; 'I' for Inactive)
ROOT
ATOM      1  C   UNL d   1      -4.826   2.507   4.675  0.00  0.00     0.078 C 
ATOM      2  C1  UNL d   1      -3.663   2.177   3.788  0.00  0.00    -0.077 A 
ATOM      3  C2  UNL d   1      -3.348   0.849   3.476  0.00  0.00    -0.001 A 
ATOM      4  C3  UNL d   1      -2.256   0.556   2.657  0.00  0.00     0.003 A 
ATOM      5  C4  UNL d   1      -1.471   1.586   2.143  0.00  0.00    -0.005 A 
ATOM      6  C5  UNL d   1      -1.775   2.911   2.450  0.00  0.00     0.003 A 
ATOM      7  C6  UNL d   1      -2.866   3.206   3.269  0.00  0.00    -0.001 A 
ENDROOT
TORSDOF 0
ENDMDL
