MODEL 1
REMARK minimizedAffinity -0.339554995
REMARK minimizedRMSD -1
REMARK  0 active torsions:
REMARK  status: ('A' for Active; 'I' for Inactive)
ROOT
ATOM      1  C   UNL d   1       2.864   0.374  -2.900  0.00  0.00     0.078 C 
ATOM      2  C1  UNL d   1       3.243   0.185  -1.461  0.00  0.00    -0.077 A 
ATOM      3  C2  UNL d   1       4.325  -0.627  -1.101  0.00  0.00    -0.001 A 
ATOM      4  C3  UNL d   1       4.660  -0.801   0.243  0.00  0.00     0.003 A 
ATOM      5  C4  UNL d   1       3.918  -0.167   1.237  0.00  0.00    -0.005 A 
ATOM      6  C5  UNL d   1       2.838   0.642   0.888  0.00  0.00     0.003 A 
ATOM      7  C6  UNL d   1       2.501   0.817  -0.455  0.00  0.00    -0.001 A 
ENDROOT
TORSDOF 0
ENDMDL
