MODEL 1
REMARK minimizedAffinity 2.8639102
REMARK minimizedRMSD -1
REMARK  0 active torsions:
REMARK  status: ('A' for Active; 'I' for Inactive)
ROOT
ATOM      1  C2' OXE d   1      -3.101  -1.568  -0.549  0.00  0.00     0.078 C 
ATOM      2  C1' OXE d   1      -4.277   0.935  -1.030  0.00  0.00     0.078 C 
ATOM      3  C1  OXE d   1      -4.556  -0.173  -2.014  0.00  0.00    -0.078 A 
ATOM      4  C2  OXE d   1      -3.939  -1.382  -1.796  0.00  0.00    -0.078 A 
ATOM      5  C3  OXE d   1      -4.205  -2.454  -2.643  0.00  0.00     0.003 A 
ATOM      6  C4  OXE d   1      -4.972  -2.271  -3.800  0.00  0.00    -0.002 A 
ATOM      7  C5  OXE d   1      -5.578  -1.037  -4.061  0.00  0.00    -0.002 A 
ATOM      8  C6  OXE d   1      -5.414   0.008  -3.158  0.00  0.00     0.003 A 
ENDROOT
TORSDOF 0
ENDMDL
