MODEL 1
REMARK minimizedAffinity 6.5612669
REMARK minimizedRMSD -1
REMARK  0 active torsions:
REMARK  status: ('A' for Active; 'I' for Inactive)
ROOT
ATOM      1  C2' OXE d   1       1.258  -3.003   1.442  0.00  0.00     0.078 C 
ATOM      2  C1' OXE d   1       3.092  -2.453   3.494  0.00  0.00     0.078 C 
ATOM      3  C1  OXE d   1       3.610  -3.132   2.252  0.00  0.00    -0.078 A 
ATOM      4  C2  OXE d   1       2.697  -3.440   1.272  0.00  0.00    -0.078 A 
ATOM      5  C3  OXE d   1       3.131  -4.018   0.082  0.00  0.00     0.003 A 
ATOM      6  C4  OXE d   1       4.462  -4.428  -0.063  0.00  0.00    -0.002 A 
ATOM      7  C5  OXE d   1       5.400  -4.160   0.939  0.00  0.00    -0.002 A 
ATOM      8  C6  OXE d   1       5.000  -3.476   2.082  0.00  0.00     0.003 A 
ENDROOT
TORSDOF 0
ENDMDL
