MODEL 1
REMARK minimizedAffinity 8.30819511
REMARK minimizedRMSD -1
REMARK  0 active torsions:
REMARK  status: ('A' for Active; 'I' for Inactive)
ROOT
ATOM      1  C2' OXE d   1      -5.116   0.944   0.799  0.00  0.00     0.078 C 
ATOM      2  C1' OXE d   1      -3.753  -1.258  -0.283  0.00  0.00     0.078 C 
ATOM      3  C1  OXE d   1      -3.427  -0.856   1.133  0.00  0.00    -0.078 A 
ATOM      4  C2  OXE d   1      -4.064   0.252   1.638  0.00  0.00    -0.078 A 
ATOM      5  C3  OXE d   1      -3.840   0.634   2.958  0.00  0.00     0.003 A 
ATOM      6  C4  OXE d   1      -2.858  -0.006   3.724  0.00  0.00    -0.002 A 
ATOM      7  C5  OXE d   1      -2.169  -1.112   3.215  0.00  0.00    -0.002 A 
ATOM      8  C6  OXE d   1      -2.471  -1.575   1.939  0.00  0.00     0.003 A 
ENDROOT
TORSDOF 0
ENDMDL
