MODEL 1
REMARK minimizedAffinity 12.5592566
REMARK minimizedRMSD -1
REMARK  0 active torsions:
REMARK  status: ('A' for Active; 'I' for Inactive)
ROOT
ATOM      1  C2' OXE d   1      -1.803  -4.067   3.429  0.00  0.00     0.078 C 
ATOM      2  C1' OXE d   1      -0.905  -1.436   3.039  0.00  0.00     0.078 C 
ATOM      3  C1  OXE d   1      -0.018  -2.560   2.563  0.00  0.00    -0.078 A 
ATOM      4  C2  OXE d   1      -0.444  -3.845   2.800  0.00  0.00    -0.078 A 
ATOM      5  C3  OXE d   1       0.309  -4.918   2.333  0.00  0.00     0.003 A 
ATOM      6  C4  OXE d   1       1.569  -4.704   1.761  0.00  0.00    -0.002 A 
ATOM      7  C5  OXE d   1       2.040  -3.404   1.546  0.00  0.00    -0.002 A 
ATOM      8  C6  OXE d   1       1.241  -2.323   1.902  0.00  0.00     0.003 A 
ENDROOT
TORSDOF 0
ENDMDL
