MODEL 1
REMARK minimizedAffinity 6.02701759
REMARK minimizedRMSD -1
REMARK  0 active torsions:
REMARK  status: ('A' for Active; 'I' for Inactive)
ROOT
ATOM      1  C2' OXE d   1       1.568   0.066  -1.628  0.00  0.00     0.078 C 
ATOM      2  C1' OXE d   1      -0.998  -0.842  -0.943  0.00  0.00     0.078 C 
ATOM      3  C1  OXE d   1      -0.874   0.545  -1.522  0.00  0.00    -0.078 A 
ATOM      4  C2  OXE d   1       0.390   0.999  -1.811  0.00  0.00    -0.078 A 
ATOM      5  C3  OXE d   1       0.556   2.250  -2.397  0.00  0.00     0.003 A 
ATOM      6  C4  OXE d   1      -0.537   3.111  -2.553  0.00  0.00    -0.002 A 
ATOM      7  C5  OXE d   1      -1.829   2.683  -2.228  0.00  0.00    -0.002 A 
ATOM      8  C6  OXE d   1      -2.019   1.391  -1.752  0.00  0.00     0.003 A 
ENDROOT
TORSDOF 0
ENDMDL
