MODEL 1
REMARK minimizedAffinity 12.5588636
REMARK minimizedRMSD -1
REMARK  0 active torsions:
REMARK  status: ('A' for Active; 'I' for Inactive)
ROOT
ATOM      1  C2' OXE d   1       1.968   1.241   0.399  0.00  0.00     0.078 C 
ATOM      2  C1' OXE d   1       0.392   1.414  -1.917  0.00  0.00     0.078 C 
ATOM      3  C1  OXE d   1       1.829   0.981  -2.074  0.00  0.00    -0.078 A 
ATOM      4  C2  OXE d   1       2.605   0.944  -0.941  0.00  0.00    -0.078 A 
ATOM      5  C3  OXE d   1       3.922   0.499  -1.022  0.00  0.00     0.003 A 
ATOM      6  C4  OXE d   1       4.506   0.236  -2.267  0.00  0.00    -0.002 A 
ATOM      7  C5  OXE d   1       3.744   0.305  -3.437  0.00  0.00    -0.002 A 
ATOM      8  C6  OXE d   1       2.395   0.634  -3.354  0.00  0.00     0.003 A 
ENDROOT
TORSDOF 0
ENDMDL
