MODEL 1
REMARK minimizedAffinity 9.55731106
REMARK minimizedRMSD -1
REMARK  0 active torsions:
REMARK  status: ('A' for Active; 'I' for Inactive)
ROOT
ATOM      1  C2' OXE d   1      -3.578  -1.149  -0.518  0.00  0.00     0.078 C 
ATOM      2  C1' OXE d   1      -1.276  -1.508  -2.083  0.00  0.00     0.078 C 
ATOM      3  C1  OXE d   1      -2.615  -1.619  -2.767  0.00  0.00    -0.078 A 
ATOM      4  C2  OXE d   1      -3.737  -1.488  -1.984  0.00  0.00    -0.078 A 
ATOM      5  C3  OXE d   1      -4.998  -1.528  -2.574  0.00  0.00     0.003 A 
ATOM      6  C4  OXE d   1      -5.136  -1.852  -3.929  0.00  0.00    -0.002 A 
ATOM      7  C5  OXE d   1      -4.008  -2.029  -4.736  0.00  0.00    -0.002 A 
ATOM      8  C6  OXE d   1      -2.742  -1.874  -4.181  0.00  0.00     0.003 A 
ENDROOT
TORSDOF 0
ENDMDL
