MODEL 1
REMARK minimizedAffinity 4.06934786
REMARK minimizedRMSD -1
REMARK  0 active torsions:
REMARK  status: ('A' for Active; 'I' for Inactive)
ROOT
ATOM      1  C2' OXE d   1       3.684  -4.043   0.923  0.00  0.00     0.078 C 
ATOM      2  C1' OXE d   1       2.149  -5.876   2.395  0.00  0.00     0.078 C 
ATOM      3  C1  OXE d   1       1.596  -4.485   2.207  0.00  0.00    -0.078 A 
ATOM      4  C2  OXE d   1       2.375  -3.581   1.526  0.00  0.00    -0.078 A 
ATOM      5  C3  OXE d   1       1.888  -2.301   1.278  0.00  0.00     0.003 A 
ATOM      6  C4  OXE d   1       0.681  -1.879   1.847  0.00  0.00    -0.002 A 
ATOM      7  C5  OXE d   1      -0.110  -2.772   2.579  0.00  0.00    -0.002 A 
ATOM      8  C6  OXE d   1       0.313  -4.088   2.731  0.00  0.00     0.003 A 
ENDROOT
TORSDOF 0
ENDMDL
