MODEL 1
REMARK minimizedAffinity 14.5262995
REMARK minimizedRMSD -1
REMARK  0 active torsions:
REMARK  status: ('A' for Active; 'I' for Inactive)
ROOT
ATOM      1  C2' OXE d   1       1.462   0.584  -0.319  0.00  0.00     0.078 C 
ATOM      2  C1' OXE d   1       1.206  -1.719   1.266  0.00  0.00     0.078 C 
ATOM      3  C1  OXE d   1       1.271  -0.386   1.968  0.00  0.00    -0.078 A 
ATOM      4  C2  OXE d   1       1.444   0.732   1.187  0.00  0.00    -0.078 A 
ATOM      5  C3  OXE d   1       1.456   1.992   1.780  0.00  0.00     0.003 A 
ATOM      6  C4  OXE d   1       1.448   2.119   3.174  0.00  0.00    -0.002 A 
ATOM      7  C5  OXE d   1       1.313   0.990   3.989  0.00  0.00    -0.002 A 
ATOM      8  C6  OXE d   1       1.181  -0.263   3.402  0.00  0.00     0.003 A 
ENDROOT
TORSDOF 0
ENDMDL
