MODEL 1
REMARK minimizedAffinity 8.3223629
REMARK minimizedRMSD -1
REMARK  0 active torsions:
REMARK  status: ('A' for Active; 'I' for Inactive)
ROOT
ATOM      1  C2' OXE d   1       2.100  -2.940   1.888  0.00  0.00     0.078 C 
ATOM      2  C1' OXE d   1       1.948  -5.670   1.251  0.00  0.00     0.078 C 
ATOM      3  C1  OXE d   1       3.232  -4.944   0.935  0.00  0.00    -0.078 A 
ATOM      4  C2  OXE d   1       3.281  -3.598   1.207  0.00  0.00    -0.078 A 
ATOM      5  C3  OXE d   1       4.460  -2.892   0.986  0.00  0.00     0.003 A 
ATOM      6  C4  OXE d   1       5.544  -3.506   0.346  0.00  0.00    -0.002 A 
ATOM      7  C5  OXE d   1       5.500  -4.867   0.024  0.00  0.00    -0.002 A 
ATOM      8  C6  OXE d   1       4.370  -5.608   0.350  0.00  0.00     0.003 A 
ENDROOT
TORSDOF 0
ENDMDL
