MODEL 1
REMARK minimizedAffinity 6.68972445
REMARK minimizedRMSD -1
REMARK  1 active torsions:
REMARK  status: ('A' for Active; 'I' for Inactive)
REMARK    1  A    between atoms: C1_2  and  C2_3 
ROOT
ATOM      1  C2  UNL d   1      -5.840  -3.594   3.663  0.00  0.00    -0.076 A 
ATOM      2  C3  UNL d   1      -5.946  -3.280   5.029  0.00  0.00     0.004 A 
ATOM      3  C4  UNL d   1      -5.993  -4.283   5.995  0.00  0.00    -0.003 A 
ATOM      4  C5  UNL d   1      -5.936  -5.618   5.611  0.00  0.00     0.000 A 
ATOM      5  C6  UNL d   1      -5.813  -5.949   4.262  0.00  0.00     0.000 A 
ATOM      6  C7  UNL d   1      -5.748  -4.948   3.277  0.00  0.00    -0.073 A 
ATOM      7  C8  UNL d   1      -5.622  -5.362   1.836  0.00  0.00     0.078 C 
ENDROOT
BRANCH   1   8
ATOM      8  C1  UNL d   1      -5.820  -2.464   2.659  0.00  0.00     0.053 C 
ATOM      9  C   UNL d   1      -4.597  -1.573   2.810  0.00  0.00     0.018 C 
ENDBRANCH   1   8
TORSDOF 1
ENDMDL
