MODEL 1
REMARK minimizedAffinity 9.99963474
REMARK minimizedRMSD -1
REMARK  1 active torsions:
REMARK  status: ('A' for Active; 'I' for Inactive)
REMARK    1  A    between atoms: C1_2  and  C2_3 
ROOT
ATOM      1  C2  UNL d   1      -4.807  -2.555   2.884  0.00  0.00    -0.076 A 
ATOM      2  C3  UNL d   1      -5.009  -3.475   1.841  0.00  0.00     0.004 A 
ATOM      3  C4  UNL d   1      -5.500  -4.754   2.098  0.00  0.00    -0.003 A 
ATOM      4  C5  UNL d   1      -5.797  -5.133   3.402  0.00  0.00     0.000 A 
ATOM      5  C6  UNL d   1      -5.620  -4.227   4.447  0.00  0.00     0.000 A 
ATOM      6  C7  UNL d   1      -5.141  -2.928   4.204  0.00  0.00    -0.073 A 
ATOM      7  C8  UNL d   1      -4.963  -1.994   5.369  0.00  0.00     0.078 C 
ENDROOT
BRANCH   1   8
ATOM      8  C1  UNL d   1      -4.247  -1.191   2.549  0.00  0.00     0.053 C 
ATOM      9  C   UNL d   1      -2.860  -1.267   1.929  0.00  0.00     0.018 C 
ENDBRANCH   1   8
TORSDOF 1
ENDMDL
