MODEL 1
REMARK minimizedAffinity 9.39466572
REMARK minimizedRMSD -1
REMARK  1 active torsions:
REMARK  status: ('A' for Active; 'I' for Inactive)
REMARK    1  A    between atoms: C1_2  and  C2_3 
ROOT
ATOM      1  C2  UNL d   1       1.955   2.742  -1.320  0.00  0.00    -0.076 A 
ATOM      2  C3  UNL d   1       3.046   2.257  -2.063  0.00  0.00     0.004 A 
ATOM      3  C4  UNL d   1       3.404   2.841  -3.277  0.00  0.00    -0.003 A 
ATOM      4  C5  UNL d   1       2.677   3.921  -3.767  0.00  0.00     0.000 A 
ATOM      5  C6  UNL d   1       1.603   4.426  -3.036  0.00  0.00     0.000 A 
ATOM      6  C7  UNL d   1       1.239   3.859  -1.802  0.00  0.00    -0.073 A 
ATOM      7  C8  UNL d   1       0.068   4.440  -1.058  0.00  0.00     0.078 C 
ENDROOT
BRANCH   1   8
ATOM      8  C1  UNL d   1       1.597   2.051  -0.024  0.00  0.00     0.053 C 
ATOM      9  C   UNL d   1       2.735   2.078   0.984  0.00  0.00     0.018 C 
ENDBRANCH   1   8
TORSDOF 1
ENDMDL
