MODEL 1
REMARK minimizedAffinity 1.10478592
REMARK minimizedRMSD -1
REMARK  1 active torsions:
REMARK  status: ('A' for Active; 'I' for Inactive)
REMARK    1  A    between atoms: C1_2  and  C2_3 
ROOT
ATOM      1  C2  UNL d   1      -3.781   0.152   4.781  0.00  0.00    -0.076 A 
ATOM      2  C3  UNL d   1      -2.933   0.461   3.703  0.00  0.00     0.004 A 
ATOM      3  C4  UNL d   1      -2.893  -0.346   2.567  0.00  0.00    -0.003 A 
ATOM      4  C5  UNL d   1      -3.702  -1.475   2.491  0.00  0.00     0.000 A 
ATOM      5  C6  UNL d   1      -4.562  -1.786   3.543  0.00  0.00     0.000 A 
ATOM      6  C7  UNL d   1      -4.626  -0.974   4.688  0.00  0.00    -0.073 A 
ATOM      7  C8  UNL d   1      -5.567  -1.361   5.796  0.00  0.00     0.078 C 
ENDROOT
BRANCH   1   8
ATOM      8  C1  UNL d   1      -3.761   1.049   5.998  0.00  0.00     0.053 C 
ATOM      9  C   UNL d   1      -4.605   2.301   5.814  0.00  0.00     0.018 C 
ENDBRANCH   1   8
TORSDOF 1
ENDMDL
