MODEL 1
REMARK minimizedAffinity 1.1148268
REMARK minimizedRMSD -1
REMARK  1 active torsions:
REMARK  status: ('A' for Active; 'I' for Inactive)
REMARK    1  A    between atoms: C1_2  and  C2_3 
ROOT
ATOM      1  C2  UNL d   1      -3.145  -1.334   3.116  0.00  0.00    -0.076 A 
ATOM      2  C3  UNL d   1      -2.769  -0.164   3.800  0.00  0.00     0.004 A 
ATOM      3  C4  UNL d   1      -3.431   0.232   4.961  0.00  0.00    -0.003 A 
ATOM      4  C5  UNL d   1      -4.478  -0.536   5.458  0.00  0.00     0.000 A 
ATOM      5  C6  UNL d   1      -4.852  -1.709   4.803  0.00  0.00     0.000 A 
ATOM      6  C7  UNL d   1      -4.185  -2.130   3.640  0.00  0.00    -0.073 A 
ATOM      7  C8  UNL d   1      -4.635  -3.400   2.970  0.00  0.00     0.078 C 
ENDROOT
BRANCH   1   8
ATOM      8  C1  UNL d   1      -2.409  -1.698   1.846  0.00  0.00     0.053 C 
ATOM      9  C   UNL d   1      -0.919  -1.901   2.074  0.00  0.00     0.018 C 
ENDBRANCH   1   8
TORSDOF 1
ENDMDL
