MODEL 1
REMARK minimizedAffinity 4.15878582
REMARK minimizedRMSD -1
REMARK  1 active torsions:
REMARK  status: ('A' for Active; 'I' for Inactive)
REMARK    1  A    between atoms: C1_2  and  C2_3 
ROOT
ATOM      1  C2  UNL d   1      -5.577  -3.486   2.764  0.00  0.00    -0.076 A 
ATOM      2  C3  UNL d   1      -5.525  -4.668   2.005  0.00  0.00     0.004 A 
ATOM      3  C4  UNL d   1      -5.699  -5.914   2.604  0.00  0.00    -0.003 A 
ATOM      4  C5  UNL d   1      -5.927  -5.999   3.973  0.00  0.00     0.000 A 
ATOM      5  C6  UNL d   1      -6.000  -4.836   4.739  0.00  0.00     0.000 A 
ATOM      6  C7  UNL d   1      -5.843  -3.571   4.148  0.00  0.00    -0.073 A 
ATOM      7  C8  UNL d   1      -5.925  -2.350   5.023  0.00  0.00     0.078 C 
ENDROOT
BRANCH   1   8
ATOM      8  C1  UNL d   1      -5.355  -2.164   2.064  0.00  0.00     0.053 C 
ATOM      9  C   UNL d   1      -3.946  -2.030   1.507  0.00  0.00     0.018 C 
ENDBRANCH   1   8
TORSDOF 1
ENDMDL
