MODEL 1
REMARK minimizedAffinity 6.39783049
REMARK minimizedRMSD -1
REMARK  1 active torsions:
REMARK  status: ('A' for Active; 'I' for Inactive)
REMARK    1  A    between atoms: C1_2  and  C2_3 
ROOT
ATOM      1  C2  UNL d   1      -2.812  -1.592   0.019  0.00  0.00    -0.076 A 
ATOM      2  C3  UNL d   1      -2.158  -0.435   0.479  0.00  0.00     0.004 A 
ATOM      3  C4  UNL d   1      -1.181  -0.510   1.470  0.00  0.00    -0.003 A 
ATOM      4  C5  UNL d   1      -0.842  -1.742   2.018  0.00  0.00     0.000 A 
ATOM      5  C6  UNL d   1      -1.468  -2.901   1.562  0.00  0.00     0.000 A 
ATOM      6  C7  UNL d   1      -2.443  -2.846   0.551  0.00  0.00    -0.073 A 
ATOM      7  C8  UNL d   1      -3.090  -4.127   0.101  0.00  0.00     0.078 C 
ENDROOT
BRANCH   1   8
ATOM      8  C1  UNL d   1      -3.882  -1.447  -1.039  0.00  0.00     0.053 C 
ATOM      9  C   UNL d   1      -3.340  -0.879  -2.342  0.00  0.00     0.018 C 
ENDBRANCH   1   8
TORSDOF 1
ENDMDL
