MODEL 1
REMARK minimizedAffinity 0.0369159393
REMARK minimizedRMSD -1
REMARK  1 active torsions:
REMARK  status: ('A' for Active; 'I' for Inactive)
REMARK    1  A    between atoms: C1_2  and  C2_3 
ROOT
ATOM      1  C2  UNL d   1      -2.797   0.102   1.960  0.00  0.00    -0.076 A 
ATOM      2  C3  UNL d   1      -2.085  -0.895   1.270  0.00  0.00     0.004 A 
ATOM      3  C4  UNL d   1      -0.975  -1.511   1.844  0.00  0.00    -0.003 A 
ATOM      4  C5  UNL d   1      -0.559  -1.142   3.119  0.00  0.00     0.000 A 
ATOM      5  C6  UNL d   1      -1.264  -0.168   3.825  0.00  0.00     0.000 A 
ATOM      6  C7  UNL d   1      -2.395   0.452   3.267  0.00  0.00    -0.073 A 
ATOM      7  C8  UNL d   1      -3.115   1.500   4.070  0.00  0.00     0.078 C 
ENDROOT
BRANCH   1   8
ATOM      8  C1  UNL d   1      -3.977   0.754   1.275  0.00  0.00     0.053 C 
ATOM      9  C   UNL d   1      -4.089   0.364  -0.190  0.00  0.00     0.018 C 
ENDBRANCH   1   8
TORSDOF 1
ENDMDL
