MODEL 1
REMARK minimizedAffinity 14.1153994
REMARK minimizedRMSD -1
REMARK  1 active torsions:
REMARK  status: ('A' for Active; 'I' for Inactive)
REMARK    1  A    between atoms: C1_2  and  C2_3 
ROOT
ATOM      1  C2  UNL d   1      -4.406   2.171   4.841  0.00  0.00    -0.076 A 
ATOM      2  C3  UNL d   1      -4.437   3.006   5.972  0.00  0.00     0.004 A 
ATOM      3  C4  UNL d   1      -5.225   4.155   5.994  0.00  0.00    -0.003 A 
ATOM      4  C5  UNL d   1      -5.996   4.488   4.886  0.00  0.00     0.000 A 
ATOM      5  C6  UNL d   1      -5.992   3.661   3.762  0.00  0.00     0.000 A 
ATOM      6  C7  UNL d   1      -5.215   2.490   3.730  0.00  0.00    -0.073 A 
ATOM      7  C8  UNL d   1      -5.244   1.639   2.490  0.00  0.00     0.078 C 
ENDROOT
BRANCH   1   8
ATOM      8  C1  UNL d   1      -3.511   0.952   4.865  0.00  0.00     0.053 C 
ATOM      9  C   UNL d   1      -2.554   0.909   3.683  0.00  0.00     0.018 C 
ENDBRANCH   1   8
TORSDOF 1
ENDMDL
