MODEL 1
REMARK minimizedAffinity 12.1570024
REMARK minimizedRMSD -1
REMARK  1 active torsions:
REMARK  status: ('A' for Active; 'I' for Inactive)
REMARK    1  A    between atoms: C1_2  and  C2_3 
ROOT
ATOM      1  C2  UNL d   1       3.110   2.557  -2.660  0.00  0.00    -0.076 A 
ATOM      2  C3  UNL d   1       3.899   1.514  -2.145  0.00  0.00     0.004 A 
ATOM      3  C4  UNL d   1       3.693   1.028  -0.855  0.00  0.00    -0.003 A 
ATOM      4  C5  UNL d   1       2.694   1.577  -0.059  0.00  0.00     0.000 A 
ATOM      5  C6  UNL d   1       1.890   2.601  -0.560  0.00  0.00     0.000 A 
ATOM      6  C7  UNL d   1       2.074   3.091  -1.864  0.00  0.00    -0.073 A 
ATOM      7  C8  UNL d   1       1.182   4.200  -2.351  0.00  0.00     0.078 C 
ENDROOT
BRANCH   1   8
ATOM      8  C1  UNL d   1       3.397   3.061  -4.056  0.00  0.00     0.053 C 
ATOM      9  C   UNL d   1       4.690   3.859  -4.133  0.00  0.00     0.018 C 
ENDBRANCH   1   8
TORSDOF 1
ENDMDL
