MODEL 1
REMARK minimizedAffinity 9.29768944
REMARK minimizedRMSD -1
REMARK  1 active torsions:
REMARK  status: ('A' for Active; 'I' for Inactive)
REMARK    1  A    between atoms: C1_2  and  C2_3 
ROOT
ATOM      1  C2  UNL d   1       3.731   2.511  -0.648  0.00  0.00    -0.076 A 
ATOM      2  C3  UNL d   1       4.992   3.127  -0.576  0.00  0.00     0.004 A 
ATOM      3  C4  UNL d   1       5.439   3.712   0.608  0.00  0.00    -0.003 A 
ATOM      4  C5  UNL d   1       4.632   3.688   1.740  0.00  0.00     0.000 A 
ATOM      5  C6  UNL d   1       3.385   3.065   1.692  0.00  0.00     0.000 A 
ATOM      6  C7  UNL d   1       2.926   2.457   0.511  0.00  0.00    -0.073 A 
ATOM      7  C8  UNL d   1       1.571   1.805   0.514  0.00  0.00     0.078 C 
ENDROOT
BRANCH   1   8
ATOM      8  C1  UNL d   1       3.288   1.918  -1.966  0.00  0.00     0.053 C 
ATOM      9  C   UNL d   1       3.500   2.869  -3.133  0.00  0.00     0.018 C 
ENDBRANCH   1   8
TORSDOF 1
ENDMDL
