MODEL 1
REMARK minimizedAffinity 1.4551816
REMARK minimizedRMSD -1
REMARK  1 active torsions:
REMARK  status: ('A' for Active; 'I' for Inactive)
REMARK    1  A    between atoms: C1_2  and  C2_3 
ROOT
ATOM      1  C2  UNL d   1      -1.630  -0.524   3.300  0.00  0.00    -0.076 A 
ATOM      2  C3  UNL d   1      -0.451  -0.576   4.064  0.00  0.00     0.004 A 
ATOM      3  C4  UNL d   1       0.531  -1.529   3.804  0.00  0.00    -0.003 A 
ATOM      4  C5  UNL d   1       0.351  -2.447   2.775  0.00  0.00     0.000 A 
ATOM      5  C6  UNL d   1      -0.804  -2.399   1.995  0.00  0.00     0.000 A 
ATOM      6  C7  UNL d   1      -1.797  -1.433   2.234  0.00  0.00    -0.073 A 
ATOM      7  C8  UNL d   1      -3.026  -1.431   1.366  0.00  0.00     0.078 C 
ENDROOT
BRANCH   1   8
ATOM      8  C1  UNL d   1      -2.673   0.515   3.646  0.00  0.00     0.053 C 
ATOM      9  C   UNL d   1      -2.927   1.488   2.506  0.00  0.00     0.018 C 
ENDBRANCH   1   8
TORSDOF 1
ENDMDL
