MODEL 1
REMARK minimizedAffinity 13.5748959
REMARK minimizedRMSD -1
REMARK  1 active torsions:
REMARK  status: ('A' for Active; 'I' for Inactive)
REMARK    1  A    between atoms: C1_2  and  C2_3 
ROOT
ATOM      1  C2  UNL d   1       3.713   3.607  -3.021  0.00  0.00    -0.076 A 
ATOM      2  C3  UNL d   1       3.746   4.338  -1.821  0.00  0.00     0.004 A 
ATOM      3  C4  UNL d   1       4.878   5.065  -1.455  0.00  0.00    -0.003 A 
ATOM      4  C5  UNL d   1       5.994   5.073  -2.283  0.00  0.00     0.000 A 
ATOM      5  C6  UNL d   1       5.972   4.369  -3.486  0.00  0.00     0.000 A 
ATOM      6  C7  UNL d   1       4.834   3.644  -3.878  0.00  0.00    -0.073 A 
ATOM      7  C8  UNL d   1       4.867   2.897  -5.184  0.00  0.00     0.078 C 
ENDROOT
BRANCH   1   8
ATOM      8  C1  UNL d   1       2.468   2.816  -3.353  0.00  0.00     0.053 C 
ATOM      9  C   UNL d   1       1.986   1.970  -2.185  0.00  0.00     0.018 C 
ENDBRANCH   1   8
TORSDOF 1
ENDMDL
