MODEL 1
REMARK minimizedAffinity 5.00336075
REMARK minimizedRMSD -1
REMARK  1 active torsions:
REMARK  status: ('A' for Active; 'I' for Inactive)
REMARK    1  A    between atoms: C3_4  and  O_7 
ROOT
ATOM      1  C   UNL d   1      -5.711  -4.968   4.796  0.00  0.00    -0.033 A 
ATOM      2  C1  UNL d   1      -5.956  -5.999   3.887  0.00  0.00     0.039 A 
ATOM      3  C2  UNL d   1      -6.000  -5.730   2.518  0.00  0.00    -0.080 A 
ATOM      4  C3  UNL d   1      -5.797  -4.427   2.071  0.00  0.00     0.150 A 
ATOM      5  C4  UNL d   1      -5.549  -3.395   2.970  0.00  0.00    -0.007 A 
ATOM      6  C5  UNL d   1      -5.506  -3.666   4.337  0.00  0.00     0.039 A 
ENDROOT
BRANCH   4   7
ATOM      7  O   UNL d   1      -5.836  -4.115   0.745  0.00  0.00    -0.526 OA
ATOM      8  H5  UNL d   1      -6.045  -4.921   0.245  0.00  0.00     0.418 HD
ENDBRANCH   4   7
TORSDOF 1
ENDMDL
