MODEL 1
REMARK minimizedAffinity 8.29005814
REMARK minimizedRMSD -1
REMARK  1 active torsions:
REMARK  status: ('A' for Active; 'I' for Inactive)
REMARK    1  A    between atoms: C3_4  and  O_7 
ROOT
ATOM      1  C   UNL d   1       2.979   2.676  -3.392  0.00  0.00    -0.033 A 
ATOM      2  C1  UNL d   1       3.762   3.422  -2.509  0.00  0.00     0.039 A 
ATOM      3  C2  UNL d   1       3.861   3.043  -1.169  0.00  0.00    -0.080 A 
ATOM      4  C3  UNL d   1       3.173   1.916  -0.726  0.00  0.00     0.150 A 
ATOM      5  C4  UNL d   1       2.395   1.166  -1.601  0.00  0.00    -0.007 A 
ATOM      6  C5  UNL d   1       2.297   1.547  -2.938  0.00  0.00     0.039 A 
ENDROOT
BRANCH   4   7
ATOM      7  O   UNL d   1       3.235   1.509   0.574  0.00  0.00    -0.526 OA
ATOM      8  H5  UNL d   1       3.786   2.139   1.068  0.00  0.00     0.418 HD
ENDBRANCH   4   7
TORSDOF 1
ENDMDL
