MODEL 1
REMARK minimizedAffinity 9.47321033
REMARK minimizedRMSD -1
REMARK  1 active torsions:
REMARK  status: ('A' for Active; 'I' for Inactive)
REMARK    1  A    between atoms: C3_4  and  O_7 
ROOT
ATOM      1  C   UNL d   1       4.143   2.076  -1.384  0.00  0.00    -0.033 A 
ATOM      2  C1  UNL d   1       4.338   3.073  -2.342  0.00  0.00     0.039 A 
ATOM      3  C2  UNL d   1       3.388   3.274  -3.346  0.00  0.00    -0.080 A 
ATOM      4  C3  UNL d   1       2.249   2.475  -3.379  0.00  0.00     0.150 A 
ATOM      5  C4  UNL d   1       2.046   1.483  -2.425  0.00  0.00    -0.007 A 
ATOM      6  C5  UNL d   1       2.996   1.282  -1.424  0.00  0.00     0.039 A 
ENDROOT
BRANCH   4   7
ATOM      7  O   UNL d   1       1.297   2.631  -4.342  0.00  0.00    -0.526 OA
ATOM      8  H5  UNL d   1       1.585   3.334  -4.948  0.00  0.00     0.418 HD
ENDBRANCH   4   7
TORSDOF 1
ENDMDL
