MODEL 1
REMARK minimizedAffinity 3.22057557
REMARK minimizedRMSD -1
REMARK  1 active torsions:
REMARK  status: ('A' for Active; 'I' for Inactive)
REMARK    1  A    between atoms: C3_4  and  O_7 
ROOT
ATOM      1  C   UNL d   1      -5.276  -3.769   1.494  0.00  0.00    -0.033 A 
ATOM      2  C1  UNL d   1      -5.082  -3.183   2.747  0.00  0.00     0.039 A 
ATOM      3  C2  UNL d   1      -5.320  -3.921   3.909  0.00  0.00    -0.080 A 
ATOM      4  C3  UNL d   1      -5.749  -5.241   3.804  0.00  0.00     0.150 A 
ATOM      5  C4  UNL d   1      -5.941  -5.831   2.559  0.00  0.00    -0.007 A 
ATOM      6  C5  UNL d   1      -5.704  -5.093   1.400  0.00  0.00     0.039 A 
ENDROOT
BRANCH   4   7
ATOM      7  O   UNL d   1      -5.999  -5.999   4.909  0.00  0.00    -0.526 OA
ATOM      8  H5  UNL d   1      -5.851  -5.450   5.698  0.00  0.00     0.418 HD
ENDBRANCH   4   7
TORSDOF 1
ENDMDL
