MODEL 1
REMARK minimizedAffinity 8.68189812
REMARK minimizedRMSD -1
REMARK  1 active torsions:
REMARK  status: ('A' for Active; 'I' for Inactive)
REMARK    1  A    between atoms: C3_4  and  O_7 
ROOT
ATOM      1  C   UNL d   1       0.587  -2.709   2.330  0.00  0.00    -0.033 A 
ATOM      2  C1  UNL d   1      -0.394  -1.864   1.810  0.00  0.00     0.039 A 
ATOM      3  C2  UNL d   1      -0.982  -0.891   2.621  0.00  0.00    -0.080 A 
ATOM      4  C3  UNL d   1      -0.579  -0.775   3.949  0.00  0.00     0.150 A 
ATOM      5  C4  UNL d   1       0.401  -1.611   4.472  0.00  0.00    -0.007 A 
ATOM      6  C5  UNL d   1       0.986  -2.582   3.661  0.00  0.00     0.039 A 
ENDROOT
BRANCH   4   7
ATOM      7  O   UNL d   1      -1.127   0.156   4.780  0.00  0.00    -0.526 OA
ATOM      8  H5  UNL d   1      -1.810   0.643   4.290  0.00  0.00     0.418 HD
ENDBRANCH   4   7
TORSDOF 1
ENDMDL
