MODEL 1
REMARK minimizedAffinity 0.249746397
REMARK minimizedRMSD -1
REMARK  1 active torsions:
REMARK  status: ('A' for Active; 'I' for Inactive)
REMARK    1  A    between atoms: C3_4  and  O_7 
ROOT
ATOM      1  C   UNL d   1       1.570   4.938  -3.197  0.00  0.00    -0.033 A 
ATOM      2  C1  UNL d   1       2.289   6.000  -2.644  0.00  0.00     0.039 A 
ATOM      3  C2  UNL d   1       3.624   5.824  -2.276  0.00  0.00    -0.080 A 
ATOM      4  C3  UNL d   1       4.228   4.585  -2.467  0.00  0.00     0.150 A 
ATOM      5  C4  UNL d   1       3.519   3.524  -3.021  0.00  0.00    -0.007 A 
ATOM      6  C5  UNL d   1       2.186   3.701  -3.387  0.00  0.00     0.039 A 
ENDROOT
BRANCH   4   7
ATOM      7  O   UNL d   1       5.528   4.364  -2.119  0.00  0.00    -0.526 OA
ATOM      8  H5  UNL d   1       5.883   5.177  -1.723  0.00  0.00     0.418 HD
ENDBRANCH   4   7
TORSDOF 1
ENDMDL
