MODEL 1
REMARK minimizedAffinity 8.20549583
REMARK minimizedRMSD -1
REMARK  1 active torsions:
REMARK  status: ('A' for Active; 'I' for Inactive)
REMARK    1  A    between atoms: C3_4  and  O_7 
ROOT
ATOM      1  C   UNL d   1      -5.801  -5.568   1.243  0.00  0.00    -0.033 A 
ATOM      2  C1  UNL d   1      -6.000  -5.998   2.556  0.00  0.00     0.039 A 
ATOM      3  C2  UNL d   1      -5.947  -5.081   3.608  0.00  0.00    -0.080 A 
ATOM      4  C3  UNL d   1      -5.696  -3.739   3.333  0.00  0.00     0.150 A 
ATOM      5  C4  UNL d   1      -5.501  -3.304   2.026  0.00  0.00    -0.007 A 
ATOM      6  C5  UNL d   1      -5.553  -4.221   0.977  0.00  0.00     0.039 A 
ENDROOT
BRANCH   4   7
ATOM      7  O   UNL d   1      -5.631  -2.808   4.327  0.00  0.00    -0.526 OA
ATOM      8  H5  UNL d   1      -5.756  -3.258   5.179  0.00  0.00     0.418 HD
ENDBRANCH   4   7
TORSDOF 1
ENDMDL
