MODEL 1
REMARK minimizedAffinity 3.68491817
REMARK minimizedRMSD -1
REMARK  1 active torsions:
REMARK  status: ('A' for Active; 'I' for Inactive)
REMARK    1  A    between atoms: C3_4  and  O_7 
ROOT
ATOM      1  C   UNL d   1      -6.000   2.448   5.942  0.00  0.00    -0.033 A 
ATOM      2  C1  UNL d   1      -5.604   1.110   6.000  0.00  0.00     0.039 A 
ATOM      3  C2  UNL d   1      -4.482   0.680   5.289  0.00  0.00    -0.080 A 
ATOM      4  C3  UNL d   1      -3.764   1.597   4.526  0.00  0.00     0.150 A 
ATOM      5  C4  UNL d   1      -4.150   2.933   4.467  0.00  0.00    -0.007 A 
ATOM      6  C5  UNL d   1      -5.272   3.359   5.177  0.00  0.00     0.039 A 
ENDROOT
BRANCH   4   7
ATOM      7  O   UNL d   1      -2.665   1.224   3.811  0.00  0.00    -0.526 OA
ATOM      8  H5  UNL d   1      -2.535   0.268   3.924  0.00  0.00     0.418 HD
ENDBRANCH   4   7
TORSDOF 1
ENDMDL
