MODEL 1
REMARK minimizedAffinity 3.01149106
REMARK minimizedRMSD -1
REMARK  1 active torsions:
REMARK  status: ('A' for Active; 'I' for Inactive)
REMARK    1  A    between atoms: C3_4  and  O_7 
ROOT
ATOM      1  C   UNL d   1      -2.226  -0.189   2.389  0.00  0.00    -0.033 A 
ATOM      2  C1  UNL d   1      -1.582  -0.002   3.613  0.00  0.00     0.039 A 
ATOM      3  C2  UNL d   1      -0.457  -0.763   3.935  0.00  0.00    -0.080 A 
ATOM      4  C3  UNL d   1       0.014  -1.705   3.025  0.00  0.00     0.150 A 
ATOM      5  C4  UNL d   1      -0.620  -1.893   1.801  0.00  0.00    -0.007 A 
ATOM      6  C5  UNL d   1      -1.744  -1.133   1.482  0.00  0.00     0.039 A 
ENDROOT
BRANCH   4   7
ATOM      7  O   UNL d   1       1.107  -2.474   3.296  0.00  0.00    -0.526 OA
ATOM      8  H5  UNL d   1       1.423  -2.255   4.189  0.00  0.00     0.418 HD
ENDBRANCH   4   7
TORSDOF 1
ENDMDL
