MODEL 1
REMARK minimizedAffinity 0.408131927
REMARK minimizedRMSD -1
REMARK  1 active torsions:
REMARK  status: ('A' for Active; 'I' for Inactive)
REMARK    1  A    between atoms: C3_4  and  O_7 
ROOT
ATOM      1  C   UNL d   1      -5.964  -4.797   5.635  0.00  0.00    -0.033 A 
ATOM      2  C1  UNL d   1      -6.000  -6.000   4.927  0.00  0.00     0.039 A 
ATOM      3  C2  UNL d   1      -5.850  -6.000   3.539  0.00  0.00    -0.080 A 
ATOM      4  C3  UNL d   1      -5.665  -4.792   2.872  0.00  0.00     0.150 A 
ATOM      5  C4  UNL d   1      -5.625  -3.590   3.571  0.00  0.00    -0.007 A 
ATOM      6  C5  UNL d   1      -5.775  -3.592   4.957  0.00  0.00     0.039 A 
ENDROOT
BRANCH   4   7
ATOM      7  O   UNL d   1      -5.519  -4.741   1.517  0.00  0.00    -0.526 OA
ATOM      8  H5  UNL d   1      -5.597  -5.644   1.165  0.00  0.00     0.418 HD
ENDBRANCH   4   7
TORSDOF 1
ENDMDL
