MODEL 1
REMARK minimizedAffinity 5.81617022
REMARK minimizedRMSD -1
REMARK  1 active torsions:
REMARK  status: ('A' for Active; 'I' for Inactive)
REMARK    1  A    between atoms: C3_4  and  O_7 
ROOT
ATOM      1  C   UNL d   1      -0.791  -1.606   2.231  0.00  0.00    -0.033 A 
ATOM      2  C1  UNL d   1       0.046  -2.601   1.723  0.00  0.00     0.039 A 
ATOM      3  C2  UNL d   1       1.229  -2.928   2.389  0.00  0.00    -0.080 A 
ATOM      4  C3  UNL d   1       1.562  -2.254   3.560  0.00  0.00     0.150 A 
ATOM      5  C4  UNL d   1       0.731  -1.264   4.074  0.00  0.00    -0.007 A 
ATOM      6  C5  UNL d   1      -0.449  -0.938   3.407  0.00  0.00     0.039 A 
ENDROOT
BRANCH   4   7
ATOM      7  O   UNL d   1       2.709  -2.534   4.243  0.00  0.00    -0.526 OA
ATOM      8  H5  UNL d   1       3.197  -3.218   3.755  0.00  0.00     0.418 HD
ENDBRANCH   4   7
TORSDOF 1
ENDMDL
