MODEL 1
REMARK minimizedAffinity 11.0615015
REMARK minimizedRMSD -1
REMARK  1 active torsions:
REMARK  status: ('A' for Active; 'I' for Inactive)
REMARK    1  A    between atoms: C3_4  and  O_7 
ROOT
ATOM      1  C   UNL d   1      -5.430  -3.937   1.373  0.00  0.00    -0.033 A 
ATOM      2  C1  UNL d   1      -5.324  -3.233   2.574  0.00  0.00     0.039 A 
ATOM      3  C2  UNL d   1      -5.511  -3.892   3.791  0.00  0.00    -0.080 A 
ATOM      4  C3  UNL d   1      -5.801  -5.253   3.793  0.00  0.00     0.150 A 
ATOM      5  C4  UNL d   1      -5.904  -5.962   2.600  0.00  0.00    -0.007 A 
ATOM      6  C5  UNL d   1      -5.718  -5.302   1.386  0.00  0.00     0.039 A 
ENDROOT
BRANCH   4   7
ATOM      7  O   UNL d   1      -5.997  -5.939   4.955  0.00  0.00    -0.526 OA
ATOM      8  H5  UNL d   1      -5.923  -5.314   5.696  0.00  0.00     0.418 HD
ENDBRANCH   4   7
TORSDOF 1
ENDMDL
