MODEL 1
REMARK minimizedAffinity -0.205677226
REMARK minimizedRMSD -1
REMARK  1 active torsions:
REMARK  status: ('A' for Active; 'I' for Inactive)
REMARK    1  A    between atoms: C3_4  and  O_7 
ROOT
ATOM      1  C   UNL d   1      -5.544  -5.262   2.242  0.00  0.00    -0.033 A 
ATOM      2  C1  UNL d   1      -5.991  -6.000   3.340  0.00  0.00     0.039 A 
ATOM      3  C2  UNL d   1      -5.999  -5.426   4.613  0.00  0.00    -0.080 A 
ATOM      4  C3  UNL d   1      -5.560  -4.114   4.774  0.00  0.00     0.150 A 
ATOM      5  C4  UNL d   1      -5.117  -3.372   3.684  0.00  0.00    -0.007 A 
ATOM      6  C5  UNL d   1      -5.108  -3.947   2.414  0.00  0.00     0.039 A 
ENDROOT
BRANCH   4   7
ATOM      7  O   UNL d   1      -5.546  -3.513   5.997  0.00  0.00    -0.526 OA
ATOM      8  H5  UNL d   1      -5.852  -4.155   6.659  0.00  0.00     0.418 HD
ENDBRANCH   4   7
TORSDOF 1
ENDMDL
