MODEL 1
REMARK minimizedAffinity 9.11165047
REMARK minimizedRMSD -1
REMARK  1 active torsions:
REMARK  status: ('A' for Active; 'I' for Inactive)
REMARK    1  A    between atoms: C3_4  and  O_7 
ROOT
ATOM      1  C   UNL d   1      -0.396  -1.859   0.827  0.00  0.00    -0.033 A 
ATOM      2  C1  UNL d   1      -1.486  -2.381   1.527  0.00  0.00     0.039 A 
ATOM      3  C2  UNL d   1      -1.624  -2.131   2.894  0.00  0.00    -0.080 A 
ATOM      4  C3  UNL d   1      -0.668  -1.359   3.548  0.00  0.00     0.150 A 
ATOM      5  C4  UNL d   1       0.418  -0.834   2.856  0.00  0.00    -0.007 A 
ATOM      6  C5  UNL d   1       0.555  -1.084   1.492  0.00  0.00     0.039 A 
ENDROOT
BRANCH   4   7
ATOM      7  O   UNL d   1      -0.758  -1.093   4.882  0.00  0.00    -0.526 OA
ATOM      8  H5  UNL d   1      -1.544  -1.545   5.234  0.00  0.00     0.418 HD
ENDBRANCH   4   7
TORSDOF 1
ENDMDL
