MODEL 1
REMARK minimizedAffinity 4.24472618
REMARK minimizedRMSD -1
REMARK  1 active torsions:
REMARK  status: ('A' for Active; 'I' for Inactive)
REMARK    1  A    between atoms: C3_4  and  O_7 
ROOT
ATOM      1  C   UNL d   1      -0.489  -0.990   1.706  0.00  0.00    -0.033 A 
ATOM      2  C1  UNL d   1      -1.168  -1.909   0.903  0.00  0.00     0.039 A 
ATOM      3  C2  UNL d   1      -0.631  -3.178   0.683  0.00  0.00    -0.080 A 
ATOM      4  C3  UNL d   1       0.585  -3.517   1.271  0.00  0.00     0.150 A 
ATOM      5  C4  UNL d   1       1.265  -2.608   2.075  0.00  0.00    -0.007 A 
ATOM      6  C5  UNL d   1       0.727  -1.341   2.293  0.00  0.00     0.039 A 
ENDROOT
BRANCH   4   7
ATOM      7  O   UNL d   1       1.152  -4.742   1.082  0.00  0.00    -0.526 OA
ATOM      8  H5  UNL d   1       0.584  -5.254   0.481  0.00  0.00     0.418 HD
ENDBRANCH   4   7
TORSDOF 1
ENDMDL
