MODEL 1
REMARK minimizedAffinity 14.0322371
REMARK minimizedRMSD -1
REMARK  1 active torsions:
REMARK  status: ('A' for Active; 'I' for Inactive)
REMARK    1  A    between atoms: C3_4  and  O_7 
ROOT
ATOM      1  C   UNL d   1      -0.910  -1.972   0.797  0.00  0.00    -0.033 A 
ATOM      2  C1  UNL d   1      -0.633  -0.711   1.328  0.00  0.00     0.039 A 
ATOM      3  C2  UNL d   1      -0.362  -0.570   2.691  0.00  0.00    -0.080 A 
ATOM      4  C3  UNL d   1      -0.371  -1.696   3.509  0.00  0.00     0.150 A 
ATOM      5  C4  UNL d   1      -0.643  -2.956   2.986  0.00  0.00    -0.007 A 
ATOM      6  C5  UNL d   1      -0.913  -3.095   1.625  0.00  0.00     0.039 A 
ENDROOT
BRANCH   4   7
ATOM      7  O   UNL d   1      -0.118  -1.607   4.846  0.00  0.00    -0.526 OA
ATOM      8  H5  UNL d   1       0.024  -0.673   5.071  0.00  0.00     0.418 HD
ENDBRANCH   4   7
TORSDOF 1
ENDMDL
