MODEL 1
REMARK minimizedAffinity -2.71245599
REMARK minimizedRMSD -1
REMARK  0 active torsions:
REMARK  status: ('A' for Active; 'I' for Inactive)
ROOT
ATOM      1  C1  BNZ d   1      -3.404   4.193  -4.740  0.00  0.00     0.000 A 
ATOM      2  C2  BNZ d   1      -2.088   4.087  -5.105  0.00  0.00     0.000 A 
ATOM      3  C3  BNZ d   1      -1.249   3.226  -4.456  0.00  0.00     0.000 A 
ATOM      4  C4  BNZ d   1      -1.715   2.502  -3.418  0.00  0.00     0.000 A 
ATOM      5  C5  BNZ d   1      -3.036   2.604  -3.031  0.00  0.00     0.000 A 
ATOM      6  C6  BNZ d   1      -3.888   3.444  -3.712  0.00  0.00     0.000 A 
ENDROOT
TORSDOF 0
ENDMDL
