MODEL 1
REMARK minimizedAffinity -3.44354725
REMARK minimizedRMSD -1
REMARK  0 active torsions:
REMARK  status: ('A' for Active; 'I' for Inactive)
ROOT
ATOM      1  C1  BNZ d   1      -0.507   2.591  -4.930  0.00  0.00     0.000 A 
ATOM      2  C2  BNZ d   1      -1.398   3.611  -4.732  0.00  0.00     0.000 A 
ATOM      3  C3  BNZ d   1      -2.602   3.381  -4.126  0.00  0.00     0.000 A 
ATOM      4  C4  BNZ d   1      -2.929   2.126  -3.756  0.00  0.00     0.000 A 
ATOM      5  C5  BNZ d   1      -2.045   1.085  -3.958  0.00  0.00     0.000 A 
ATOM      6  C6  BNZ d   1      -0.818   1.327  -4.533  0.00  0.00     0.000 A 
ENDROOT
TORSDOF 0
ENDMDL
