MODEL 1
REMARK minimizedAffinity -0.414306581
REMARK minimizedRMSD -1
REMARK  0 active torsions:
REMARK  status: ('A' for Active; 'I' for Inactive)
ROOT
ATOM      1  C1  BNZ d   1       1.333  -3.114   0.333  0.00  0.00     0.000 A 
ATOM      2  C2  BNZ d   1       0.086  -3.552   0.689  0.00  0.00     0.000 A 
ATOM      3  C3  BNZ d   1      -0.732  -2.778   1.465  0.00  0.00     0.000 A 
ATOM      4  C4  BNZ d   1      -0.287  -1.587   1.915  0.00  0.00     0.000 A 
ATOM      5  C5  BNZ d   1       0.972  -1.137   1.572  0.00  0.00     0.000 A 
ATOM      6  C6  BNZ d   1       1.778  -1.901   0.759  0.00  0.00     0.000 A 
ENDROOT
TORSDOF 0
ENDMDL
