MODEL 1
REMARK minimizedAffinity 0.140902877
REMARK minimizedRMSD -1
REMARK  0 active torsions:
REMARK  status: ('A' for Active; 'I' for Inactive)
ROOT
ATOM      1  C1  BNZ d   1      -0.580   1.871  -4.626  0.00  0.00     0.000 A 
ATOM      2  C2  BNZ d   1      -0.590   3.055  -5.314  0.00  0.00     0.000 A 
ATOM      3  C3  BNZ d   1       0.516   3.476  -5.999  0.00  0.00     0.000 A 
ATOM      4  C4  BNZ d   1       1.641   2.733  -5.963  0.00  0.00     0.000 A 
ATOM      5  C5  BNZ d   1       1.669   1.541  -5.267  0.00  0.00     0.000 A 
ATOM      6  C6  BNZ d   1       0.543   1.102  -4.610  0.00  0.00     0.000 A 
ENDROOT
TORSDOF 0
ENDMDL
