MODEL 1
REMARK minimizedAffinity 4.74351215
REMARK minimizedRMSD -1
REMARK  0 active torsions:
REMARK  status: ('A' for Active; 'I' for Inactive)
ROOT
ATOM      1  C1  BNZ d   1       0.384   4.482  -6.000  0.00  0.00     0.000 A 
ATOM      2  C2  BNZ d   1      -0.698   4.582  -5.167  0.00  0.00     0.000 A 
ATOM      3  C3  BNZ d   1      -1.025   3.561  -4.319  0.00  0.00     0.000 A 
ATOM      4  C4  BNZ d   1      -0.295   2.427  -4.333  0.00  0.00     0.000 A 
ATOM      5  C5  BNZ d   1       0.793   2.308  -5.174  0.00  0.00     0.000 A 
ATOM      6  C6  BNZ d   1       1.143   3.352  -5.999  0.00  0.00     0.000 A 
ENDROOT
TORSDOF 0
ENDMDL
