MODEL 1
REMARK minimizedAffinity 1.70415843
REMARK minimizedRMSD -1
REMARK  0 active torsions:
REMARK  status: ('A' for Active; 'I' for Inactive)
ROOT
ATOM      1  C1  BNZ d   1      -2.027   4.482  -4.468  0.00  0.00     0.000 A 
ATOM      2  C2  BNZ d   1      -3.286   4.611  -3.944  0.00  0.00     0.000 A 
ATOM      3  C3  BNZ d   1      -3.832   3.615  -3.183  0.00  0.00     0.000 A 
ATOM      4  C4  BNZ d   1      -3.137   2.478  -2.981  0.00  0.00     0.000 A 
ATOM      5  C5  BNZ d   1      -1.870   2.329  -3.510  0.00  0.00     0.000 A 
ATOM      6  C6  BNZ d   1      -1.308   3.349  -4.243  0.00  0.00     0.000 A 
ENDROOT
TORSDOF 0
ENDMDL
