MODEL 1
REMARK minimizedAffinity 1.35718858
REMARK minimizedRMSD -1
REMARK  0 active torsions:
REMARK  status: ('A' for Active; 'I' for Inactive)
ROOT
ATOM      1  C1  BNZ d   1      -1.300   3.160  -4.326  0.00  0.00     0.000 A 
ATOM      2  C2  BNZ d   1      -1.671   2.044  -3.625  0.00  0.00     0.000 A 
ATOM      3  C3  BNZ d   1      -2.984   1.808  -3.329  0.00  0.00     0.000 A 
ATOM      4  C4  BNZ d   1      -3.919   2.707  -3.699  0.00  0.00     0.000 A 
ATOM      5  C5  BNZ d   1      -3.560   3.842  -4.398  0.00  0.00     0.000 A 
ATOM      6  C6  BNZ d   1      -2.242   4.057  -4.728  0.00  0.00     0.000 A 
ENDROOT
TORSDOF 0
ENDMDL
