MODEL 1
REMARK minimizedAffinity 7.43783998
REMARK minimizedRMSD -1
REMARK  0 active torsions:
REMARK  status: ('A' for Active; 'I' for Inactive)
ROOT
ATOM      1  C1  BNZ d   1       3.953  -4.331  -0.394  0.00  0.00     0.000 A 
ATOM      2  C2  BNZ d   1       2.892  -3.714  -1.001  0.00  0.00     0.000 A 
ATOM      3  C3  BNZ d   1       1.975  -3.015  -0.266  0.00  0.00     0.000 A 
ATOM      4  C4  BNZ d   1       2.099  -2.968   1.076  0.00  0.00     0.000 A 
ATOM      5  C5  BNZ d   1       3.158  -3.593   1.704  0.00  0.00     0.000 A 
ATOM      6  C6  BNZ d   1       4.100  -4.263   0.957  0.00  0.00     0.000 A 
ENDROOT
TORSDOF 0
ENDMDL
