MODEL 1
REMARK minimizedAffinity 2.28420997
REMARK minimizedRMSD -1
REMARK  0 active torsions:
REMARK  status: ('A' for Active; 'I' for Inactive)
ROOT
ATOM      1  C1  BNZ d   1       2.025  -2.808   1.853  0.00  0.00     0.000 A 
ATOM      2  C2  BNZ d   1       0.738  -3.111   2.211  0.00  0.00     0.000 A 
ATOM      3  C3  BNZ d   1      -0.168  -3.530   1.277  0.00  0.00     0.000 A 
ATOM      4  C4  BNZ d   1       0.201  -3.606  -0.018  0.00  0.00     0.000 A 
ATOM      5  C5  BNZ d   1       1.492  -3.294  -0.396  0.00  0.00     0.000 A 
ATOM      6  C6  BNZ d   1       2.412  -2.910   0.553  0.00  0.00     0.000 A 
ENDROOT
TORSDOF 0
ENDMDL
