MODEL 1
REMARK minimizedAffinity 15.0409641
REMARK minimizedRMSD -1
REMARK  3 active torsions:
REMARK  status: ('A' for Active; 'I' for Inactive)
REMARK    1  A    between atoms: C3'_2  and  C2'_3 
REMARK    2  A    between atoms: C2'_3  and  C1'_4 
REMARK    3  A    between atoms: C1'_4  and  C1_5 
ROOT
ATOM      1  C1  N4B d   1      -3.083  -4.143  -2.506  0.00  0.00    -0.075 A 
ATOM      2  C2  N4B d   1      -3.829  -2.954  -2.664  0.00  0.00     0.002 A 
ATOM      3  C3  N4B d   1      -5.200  -2.990  -2.588  0.00  0.00     0.002 A 
ATOM      4  C4  N4B d   1      -5.844  -4.199  -2.376  0.00  0.00    -0.004 A 
ATOM      5  C5  N4B d   1      -5.115  -5.339  -2.200  0.00  0.00     0.002 A 
ATOM      6  C6  N4B d   1      -3.736  -5.317  -2.269  0.00  0.00     0.002 A 
ENDROOT
BRANCH   1   7
ATOM      7  C1' N4B d   1      -1.587  -4.168  -2.666  0.00  0.00     0.057 C 
BRANCH   7   8
ATOM      8  C2' N4B d   1      -1.212  -5.223  -3.703  0.00  0.00     0.009 C 
BRANCH   8   9
ATOM      9  C3' N4B d   1       0.030  -4.833  -4.486  0.00  0.00     0.004 C 
ATOM     10  C4' N4B d   1       0.934  -5.999  -4.759  0.00  0.00     0.003 C 
ENDBRANCH   8   9
ENDBRANCH   7   8
ENDBRANCH   1   7
TORSDOF 3
ENDMDL
