MODEL 1
REMARK minimizedAffinity 7.45005083
REMARK minimizedRMSD -1
REMARK  3 active torsions:
REMARK  status: ('A' for Active; 'I' for Inactive)
REMARK    1  A    between atoms: C3'_2  and  C2'_3 
REMARK    2  A    between atoms: C2'_3  and  C1'_4 
REMARK    3  A    between atoms: C1'_4  and  C1_5 
ROOT
ATOM      1  C1  N4B d   1       3.083   3.745  -3.928  0.00  0.00    -0.075 A 
ATOM      2  C2  N4B d   1       3.612   5.051  -3.840  0.00  0.00     0.002 A 
ATOM      3  C3  N4B d   1       3.360   5.962  -4.837  0.00  0.00     0.002 A 
ATOM      4  C4  N4B d   1       2.600   5.586  -5.934  0.00  0.00    -0.004 A 
ATOM      5  C5  N4B d   1       2.072   4.330  -5.999  0.00  0.00     0.002 A 
ATOM      6  C6  N4B d   1       2.314   3.405  -5.003  0.00  0.00     0.002 A 
ENDROOT
BRANCH   1   7
ATOM      7  C1' N4B d   1       3.402   2.688  -2.906  0.00  0.00     0.057 C 
BRANCH   7   8
ATOM      8  C2' N4B d   1       4.480   1.763  -3.463  0.00  0.00     0.009 C 
BRANCH   8   9
ATOM      9  C3' N4B d   1       4.342   1.568  -4.963  0.00  0.00     0.004 C 
ATOM     10  C4' N4B d   1       3.974   0.162  -5.335  0.00  0.00     0.003 C 
ENDBRANCH   8   9
ENDBRANCH   7   8
ENDBRANCH   1   7
TORSDOF 3
ENDMDL
