MODEL 1
REMARK minimizedAffinity 11.2005529
REMARK minimizedRMSD -1
REMARK  3 active torsions:
REMARK  status: ('A' for Active; 'I' for Inactive)
REMARK    1  A    between atoms: C3'_2  and  C2'_3 
REMARK    2  A    between atoms: C2'_3  and  C1'_4 
REMARK    3  A    between atoms: C1'_4  and  C1_5 
ROOT
ATOM      1  C1  N4B d   1      -3.548  -4.090  -2.989  0.00  0.00    -0.075 A 
ATOM      2  C2  N4B d   1      -3.632  -5.381  -2.422  0.00  0.00     0.002 A 
ATOM      3  C3  N4B d   1      -4.852  -5.999  -2.299  0.00  0.00     0.002 A 
ATOM      4  C4  N4B d   1      -5.999  -5.342  -2.719  0.00  0.00    -0.004 A 
ATOM      5  C5  N4B d   1      -5.907  -4.106  -3.289  0.00  0.00     0.002 A 
ATOM      6  C6  N4B d   1      -4.687  -3.474  -3.421  0.00  0.00     0.002 A 
ENDROOT
BRANCH   1   7
ATOM      7  C1' N4B d   1      -2.247  -3.339  -3.065  0.00  0.00     0.057 C 
BRANCH   7   8
ATOM      8  C2' N4B d   1      -2.281  -2.178  -2.075  0.00  0.00     0.009 C 
BRANCH   8   9
ATOM      9  C3' N4B d   1      -2.484  -2.654  -0.647  0.00  0.00     0.004 C 
ATOM     10  C4' N4B d   1      -1.213  -2.656   0.150  0.00  0.00     0.003 C 
ENDBRANCH   8   9
ENDBRANCH   7   8
ENDBRANCH   1   7
TORSDOF 3
ENDMDL
