MODEL 1
REMARK minimizedAffinity 11.4542627
REMARK minimizedRMSD -1
REMARK  3 active torsions:
REMARK  status: ('A' for Active; 'I' for Inactive)
REMARK    1  A    between atoms: C3'_2  and  C2'_3 
REMARK    2  A    between atoms: C2'_3  and  C1'_4 
REMARK    3  A    between atoms: C1'_4  and  C1_5 
ROOT
ATOM      1  C1  N4B d   1      -2.199  -2.892  -2.539  0.00  0.00    -0.075 A 
ATOM      2  C2  N4B d   1      -2.424  -2.362  -1.249  0.00  0.00     0.002 A 
ATOM      3  C3  N4B d   1      -1.401  -2.328  -0.333  0.00  0.00     0.002 A 
ATOM      4  C4  N4B d   1      -0.156  -2.832  -0.677  0.00  0.00    -0.004 A 
ATOM      5  C5  N4B d   1       0.060  -3.318  -1.933  0.00  0.00     0.002 A 
ATOM      6  C6  N4B d   1      -0.958  -3.355  -2.865  0.00  0.00     0.002 A 
ENDROOT
BRANCH   1   7
ATOM      7  C1' N4B d   1      -3.309  -3.029  -3.545  0.00  0.00     0.057 C 
BRANCH   7   8
ATOM      8  C2' N4B d   1      -4.535  -3.626  -2.860  0.00  0.00     0.009 C 
BRANCH   8   9
ATOM      9  C3' N4B d   1      -5.830  -3.119  -3.471  0.00  0.00     0.004 C 
ATOM     10  C4' N4B d   1      -5.715  -2.859  -4.943  0.00  0.00     0.003 C 
ENDBRANCH   8   9
ENDBRANCH   7   8
ENDBRANCH   1   7
TORSDOF 3
ENDMDL
