MODEL 1
REMARK minimizedAffinity 8.28132629
REMARK minimizedRMSD -1
REMARK  3 active torsions:
REMARK  status: ('A' for Active; 'I' for Inactive)
REMARK    1  A    between atoms: C3'_2  and  C2'_3 
REMARK    2  A    between atoms: C2'_3  and  C1'_4 
REMARK    3  A    between atoms: C1'_4  and  C1_5 
ROOT
ATOM      1  C1  N4B d   1      -3.296  -5.737  -0.099  0.00  0.00    -0.075 A 
ATOM      2  C2  N4B d   1      -3.707  -5.972   1.232  0.00  0.00     0.002 A 
ATOM      3  C3  N4B d   1      -2.778  -5.995   2.243  0.00  0.00     0.002 A 
ATOM      4  C4  N4B d   1      -1.437  -5.805   1.947  0.00  0.00    -0.004 A 
ATOM      5  C5  N4B d   1      -1.051  -5.554   0.663  0.00  0.00     0.002 A 
ATOM      6  C6  N4B d   1      -1.974  -5.524  -0.363  0.00  0.00     0.002 A 
ENDROOT
BRANCH   1   7
ATOM      7  C1' N4B d   1      -4.264  -5.787  -1.250  0.00  0.00     0.057 C 
BRANCH   7   8
ATOM      8  C2' N4B d   1      -3.662  -5.051  -2.443  0.00  0.00     0.009 C 
BRANCH   8   9
ATOM      9  C3' N4B d   1      -4.305  -3.691  -2.654  0.00  0.00     0.004 C 
ATOM     10  C4' N4B d   1      -5.570  -3.765  -3.456  0.00  0.00     0.003 C 
ENDBRANCH   8   9
ENDBRANCH   7   8
ENDBRANCH   1   7
TORSDOF 3
ENDMDL
