MODEL 1
REMARK minimizedAffinity 15.3003998
REMARK minimizedRMSD -1
REMARK  3 active torsions:
REMARK  status: ('A' for Active; 'I' for Inactive)
REMARK    1  A    between atoms: C3'_2  and  C2'_3 
REMARK    2  A    between atoms: C2'_3  and  C1'_4 
REMARK    3  A    between atoms: C1'_4  and  C1_5 
ROOT
ATOM      1  C1  N4B d   1      -3.247  -4.170  -2.580  0.00  0.00    -0.075 A 
ATOM      2  C2  N4B d   1      -2.831  -3.028  -1.862  0.00  0.00     0.002 A 
ATOM      3  C3  N4B d   1      -1.931  -2.155  -2.422  0.00  0.00     0.002 A 
ATOM      4  C4  N4B d   1      -1.421  -2.412  -3.685  0.00  0.00    -0.004 A 
ATOM      5  C5  N4B d   1      -1.847  -3.505  -4.383  0.00  0.00     0.002 A 
ATOM      6  C6  N4B d   1      -2.755  -4.388  -3.834  0.00  0.00     0.002 A 
ENDROOT
BRANCH   1   7
ATOM      7  C1' N4B d   1      -4.164  -5.198  -1.975  0.00  0.00     0.057 C 
BRANCH   7   8
ATOM      8  C2' N4B d   1      -5.466  -5.237  -2.769  0.00  0.00     0.009 C 
BRANCH   8   9
ATOM      9  C3' N4B d   1      -6.000  -3.843  -3.054  0.00  0.00     0.004 C 
ATOM     10  C4' N4B d   1      -5.956  -3.491  -4.511  0.00  0.00     0.003 C 
ENDBRANCH   8   9
ENDBRANCH   7   8
ENDBRANCH   1   7
TORSDOF 3
ENDMDL
