MODEL 1
REMARK minimizedAffinity 6.93673992
REMARK minimizedRMSD -1
REMARK  3 active torsions:
REMARK  status: ('A' for Active; 'I' for Inactive)
REMARK    1  A    between atoms: C3'_2  and  C2'_3 
REMARK    2  A    between atoms: C2'_3  and  C1'_4 
REMARK    3  A    between atoms: C1'_4  and  C1_5 
ROOT
ATOM      1  C1  N4B d   1      -1.265  -4.846  -3.332  0.00  0.00    -0.075 A 
ATOM      2  C2  N4B d   1      -0.799  -3.717  -2.624  0.00  0.00     0.002 A 
ATOM      3  C3  N4B d   1      -1.679  -2.947  -1.904  0.00  0.00     0.002 A 
ATOM      4  C4  N4B d   1      -3.026  -3.274  -1.893  0.00  0.00    -0.004 A 
ATOM      5  C5  N4B d   1      -3.465  -4.381  -2.559  0.00  0.00     0.002 A 
ATOM      6  C6  N4B d   1      -2.591  -5.166  -3.283  0.00  0.00     0.002 A 
ENDROOT
BRANCH   1   7
ATOM      7  C1' N4B d   1      -0.356  -5.669  -4.203  0.00  0.00     0.057 C 
BRANCH   7   8
ATOM      8  C2' N4B d   1       0.916  -6.000  -3.428  0.00  0.00     0.009 C 
BRANCH   8   9
ATOM      9  C3' N4B d   1       2.167  -5.714  -4.240  0.00  0.00     0.004 C 
ATOM     10  C4' N4B d   1       2.567  -4.269  -4.202  0.00  0.00     0.003 C 
ENDBRANCH   8   9
ENDBRANCH   7   8
ENDBRANCH   1   7
TORSDOF 3
ENDMDL
