MODEL 1
REMARK minimizedAffinity 5.94863558
REMARK minimizedRMSD -1
REMARK  3 active torsions:
REMARK  status: ('A' for Active; 'I' for Inactive)
REMARK    1  A    between atoms: C3'_2  and  C2'_3 
REMARK    2  A    between atoms: C2'_3  and  C1'_4 
REMARK    3  A    between atoms: C1'_4  and  C1_5 
ROOT
ATOM      1  C1  N4B d   1      -3.053  -5.291   1.200  0.00  0.00    -0.075 A 
ATOM      2  C2  N4B d   1      -2.099  -5.999   1.964  0.00  0.00     0.002 A 
ATOM      3  C3  N4B d   1      -1.131  -5.315   2.657  0.00  0.00     0.002 A 
ATOM      4  C4  N4B d   1      -1.085  -3.930   2.585  0.00  0.00    -0.004 A 
ATOM      5  C5  N4B d   1      -2.025  -3.253   1.865  0.00  0.00     0.002 A 
ATOM      6  C6  N4B d   1      -3.007  -3.928   1.168  0.00  0.00     0.002 A 
ENDROOT
BRANCH   1   7
ATOM      7  C1' N4B d   1      -4.078  -6.000   0.357  0.00  0.00     0.057 C 
BRANCH   7   8
ATOM      8  C2' N4B d   1      -3.647  -5.947  -1.106  0.00  0.00     0.009 C 
BRANCH   8   9
ATOM      9  C3' N4B d   1      -4.293  -4.790  -1.848  0.00  0.00     0.004 C 
ATOM     10  C4' N4B d   1      -3.333  -3.673  -2.131  0.00  0.00     0.003 C 
ENDBRANCH   8   9
ENDBRANCH   7   8
ENDBRANCH   1   7
TORSDOF 3
ENDMDL
