MODEL 1
REMARK minimizedAffinity 12.0584869
REMARK minimizedRMSD -1
REMARK  3 active torsions:
REMARK  status: ('A' for Active; 'I' for Inactive)
REMARK    1  A    between atoms: C3'_2  and  C2'_3 
REMARK    2  A    between atoms: C2'_3  and  C1'_4 
REMARK    3  A    between atoms: C1'_4  and  C1_5 
ROOT
ATOM      1  C1  N4B d   1      -2.389  -3.883   0.985  0.00  0.00    -0.075 A 
ATOM      2  C2  N4B d   1      -1.251  -3.879   1.821  0.00  0.00     0.002 A 
ATOM      3  C3  N4B d   1      -1.018  -4.934   2.668  0.00  0.00     0.002 A 
ATOM      4  C4  N4B d   1      -1.914  -5.991   2.710  0.00  0.00    -0.004 A 
ATOM      5  C5  N4B d   1      -2.998  -6.000   1.881  0.00  0.00     0.002 A 
ATOM      6  C6  N4B d   1      -3.243  -4.948   1.021  0.00  0.00     0.002 A 
ENDROOT
BRANCH   1   7
ATOM      7  C1' N4B d   1      -2.733  -2.713   0.104  0.00  0.00     0.057 C 
BRANCH   7   8
ATOM      8  C2' N4B d   1      -1.751  -2.659  -1.063  0.00  0.00     0.009 C 
BRANCH   8   9
ATOM      9  C3' N4B d   1      -2.410  -3.036  -2.378  0.00  0.00     0.004 C 
ATOM     10  C4' N4B d   1      -1.573  -2.680  -3.570  0.00  0.00     0.003 C 
ENDBRANCH   8   9
ENDBRANCH   7   8
ENDBRANCH   1   7
TORSDOF 3
ENDMDL
