MODEL 1
REMARK minimizedAffinity 15.3386536
REMARK minimizedRMSD -1
REMARK  3 active torsions:
REMARK  status: ('A' for Active; 'I' for Inactive)
REMARK    1  A    between atoms: C3'_2  and  C2'_3 
REMARK    2  A    between atoms: C2'_3  and  C1'_4 
REMARK    3  A    between atoms: C1'_4  and  C1_5 
ROOT
ATOM      1  C1  N4B d   1      -1.987  -3.769   1.343  0.00  0.00    -0.075 A 
ATOM      2  C2  N4B d   1      -1.179  -3.770   2.501  0.00  0.00     0.002 A 
ATOM      3  C3  N4B d   1      -1.128  -4.885   3.301  0.00  0.00     0.002 A 
ATOM      4  C4  N4B d   1      -1.886  -5.999   2.975  0.00  0.00    -0.004 A 
ATOM      5  C5  N4B d   1      -2.644  -5.999   1.841  0.00  0.00     0.002 A 
ATOM      6  C6  N4B d   1      -2.703  -4.887   1.025  0.00  0.00     0.002 A 
ENDROOT
BRANCH   1   7
ATOM      7  C1' N4B d   1      -2.142  -2.544   0.484  0.00  0.00     0.057 C 
BRANCH   7   8
ATOM      8  C2' N4B d   1      -0.804  -2.222  -0.175  0.00  0.00     0.009 C 
BRANCH   8   9
ATOM      9  C3' N4B d   1      -0.981  -1.453  -1.473  0.00  0.00     0.004 C 
ATOM     10  C4' N4B d   1      -1.850  -2.172  -2.461  0.00  0.00     0.003 C 
ENDBRANCH   8   9
ENDBRANCH   7   8
ENDBRANCH   1   7
TORSDOF 3
ENDMDL
