MODEL 1
REMARK minimizedAffinity 27.9487286
REMARK minimizedRMSD -1
REMARK  1 active torsions:
REMARK  status: ('A' for Active; 'I' for Inactive)
REMARK    1  A    between atoms: C1_2  and  C2_3 
ROOT
ATOM      1  C2  UNL d   1      -1.108  -2.002  -1.341  0.00  0.00    -0.076 A 
ATOM      2  C3  UNL d   1      -1.350  -3.380  -1.478  0.00  0.00     0.004 A 
ATOM      3  C4  UNL d   1      -0.550  -4.170  -2.302  0.00  0.00    -0.003 A 
ATOM      4  C5  UNL d   1       0.506  -3.595  -3.001  0.00  0.00     0.000 A 
ATOM      5  C6  UNL d   1       0.771  -2.234  -2.862  0.00  0.00     0.000 A 
ATOM      6  C7  UNL d   1      -0.016  -1.426  -2.023  0.00  0.00    -0.073 A 
ATOM      7  C8  UNL d   1       0.312   0.038  -1.916  0.00  0.00     0.078 C 
ENDROOT
BRANCH   1   8
ATOM      8  C1  UNL d   1      -2.026  -1.190  -0.454  0.00  0.00     0.053 C 
ATOM      9  C   UNL d   1      -2.267  -1.851   0.894  0.00  0.00     0.018 C 
ENDBRANCH   1   8
TORSDOF 1
ENDMDL
