MODEL 1
REMARK minimizedAffinity 21.1394596
REMARK minimizedRMSD -1
REMARK  1 active torsions:
REMARK  status: ('A' for Active; 'I' for Inactive)
REMARK    1  A    between atoms: C1_2  and  C2_3 
ROOT
ATOM      1  C2  UNL d   1      -3.892  -0.954   1.212  0.00  0.00    -0.076 A 
ATOM      2  C3  UNL d   1      -4.401  -0.348   2.373  0.00  0.00     0.004 A 
ATOM      3  C4  UNL d   1      -3.584   0.429   3.194  0.00  0.00    -0.003 A 
ATOM      4  C5  UNL d   1      -2.245   0.612   2.865  0.00  0.00     0.000 A 
ATOM      5  C6  UNL d   1      -1.728   0.032   1.707  0.00  0.00     0.000 A 
ATOM      6  C7  UNL d   1      -2.542  -0.740   0.861  0.00  0.00    -0.073 A 
ATOM      7  C8  UNL d   1      -1.930  -1.346  -0.373  0.00  0.00     0.078 C 
ENDROOT
BRANCH   1   8
ATOM      8  C1  UNL d   1      -4.819  -1.807   0.375  0.00  0.00     0.053 C 
ATOM      9  C   UNL d   1      -6.000  -2.339   1.172  0.00  0.00     0.018 C 
ENDBRANCH   1   8
TORSDOF 1
ENDMDL
