MODEL 1
REMARK minimizedAffinity 11.9274569
REMARK minimizedRMSD -1
REMARK  1 active torsions:
REMARK  status: ('A' for Active; 'I' for Inactive)
REMARK    1  A    between atoms: C1_2  and  C2_3 
ROOT
ATOM      1  C2  UNL d   1       0.015   3.700  -1.089  0.00  0.00    -0.076 A 
ATOM      2  C3  UNL d   1      -1.360   3.940  -0.920  0.00  0.00     0.004 A 
ATOM      3  C4  UNL d   1      -1.813   5.080  -0.260  0.00  0.00    -0.003 A 
ATOM      4  C5  UNL d   1      -0.899   6.000   0.243  0.00  0.00     0.000 A 
ATOM      5  C6  UNL d   1       0.468   5.787   0.069  0.00  0.00     0.000 A 
ATOM      6  C7  UNL d   1       0.941   4.650  -0.609  0.00  0.00    -0.073 A 
ATOM      7  C8  UNL d   1       2.427   4.468  -0.762  0.00  0.00     0.078 C 
ENDROOT
BRANCH   1   8
ATOM      8  C1  UNL d   1       0.449   2.432  -1.790  0.00  0.00     0.053 C 
ATOM      9  C   UNL d   1       1.087   1.430  -0.840  0.00  0.00     0.018 C 
ENDBRANCH   1   8
TORSDOF 1
ENDMDL
