MODEL 1
REMARK minimizedAffinity 20.3405972
REMARK minimizedRMSD -1
REMARK  1 active torsions:
REMARK  status: ('A' for Active; 'I' for Inactive)
REMARK    1  A    between atoms: C1_2  and  C2_3 
ROOT
ATOM      1  C2  UNL d   1      -0.985  -0.967  -0.954  0.00  0.00    -0.076 A 
ATOM      2  C3  UNL d   1      -0.294   0.243  -0.764  0.00  0.00     0.004 A 
ATOM      3  C4  UNL d   1       1.036   0.379  -1.156  0.00  0.00    -0.003 A 
ATOM      4  C5  UNL d   1       1.698  -0.692  -1.746  0.00  0.00     0.000 A 
ATOM      5  C6  UNL d   1       1.024  -1.894  -1.959  0.00  0.00     0.000 A 
ATOM      6  C7  UNL d   1      -0.323  -2.043  -1.584  0.00  0.00    -0.073 A 
ATOM      7  C8  UNL d   1      -0.999  -3.363  -1.831  0.00  0.00     0.078 C 
ENDROOT
BRANCH   1   8
ATOM      8  C1  UNL d   1      -2.418  -1.064  -0.484  0.00  0.00     0.053 C 
ATOM      9  C   UNL d   1      -2.537  -1.040   1.032  0.00  0.00     0.018 C 
ENDBRANCH   1   8
TORSDOF 1
ENDMDL
