MODEL 1
REMARK minimizedAffinity 20.2074699
REMARK minimizedRMSD -1
REMARK  1 active torsions:
REMARK  status: ('A' for Active; 'I' for Inactive)
REMARK    1  A    between atoms: C1_2  and  C2_3 
ROOT
ATOM      1  C2  UNL d   1       3.771   0.472  -2.212  0.00  0.00    -0.076 A 
ATOM      2  C3  UNL d   1       3.129   1.430  -3.015  0.00  0.00     0.004 A 
ATOM      3  C4  UNL d   1       1.745   1.593  -2.971  0.00  0.00    -0.003 A 
ATOM      4  C5  UNL d   1       0.981   0.800  -2.122  0.00  0.00     0.000 A 
ATOM      5  C6  UNL d   1       1.603  -0.144  -1.305  0.00  0.00     0.000 A 
ATOM      6  C7  UNL d   1       2.998  -0.310  -1.326  0.00  0.00    -0.073 A 
ATOM      7  C8  UNL d   1       3.616  -1.347  -0.428  0.00  0.00     0.078 C 
ENDROOT
BRANCH   1   8
ATOM      8  C1  UNL d   1       5.271   0.322  -2.323  0.00  0.00     0.053 C 
ATOM      9  C   UNL d   1       5.864   1.188  -3.423  0.00  0.00     0.018 C 
ENDBRANCH   1   8
TORSDOF 1
ENDMDL
