MODEL 1
REMARK minimizedAffinity 20.4267998
REMARK minimizedRMSD -1
REMARK  1 active torsions:
REMARK  status: ('A' for Active; 'I' for Inactive)
REMARK    1  A    between atoms: C1_2  and  C2_3 
ROOT
ATOM      1  C2  UNL d   1       3.986   4.395   0.724  0.00  0.00    -0.076 A 
ATOM      2  C3  UNL d   1       2.662   4.561   1.166  0.00  0.00     0.004 A 
ATOM      3  C4  UNL d   1       1.639   4.870   0.271  0.00  0.00    -0.003 A 
ATOM      4  C5  UNL d   1       1.924   5.017  -1.082  0.00  0.00     0.000 A 
ATOM      5  C6  UNL d   1       3.229   4.838  -1.541  0.00  0.00     0.000 A 
ATOM      6  C7  UNL d   1       4.268   4.510  -0.654  0.00  0.00    -0.073 A 
ATOM      7  C8  UNL d   1       5.658   4.335  -1.203  0.00  0.00     0.078 C 
ENDROOT
BRANCH   1   8
ATOM      8  C1  UNL d   1       5.058   4.087   1.745  0.00  0.00     0.053 C 
ATOM      9  C   UNL d   1       4.785   4.741   3.091  0.00  0.00     0.018 C 
ENDBRANCH   1   8
TORSDOF 1
ENDMDL
