MODEL 1
REMARK minimizedAffinity -0.467705965
REMARK minimizedRMSD -1
REMARK  1 active torsions:
REMARK  status: ('A' for Active; 'I' for Inactive)
REMARK    1  A    between atoms: C1_2  and  C2_3 
ROOT
ATOM      1  C2  UNL d   1       4.010   5.279   0.399  0.00  0.00    -0.076 A 
ATOM      2  C3  UNL d   1       5.271   5.264  -0.221  0.00  0.00     0.004 A 
ATOM      3  C4  UNL d   1       5.413   5.602  -1.566  0.00  0.00    -0.003 A 
ATOM      4  C5  UNL d   1       4.296   5.961  -2.312  0.00  0.00     0.000 A 
ATOM      5  C6  UNL d   1       3.040   5.998  -1.709  0.00  0.00     0.000 A 
ATOM      6  C7  UNL d   1       2.881   5.676  -0.350  0.00  0.00    -0.073 A 
ATOM      7  C8  UNL d   1       1.502   5.726   0.248  0.00  0.00     0.078 C 
ENDROOT
BRANCH   1   8
ATOM      8  C1  UNL d   1       3.913   4.876   1.853  0.00  0.00     0.053 C 
ATOM      9  C   UNL d   1       5.115   5.333   2.665  0.00  0.00     0.018 C 
ENDBRANCH   1   8
TORSDOF 1
ENDMDL
