MODEL 1
REMARK minimizedAffinity 20.3459091
REMARK minimizedRMSD -1
REMARK  1 active torsions:
REMARK  status: ('A' for Active; 'I' for Inactive)
REMARK    1  A    between atoms: C1_2  and  C2_3 
ROOT
ATOM      1  C2  UNL d   1      -4.246   4.316   4.289  0.00  0.00    -0.076 A 
ATOM      2  C3  UNL d   1      -2.940   3.797   4.327  0.00  0.00     0.004 A 
ATOM      3  C4  UNL d   1      -1.974   4.349   5.166  0.00  0.00    -0.003 A 
ATOM      4  C5  UNL d   1      -2.297   5.427   5.982  0.00  0.00     0.000 A 
ATOM      5  C6  UNL d   1      -3.592   5.944   5.970  0.00  0.00     0.000 A 
ATOM      6  C7  UNL d   1      -4.583   5.389   5.142  0.00  0.00    -0.073 A 
ATOM      7  C8  UNL d   1      -5.962   5.990   5.165  0.00  0.00     0.078 C 
ENDROOT
BRANCH   1   8
ATOM      8  C1  UNL d   1      -5.245   3.695   3.339  0.00  0.00     0.053 C 
ATOM      9  C   UNL d   1      -5.429   4.512   2.070  0.00  0.00     0.018 C 
ENDBRANCH   1   8
TORSDOF 1
ENDMDL
