MODEL 1
REMARK minimizedAffinity 24.4643307
REMARK minimizedRMSD -1
REMARK  1 active torsions:
REMARK  status: ('A' for Active; 'I' for Inactive)
REMARK    1  A    between atoms: C1_2  and  C2_3 
ROOT
ATOM      1  C2  UNL d   1       3.273   0.618  -1.855  0.00  0.00    -0.076 A 
ATOM      2  C3  UNL d   1       3.734   1.296  -2.997  0.00  0.00     0.004 A 
ATOM      3  C4  UNL d   1       5.086   1.296  -3.334  0.00  0.00    -0.003 A 
ATOM      4  C5  UNL d   1       6.000   0.618  -2.536  0.00  0.00     0.000 A 
ATOM      5  C6  UNL d   1       5.558  -0.075  -1.409  0.00  0.00     0.000 A 
ATOM      6  C7  UNL d   1       4.196  -0.099  -1.063  0.00  0.00    -0.073 A 
ATOM      7  C8  UNL d   1       3.776  -0.857   0.166  0.00  0.00     0.078 C 
ENDROOT
BRANCH   1   8
ATOM      8  C1  UNL d   1       1.799   0.676  -1.523  0.00  0.00     0.053 C 
ATOM      9  C   UNL d   1       1.047  -0.561  -1.993  0.00  0.00     0.018 C 
ENDBRANCH   1   8
TORSDOF 1
ENDMDL
