MODEL 1
REMARK minimizedAffinity 13.0255051
REMARK minimizedRMSD -1
REMARK  1 active torsions:
REMARK  status: ('A' for Active; 'I' for Inactive)
REMARK    1  A    between atoms: C1_2  and  C2_3 
ROOT
ATOM      1  C2  UNL d   1      -4.146   0.035   3.452  0.00  0.00    -0.076 A 
ATOM      2  C3  UNL d   1      -5.319  -0.727   3.593  0.00  0.00     0.004 A 
ATOM      3  C4  UNL d   1      -6.000  -0.778   4.808  0.00  0.00    -0.003 A 
ATOM      4  C5  UNL d   1      -5.519  -0.066   5.901  0.00  0.00     0.000 A 
ATOM      5  C6  UNL d   1      -4.367   0.709   5.775  0.00  0.00     0.000 A 
ATOM      6  C7  UNL d   1      -3.678   0.784   4.553  0.00  0.00    -0.073 A 
ATOM      7  C8  UNL d   1      -2.437   1.631   4.474  0.00  0.00     0.078 C 
ENDROOT
BRANCH   1   8
ATOM      8  C1  UNL d   1      -3.435   0.030   2.117  0.00  0.00     0.053 C 
ATOM      9  C   UNL d   1      -3.120  -1.376   1.630  0.00  0.00     0.018 C 
ENDBRANCH   1   8
TORSDOF 1
ENDMDL
