MODEL 1
REMARK minimizedAffinity 1.23509979
REMARK minimizedRMSD -1
REMARK  1 active torsions:
REMARK  status: ('A' for Active; 'I' for Inactive)
REMARK    1  A    between atoms: C1_2  and  C2_3 
ROOT
ATOM      1  C2  UNL d   1       4.936  -3.596   4.892  0.00  0.00    -0.076 A 
ATOM      2  C3  UNL d   1       5.932  -2.842   5.537  0.00  0.00     0.004 A 
ATOM      3  C4  UNL d   1       5.915  -1.449   5.500  0.00  0.00    -0.003 A 
ATOM      4  C5  UNL d   1       4.902  -0.786   4.817  0.00  0.00     0.000 A 
ATOM      5  C6  UNL d   1       3.895  -1.517   4.187  0.00  0.00     0.000 A 
ATOM      6  C7  UNL d   1       3.888  -2.922   4.228  0.00  0.00    -0.073 A 
ATOM      7  C8  UNL d   1       2.782  -3.659   3.526  0.00  0.00     0.078 C 
ENDROOT
BRANCH   1   8
ATOM      8  C1  UNL d   1       5.021  -5.104   4.944  0.00  0.00     0.053 C 
ATOM      9  C   UNL d   1       5.999  -5.597   5.999  0.00  0.00     0.018 C 
ENDBRANCH   1   8
TORSDOF 1
ENDMDL
