MODEL 1
REMARK minimizedAffinity 7.83546114
REMARK minimizedRMSD -1
REMARK  1 active torsions:
REMARK  status: ('A' for Active; 'I' for Inactive)
REMARK    1  A    between atoms: C1_2  and  C2_3 
ROOT
ATOM      1  C2  UNL d   1       1.474  -0.212  -2.276  0.00  0.00    -0.076 A 
ATOM      2  C3  UNL d   1       0.504   0.483  -3.019  0.00  0.00     0.004 A 
ATOM      3  C4  UNL d   1       0.544   1.872  -3.128  0.00  0.00    -0.003 A 
ATOM      4  C5  UNL d   1       1.554   2.589  -2.497  0.00  0.00     0.000 A 
ATOM      5  C6  UNL d   1       2.534   1.914  -1.770  0.00  0.00     0.000 A 
ATOM      6  C7  UNL d   1       2.518   0.513  -1.663  0.00  0.00    -0.073 A 
ATOM      7  C8  UNL d   1       3.597  -0.163  -0.862  0.00  0.00     0.078 C 
ENDROOT
BRANCH   1   8
ATOM      8  C1  UNL d   1       1.364  -1.716  -2.170  0.00  0.00     0.053 C 
ATOM      9  C   UNL d   1       0.682  -2.337  -3.379  0.00  0.00     0.018 C 
ENDBRANCH   1   8
TORSDOF 1
ENDMDL
