MODEL 1
REMARK minimizedAffinity 19.7509594
REMARK minimizedRMSD -1
REMARK  0 active torsions:
REMARK  status: ('A' for Active; 'I' for Inactive)
ROOT
ATOM      1  C   UNL d   1      -1.522   5.412  -5.859  0.00  0.00     0.020 A 
ATOM      2  C1  UNL d   1      -1.508   4.023  -5.982  0.00  0.00     0.020 A 
ATOM      3  C2  UNL d   1      -1.810   3.221  -4.879  0.00  0.00     0.034 A 
ATOM      4  C3  UNL d   1      -2.126   3.808  -3.648  0.00  0.00     0.017 A 
ATOM      5  C4  UNL d   1      -2.140   5.202  -3.526  0.00  0.00     0.017 A 
ATOM      6  C5  UNL d   1      -1.838   6.000  -4.634  0.00  0.00     0.034 A 
ATOM      7 Cl   UNL d   1      -2.522   5.999  -2.040  0.00  0.00    -0.070 Cl
ATOM      8 Cl1  UNL d   1      -2.489   2.756  -2.326  0.00  0.00    -0.070 Cl
ENDROOT
TORSDOF 0
ENDMDL
