MODEL 1
REMARK minimizedAffinity 11.1464138
REMARK minimizedRMSD -1
REMARK  0 active torsions:
REMARK  status: ('A' for Active; 'I' for Inactive)
ROOT
ATOM      1  C   UNL d   1       0.736  -1.604   2.034  0.00  0.00     0.020 A 
ATOM      2  C1  UNL d   1      -0.068  -2.640   1.560  0.00  0.00     0.020 A 
ATOM      3  C2  UNL d   1      -1.219  -3.007   2.261  0.00  0.00     0.034 A 
ATOM      4  C3  UNL d   1      -1.569  -2.337   3.439  0.00  0.00     0.017 A 
ATOM      5  C4  UNL d   1      -0.761  -1.297   3.913  0.00  0.00     0.017 A 
ATOM      6  C5  UNL d   1       0.390  -0.934   3.208  0.00  0.00     0.034 A 
ATOM      7 Cl   UNL d   1      -1.128  -0.425   5.359  0.00  0.00    -0.070 Cl
ATOM      8 Cl1  UNL d   1      -3.006  -2.843   4.254  0.00  0.00    -0.070 Cl
ENDROOT
TORSDOF 0
ENDMDL
