MODEL 1
REMARK minimizedAffinity 5.46107769
REMARK minimizedRMSD -1
REMARK  0 active torsions:
REMARK  status: ('A' for Active; 'I' for Inactive)
ROOT
ATOM      1  C   UNL d   1      -4.247  -5.780  -0.627  0.00  0.00     0.020 A 
ATOM      2  C1  UNL d   1      -5.543  -5.269  -0.678  0.00  0.00     0.020 A 
ATOM      3  C2  UNL d   1      -5.941  -4.281   0.227  0.00  0.00     0.034 A 
ATOM      4  C3  UNL d   1      -5.041  -3.802   1.186  0.00  0.00     0.017 A 
ATOM      5  C4  UNL d   1      -3.740  -4.316   1.236  0.00  0.00     0.017 A 
ATOM      6  C5  UNL d   1      -3.347  -5.304   0.328  0.00  0.00     0.034 A 
ATOM      7 Cl   UNL d   1      -2.574  -3.774   2.391  0.00  0.00    -0.070 Cl
ATOM      8 Cl1  UNL d   1      -5.600  -2.580   2.272  0.00  0.00    -0.070 Cl
ENDROOT
TORSDOF 0
ENDMDL
