MODEL 1
REMARK minimizedAffinity 18.1034756
REMARK minimizedRMSD -1
REMARK  0 active torsions:
REMARK  status: ('A' for Active; 'I' for Inactive)
ROOT
ATOM      1  C   UNL d   1       0.392   2.612  -0.824  0.00  0.00     0.020 A 
ATOM      2  C1  UNL d   1      -0.434   2.451   0.287  0.00  0.00     0.020 A 
ATOM      3  C2  UNL d   1      -1.817   2.595   0.156  0.00  0.00     0.034 A 
ATOM      4  C3  UNL d   1      -2.378   2.901  -1.089  0.00  0.00     0.017 A 
ATOM      5  C4  UNL d   1      -1.548   3.061  -2.204  0.00  0.00     0.017 A 
ATOM      6  C5  UNL d   1      -0.164   2.916  -2.068  0.00  0.00     0.034 A 
ATOM      7 Cl   UNL d   1      -2.167   3.438  -3.773  0.00  0.00    -0.070 Cl
ATOM      8 Cl1  UNL d   1      -4.096   3.064  -1.178  0.00  0.00    -0.070 Cl
ENDROOT
TORSDOF 0
ENDMDL
