MODEL 1
REMARK minimizedAffinity 15.5314589
REMARK minimizedRMSD -1
REMARK  0 active torsions:
REMARK  status: ('A' for Active; 'I' for Inactive)
ROOT
ATOM      1  C   UNL d   1      -3.111   3.601  -1.888  0.00  0.00     0.020 A 
ATOM      2  C1  UNL d   1      -2.703   2.958  -3.056  0.00  0.00     0.020 A 
ATOM      3  C2  UNL d   1      -1.375   2.553  -3.203  0.00  0.00     0.034 A 
ATOM      4  C3  UNL d   1      -0.449   2.790  -2.180  0.00  0.00     0.017 A 
ATOM      5  C4  UNL d   1      -0.860   3.435  -1.007  0.00  0.00     0.017 A 
ATOM      6  C5  UNL d   1      -2.191   3.838  -0.866  0.00  0.00     0.034 A 
ATOM      7 Cl   UNL d   1       0.224   3.762   0.299  0.00  0.00    -0.070 Cl
ATOM      8 Cl1  UNL d   1       1.177   2.262  -2.429  0.00  0.00    -0.070 Cl
ENDROOT
TORSDOF 0
ENDMDL
