MODEL 1
REMARK minimizedAffinity 9.1250782
REMARK minimizedRMSD -1
REMARK  0 active torsions:
REMARK  status: ('A' for Active; 'I' for Inactive)
ROOT
ATOM      1  C   UNL d   1      -3.259  -5.999   1.163  0.00  0.00     0.020 A 
ATOM      2  C1  UNL d   1      -4.419  -5.711   0.446  0.00  0.00     0.020 A 
ATOM      3  C2  UNL d   1      -5.040  -4.468   0.593  0.00  0.00     0.034 A 
ATOM      4  C3  UNL d   1      -4.500  -3.510   1.459  0.00  0.00     0.017 A 
ATOM      5  C4  UNL d   1      -3.336  -3.801   2.179  0.00  0.00     0.017 A 
ATOM      6  C5  UNL d   1      -2.718  -5.047   2.027  0.00  0.00     0.034 A 
ATOM      7 Cl   UNL d   1      -2.611  -2.670   3.266  0.00  0.00    -0.070 Cl
ATOM      8 Cl1  UNL d   1      -5.320  -1.995   1.591  0.00  0.00    -0.070 Cl
ENDROOT
TORSDOF 0
ENDMDL
