MODEL 1
REMARK minimizedAffinity 2.64112997
REMARK minimizedRMSD -1
REMARK  0 active torsions:
REMARK  status: ('A' for Active; 'I' for Inactive)
ROOT
ATOM      1  C   UNL d   1       0.281  -0.634   3.163  0.00  0.00     0.020 A 
ATOM      2  C1  UNL d   1       0.183  -0.296   4.512  0.00  0.00     0.020 A 
ATOM      3  C2  UNL d   1      -0.792  -0.894   5.313  0.00  0.00     0.034 A 
ATOM      4  C3  UNL d   1      -1.674  -1.832   4.765  0.00  0.00     0.017 A 
ATOM      5  C4  UNL d   1      -1.576  -2.171   3.411  0.00  0.00     0.017 A 
ATOM      6  C5  UNL d   1      -0.597  -1.570   2.614  0.00  0.00     0.034 A 
ATOM      7 Cl   UNL d   1      -2.629  -3.321   2.664  0.00  0.00    -0.070 Cl
ATOM      8 Cl1  UNL d   1      -2.856  -2.532   5.814  0.00  0.00    -0.070 Cl
ENDROOT
TORSDOF 0
ENDMDL
