MODEL 1
REMARK minimizedAffinity 9.34629822
REMARK minimizedRMSD -1
REMARK  0 active torsions:
REMARK  status: ('A' for Active; 'I' for Inactive)
ROOT
ATOM      1  C   UNL d   1       0.476  -0.888   2.919  0.00  0.00     0.020 A 
ATOM      2  C1  UNL d   1       1.029   0.039   3.801  0.00  0.00     0.020 A 
ATOM      3  C2  UNL d   1       2.366   0.419   3.667  0.00  0.00     0.034 A 
ATOM      4  C3  UNL d   1       3.155  -0.128   2.648  0.00  0.00     0.017 A 
ATOM      5  C4  UNL d   1       2.599  -1.059   1.763  0.00  0.00     0.017 A 
ATOM      6  C5  UNL d   1       1.259  -1.436   1.902  0.00  0.00     0.034 A 
ATOM      7 Cl   UNL d   1       3.508  -1.778   0.481  0.00  0.00    -0.070 Cl
ATOM      8 Cl1  UNL d   1       4.801   0.387   2.540  0.00  0.00    -0.070 Cl
ENDROOT
TORSDOF 0
ENDMDL
