MODEL 1
REMARK minimizedAffinity 21.3605499
REMARK minimizedRMSD -1
REMARK  0 active torsions:
REMARK  status: ('A' for Active; 'I' for Inactive)
ROOT
ATOM      1  C   UNL d   1       1.142   0.067   4.048  0.00  0.00     0.020 A 
ATOM      2  C1  UNL d   1       2.509   0.337   4.010  0.00  0.00     0.020 A 
ATOM      3  C2  UNL d   1       3.276  -0.094   2.925  0.00  0.00     0.034 A 
ATOM      4  C3  UNL d   1       2.677  -0.799   1.875  0.00  0.00     0.017 A 
ATOM      5  C4  UNL d   1       1.304  -1.070   1.914  0.00  0.00     0.017 A 
ATOM      6  C5  UNL d   1       0.541  -0.635   3.003  0.00  0.00     0.034 A 
ATOM      7 Cl   UNL d   1       0.494  -1.934   0.656  0.00  0.00    -0.070 Cl
ATOM      8 Cl1  UNL d   1       3.686  -1.302   0.566  0.00  0.00    -0.070 Cl
ENDROOT
TORSDOF 0
ENDMDL
