MODEL 1
REMARK minimizedAffinity 9.92938328
REMARK minimizedRMSD -1
REMARK  0 active torsions:
REMARK  status: ('A' for Active; 'I' for Inactive)
ROOT
ATOM      1  C   UNL d   1       2.788  -1.079   1.854  0.00  0.00     0.020 A 
ATOM      2  C1  UNL d   1       1.474  -1.318   1.455  0.00  0.00     0.020 A 
ATOM      3  C2  UNL d   1       0.415  -0.981   2.300  0.00  0.00     0.034 A 
ATOM      4  C3  UNL d   1       0.668  -0.402   3.549  0.00  0.00     0.017 A 
ATOM      5  C4  UNL d   1       1.987  -0.161   3.949  0.00  0.00     0.017 A 
ATOM      6  C5  UNL d   1       3.044  -0.501   3.099  0.00  0.00     0.034 A 
ATOM      7 Cl   UNL d   1       2.378   0.550   5.475  0.00  0.00    -0.070 Cl
ATOM      8 Cl1  UNL d   1      -0.690  -0.010   4.542  0.00  0.00    -0.070 Cl
ENDROOT
TORSDOF 0
ENDMDL
