MODEL 1
REMARK minimizedAffinity 11.0699644
REMARK minimizedRMSD -1
REMARK  0 active torsions:
REMARK  status: ('A' for Active; 'I' for Inactive)
ROOT
ATOM      1  C   UNL d   1      -2.593   1.968  -1.761  0.00  0.00     0.020 A 
ATOM      2  C1  UNL d   1      -1.545   2.005  -2.680  0.00  0.00     0.020 A 
ATOM      3  C2  UNL d   1      -1.243   3.194  -3.346  0.00  0.00     0.034 A 
ATOM      4  C3  UNL d   1      -1.988   4.352  -3.095  0.00  0.00     0.017 A 
ATOM      5  C4  UNL d   1      -3.040   4.314  -2.172  0.00  0.00     0.017 A 
ATOM      6  C5  UNL d   1      -3.339   3.120  -1.508  0.00  0.00     0.034 A 
ATOM      7 Cl   UNL d   1      -4.005   5.701  -1.809  0.00  0.00    -0.070 Cl
ATOM      8 Cl1  UNL d   1      -1.558   5.787  -3.955  0.00  0.00    -0.070 Cl
ENDROOT
TORSDOF 0
ENDMDL
