MODEL 1
REMARK minimizedAffinity 15.9681311
REMARK minimizedRMSD -1
REMARK  0 active torsions:
REMARK  status: ('A' for Active; 'I' for Inactive)
ROOT
ATOM      1  C   UNL d   1      -1.988   2.993  -3.810  0.00  0.00     0.020 A 
ATOM      2  C1  UNL d   1      -1.721   4.067  -2.962  0.00  0.00     0.020 A 
ATOM      3  C2  UNL d   1      -2.664   4.455  -2.007  0.00  0.00     0.034 A 
ATOM      4  C3  UNL d   1      -3.879   3.768  -1.899  0.00  0.00     0.017 A 
ATOM      5  C4  UNL d   1      -4.146   2.690  -2.751  0.00  0.00     0.017 A 
ATOM      6  C5  UNL d   1      -3.198   2.306  -3.705  0.00  0.00     0.034 A 
ATOM      7 Cl   UNL d   1      -5.623   1.795  -2.677  0.00  0.00    -0.070 Cl
ATOM      8 Cl1  UNL d   1      -4.999   4.302  -0.697  0.00  0.00    -0.070 Cl
ENDROOT
TORSDOF 0
ENDMDL
