MODEL 1
REMARK minimizedAffinity 0.931159437
REMARK minimizedRMSD -1
REMARK  0 active torsions:
REMARK  status: ('A' for Active; 'I' for Inactive)
ROOT
ATOM      1  C   UNL d   1      -0.868  -0.630   1.441  0.00  0.00     0.020 A 
ATOM      2  C1  UNL d   1      -0.982   0.587   0.772  0.00  0.00     0.020 A 
ATOM      3  C2  UNL d   1       0.118   1.116   0.092  0.00  0.00     0.034 A 
ATOM      4  C3  UNL d   1       1.336   0.426   0.080  0.00  0.00     0.017 A 
ATOM      5  C4  UNL d   1       1.449  -0.796   0.753  0.00  0.00     0.017 A 
ATOM      6  C5  UNL d   1       0.345  -1.320   1.432  0.00  0.00     0.034 A 
ATOM      7 Cl   UNL d   1       2.919  -1.704   0.783  0.00  0.00    -0.070 Cl
ATOM      8 Cl1  UNL d   1       2.654   1.138  -0.781  0.00  0.00    -0.070 Cl
ENDROOT
TORSDOF 0
ENDMDL
