MODEL 1
REMARK minimizedAffinity 9.50570679
REMARK minimizedRMSD -1
REMARK  1 active torsions:
REMARK  status: ('A' for Active; 'I' for Inactive)
REMARK    1  A    between atoms: N_2  and  C1_3 
ROOT
ATOM      1  C1  UNL d   1       0.825   2.733   1.513  0.00  0.00     0.143 A 
ATOM      2  C2  UNL d   1       1.537   2.320   2.644  0.00  0.00    -0.057 A 
ATOM      3  C3  UNL d   1       2.297   3.225   3.394  0.00  0.00     0.033 A 
ATOM      4  C4  UNL d   1       2.382   4.559   3.008  0.00  0.00    -0.042 A 
ATOM      5  C5  UNL d   1       1.703   4.987   1.873  0.00  0.00     0.033 A 
ATOM      6  C6  UNL d   1       0.940   4.079   1.132  0.00  0.00    -0.057 A 
ENDROOT
BRANCH   1   7
ATOM      7  N   UNL d   1       0.132   1.862   0.669  0.00  0.00    -0.732 N 
ATOM      8  C   UNL d   1       0.467   0.455   0.626  0.00  0.00     0.284 C 
ATOM      9  H3  UNL d   1      -0.868   2.051   0.652  0.00  0.00     0.395 HD
ENDBRANCH   1   7
TORSDOF 1
ENDMDL
