MODEL 1
REMARK minimizedAffinity 11.3881426
REMARK minimizedRMSD -1
REMARK  1 active torsions:
REMARK  status: ('A' for Active; 'I' for Inactive)
REMARK    1  A    between atoms: N_2  and  C1_3 
ROOT
ATOM      1  C1  UNL d   1      -0.963   0.117  -1.243  0.00  0.00     0.143 A 
ATOM      2  C2  UNL d   1      -1.661   0.970  -0.381  0.00  0.00    -0.057 A 
ATOM      3  C3  UNL d   1      -1.254   1.151   0.946  0.00  0.00     0.033 A 
ATOM      4  C4  UNL d   1      -0.155   0.459   1.445  0.00  0.00    -0.042 A 
ATOM      5  C5  UNL d   1       0.538  -0.413   0.613  0.00  0.00     0.033 A 
ATOM      6  C6  UNL d   1       0.131  -0.585  -0.714  0.00  0.00    -0.057 A 
ENDROOT
BRANCH   1   7
ATOM      7  N   UNL d   1      -1.375  -0.181  -2.544  0.00  0.00    -0.732 N 
ATOM      8  C   UNL d   1      -2.450  -1.121  -2.780  0.00  0.00     0.284 C 
ATOM      9  H3  UNL d   1      -1.406   0.643  -3.141  0.00  0.00     0.395 HD
ENDBRANCH   1   7
TORSDOF 1
ENDMDL
