MODEL 1
REMARK minimizedAffinity -2.56967854
REMARK minimizedRMSD -1
REMARK  1 active torsions:
REMARK  status: ('A' for Active; 'I' for Inactive)
REMARK    1  A    between atoms: N_2  and  C1_3 
ROOT
ATOM      1  C1  UNL d   1       0.492   4.146   0.618  0.00  0.00     0.143 A 
ATOM      2  C2  UNL d   1       0.486   4.131  -0.780  0.00  0.00    -0.057 A 
ATOM      3  C3  UNL d   1      -0.564   3.543  -1.496  0.00  0.00     0.033 A 
ATOM      4  C4  UNL d   1      -1.617   2.932  -0.822  0.00  0.00    -0.042 A 
ATOM      5  C5  UNL d   1      -1.619   2.913   0.569  0.00  0.00     0.033 A 
ATOM      6  C6  UNL d   1      -0.571   3.508   1.277  0.00  0.00    -0.057 A 
ENDROOT
BRANCH   1   7
ATOM      7  N   UNL d   1       1.555   4.628   1.387  0.00  0.00    -0.732 N 
ATOM      8  C   UNL d   1       2.251   3.758   2.310  0.00  0.00     0.284 C 
ATOM      9  H3  UNL d   1       2.165   5.248   0.859  0.00  0.00     0.395 HD
ENDBRANCH   1   7
TORSDOF 1
ENDMDL
