MODEL 1
REMARK minimizedAffinity -0.82891798
REMARK minimizedRMSD -1
REMARK  1 active torsions:
REMARK  status: ('A' for Active; 'I' for Inactive)
REMARK    1  A    between atoms: N_2  and  C1_3 
ROOT
ATOM      1  C1  UNL d   1       1.668   3.870   1.595  0.00  0.00     0.143 A 
ATOM      2  C2  UNL d   1       0.541   3.911   0.767  0.00  0.00    -0.057 A 
ATOM      3  C3  UNL d   1       0.456   4.816  -0.298  0.00  0.00     0.033 A 
ATOM      4  C4  UNL d   1       1.488   5.717  -0.538  0.00  0.00    -0.042 A 
ATOM      5  C5  UNL d   1       2.607   5.711   0.287  0.00  0.00     0.033 A 
ATOM      6  C6  UNL d   1       2.689   4.801   1.346  0.00  0.00    -0.057 A 
ENDROOT
BRANCH   1   7
ATOM      7  N   UNL d   1       1.771   3.061   2.730  0.00  0.00    -0.732 N 
ATOM      8  C   UNL d   1       2.662   3.420   3.812  0.00  0.00     0.284 C 
ATOM      9  H3  UNL d   1       0.868   2.705   3.035  0.00  0.00     0.395 HD
ENDBRANCH   1   7
TORSDOF 1
ENDMDL
