MODEL 1
REMARK minimizedAffinity -1.8750962
REMARK minimizedRMSD -1
REMARK  1 active torsions:
REMARK  status: ('A' for Active; 'I' for Inactive)
REMARK    1  A    between atoms: N_2  and  C1_3 
ROOT
ATOM      1  C1  UNL d   1       0.329   0.759   0.411  0.00  0.00     0.143 A 
ATOM      2  C2  UNL d   1       0.854  -0.487   0.774  0.00  0.00    -0.057 A 
ATOM      3  C3  UNL d   1       1.256  -0.750   2.089  0.00  0.00     0.033 A 
ATOM      4  C4  UNL d   1       1.168   0.241   3.061  0.00  0.00    -0.042 A 
ATOM      5  C5  UNL d   1       0.673   1.494   2.718  0.00  0.00     0.033 A 
ATOM      6  C6  UNL d   1       0.266   1.749   1.404  0.00  0.00    -0.057 A 
ENDROOT
BRANCH   1   7
ATOM      7  N   UNL d   1       0.004   1.113  -0.900  0.00  0.00    -0.732 N 
ATOM      8  C   UNL d   1      -1.300   0.802  -1.446  0.00  0.00     0.284 C 
ATOM      9  H3  UNL d   1       0.349   2.037  -1.150  0.00  0.00     0.395 HD
ENDBRANCH   1   7
TORSDOF 1
ENDMDL
