MODEL 1
REMARK minimizedAffinity 3.25408363
REMARK minimizedRMSD -1
REMARK  1 active torsions:
REMARK  status: ('A' for Active; 'I' for Inactive)
REMARK    1  A    between atoms: N_2  and  C1_3 
ROOT
ATOM      1  C1  UNL d   1      -0.143   0.314  -0.714  0.00  0.00     0.143 A 
ATOM      2  C2  UNL d   1       0.050  -0.214   0.567  0.00  0.00    -0.057 A 
ATOM      3  C3  UNL d   1       1.221  -0.905   0.899  0.00  0.00     0.033 A 
ATOM      4  C4  UNL d   1       2.211  -1.106  -0.057  0.00  0.00    -0.042 A 
ATOM      5  C5  UNL d   1       2.030  -0.612  -1.344  0.00  0.00     0.033 A 
ATOM      6  C6  UNL d   1       0.861   0.083  -1.667  0.00  0.00    -0.057 A 
ENDROOT
BRANCH   1   7
ATOM      7  N   UNL d   1      -1.328   0.925  -1.133  0.00  0.00    -0.732 N 
ATOM      8  C   UNL d   1      -2.567   0.695  -0.422  0.00  0.00     0.284 C 
ATOM      9  H3  UNL d   1      -1.186   1.890  -1.421  0.00  0.00     0.395 HD
ENDBRANCH   1   7
TORSDOF 1
ENDMDL
