MODEL 1
REMARK minimizedAffinity 3.26087546
REMARK minimizedRMSD -1
REMARK  1 active torsions:
REMARK  status: ('A' for Active; 'I' for Inactive)
REMARK    1  A    between atoms: N_2  and  C1_3 
ROOT
ATOM      1  C1  UNL d   1       1.384   3.843   1.560  0.00  0.00     0.143 A 
ATOM      2  C2  UNL d   1       0.203   4.123   0.864  0.00  0.00    -0.057 A 
ATOM      3  C3  UNL d   1       0.196   4.988  -0.237  0.00  0.00     0.033 A 
ATOM      4  C4  UNL d   1       1.370   5.613  -0.645  0.00  0.00    -0.042 A 
ATOM      5  C5  UNL d   1       2.551   5.369   0.046  0.00  0.00     0.033 A 
ATOM      6  C6  UNL d   1       2.552   4.499   1.141  0.00  0.00    -0.057 A 
ENDROOT
BRANCH   1   7
ATOM      7  N   UNL d   1       1.437   3.070   2.722  0.00  0.00    -0.732 N 
ATOM      8  C   UNL d   1       2.367   3.396   3.782  0.00  0.00     0.284 C 
ATOM      9  H3  UNL d   1       0.514   2.796   3.049  0.00  0.00     0.395 HD
ENDBRANCH   1   7
TORSDOF 1
ENDMDL
