MODEL 1
REMARK minimizedAffinity -0.386978686
REMARK minimizedRMSD -1
REMARK  0 active torsions:
REMARK  status: ('A' for Active; 'I' for Inactive)
ROOT
ATOM      1  C   UNL d   1      -2.601  -1.584  -2.559  0.00  0.00     0.124 A 
ATOM      2  C1  UNL d   1      -2.051  -0.440  -3.121  0.00  0.00     0.062 A 
ATOM      3  C2  UNL d   1      -0.916   0.139  -2.560  0.00  0.00     0.162 A 
ATOM      4  C3  UNL d   1      -0.323  -0.425  -1.431  0.00  0.00    -0.034 A 
ATOM      5  C4  UNL d   1      -0.882  -1.575  -0.871  0.00  0.00     0.162 A 
ATOM      6  C5  UNL d   1      -2.016  -2.151  -1.435  0.00  0.00     0.062 A 
ATOM      7  F   UNL d   1      -2.546  -3.256  -0.891  0.00  0.00    -0.097 F 
ATOM      8  F1  UNL d   1      -0.337  -2.144   0.215  0.00  0.00    -0.096 F 
ATOM      9  I   UNL d   1       1.373   0.438  -0.589  0.00  0.00    -0.060 I 
ATOM     10  F2  UNL d   1      -0.407   1.244  -3.124  0.00  0.00    -0.096 F 
ATOM     11  F3  UNL d   1      -2.614   0.109  -4.206  0.00  0.00    -0.097 F 
ATOM     12  F4  UNL d   1      -3.693  -2.139  -3.100  0.00  0.00    -0.092 F 
ENDROOT
TORSDOF 0
ENDMDL
