MODEL 1
REMARK minimizedAffinity 11.2446918
REMARK minimizedRMSD -1
REMARK  0 active torsions:
REMARK  status: ('A' for Active; 'I' for Inactive)
ROOT
ATOM      1  C   UNL d   1      -3.336   5.976  -4.370  0.00  0.00     0.124 A 
ATOM      2  C1  UNL d   1      -1.975   5.983  -4.643  0.00  0.00     0.062 A 
ATOM      3  C2  UNL d   1      -1.052   5.989  -3.602  0.00  0.00     0.162 A 
ATOM      4  C3  UNL d   1      -1.486   5.989  -2.276  0.00  0.00    -0.034 A 
ATOM      5  C4  UNL d   1      -2.856   5.983  -2.009  0.00  0.00     0.162 A 
ATOM      6  C5  UNL d   1      -3.775   5.976  -3.053  0.00  0.00     0.062 A 
ATOM      7  F   UNL d   1      -5.089   5.970  -2.787  0.00  0.00    -0.097 F 
ATOM      8  F1  UNL d   1      -3.308   5.982  -0.746  0.00  0.00    -0.096 F 
ATOM      9  I   UNL d   1      -0.108   5.998  -0.716  0.00  0.00    -0.060 I 
ATOM     10  F2  UNL d   1       0.257   5.996  -3.896  0.00  0.00    -0.096 F 
ATOM     11  F3  UNL d   1      -1.548   5.984  -5.914  0.00  0.00    -0.097 F 
ATOM     12  F4  UNL d   1      -4.222   5.971  -5.374  0.00  0.00    -0.092 F 
ENDROOT
TORSDOF 0
ENDMDL
