MODEL 1
REMARK minimizedAffinity -0.546055615
REMARK minimizedRMSD -1
REMARK  0 active torsions:
REMARK  status: ('A' for Active; 'I' for Inactive)
ROOT
ATOM      1  C   UNL d   1      -3.769   5.987  -1.467  0.00  0.00     0.124 A 
ATOM      2  C1  UNL d   1      -2.534   5.990  -0.835  0.00  0.00     0.062 A 
ATOM      3  C2  UNL d   1      -1.363   5.993  -1.587  0.00  0.00     0.162 A 
ATOM      4  C3  UNL d   1      -1.421   5.995  -2.981  0.00  0.00    -0.034 A 
ATOM      5  C4  UNL d   1      -2.667   5.991  -3.610  0.00  0.00     0.162 A 
ATOM      6  C5  UNL d   1      -3.835   5.987  -2.854  0.00  0.00     0.062 A 
ATOM      7  F   UNL d   1      -5.028   5.985  -3.466  0.00  0.00    -0.097 F 
ATOM      8  F1  UNL d   1      -2.760   5.992  -4.948  0.00  0.00    -0.096 F 
ATOM      9  I   UNL d   1       0.328   5.999  -4.109  0.00  0.00    -0.060 I 
ATOM     10  F2  UNL d   1      -0.182   5.996  -0.949  0.00  0.00    -0.096 F 
ATOM     11  F3  UNL d   1      -2.468   5.989   0.504  0.00  0.00    -0.097 F 
ATOM     12  F4  UNL d   1      -4.895   5.983  -0.741  0.00  0.00    -0.092 F 
ENDROOT
TORSDOF 0
ENDMDL
