MODEL 1
REMARK minimizedAffinity 7.61257505
REMARK minimizedRMSD -1
REMARK  0 active torsions:
REMARK  status: ('A' for Active; 'I' for Inactive)
ROOT
ATOM      1  C   UNL d   1       0.609  -0.127   0.894  0.00  0.00     0.124 A 
ATOM      2  C1  UNL d   1       1.360   1.005   1.179  0.00  0.00     0.062 A 
ATOM      3  C2  UNL d   1       1.902   1.764   0.146  0.00  0.00     0.162 A 
ATOM      4  C3  UNL d   1       1.694   1.394  -1.183  0.00  0.00    -0.034 A 
ATOM      5  C4  UNL d   1       0.939   0.254  -1.462  0.00  0.00     0.162 A 
ATOM      6  C5  UNL d   1       0.399  -0.502  -0.426  0.00  0.00     0.062 A 
ATOM      7  F   UNL d   1      -0.325  -1.595  -0.704  0.00  0.00    -0.097 F 
ATOM      8  F1  UNL d   1       0.719  -0.130  -2.729  0.00  0.00    -0.096 F 
ATOM      9  I   UNL d   1       2.502   2.527  -2.731  0.00  0.00    -0.060 I 
ATOM     10  F2  UNL d   1       2.623   2.853   0.451  0.00  0.00    -0.096 F 
ATOM     11  F3  UNL d   1       1.565   1.368   2.453  0.00  0.00    -0.097 F 
ATOM     12  F4  UNL d   1       0.090  -0.857   1.890  0.00  0.00    -0.092 F 
ENDROOT
TORSDOF 0
ENDMDL
