MODEL 1
REMARK minimizedAffinity 15.0634623
REMARK minimizedRMSD -1
REMARK  0 active torsions:
REMARK  status: ('A' for Active; 'I' for Inactive)
ROOT
ATOM      1  C   UNL d   1       1.458   1.043  -1.127  0.00  0.00     0.124 A 
ATOM      2  C1  UNL d   1       1.317  -0.310  -0.851  0.00  0.00     0.062 A 
ATOM      3  C2  UNL d   1       0.835  -0.726   0.386  0.00  0.00     0.162 A 
ATOM      4  C3  UNL d   1       0.489   0.213   1.358  0.00  0.00    -0.034 A 
ATOM      5  C4  UNL d   1       0.634   1.572   1.074  0.00  0.00     0.162 A 
ATOM      6  C5  UNL d   1       1.117   1.983  -0.165  0.00  0.00     0.062 A 
ATOM      7  F   UNL d   1       1.252   3.290  -0.429  0.00  0.00    -0.097 F 
ATOM      8  F1  UNL d   1       0.311   2.502   1.985  0.00  0.00    -0.096 F 
ATOM      9  I   UNL d   1      -0.233  -0.404   3.210  0.00  0.00    -0.060 I 
ATOM     10  F2  UNL d   1       0.709  -2.039   0.625  0.00  0.00    -0.096 F 
ATOM     11  F3  UNL d   1       1.648  -1.220  -1.779  0.00  0.00    -0.097 F 
ATOM     12  F4  UNL d   1       1.924   1.440  -2.318  0.00  0.00    -0.092 F 
ENDROOT
TORSDOF 0
ENDMDL
