MODEL 1
REMARK minimizedAffinity 15.0803003
REMARK minimizedRMSD -1
REMARK  0 active torsions:
REMARK  status: ('A' for Active; 'I' for Inactive)
ROOT
ATOM      1  C   UNL d   1       1.681   1.186  -1.082  0.00  0.00     0.124 A 
ATOM      2  C1  UNL d   1       0.574   0.432  -1.446  0.00  0.00     0.062 A 
ATOM      3  C2  UNL d   1      -0.095  -0.333  -0.496  0.00  0.00     0.162 A 
ATOM      4  C3  UNL d   1       0.340  -0.347   0.829  0.00  0.00    -0.034 A 
ATOM      5  C4  UNL d   1       1.455   0.413   1.188  0.00  0.00     0.162 A 
ATOM      6  C5  UNL d   1       2.120   1.176   0.234  0.00  0.00     0.062 A 
ATOM      7  F   UNL d   1       3.189   1.904   0.588  0.00  0.00    -0.097 F 
ATOM      8  F1  UNL d   1       1.900   0.422   2.453  0.00  0.00    -0.096 F 
ATOM      9  I   UNL d   1      -0.658  -1.491   2.254  0.00  0.00    -0.060 I 
ATOM     10  F2  UNL d   1      -1.162  -1.052  -0.876  0.00  0.00    -0.096 F 
ATOM     11  F3  UNL d   1       0.148   0.440  -2.718  0.00  0.00    -0.097 F 
ATOM     12  F4  UNL d   1       2.323   1.921  -1.999  0.00  0.00    -0.092 F 
ENDROOT
TORSDOF 0
ENDMDL
