MODEL 1
REMARK minimizedAffinity 12.4902077
REMARK minimizedRMSD -1
REMARK  0 active torsions:
REMARK  status: ('A' for Active; 'I' for Inactive)
ROOT
ATOM      1  C   UNL d   1       0.116   5.464  -3.610  0.00  0.00     0.124 A 
ATOM      2  C1  UNL d   1      -0.550   5.699  -4.805  0.00  0.00     0.062 A 
ATOM      3  C2  UNL d   1      -1.940   5.768  -4.829  0.00  0.00     0.162 A 
ATOM      4  C3  UNL d   1      -2.673   5.602  -3.653  0.00  0.00    -0.034 A 
ATOM      5  C4  UNL d   1      -1.996   5.365  -2.456  0.00  0.00     0.162 A 
ATOM      6  C5  UNL d   1      -0.607   5.297  -2.438  0.00  0.00     0.062 A 
ATOM      7  F   UNL d   1       0.036   5.070  -1.283  0.00  0.00    -0.097 F 
ATOM      8  F1  UNL d   1      -2.670   5.201  -1.308  0.00  0.00    -0.096 F 
ATOM      9  I   UNL d   1      -4.752   5.704  -3.685  0.00  0.00    -0.060 I 
ATOM     10  F2  UNL d   1      -2.558   5.996  -5.997  0.00  0.00    -0.096 F 
ATOM     11  F3  UNL d   1       0.146   5.860  -5.939  0.00  0.00    -0.097 F 
ATOM     12  F4  UNL d   1       1.454   5.398  -3.590  0.00  0.00    -0.092 F 
ENDROOT
TORSDOF 0
ENDMDL
