MODEL 1
REMARK minimizedAffinity 2.50197196
REMARK minimizedRMSD -1
REMARK  0 active torsions:
REMARK  status: ('A' for Active; 'I' for Inactive)
ROOT
ATOM      1  C   UNL d   1       2.878   1.967   0.982  0.00  0.00     0.124 A 
ATOM      2  C1  UNL d   1       1.765   2.054   0.157  0.00  0.00     0.062 A 
ATOM      3  C2  UNL d   1       0.507   1.703   0.639  0.00  0.00     0.162 A 
ATOM      4  C3  UNL d   1       0.355   1.263   1.954  0.00  0.00    -0.034 A 
ATOM      5  C4  UNL d   1       1.479   1.177   2.777  0.00  0.00     0.162 A 
ATOM      6  C5  UNL d   1       2.734   1.529   2.291  0.00  0.00     0.062 A 
ATOM      7  F   UNL d   1       3.808   1.444   3.090  0.00  0.00    -0.097 F 
ATOM      8  F1  UNL d   1       1.368   0.758   4.047  0.00  0.00    -0.096 F 
ATOM      9  I   UNL d   1      -1.524   0.738   2.678  0.00  0.00    -0.060 I 
ATOM     10  F2  UNL d   1      -0.551   1.797  -0.181  0.00  0.00    -0.096 F 
ATOM     11  F3  UNL d   1       1.902   2.476  -1.108  0.00  0.00    -0.097 F 
ATOM     12  F4  UNL d   1       4.087   2.304   0.516  0.00  0.00    -0.092 F 
ENDROOT
TORSDOF 0
ENDMDL
