MODEL 1
REMARK minimizedAffinity 8.1124754
REMARK minimizedRMSD -1
REMARK  0 active torsions:
REMARK  status: ('A' for Active; 'I' for Inactive)
ROOT
ATOM      1  C   UNL d   1      -4.617   5.971  -1.766  0.00  0.00     0.124 A 
ATOM      2  C1  UNL d   1      -4.764   5.973  -3.146  0.00  0.00     0.062 A 
ATOM      3  C2  UNL d   1      -3.642   5.982  -3.969  0.00  0.00     0.162 A 
ATOM      4  C3  UNL d   1      -2.362   5.987  -3.414  0.00  0.00    -0.034 A 
ATOM      5  C4  UNL d   1      -2.222   5.985  -2.025  0.00  0.00     0.162 A 
ATOM      6  C5  UNL d   1      -3.347   5.976  -1.207  0.00  0.00     0.062 A 
ATOM      7  F   UNL d   1      -3.203   5.974   0.126  0.00  0.00    -0.097 F 
ATOM      8  F1  UNL d   1      -1.007   5.990  -1.459  0.00  0.00    -0.096 F 
ATOM      9  I   UNL d   1      -0.681   6.000  -4.642  0.00  0.00    -0.060 I 
ATOM     10  F2  UNL d   1      -3.813   5.984  -5.300  0.00  0.00    -0.096 F 
ATOM     11  F3  UNL d   1      -5.990   5.969  -3.688  0.00  0.00    -0.097 F 
ATOM     12  F4  UNL d   1      -5.699   5.963  -0.976  0.00  0.00    -0.092 F 
ENDROOT
TORSDOF 0
ENDMDL
