MODEL 1
REMARK minimizedAffinity 2.41123605
REMARK minimizedRMSD -1
REMARK  0 active torsions:
REMARK  status: ('A' for Active; 'I' for Inactive)
ROOT
ATOM      1  C   UNL d   1      -2.185   5.965  -1.645  0.00  0.00     0.124 A 
ATOM      2  C1  UNL d   1      -2.928   5.970  -2.818  0.00  0.00     0.062 A 
ATOM      3  C2  UNL d   1      -2.286   5.957  -4.053  0.00  0.00     0.162 A 
ATOM      4  C3  UNL d   1      -0.893   5.937  -4.122  0.00  0.00    -0.034 A 
ATOM      5  C4  UNL d   1      -0.153   5.933  -2.939  0.00  0.00     0.162 A 
ATOM      6  C5  UNL d   1      -0.799   5.946  -1.707  0.00  0.00     0.062 A 
ATOM      7  F   UNL d   1      -0.079   5.941  -0.575  0.00  0.00    -0.097 F 
ATOM      8  F1  UNL d   1       1.188   5.914  -2.969  0.00  0.00    -0.096 F 
ATOM      9  I   UNL d   1       0.070   5.917  -5.967  0.00  0.00    -0.060 I 
ATOM     10  F2  UNL d   1      -3.029   5.962  -5.170  0.00  0.00    -0.096 F 
ATOM     11  F3  UNL d   1      -4.267   5.989  -2.761  0.00  0.00    -0.097 F 
ATOM     12  F4  UNL d   1      -2.805   5.979  -0.458  0.00  0.00    -0.092 F 
ENDROOT
TORSDOF 0
ENDMDL
