MODEL 1
REMARK minimizedAffinity 9.77589226
REMARK minimizedRMSD -1
REMARK  0 active torsions:
REMARK  status: ('A' for Active; 'I' for Inactive)
ROOT
ATOM      1  C   UNL d   1       1.236   2.217   0.910  0.00  0.00     0.124 A 
ATOM      2  C1  UNL d   1       1.170   0.860   1.193  0.00  0.00     0.062 A 
ATOM      3  C2  UNL d   1       0.964  -0.059   0.168  0.00  0.00     0.162 A 
ATOM      4  C3  UNL d   1       0.824   0.376  -1.150  0.00  0.00    -0.034 A 
ATOM      5  C4  UNL d   1       0.891   1.742  -1.426  0.00  0.00     0.162 A 
ATOM      6  C5  UNL d   1       1.097   2.657  -0.399  0.00  0.00     0.062 A 
ATOM      7  F   UNL d   1       1.161   3.968  -0.674  0.00  0.00    -0.097 F 
ATOM      8  F1  UNL d   1       0.761   2.195  -2.682  0.00  0.00    -0.096 F 
ATOM      9  I   UNL d   1       0.517  -0.996  -2.685  0.00  0.00    -0.060 I 
ATOM     10  F2  UNL d   1       0.904  -1.365   0.470  0.00  0.00    -0.096 F 
ATOM     11  F3  UNL d   1       1.303   0.432   2.456  0.00  0.00    -0.097 F 
ATOM     12  F4  UNL d   1       1.433   3.099   1.898  0.00  0.00    -0.092 F 
ENDROOT
TORSDOF 0
ENDMDL
