MODEL 1
REMARK minimizedAffinity 8.19451046
REMARK minimizedRMSD -1
REMARK  0 active torsions:
REMARK  status: ('A' for Active; 'I' for Inactive)
ROOT
ATOM      1  C   UNL d   1       1.583  -0.006  -2.016  0.00  0.00     0.124 A 
ATOM      2  C1  UNL d   1       1.447   1.263  -1.471  0.00  0.00     0.062 A 
ATOM      3  C2  UNL d   1       0.930   1.423  -0.189  0.00  0.00     0.162 A 
ATOM      4  C3  UNL d   1       0.544   0.310   0.558  0.00  0.00    -0.034 A 
ATOM      5  C4  UNL d   1       0.682  -0.964   0.002  0.00  0.00     0.162 A 
ATOM      6  C5  UNL d   1       1.200  -1.118  -1.279  0.00  0.00     0.062 A 
ATOM      7  F   UNL d   1       1.330  -2.345  -1.804  0.00  0.00    -0.097 F 
ATOM      8  F1  UNL d   1       0.321  -2.056   0.693  0.00  0.00    -0.096 F 
ATOM      9  I   UNL d   1      -0.231   0.544   2.475  0.00  0.00    -0.060 I 
ATOM     10  F2  UNL d   1       0.810   2.661   0.312  0.00  0.00    -0.096 F 
ATOM     11  F3  UNL d   1       1.816   2.339  -2.182  0.00  0.00    -0.097 F 
ATOM     12  F4  UNL d   1       2.081  -0.157  -3.251  0.00  0.00    -0.092 F 
ENDROOT
TORSDOF 0
ENDMDL
