MODEL 1
REMARK minimizedAffinity 10.4445133
REMARK minimizedRMSD -1
REMARK  0 active torsions:
REMARK  status: ('A' for Active; 'I' for Inactive)
ROOT
ATOM      1  C   UNL d   1      -0.569   0.542   0.690  0.00  0.00     0.124 A 
ATOM      2  C1  UNL d   1       0.460   0.747  -0.218  0.00  0.00     0.062 A 
ATOM      3  C2  UNL d   1       1.765   0.923   0.231  0.00  0.00     0.162 A 
ATOM      4  C3  UNL d   1       2.050   0.893   1.597  0.00  0.00    -0.034 A 
ATOM      5  C4  UNL d   1       1.009   0.687   2.504  0.00  0.00     0.162 A 
ATOM      6  C5  UNL d   1      -0.294   0.512   2.050  0.00  0.00     0.062 A 
ATOM      7  F   UNL d   1      -1.287   0.314   2.929  0.00  0.00    -0.097 F 
ATOM      8  F1  UNL d   1       1.247   0.653   3.824  0.00  0.00    -0.096 F 
ATOM      9  I   UNL d   1       4.000   1.156   2.273  0.00  0.00    -0.060 I 
ATOM     10  F2  UNL d   1       2.740   1.119  -0.669  0.00  0.00    -0.096 F 
ATOM     11  F3  UNL d   1       0.196   0.777  -1.532  0.00  0.00    -0.097 F 
ATOM     12  F4  UNL d   1      -1.825   0.374   0.255  0.00  0.00    -0.092 F 
ENDROOT
TORSDOF 0
ENDMDL
