MODEL 1
REMARK minimizedAffinity 1.06311738
REMARK minimizedRMSD -1
REMARK  0 active torsions:
REMARK  status: ('A' for Active; 'I' for Inactive)
ROOT
ATOM      1  C   UNL d   1      -1.864   5.997  -2.368  0.00  0.00     0.124 A 
ATOM      2  C1  UNL d   1      -2.247   5.997  -3.702  0.00  0.00     0.062 A 
ATOM      3  C2  UNL d   1      -1.285   5.995  -4.707  0.00  0.00     0.162 A 
ATOM      4  C3  UNL d   1       0.072   5.993  -4.383  0.00  0.00    -0.034 A 
ATOM      5  C4  UNL d   1       0.450   5.994  -3.039  0.00  0.00     0.162 A 
ATOM      6  C5  UNL d   1      -0.516   5.996  -2.038  0.00  0.00     0.062 A 
ATOM      7  F   UNL d   1      -0.143   5.996  -0.750  0.00  0.00    -0.097 F 
ATOM      8  F1  UNL d   1       1.746   5.992  -2.692  0.00  0.00    -0.096 F 
ATOM      9  I   UNL d   1       1.514   5.991  -5.883  0.00  0.00    -0.060 I 
ATOM     10  F2  UNL d   1      -1.685   5.995  -5.988  0.00  0.00    -0.096 F 
ATOM     11  F3  UNL d   1      -3.549   5.999  -4.023  0.00  0.00    -0.097 F 
ATOM     12  F4  UNL d   1      -2.792   6.000  -1.403  0.00  0.00    -0.092 F 
ENDROOT
TORSDOF 0
ENDMDL
