MODEL 1
REMARK minimizedAffinity 6.14223242
REMARK minimizedRMSD -1
REMARK  0 active torsions:
REMARK  status: ('A' for Active; 'I' for Inactive)
ROOT
ATOM      1  C   UNL d   1      -0.583   0.718   2.728  0.00  0.00     0.124 A 
ATOM      2  C1  UNL d   1      -1.292  -0.267   2.054  0.00  0.00     0.062 A 
ATOM      3  C2  UNL d   1      -0.960  -0.595   0.743  0.00  0.00     0.162 A 
ATOM      4  C3  UNL d   1       0.086   0.063   0.096  0.00  0.00    -0.034 A 
ATOM      5  C4  UNL d   1       0.794   1.053   0.780  0.00  0.00     0.162 A 
ATOM      6  C5  UNL d   1       0.459   1.377   2.091  0.00  0.00     0.062 A 
ATOM      7  F   UNL d   1       1.145   2.329   2.740  0.00  0.00    -0.097 F 
ATOM      8  F1  UNL d   1       1.806   1.704   0.188  0.00  0.00    -0.096 F 
ATOM      9  I   UNL d   1       0.585  -0.425  -1.865  0.00  0.00    -0.060 I 
ATOM     10  F2  UNL d   1      -1.662  -1.551   0.116  0.00  0.00    -0.096 F 
ATOM     11  F3  UNL d   1      -2.299  -0.904   2.668  0.00  0.00    -0.097 F 
ATOM     12  F4  UNL d   1      -0.905   1.032   3.990  0.00  0.00    -0.092 F 
ENDROOT
TORSDOF 0
ENDMDL
