MODEL 1
REMARK minimizedAffinity 8.60535145
REMARK minimizedRMSD -1
REMARK  0 active torsions:
REMARK  status: ('A' for Active; 'I' for Inactive)
ROOT
ATOM      1  C   UNL d   1       0.725   0.542  -0.149  0.00  0.00     0.124 A 
ATOM      2  C1  UNL d   1       0.942   1.165   1.072  0.00  0.00     0.062 A 
ATOM      3  C2  UNL d   1       1.963   2.100   1.210  0.00  0.00     0.162 A 
ATOM      4  C3  UNL d   1       2.776   2.419   0.122  0.00  0.00    -0.034 A 
ATOM      5  C4  UNL d   1       2.553   1.788  -1.103  0.00  0.00     0.162 A 
ATOM      6  C5  UNL d   1       1.531   0.854  -1.235  0.00  0.00     0.062 A 
ATOM      7  F   UNL d   1       1.323   0.253  -2.416  0.00  0.00    -0.097 F 
ATOM      8  F1  UNL d   1       3.316   2.071  -2.169  0.00  0.00    -0.096 F 
ATOM      9  I   UNL d   1       4.305   3.817   0.323  0.00  0.00    -0.060 I 
ATOM     10  F2  UNL d   1       2.150   2.687   2.401  0.00  0.00    -0.096 F 
ATOM     11  F3  UNL d   1       0.165   0.865   2.124  0.00  0.00    -0.097 F 
ATOM     12  F4  UNL d   1      -0.258  -0.358  -0.278  0.00  0.00    -0.092 F 
ENDROOT
TORSDOF 0
ENDMDL
