MODEL 1
REMARK minimizedAffinity 0.173278928
REMARK minimizedRMSD -1
REMARK  0 active torsions:
REMARK  status: ('A' for Active; 'I' for Inactive)
ROOT
ATOM      1  C   UNL d   1      -1.866   3.389  -3.878  0.00  0.00     0.078 C 
ATOM      2  C1  UNL d   1      -3.303   3.382  -4.305  0.00  0.00    -0.077 A 
ATOM      3  C2  UNL d   1      -3.667   3.704  -5.619  0.00  0.00    -0.001 A 
ATOM      4  C3  UNL d   1      -5.010   3.702  -6.000  0.00  0.00     0.003 A 
ATOM      5  C4  UNL d   1      -5.999   3.380  -5.073  0.00  0.00    -0.005 A 
ATOM      6  C5  UNL d   1      -5.647   3.061  -3.764  0.00  0.00     0.003 A 
ATOM      7  C6  UNL d   1      -4.305   3.062  -3.381  0.00  0.00    -0.001 A 
ENDROOT
TORSDOF 0
ENDMDL
