MODEL 1
REMARK minimizedAffinity -1.10734069
REMARK minimizedRMSD -1
REMARK  0 active torsions:
REMARK  status: ('A' for Active; 'I' for Inactive)
ROOT
ATOM      1  C   UNL d   1      -1.895   4.482  -4.870  0.00  0.00     0.078 C 
ATOM      2  C1  UNL d   1      -3.325   4.036  -4.941  0.00  0.00    -0.077 A 
ATOM      3  C2  UNL d   1      -4.176   4.501  -5.952  0.00  0.00    -0.001 A 
ATOM      4  C3  UNL d   1      -5.507   4.085  -6.000  0.00  0.00     0.003 A 
ATOM      5  C4  UNL d   1      -6.000   3.203  -5.040  0.00  0.00    -0.005 A 
ATOM      6  C5  UNL d   1      -5.161   2.737  -4.030  0.00  0.00     0.003 A 
ATOM      7  C6  UNL d   1      -3.830   3.151  -3.980  0.00  0.00    -0.001 A 
ENDROOT
TORSDOF 0
ENDMDL
