MODEL 1
REMARK minimizedAffinity -0.554976106
REMARK minimizedRMSD -1
REMARK  0 active torsions:
REMARK  status: ('A' for Active; 'I' for Inactive)
ROOT
ATOM      1  C   UNL d   1      -2.093   4.872  -5.333  0.00  0.00     0.078 C 
ATOM      2  C1  UNL d   1      -3.452   4.241  -5.288  0.00  0.00    -0.077 A 
ATOM      3  C2  UNL d   1      -3.681   3.071  -4.554  0.00  0.00    -0.001 A 
ATOM      4  C3  UNL d   1      -4.949   2.489  -4.529  0.00  0.00     0.003 A 
ATOM      5  C4  UNL d   1      -5.999   3.070  -5.238  0.00  0.00    -0.005 A 
ATOM      6  C5  UNL d   1      -5.781   4.232  -5.974  0.00  0.00     0.003 A 
ATOM      7  C6  UNL d   1      -4.513   4.815  -6.000  0.00  0.00    -0.001 A 
ENDROOT
TORSDOF 0
ENDMDL
