MODEL 1
REMARK minimizedAffinity 0.634833217
REMARK minimizedRMSD -1
REMARK  0 active torsions:
REMARK  status: ('A' for Active; 'I' for Inactive)
ROOT
ATOM      1  C   UNL d   1      -4.158   4.555  -5.974  0.00  0.00     0.078 C 
ATOM      2  C1  UNL d   1      -4.795   3.440  -5.202  0.00  0.00    -0.077 A 
ATOM      3  C2  UNL d   1      -5.401   2.361  -5.858  0.00  0.00    -0.001 A 
ATOM      4  C3  UNL d   1      -5.999   1.335  -5.126  0.00  0.00     0.003 A 
ATOM      5  C4  UNL d   1      -5.999   1.376  -3.733  0.00  0.00    -0.005 A 
ATOM      6  C5  UNL d   1      -5.400   2.446  -3.071  0.00  0.00     0.003 A 
ATOM      7  C6  UNL d   1      -4.802   3.474  -3.801  0.00  0.00    -0.001 A 
ENDROOT
TORSDOF 0
ENDMDL
