MODEL 1
REMARK minimizedAffinity -0.947961688
REMARK minimizedRMSD -1
REMARK  0 active torsions:
REMARK  status: ('A' for Active; 'I' for Inactive)
ROOT
ATOM      1  C   UNL d   1       0.789  -0.750   2.986  0.00  0.00     0.078 C 
ATOM      2  C1  UNL d   1       0.265   0.101   1.869  0.00  0.00    -0.077 A 
ATOM      3  C2  UNL d   1      -0.798  -0.334   1.068  0.00  0.00    -0.001 A 
ATOM      4  C3  UNL d   1      -1.269   0.465   0.025  0.00  0.00     0.003 A 
ATOM      5  C4  UNL d   1      -0.684   1.704  -0.227  0.00  0.00    -0.005 A 
ATOM      6  C5  UNL d   1       0.375   2.145   0.564  0.00  0.00     0.003 A 
ATOM      7  C6  UNL d   1       0.848   1.347   1.607  0.00  0.00    -0.001 A 
ENDROOT
TORSDOF 0
ENDMDL
