MODEL 1
REMARK minimizedAffinity -2.39284468
REMARK minimizedRMSD -1
REMARK  0 active torsions:
REMARK  status: ('A' for Active; 'I' for Inactive)
ROOT
ATOM      1  C   UNL d   1      -1.877   5.164  -4.921  0.00  0.00     0.078 C 
ATOM      2  C1  UNL d   1      -3.239   4.535  -4.908  0.00  0.00    -0.077 A 
ATOM      3  C2  UNL d   1      -3.660   3.750  -3.828  0.00  0.00    -0.001 A 
ATOM      4  C3  UNL d   1      -4.926   3.162  -3.834  0.00  0.00     0.003 A 
ATOM      5  C4  UNL d   1      -5.781   3.353  -4.917  0.00  0.00    -0.005 A 
ATOM      6  C5  UNL d   1      -5.370   4.131  -5.997  0.00  0.00     0.003 A 
ATOM      7  C6  UNL d   1      -4.104   4.719  -5.993  0.00  0.00    -0.001 A 
ENDROOT
TORSDOF 0
ENDMDL
