MODEL 1
REMARK minimizedAffinity 2.82905197
REMARK minimizedRMSD -1
REMARK  0 active torsions:
REMARK  status: ('A' for Active; 'I' for Inactive)
ROOT
ATOM      1  C   UNL d   1      -5.820   4.520  -5.883  0.00  0.00     0.078 C 
ATOM      2  C1  UNL d   1      -5.399   3.212  -5.281  0.00  0.00    -0.077 A 
ATOM      3  C2  UNL d   1      -4.426   3.162  -4.275  0.00  0.00    -0.001 A 
ATOM      4  C3  UNL d   1      -4.037   1.937  -3.730  0.00  0.00     0.003 A 
ATOM      5  C4  UNL d   1      -4.616   0.753  -4.185  0.00  0.00    -0.005 A 
ATOM      6  C5  UNL d   1      -5.583   0.794  -5.187  0.00  0.00     0.003 A 
ATOM      7  C6  UNL d   1      -5.973   2.018  -5.733  0.00  0.00    -0.001 A 
ENDROOT
TORSDOF 0
ENDMDL
