MODEL 1
REMARK minimizedAffinity -3.85101676
REMARK minimizedRMSD -1
REMARK  0 active torsions:
REMARK  status: ('A' for Active; 'I' for Inactive)
ROOT
ATOM      1  C   UNL d   1      -1.075   5.835  -5.977  0.00  0.00     0.078 C 
ATOM      2  C1  UNL d   1      -2.137   4.982  -5.350  0.00  0.00    -0.077 A 
ATOM      3  C2  UNL d   1      -3.361   4.765  -5.995  0.00  0.00    -0.001 A 
ATOM      4  C3  UNL d   1      -4.344   3.976  -5.395  0.00  0.00     0.003 A 
ATOM      5  C4  UNL d   1      -4.114   3.400  -4.148  0.00  0.00    -0.005 A 
ATOM      6  C5  UNL d   1      -2.900   3.612  -3.498  0.00  0.00     0.003 A 
ATOM      7  C6  UNL d   1      -1.916   4.400  -4.095  0.00  0.00    -0.001 A 
ENDROOT
TORSDOF 0
ENDMDL
