MODEL 1
REMARK minimizedAffinity 3.55526304
REMARK minimizedRMSD -1
REMARK  0 active torsions:
REMARK  status: ('A' for Active; 'I' for Inactive)
ROOT
ATOM      1  C   UNL d   1      -5.372   5.601  -6.000  0.00  0.00     0.078 C 
ATOM      2  C1  UNL d   1      -5.231   4.203  -5.474  0.00  0.00    -0.077 A 
ATOM      3  C2  UNL d   1      -6.000   3.156  -5.996  0.00  0.00    -0.001 A 
ATOM      4  C3  UNL d   1      -5.865   1.862  -5.490  0.00  0.00     0.003 A 
ATOM      5  C4  UNL d   1      -4.963   1.604  -4.459  0.00  0.00    -0.005 A 
ATOM      6  C5  UNL d   1      -4.196   2.640  -3.932  0.00  0.00     0.003 A 
ATOM      7  C6  UNL d   1      -4.329   3.935  -4.437  0.00  0.00    -0.001 A 
ENDROOT
TORSDOF 0
ENDMDL
