MODEL 1
REMARK minimizedAffinity 0.400289714
REMARK minimizedRMSD -1
REMARK  0 active torsions:
REMARK  status: ('A' for Active; 'I' for Inactive)
ROOT
ATOM      1  C   UNL d   1      -2.324   3.015  -3.762  0.00  0.00     0.078 C 
ATOM      2  C1  UNL d   1      -3.610   3.018  -4.533  0.00  0.00    -0.077 A 
ATOM      3  C2  UNL d   1      -4.447   1.896  -4.542  0.00  0.00    -0.001 A 
ATOM      4  C3  UNL d   1      -5.637   1.909  -5.272  0.00  0.00     0.003 A 
ATOM      5  C4  UNL d   1      -5.999   3.041  -6.000  0.00  0.00    -0.005 A 
ATOM      6  C5  UNL d   1      -5.171   4.161  -5.999  0.00  0.00     0.003 A 
ATOM      7  C6  UNL d   1      -3.981   4.150  -5.269  0.00  0.00    -0.001 A 
ENDROOT
TORSDOF 0
ENDMDL
