MODEL 1
REMARK minimizedAffinity -0.709211171
REMARK minimizedRMSD -1
REMARK  0 active torsions:
REMARK  status: ('A' for Active; 'I' for Inactive)
ROOT
ATOM      1  C   UNL d   1      -2.213   4.874  -5.626  0.00  0.00     0.078 C 
ATOM      2  C1  UNL d   1      -3.536   4.175  -5.523  0.00  0.00    -0.077 A 
ATOM      3  C2  UNL d   1      -4.708   4.775  -6.000  0.00  0.00    -0.001 A 
ATOM      4  C3  UNL d   1      -5.934   4.117  -5.889  0.00  0.00     0.003 A 
ATOM      5  C4  UNL d   1      -6.000   2.856  -5.299  0.00  0.00    -0.005 A 
ATOM      6  C5  UNL d   1      -4.840   2.252  -4.820  0.00  0.00     0.003 A 
ATOM      7  C6  UNL d   1      -3.613   2.909  -4.931  0.00  0.00    -0.001 A 
ENDROOT
TORSDOF 0
ENDMDL
