MODEL 1
REMARK minimizedAffinity -1.56530261
REMARK minimizedRMSD -1
REMARK  0 active torsions:
REMARK  status: ('A' for Active; 'I' for Inactive)
ROOT
ATOM      1  C   UNL d   1      -2.361   4.606  -5.239  0.00  0.00     0.078 C 
ATOM      2  C1  UNL d   1      -3.631   3.808  -5.263  0.00  0.00    -0.077 A 
ATOM      3  C2  UNL d   1      -4.742   4.244  -5.994  0.00  0.00    -0.001 A 
ATOM      4  C3  UNL d   1      -5.921   3.496  -6.000  0.00  0.00     0.003 A 
ATOM      5  C4  UNL d   1      -6.000   2.308  -5.275  0.00  0.00    -0.005 A 
ATOM      6  C5  UNL d   1      -4.899   1.868  -4.543  0.00  0.00     0.003 A 
ATOM      7  C6  UNL d   1      -3.720   2.614  -4.536  0.00  0.00    -0.001 A 
ENDROOT
TORSDOF 0
ENDMDL
