MODEL 1
REMARK minimizedAffinity 1.31295383
REMARK minimizedRMSD -1
REMARK  0 active torsions:
REMARK  status: ('A' for Active; 'I' for Inactive)
ROOT
ATOM      1  C   UNL d   1       0.491  -0.691   3.027  0.00  0.00     0.078 C 
ATOM      2  C1  UNL d   1       0.427   0.588   2.248  0.00  0.00    -0.077 A 
ATOM      3  C2  UNL d   1       0.327   1.824   2.899  0.00  0.00    -0.001 A 
ATOM      4  C3  UNL d   1       0.258   3.007   2.161  0.00  0.00     0.003 A 
ATOM      5  C4  UNL d   1       0.287   2.966   0.769  0.00  0.00    -0.005 A 
ATOM      6  C5  UNL d   1       0.384   1.740   0.112  0.00  0.00     0.003 A 
ATOM      7  C6  UNL d   1       0.453   0.557   0.848  0.00  0.00    -0.001 A 
ENDROOT
TORSDOF 0
ENDMDL
