MODEL 1
REMARK minimizedAffinity 0.55129391
REMARK minimizedRMSD -1
REMARK  0 active torsions:
REMARK  status: ('A' for Active; 'I' for Inactive)
ROOT
ATOM      1  C   UNL d   1       0.913  -1.211   3.191  0.00  0.00     0.078 C 
ATOM      2  C1  UNL d   1       0.674  -0.160   2.149  0.00  0.00    -0.077 A 
ATOM      3  C2  UNL d   1       0.214   1.115   2.502  0.00  0.00    -0.001 A 
ATOM      4  C3  UNL d   1      -0.014   2.080   1.520  0.00  0.00     0.003 A 
ATOM      5  C4  UNL d   1       0.216   1.781   0.179  0.00  0.00    -0.005 A 
ATOM      6  C5  UNL d   1       0.672   0.515  -0.183  0.00  0.00     0.003 A 
ATOM      7  C6  UNL d   1       0.900  -0.452   0.798  0.00  0.00    -0.001 A 
ENDROOT
TORSDOF 0
ENDMDL
