MODEL 1
REMARK minimizedAffinity 2.07665062
REMARK minimizedRMSD -1
REMARK  0 active torsions:
REMARK  status: ('A' for Active; 'I' for Inactive)
ROOT
ATOM      1  C   UNL d   1      -2.291   3.556  -3.024  0.00  0.00     0.078 C 
ATOM      2  C1  UNL d   1      -3.579   3.742  -3.769  0.00  0.00    -0.077 A 
ATOM      3  C2  UNL d   1      -3.589   3.931  -5.157  0.00  0.00    -0.001 A 
ATOM      4  C3  UNL d   1      -4.795   4.113  -5.836  0.00  0.00     0.003 A 
ATOM      5  C4  UNL d   1      -6.000   4.107  -5.136  0.00  0.00    -0.005 A 
ATOM      6  C5  UNL d   1      -6.000   3.921  -3.755  0.00  0.00     0.003 A 
ATOM      7  C6  UNL d   1      -4.795   3.740  -3.074  0.00  0.00    -0.001 A 
ENDROOT
TORSDOF 0
ENDMDL
