MODEL 1
REMARK minimizedAffinity 1.3193239
REMARK minimizedRMSD -1
REMARK  0 active torsions:
REMARK  status: ('A' for Active; 'I' for Inactive)
ROOT
ATOM      1  C   UNL d   1      -2.786   5.163  -4.124  0.00  0.00     0.078 C 
ATOM      2  C1  UNL d   1      -3.674   4.017  -4.506  0.00  0.00    -0.077 A 
ATOM      3  C2  UNL d   1      -3.679   2.830  -3.762  0.00  0.00    -0.001 A 
ATOM      4  C3  UNL d   1      -4.504   1.768  -4.134  0.00  0.00     0.003 A 
ATOM      5  C4  UNL d   1      -5.328   1.880  -5.252  0.00  0.00    -0.005 A 
ATOM      6  C5  UNL d   1      -5.328   3.056  -6.000  0.00  0.00     0.003 A 
ATOM      7  C6  UNL d   1      -4.504   4.120  -5.629  0.00  0.00    -0.001 A 
ENDROOT
TORSDOF 0
ENDMDL
