MODEL 1
REMARK minimizedAffinity 0.565805256
REMARK minimizedRMSD -1
REMARK  0 active torsions:
REMARK  status: ('A' for Active; 'I' for Inactive)
ROOT
ATOM      1  C   UNL d   1       1.250  -2.861  -3.176  0.00  0.00    -0.002 A 
ATOM      2  C1  UNL d   1       1.606  -3.525  -2.011  0.00  0.00     0.010 A 
ATOM      3  C2  UNL d   1       1.464  -2.904  -0.768  0.00  0.00     0.041 A 
ATOM      4  C3  UNL d   1       0.952  -1.593  -0.716  0.00  0.00    -0.075 A 
ATOM      5  S   UNL d   1       0.689  -0.635   0.694  0.00  0.00     0.015 SA
ATOM      6  C4  UNL d   1       0.098   0.678  -0.218  0.00  0.00     0.022 A 
ATOM      7  C5  UNL d   1       0.094   0.410  -1.566  0.00  0.00     0.026 A 
ATOM      8  C6  UNL d   1       0.586  -0.904  -1.875  0.00  0.00    -0.082 A 
ATOM      9  C7  UNL d   1       0.743  -1.560  -3.120  0.00  0.00     0.045 A 
ENDROOT
TORSDOF 0
ENDMDL
