MODEL 1
REMARK minimizedAffinity 1.31551659
REMARK minimizedRMSD -1
REMARK  0 active torsions:
REMARK  status: ('A' for Active; 'I' for Inactive)
ROOT
ATOM      1  C   UNL d   1      -1.630   1.470   1.480  0.00  0.00    -0.002 A 
ATOM      2  C1  UNL d   1      -1.319   0.220   1.996  0.00  0.00     0.010 A 
ATOM      3  C2  UNL d   1      -0.496  -0.657   1.286  0.00  0.00     0.041 A 
ATOM      4  C3  UNL d   1       0.015  -0.252   0.037  0.00  0.00    -0.075 A 
ATOM      5  S   UNL d   1       1.043  -1.158  -1.009  0.00  0.00     0.015 SA
ATOM      6  C4  UNL d   1       1.094   0.093  -2.165  0.00  0.00     0.022 A 
ATOM      7  C5  UNL d   1       0.350   1.183  -1.779  0.00  0.00     0.026 A 
ATOM      8  C6  UNL d   1      -0.284   1.003  -0.503  0.00  0.00    -0.082 A 
ATOM      9  C7  UNL d   1      -1.121   1.868   0.241  0.00  0.00     0.045 A 
ENDROOT
TORSDOF 0
ENDMDL
