MODEL 1
REMARK minimizedAffinity 0.551738441
REMARK minimizedRMSD -1
REMARK  0 active torsions:
REMARK  status: ('A' for Active; 'I' for Inactive)
ROOT
ATOM      1  C   UNL d   1      -1.046   1.194   1.513  0.00  0.00    -0.002 A 
ATOM      2  C1  UNL d   1      -0.800   2.392   0.857  0.00  0.00     0.010 A 
ATOM      3  C2  UNL d   1       0.037   2.432  -0.259  0.00  0.00     0.041 A 
ATOM      4  C3  UNL d   1       0.627   1.235  -0.711  0.00  0.00    -0.075 A 
ATOM      5  S   UNL d   1       1.685   1.042  -2.059  0.00  0.00     0.015 SA
ATOM      6  C4  UNL d   1       1.835  -0.635  -1.796  0.00  0.00     0.022 A 
ATOM      7  C5  UNL d   1       1.102  -1.055  -0.711  0.00  0.00     0.026 A 
ATOM      8  C6  UNL d   1       0.394   0.016  -0.068  0.00  0.00    -0.082 A 
ATOM      9  C7  UNL d   1      -0.459   0.009   1.062  0.00  0.00     0.045 A 
ENDROOT
TORSDOF 0
ENDMDL
