MODEL 1
REMARK minimizedAffinity -4.12930918
REMARK minimizedRMSD -1
REMARK  0 active torsions:
REMARK  status: ('A' for Active; 'I' for Inactive)
ROOT
ATOM      1  C   UNL d   1      -1.198   3.799   0.155  0.00  0.00    -0.002 A 
ATOM      2  C1  UNL d   1      -1.702   3.222   1.311  0.00  0.00     0.010 A 
ATOM      3  C2  UNL d   1      -1.396   1.899   1.636  0.00  0.00     0.041 A 
ATOM      4  C3  UNL d   1      -0.565   1.159   0.771  0.00  0.00    -0.075 A 
ATOM      5  S   UNL d   1      -0.056  -0.476   0.965  0.00  0.00     0.015 SA
ATOM      6  C4  UNL d   1       0.844  -0.446  -0.482  0.00  0.00     0.022 A 
ATOM      7  C5  UNL d   1       0.768   0.774  -1.111  0.00  0.00     0.026 A 
ATOM      8  C6  UNL d   1      -0.045   1.719  -0.399  0.00  0.00    -0.082 A 
ATOM      9  C7  UNL d   1      -0.374   3.063  -0.701  0.00  0.00     0.045 A 
ENDROOT
TORSDOF 0
ENDMDL
