MODEL 1
REMARK minimizedAffinity -3.29512405
REMARK minimizedRMSD -1
REMARK  0 active torsions:
REMARK  status: ('A' for Active; 'I' for Inactive)
ROOT
ATOM      1  C   UNL d   1      -0.106   3.954  -0.063  0.00  0.00    -0.002 A 
ATOM      2  C1  UNL d   1      -0.830   3.711   1.096  0.00  0.00     0.010 A 
ATOM      3  C2  UNL d   1      -0.958   2.413   1.594  0.00  0.00     0.041 A 
ATOM      4  C3  UNL d   1      -0.337   1.354   0.904  0.00  0.00    -0.075 A 
ATOM      5  S   UNL d   1      -0.357  -0.317   1.329  0.00  0.00     0.015 SA
ATOM      6  C4  UNL d   1       0.596  -0.747  -0.017  0.00  0.00     0.022 A 
ATOM      7  C5  UNL d   1       0.930   0.345  -0.783  0.00  0.00     0.026 A 
ATOM      8  C6  UNL d   1       0.398   1.574  -0.265  0.00  0.00    -0.082 A 
ATOM      9  C7  UNL d   1       0.508   2.901  -0.745  0.00  0.00     0.045 A 
ENDROOT
TORSDOF 0
ENDMDL
