MODEL 1
REMARK minimizedAffinity -1.95430708
REMARK minimizedRMSD -1
REMARK  0 active torsions:
REMARK  status: ('A' for Active; 'I' for Inactive)
ROOT
ATOM      1  C   UNL d   1      -2.139   1.382   1.478  0.00  0.00    -0.002 A 
ATOM      2  C1  UNL d   1      -1.599   0.230   2.031  0.00  0.00     0.010 A 
ATOM      3  C2  UNL d   1      -0.491  -0.387   1.447  0.00  0.00     0.041 A 
ATOM      4  C3  UNL d   1       0.073   0.182   0.288  0.00  0.00    -0.075 A 
ATOM      5  S   UNL d   1       1.433  -0.399  -0.598  0.00  0.00     0.015 SA
ATOM      6  C4  UNL d   1       1.330   0.870  -1.731  0.00  0.00     0.022 A 
ATOM      7  C5  UNL d   1       0.289   1.725  -1.455  0.00  0.00     0.026 A 
ATOM      8  C6  UNL d   1      -0.452   1.343  -0.287  0.00  0.00    -0.082 A 
ATOM      9  C7  UNL d   1      -1.577   1.943   0.328  0.00  0.00     0.045 A 
ENDROOT
TORSDOF 0
ENDMDL
