MODEL 1
REMARK minimizedAffinity -4.07162285
REMARK minimizedRMSD -1
REMARK  0 active torsions:
REMARK  status: ('A' for Active; 'I' for Inactive)
ROOT
ATOM      1  C   UNL d   1      -1.980   2.351   1.189  0.00  0.00    -0.002 A 
ATOM      2  C1  UNL d   1      -1.416   3.286   0.332  0.00  0.00     0.010 A 
ATOM      3  C2  UNL d   1      -0.392   2.919  -0.544  0.00  0.00     0.041 A 
ATOM      4  C3  UNL d   1       0.057   1.584  -0.546  0.00  0.00    -0.075 A 
ATOM      5  S   UNL d   1       1.298   0.906  -1.533  0.00  0.00     0.015 SA
ATOM      6  C4  UNL d   1       1.107  -0.640  -0.842  0.00  0.00     0.022 A 
ATOM      7  C5  UNL d   1       0.125  -0.657   0.120  0.00  0.00     0.026 A 
ATOM      8  C6  UNL d   1      -0.496   0.625   0.306  0.00  0.00    -0.082 A 
ATOM      9  C7  UNL d   1      -1.532   1.028   1.184  0.00  0.00     0.045 A 
ENDROOT
TORSDOF 0
ENDMDL
