MODEL 1
REMARK minimizedAffinity -4.33611536
REMARK minimizedRMSD -1
REMARK  0 active torsions:
REMARK  status: ('A' for Active; 'I' for Inactive)
ROOT
ATOM      1  C   UNL d   1      -2.127   1.879   1.618  0.00  0.00    -0.002 A 
ATOM      2  C1  UNL d   1      -1.783   3.001   0.877  0.00  0.00     0.010 A 
ATOM      3  C2  UNL d   1      -0.787   2.930  -0.098  0.00  0.00     0.041 A 
ATOM      4  C3  UNL d   1      -0.136   1.700  -0.320  0.00  0.00    -0.075 A 
ATOM      5  S   UNL d   1       1.114   1.377  -1.463  0.00  0.00     0.015 SA
ATOM      6  C4  UNL d   1       1.221  -0.259  -0.995  0.00  0.00     0.022 A 
ATOM      7  C5  UNL d   1       0.332  -0.567   0.008  0.00  0.00     0.026 A 
ATOM      8  C6  UNL d   1      -0.465   0.556   0.413  0.00  0.00    -0.082 A 
ATOM      9  C7  UNL d   1      -1.479   0.661   1.395  0.00  0.00     0.045 A 
ENDROOT
TORSDOF 0
ENDMDL
