MODEL 1
REMARK minimizedAffinity -1.59827888
REMARK minimizedRMSD -1
REMARK  0 active torsions:
REMARK  status: ('A' for Active; 'I' for Inactive)
ROOT
ATOM      1  C4' PXY d   1       0.816   0.025  -2.749  0.00  0.00     0.077 C 
ATOM      2  C1' PXY d   1      -0.494   0.399   2.869  0.00  0.00     0.077 C 
ATOM      3  C1  PXY d   1      -0.163   0.301   1.392  0.00  0.00    -0.082 A 
ATOM      4  C2  PXY d   1       0.985  -0.235   1.014  0.00  0.00     0.003 A 
ATOM      5  C3  PXY d   1       1.315  -0.302  -0.316  0.00  0.00     0.003 A 
ATOM      6  C4  PXY d   1       0.436   0.136  -1.270  0.00  0.00    -0.082 A 
ATOM      7  C5  PXY d   1      -0.743   0.674  -0.892  0.00  0.00     0.003 A 
ATOM      8  C6  PXY d   1      -1.041   0.771   0.464  0.00  0.00     0.003 A 
ENDROOT
TORSDOF 0
ENDMDL
