MODEL 1
REMARK minimizedAffinity -5.27440643
REMARK minimizedRMSD -1
REMARK  0 active torsions:
REMARK  status: ('A' for Active; 'I' for Inactive)
ROOT
ATOM      1  C4' PXY d   1      -3.324   0.907   1.792  0.00  0.00     0.077 C 
ATOM      2  C1' PXY d   1       2.311  -0.215   1.156  0.00  0.00     0.077 C 
ATOM      3  C1  PXY d   1       0.833   0.073   1.334  0.00  0.00    -0.082 A 
ATOM      4  C2  PXY d   1       0.077   0.296   0.271  0.00  0.00     0.003 A 
ATOM      5  C3  PXY d   1      -1.254   0.590   0.416  0.00  0.00     0.003 A 
ATOM      6  C4  PXY d   1      -1.829   0.603   1.659  0.00  0.00    -0.082 A 
ATOM      7  C5  PXY d   1      -1.067   0.366   2.748  0.00  0.00     0.003 A 
ATOM      8  C6  PXY d   1       0.291   0.111   2.582  0.00  0.00     0.003 A 
ENDROOT
TORSDOF 0
ENDMDL
