MODEL 1
REMARK minimizedAffinity -3.16263628
REMARK minimizedRMSD -1
REMARK  0 active torsions:
REMARK  status: ('A' for Active; 'I' for Inactive)
ROOT
ATOM      1  C4' PXY d   1       0.691  -0.575  -2.677  0.00  0.00     0.077 C 
ATOM      2  C1' PXY d   1      -0.105   0.414   2.962  0.00  0.00     0.077 C 
ATOM      3  C1  PXY d   1       0.091   0.157   1.481  0.00  0.00    -0.082 A 
ATOM      4  C2  PXY d   1       1.100  -0.597   1.076  0.00  0.00     0.003 A 
ATOM      5  C3  PXY d   1       1.311  -0.813  -0.262  0.00  0.00     0.003 A 
ATOM      6  C4  PXY d   1       0.449  -0.297  -1.191  0.00  0.00    -0.082 A 
ATOM      7  C5  PXY d   1      -0.590   0.464  -0.785  0.00  0.00     0.003 A 
ATOM      8  C6  PXY d   1      -0.762   0.706   0.574  0.00  0.00     0.003 A 
ENDROOT
TORSDOF 0
ENDMDL
