MODEL 1
REMARK minimizedAffinity 0.621668994
REMARK minimizedRMSD -1
REMARK  0 active torsions:
REMARK  status: ('A' for Active; 'I' for Inactive)
ROOT
ATOM      1  C4' PXY d   1      -1.116   0.872   3.142  0.00  0.00     0.077 C 
ATOM      2  C1' PXY d   1       0.509  -0.326  -2.274  0.00  0.00     0.077 C 
ATOM      3  C1  PXY d   1       0.072  -0.006  -0.858  0.00  0.00    -0.082 A 
ATOM      4  C2  PXY d   1       0.975   0.052   0.107  0.00  0.00     0.003 A 
ATOM      5  C3  PXY d   1       0.593   0.309   1.399  0.00  0.00     0.003 A 
ATOM      6  C4  PXY d   1      -0.720   0.562   1.697  0.00  0.00    -0.082 A 
ATOM      7  C5  PXY d   1      -1.645   0.515   0.715  0.00  0.00     0.003 A 
ATOM      8  C6  PXY d   1      -1.243   0.212  -0.583  0.00  0.00     0.003 A 
ENDROOT
TORSDOF 0
ENDMDL
