MODEL 1
REMARK minimizedAffinity -0.883179247
REMARK minimizedRMSD -1
REMARK  0 active torsions:
REMARK  status: ('A' for Active; 'I' for Inactive)
ROOT
ATOM      1  C4' PXY d   1       0.956   0.110  -2.810  0.00  0.00     0.077 C 
ATOM      2  C1' PXY d   1      -0.327   0.398   2.819  0.00  0.00     0.077 C 
ATOM      3  C1  PXY d   1      -0.002   0.317   1.341  0.00  0.00    -0.082 A 
ATOM      4  C2  PXY d   1       1.261   0.313   0.948  0.00  0.00     0.003 A 
ATOM      5  C3  PXY d   1       1.573   0.272  -0.387  0.00  0.00     0.003 A 
ATOM      6  C4  PXY d   1       0.581   0.181  -1.327  0.00  0.00    -0.082 A 
ATOM      7  C5  PXY d   1      -0.710   0.174  -0.934  0.00  0.00     0.003 A 
ATOM      8  C6  PXY d   1      -1.006   0.257   0.424  0.00  0.00     0.003 A 
ENDROOT
TORSDOF 0
ENDMDL
