MODEL 1
REMARK minimizedAffinity -1.81203198
REMARK minimizedRMSD -1
REMARK  0 active torsions:
REMARK  status: ('A' for Active; 'I' for Inactive)
ROOT
ATOM      1  C4' PXY d   1       0.449   0.377   0.748  0.00  0.00     0.077 C 
ATOM      2  C1' PXY d   1       1.586  -1.941  -4.424  0.00  0.00     0.077 C 
ATOM      3  C1  PXY d   1       1.285  -1.345  -3.063  0.00  0.00    -0.082 A 
ATOM      4  C2  PXY d   1       0.936  -0.073  -2.969  0.00  0.00     0.003 A 
ATOM      5  C3  PXY d   1       0.691   0.491  -1.743  0.00  0.00     0.003 A 
ATOM      6  C4  PXY d   1       0.753  -0.270  -0.606  0.00  0.00    -0.082 A 
ATOM      7  C5  PXY d   1       1.098  -1.572  -0.695  0.00  0.00     0.003 A 
ATOM      8  C6  PXY d   1       1.383  -2.114  -1.945  0.00  0.00     0.003 A 
ENDROOT
TORSDOF 0
ENDMDL
