MODEL 1
REMARK minimizedAffinity -2.50951123
REMARK minimizedRMSD -1
REMARK  0 active torsions:
REMARK  status: ('A' for Active; 'I' for Inactive)
ROOT
ATOM      1  C4' PXY d   1       1.022  -1.090  -3.054  0.00  0.00     0.077 C 
ATOM      2  C1' PXY d   1       0.032   0.214   2.490  0.00  0.00     0.077 C 
ATOM      3  C1  PXY d   1       0.285  -0.117   1.032  0.00  0.00    -0.082 A 
ATOM      4  C2  PXY d   1       0.527  -1.369   0.678  0.00  0.00     0.003 A 
ATOM      5  C3  PXY d   1       0.789  -1.682  -0.631  0.00  0.00     0.003 A 
ATOM      6  C4  PXY d   1       0.752  -0.711  -1.595  0.00  0.00    -0.082 A 
ATOM      7  C5  PXY d   1       0.496   0.567  -1.244  0.00  0.00     0.003 A 
ATOM      8  C6  PXY d   1       0.273   0.870   0.096  0.00  0.00     0.003 A 
ENDROOT
TORSDOF 0
ENDMDL
