MODEL 1
REMARK minimizedAffinity -1.60789418
REMARK minimizedRMSD -1
REMARK  0 active torsions:
REMARK  status: ('A' for Active; 'I' for Inactive)
ROOT
ATOM      1  C4' PXY d   1      -0.949  -0.451  -4.072  0.00  0.00     0.077 C 
ATOM      2  C1' PXY d   1       1.531   0.429   1.075  0.00  0.00     0.077 C 
ATOM      3  C1  PXY d   1       0.892   0.201  -0.281  0.00  0.00    -0.082 A 
ATOM      4  C2  PXY d   1      -0.422   0.288  -0.407  0.00  0.00     0.003 A 
ATOM      5  C3  PXY d   1      -1.019   0.054  -1.619  0.00  0.00     0.003 A 
ATOM      6  C4  PXY d   1      -0.259  -0.220  -2.725  0.00  0.00    -0.082 A 
ATOM      7  C5  PXY d   1       1.083  -0.300  -2.606  0.00  0.00     0.003 A 
ATOM      8  C6  PXY d   1       1.667  -0.099  -1.359  0.00  0.00     0.003 A 
ENDROOT
TORSDOF 0
ENDMDL
