MODEL 1
REMARK minimizedAffinity -2.52538443
REMARK minimizedRMSD -1
REMARK  0 active torsions:
REMARK  status: ('A' for Active; 'I' for Inactive)
ROOT
ATOM      1  C4' PXY d   1      -2.896   0.725   1.582  0.00  0.00     0.077 C 
ATOM      2  C1' PXY d   1       2.768  -0.418   1.425  0.00  0.00     0.077 C 
ATOM      3  C1  PXY d   1       1.282  -0.123   1.479  0.00  0.00    -0.082 A 
ATOM      4  C2  PXY d   1       0.583  -0.080   0.356  0.00  0.00     0.003 A 
ATOM      5  C3  PXY d   1      -0.755   0.217   0.384  0.00  0.00     0.003 A 
ATOM      6  C4  PXY d   1      -1.396   0.421   1.577  0.00  0.00    -0.082 A 
ATOM      7  C5  PXY d   1      -0.691   0.368   2.727  0.00  0.00     0.003 A 
ATOM      8  C6  PXY d   1       0.675   0.105   2.674  0.00  0.00     0.003 A 
ENDROOT
TORSDOF 0
ENDMDL
