MODEL 1
REMARK minimizedAffinity -3.95619869
REMARK minimizedRMSD -1
REMARK  0 active torsions:
REMARK  status: ('A' for Active; 'I' for Inactive)
ROOT
ATOM      1  C4' PXY d   1      -3.257   1.319   2.405  0.00  0.00     0.077 C 
ATOM      2  C1' PXY d   1       1.871  -0.445   0.404  0.00  0.00     0.077 C 
ATOM      3  C1  PXY d   1       0.524   0.023   0.917  0.00  0.00    -0.082 A 
ATOM      4  C2  PXY d   1       0.345   0.201   2.216  0.00  0.00     0.003 A 
ATOM      5  C3  PXY d   1      -0.877   0.593   2.700  0.00  0.00     0.003 A 
ATOM      6  C4  PXY d   1      -1.910   0.856   1.841  0.00  0.00    -0.082 A 
ATOM      7  C5  PXY d   1      -1.732   0.688   0.514  0.00  0.00     0.003 A 
ATOM      8  C6  PXY d   1      -0.497   0.249   0.046  0.00  0.00     0.003 A 
ENDROOT
TORSDOF 0
ENDMDL
