MODEL 1
REMARK minimizedAffinity -2.59807181
REMARK minimizedRMSD -1
REMARK  0 active torsions:
REMARK  status: ('A' for Active; 'I' for Inactive)
ROOT
ATOM      1  C4' PXY d   1      -2.626   1.197   2.743  0.00  0.00     0.077 C 
ATOM      2  C1' PXY d   1       0.901  -0.172  -1.628  0.00  0.00     0.077 C 
ATOM      3  C1  PXY d   1      -0.016   0.181  -0.473  0.00  0.00    -0.082 A 
ATOM      4  C2  PXY d   1      -1.309   0.356  -0.694  0.00  0.00     0.003 A 
ATOM      5  C3  PXY d   1      -2.146   0.707   0.333  0.00  0.00     0.003 A 
ATOM      6  C4  PXY d   1      -1.665   0.829   1.609  0.00  0.00    -0.082 A 
ATOM      7  C5  PXY d   1      -0.348   0.643   1.844  0.00  0.00     0.003 A 
ATOM      8  C6  PXY d   1       0.492   0.327   0.781  0.00  0.00     0.003 A 
ENDROOT
TORSDOF 0
ENDMDL
