MODEL 1
REMARK minimizedAffinity -5.51573324
REMARK minimizedRMSD -1
REMARK  0 active torsions:
REMARK  status: ('A' for Active; 'I' for Inactive)
ROOT
ATOM      1  C4' PXY d   1       0.733   0.151   1.712  0.00  0.00     0.077 C 
ATOM      2  C1' PXY d   1       1.270  -1.207  -3.881  0.00  0.00     0.077 C 
ATOM      3  C1  PXY d   1       1.135  -0.862  -2.411  0.00  0.00    -0.082 A 
ATOM      4  C2  PXY d   1       0.219   0.011  -2.025  0.00  0.00     0.003 A 
ATOM      5  C3  PXY d   1       0.104   0.359  -0.704  0.00  0.00     0.003 A 
ATOM      6  C4  PXY d   1       0.899  -0.234   0.240  0.00  0.00    -0.082 A 
ATOM      7  C5  PXY d   1       1.829  -1.134  -0.144  0.00  0.00     0.003 A 
ATOM      8  C6  PXY d   1       1.957  -1.442  -1.495  0.00  0.00     0.003 A 
ENDROOT
TORSDOF 0
ENDMDL
