MODEL 1
REMARK minimizedAffinity -1.51222599
REMARK minimizedRMSD -1
REMARK  0 active torsions:
REMARK  status: ('A' for Active; 'I' for Inactive)
ROOT
ATOM      1  C4' PXY d   1       1.025  -0.275  -2.707  0.00  0.00     0.077 C 
ATOM      2  C1' PXY d   1      -0.235   0.563   2.872  0.00  0.00     0.077 C 
ATOM      3  C1  PXY d   1       0.083   0.340   1.406  0.00  0.00    -0.082 A 
ATOM      4  C2  PXY d   1       1.326   0.069   1.041  0.00  0.00     0.003 A 
ATOM      5  C3  PXY d   1       1.637  -0.104  -0.284  0.00  0.00     0.003 A 
ATOM      6  C4  PXY d   1       0.656  -0.052  -1.238  0.00  0.00    -0.082 A 
ATOM      7  C5  PXY d   1      -0.616   0.213  -0.872  0.00  0.00     0.003 A 
ATOM      8  C6  PXY d   1      -0.903   0.426   0.473  0.00  0.00     0.003 A 
ENDROOT
TORSDOF 0
ENDMDL
