MODEL 1
REMARK minimizedAffinity -4.23211002
REMARK minimizedRMSD -1
REMARK  0 active torsions:
REMARK  status: ('A' for Active; 'I' for Inactive)
ROOT
ATOM      1  C4' PXY d   1       0.790   0.225   1.890  0.00  0.00     0.077 C 
ATOM      2  C1' PXY d   1       0.642  -1.166  -3.718  0.00  0.00     0.077 C 
ATOM      3  C1  PXY d   1       0.682  -0.789  -2.251  0.00  0.00    -0.082 A 
ATOM      4  C2  PXY d   1       1.025  -1.696  -1.351  0.00  0.00     0.003 A 
ATOM      5  C3  PXY d   1       1.036  -1.381  -0.017  0.00  0.00     0.003 A 
ATOM      6  C4  PXY d   1       0.744  -0.109   0.397  0.00  0.00    -0.082 A 
ATOM      7  C5  PXY d   1       0.404   0.826  -0.516  0.00  0.00     0.003 A 
ATOM      8  C6  PXY d   1       0.359   0.475  -1.862  0.00  0.00     0.003 A 
ENDROOT
TORSDOF 0
ENDMDL
