MODEL 1
REMARK minimizedAffinity -4.60682201
REMARK minimizedRMSD -1
REMARK  0 active torsions:
REMARK  status: ('A' for Active; 'I' for Inactive)
ROOT
ATOM      1  C4' PXY d   1       0.442  -1.432  -3.003  0.00  0.00     0.077 C 
ATOM      2  C1' PXY d   1       0.536   0.321   2.505  0.00  0.00     0.077 C 
ATOM      3  C1  PXY d   1       0.503  -0.129   1.058  0.00  0.00    -0.082 A 
ATOM      4  C2  PXY d   1       0.805  -1.382   0.755  0.00  0.00     0.003 A 
ATOM      5  C3  PXY d   1       0.811  -1.797  -0.552  0.00  0.00     0.003 A 
ATOM      6  C4  PXY d   1       0.453  -0.936  -1.554  0.00  0.00    -0.082 A 
ATOM      7  C5  PXY d   1       0.134   0.341  -1.252  0.00  0.00     0.003 A 
ATOM      8  C6  PXY d   1       0.174   0.754   0.076  0.00  0.00     0.003 A 
ENDROOT
TORSDOF 0
ENDMDL
