MODEL 1
REMARK minimizedAffinity -3.11045122
REMARK minimizedRMSD -1
REMARK  0 active torsions:
REMARK  status: ('A' for Active; 'I' for Inactive)
ROOT
ATOM      1  C4' PXY d   1       0.772  -1.497  -3.326  0.00  0.00     0.077 C 
ATOM      2  C1' PXY d   1       0.466   0.402   2.125  0.00  0.00     0.077 C 
ATOM      3  C1  PXY d   1       0.534  -0.091   0.693  0.00  0.00    -0.082 A 
ATOM      4  C2  PXY d   1       1.288  -1.137   0.396  0.00  0.00     0.003 A 
ATOM      5  C3  PXY d   1       1.387  -1.576  -0.899  0.00  0.00     0.003 A 
ATOM      6  C4  PXY d   1       0.665  -0.971  -1.892  0.00  0.00    -0.082 A 
ATOM      7  C5  PXY d   1      -0.115   0.090  -1.596  0.00  0.00     0.003 A 
ATOM      8  C6  PXY d   1      -0.169   0.546  -0.282  0.00  0.00     0.003 A 
ENDROOT
TORSDOF 0
ENDMDL
