MODEL 1
REMARK minimizedAffinity -2.73360968
REMARK minimizedRMSD -1
REMARK  0 active torsions:
REMARK  status: ('A' for Active; 'I' for Inactive)
ROOT
ATOM      1  C4' PXY d   1       1.214  -1.117  -3.175  0.00  0.00     0.077 C 
ATOM      2  C1' PXY d   1       0.244   0.431   2.309  0.00  0.00     0.077 C 
ATOM      3  C1  PXY d   1       0.490   0.035   0.867  0.00  0.00    -0.082 A 
ATOM      4  C2  PXY d   1       0.861  -1.203   0.583  0.00  0.00     0.003 A 
ATOM      5  C3  PXY d   1       1.120  -1.570  -0.713  0.00  0.00     0.003 A 
ATOM      6  C4  PXY d   1       0.945  -0.675  -1.734  0.00  0.00    -0.082 A 
ATOM      7  C5  PXY d   1       0.556   0.587  -1.453  0.00  0.00     0.003 A 
ATOM      8  C6  PXY d   1       0.338   0.951  -0.127  0.00  0.00     0.003 A 
ENDROOT
TORSDOF 0
ENDMDL
