MODEL 1
REMARK minimizedAffinity -2.56247926
REMARK minimizedRMSD -1
REMARK  0 active torsions:
REMARK  status: ('A' for Active; 'I' for Inactive)
ROOT
ATOM      1  C4' PXY d   1       0.778  -0.006  -3.258  0.00  0.00     0.077 C 
ATOM      2  C1' PXY d   1       0.952  -0.332   2.511  0.00  0.00     0.077 C 
ATOM      3  C1  PXY d   1       0.914  -0.257   0.997  0.00  0.00    -0.082 A 
ATOM      4  C2  PXY d   1       0.703   0.907   0.405  0.00  0.00     0.003 A 
ATOM      5  C3  PXY d   1       0.634   0.987  -0.962  0.00  0.00     0.003 A 
ATOM      6  C4  PXY d   1       0.834  -0.127  -1.732  0.00  0.00    -0.082 A 
ATOM      7  C5  PXY d   1       1.060  -1.316  -1.136  0.00  0.00     0.003 A 
ATOM      8  C6  PXY d   1       1.086  -1.384   0.254  0.00  0.00     0.003 A 
ENDROOT
TORSDOF 0
ENDMDL
