MODEL 1
REMARK minimizedAffinity -5.61628199
REMARK minimizedRMSD -1
REMARK  0 active torsions:
REMARK  status: ('A' for Active; 'I' for Inactive)
ROOT
ATOM      1  C4' PXY d   1       0.507  -1.197  -3.251  0.00  0.00     0.077 C 
ATOM      2  C1' PXY d   1       0.787   0.235   2.342  0.00  0.00     0.077 C 
ATOM      3  C1  PXY d   1       0.723  -0.149   0.877  0.00  0.00    -0.082 A 
ATOM      4  C2  PXY d   1       0.196   0.693   0.002  0.00  0.00     0.003 A 
ATOM      5  C3  PXY d   1       0.101   0.348  -1.321  0.00  0.00     0.003 A 
ATOM      6  C4  PXY d   1       0.601  -0.847  -1.764  0.00  0.00    -0.082 A 
ATOM      7  C5  PXY d   1       1.151  -1.707  -0.879  0.00  0.00     0.003 A 
ATOM      8  C6  PXY d   1       1.199  -1.356   0.467  0.00  0.00     0.003 A 
ENDROOT
TORSDOF 0
ENDMDL
