MODEL 1
REMARK minimizedAffinity -0.349757016
REMARK minimizedRMSD -1
REMARK  0 active torsions:
REMARK  status: ('A' for Active; 'I' for Inactive)
ROOT
ATOM      1  C   UNL d   1      -5.998  -4.848  -4.086  0.00  0.00    -0.002 A 
ATOM      2  C1  UNL d   1      -5.979  -5.307  -5.396  0.00  0.00     0.010 A 
ATOM      3  C2  UNL d   1      -4.778  -5.683  -6.000  0.00  0.00     0.041 A 
ATOM      4  C3  UNL d   1      -3.584  -5.592  -5.257  0.00  0.00    -0.075 A 
ATOM      5  S   UNL d   1      -1.995  -5.998  -5.789  0.00  0.00     0.015 SA
ATOM      6  C4  UNL d   1      -1.304  -5.573  -4.291  0.00  0.00     0.022 A 
ATOM      7  C5  UNL d   1      -2.248  -5.130  -3.395  0.00  0.00     0.026 A 
ATOM      8  C6  UNL d   1      -3.578  -5.134  -3.937  0.00  0.00    -0.082 A 
ATOM      9  C7  UNL d   1      -4.812  -4.759  -3.353  0.00  0.00     0.045 A 
ENDROOT
TORSDOF 0
ENDMDL
