MODEL 1
REMARK minimizedAffinity 9.37026596
REMARK minimizedRMSD -1
REMARK  0 active torsions:
REMARK  status: ('A' for Active; 'I' for Inactive)
ROOT
ATOM      1  C   UNL d   1       1.367   2.705  -2.304  0.00  0.00    -0.002 A 
ATOM      2  C1  UNL d   1       2.469   3.479  -2.639  0.00  0.00     0.010 A 
ATOM      3  C2  UNL d   1       2.387   4.428  -3.660  0.00  0.00     0.041 A 
ATOM      4  C3  UNL d   1       1.165   4.590  -4.343  0.00  0.00    -0.075 A 
ATOM      5  S   UNL d   1       0.831   5.691  -5.627  0.00  0.00     0.015 SA
ATOM      6  C4  UNL d   1      -0.784   5.161  -5.760  0.00  0.00     0.022 A 
ATOM      7  C5  UNL d   1      -1.077   4.169  -4.855  0.00  0.00     0.026 A 
ATOM      8  C6  UNL d   1       0.041   3.823  -4.023  0.00  0.00    -0.082 A 
ATOM      9  C7  UNL d   1       0.157   2.868  -2.984  0.00  0.00     0.045 A 
ENDROOT
TORSDOF 0
ENDMDL
