MODEL 1
REMARK minimizedAffinity 11.0843058
REMARK minimizedRMSD -1
REMARK  0 active torsions:
REMARK  status: ('A' for Active; 'I' for Inactive)
ROOT
ATOM      1  C   UNL d   1      -0.825   4.862  -5.998  0.00  0.00    -0.002 A 
ATOM      2  C1  UNL d   1       0.210   5.787  -5.999  0.00  0.00     0.010 A 
ATOM      3  C2  UNL d   1       1.316   5.618  -5.164  0.00  0.00     0.041 A 
ATOM      4  C3  UNL d   1       1.366   4.491  -4.320  0.00  0.00    -0.075 A 
ATOM      5  S   UNL d   1       2.621   4.076  -3.213  0.00  0.00     0.015 SA
ATOM      6  C4  UNL d   1       1.814   2.661  -2.713  0.00  0.00     0.022 A 
ATOM      7  C5  UNL d   1       0.615   2.493  -3.364  0.00  0.00     0.026 A 
ATOM      8  C6  UNL d   1       0.337   3.545  -4.301  0.00  0.00    -0.082 A 
ATOM      9  C7  UNL d   1      -0.771   3.746  -5.159  0.00  0.00     0.045 A 
ENDROOT
TORSDOF 0
ENDMDL
