MODEL 1
REMARK minimizedAffinity 5.83660936
REMARK minimizedRMSD -1
REMARK  0 active torsions:
REMARK  status: ('A' for Active; 'I' for Inactive)
ROOT
ATOM      1  C   UNL d   1       0.989   3.017  -1.965  0.00  0.00    -0.002 A 
ATOM      2  C1  UNL d   1       2.047   3.867  -2.253  0.00  0.00     0.010 A 
ATOM      3  C2  UNL d   1       2.013   4.684  -3.385  0.00  0.00     0.041 A 
ATOM      4  C3  UNL d   1       0.886   4.632  -4.230  0.00  0.00    -0.075 A 
ATOM      5  S   UNL d   1       0.624   5.542  -5.670  0.00  0.00     0.015 SA
ATOM      6  C4  UNL d   1      -0.899   4.824  -5.936  0.00  0.00     0.022 A 
ATOM      7  C5  UNL d   1      -1.215   3.910  -4.959  0.00  0.00     0.026 A 
ATOM      8  C6  UNL d   1      -0.192   3.785  -3.959  0.00  0.00    -0.082 A 
ATOM      9  C7  UNL d   1      -0.127   2.968  -2.805  0.00  0.00     0.045 A 
ENDROOT
TORSDOF 0
ENDMDL
