MODEL 1
REMARK minimizedAffinity 7.04676771
REMARK minimizedRMSD -1
REMARK  0 active torsions:
REMARK  status: ('A' for Active; 'I' for Inactive)
ROOT
ATOM      1  C   UNL d   1      -5.978   0.569  -5.601  0.00  0.00    -0.002 A 
ATOM      2  C1  UNL d   1      -5.985  -0.433  -4.641  0.00  0.00     0.010 A 
ATOM      3  C2  UNL d   1      -5.986  -0.115  -3.282  0.00  0.00     0.041 A 
ATOM      4  C3  UNL d   1      -5.981   1.241  -2.899  0.00  0.00    -0.075 A 
ATOM      5  S   UNL d   1      -5.981   1.868  -1.293  0.00  0.00     0.015 SA
ATOM      6  C4  UNL d   1      -5.973   3.481  -1.843  0.00  0.00     0.022 A 
ATOM      7  C5  UNL d   1      -5.970   3.558  -3.216  0.00  0.00     0.026 A 
ATOM      8  C6  UNL d   1      -5.975   2.268  -3.847  0.00  0.00    -0.082 A 
ATOM      9  C7  UNL d   1      -5.973   1.913  -5.217  0.00  0.00     0.045 A 
ENDROOT
TORSDOF 0
ENDMDL
