MODEL 1
REMARK minimizedAffinity 7.17156506
REMARK minimizedRMSD -1
REMARK  0 active torsions:
REMARK  status: ('A' for Active; 'I' for Inactive)
ROOT
ATOM      1  C   UNL d   1      -5.922  -5.673  -5.221  0.00  0.00    -0.002 A 
ATOM      2  C1  UNL d   1      -5.807  -5.417  -3.862  0.00  0.00     0.010 A 
ATOM      3  C2  UNL d   1      -4.551  -5.359  -3.254  0.00  0.00     0.041 A 
ATOM      4  C3  UNL d   1      -3.402  -5.564  -4.042  0.00  0.00    -0.075 A 
ATOM      5  S   UNL d   1      -1.761  -5.539  -3.514  0.00  0.00     0.015 SA
ATOM      6  C4  UNL d   1      -1.174  -5.868  -5.080  0.00  0.00     0.022 A 
ATOM      7  C5  UNL d   1      -2.192  -5.996  -5.996  0.00  0.00     0.026 A 
ATOM      8  C6  UNL d   1      -3.492  -5.823  -5.413  0.00  0.00    -0.082 A 
ATOM      9  C7  UNL d   1      -4.780  -5.876  -6.000  0.00  0.00     0.045 A 
ENDROOT
TORSDOF 0
ENDMDL
