MODEL 1
REMARK minimizedAffinity 9.47909546
REMARK minimizedRMSD -1
REMARK  0 active torsions:
REMARK  status: ('A' for Active; 'I' for Inactive)
ROOT
ATOM      1  C   UNL d   1      -1.315  -5.094  -3.605  0.00  0.00    -0.002 A 
ATOM      2  C1  UNL d   1      -1.216  -5.455  -4.942  0.00  0.00     0.010 A 
ATOM      3  C2  UNL d   1      -2.361  -5.752  -5.683  0.00  0.00     0.041 A 
ATOM      4  C3  UNL d   1      -3.619  -5.680  -5.053  0.00  0.00    -0.075 A 
ATOM      5  S   UNL d   1      -5.157  -6.000  -5.763  0.00  0.00     0.015 SA
ATOM      6  C4  UNL d   1      -5.981  -5.665  -4.309  0.00  0.00     0.022 A 
ATOM      7  C5  UNL d   1      -5.119  -5.316  -3.296  0.00  0.00     0.026 A 
ATOM      8  C6  UNL d   1      -3.744  -5.318  -3.708  0.00  0.00    -0.082 A 
ATOM      9  C7  UNL d   1      -2.564  -5.023  -2.984  0.00  0.00     0.045 A 
ENDROOT
TORSDOF 0
ENDMDL
