MODEL 1
REMARK minimizedAffinity 11.8917227
REMARK minimizedRMSD -1
REMARK  0 active torsions:
REMARK  status: ('A' for Active; 'I' for Inactive)
ROOT
ATOM      1  C   UNL d   1       1.265   3.218  -2.501  0.00  0.00    -0.002 A 
ATOM      2  C1  UNL d   1       2.419   3.746  -3.061  0.00  0.00     0.010 A 
ATOM      3  C2  UNL d   1       2.346   4.617  -4.150  0.00  0.00     0.041 A 
ATOM      4  C3  UNL d   1       1.081   4.953  -4.671  0.00  0.00    -0.075 A 
ATOM      5  S   UNL d   1       0.749   6.000  -6.000  0.00  0.00     0.015 SA
ATOM      6  C4  UNL d   1      -0.934   5.772  -5.855  0.00  0.00     0.022 A 
ATOM      7  C5  UNL d   1      -1.252   4.920  -4.823  0.00  0.00     0.026 A 
ATOM      8  C6  UNL d   1      -0.096   4.435  -4.124  0.00  0.00    -0.082 A 
ATOM      9  C7  UNL d   1       0.011   3.554  -3.021  0.00  0.00     0.045 A 
ENDROOT
TORSDOF 0
ENDMDL
