MODEL 1
REMARK minimizedAffinity 4.33669567
REMARK minimizedRMSD -1
REMARK  0 active torsions:
REMARK  status: ('A' for Active; 'I' for Inactive)
ROOT
ATOM      1  C   UNL d   1      -0.846   5.289  -5.820  0.00  0.00    -0.002 A 
ATOM      2  C1  UNL d   1       0.333   5.999  -6.000  0.00  0.00     0.010 A 
ATOM      3  C2  UNL d   1       1.479   5.666  -5.276  0.00  0.00     0.041 A 
ATOM      4  C3  UNL d   1       1.421   4.597  -4.361  0.00  0.00    -0.075 A 
ATOM      5  S   UNL d   1       2.701   4.010  -3.365  0.00  0.00     0.015 SA
ATOM      6  C4  UNL d   1       1.713   2.803  -2.678  0.00  0.00     0.022 A 
ATOM      7  C5  UNL d   1       0.435   2.833  -3.184  0.00  0.00     0.026 A 
ATOM      8  C6  UNL d   1       0.246   3.867  -4.162  0.00  0.00    -0.082 A 
ATOM      9  C7  UNL d   1      -0.900   4.229  -4.911  0.00  0.00     0.045 A 
ENDROOT
TORSDOF 0
ENDMDL
