MODEL 1
REMARK minimizedAffinity 8.38559341
REMARK minimizedRMSD -1
REMARK  0 active torsions:
REMARK  status: ('A' for Active; 'I' for Inactive)
ROOT
ATOM      1  C   UNL d   1       1.204   2.882  -2.429  0.00  0.00    -0.002 A 
ATOM      2  C1  UNL d   1       2.374   3.568  -2.723  0.00  0.00     0.010 A 
ATOM      3  C2  UNL d   1       2.407   4.507  -3.755  0.00  0.00     0.041 A 
ATOM      4  C3  UNL d   1       1.232   4.750  -4.493  0.00  0.00    -0.075 A 
ATOM      5  S   UNL d   1       1.035   5.856  -5.801  0.00  0.00     0.015 SA
ATOM      6  C4  UNL d   1      -0.607   5.445  -6.000  0.00  0.00     0.022 A 
ATOM      7  C5  UNL d   1      -1.012   4.489  -5.099  0.00  0.00     0.026 A 
ATOM      8  C6  UNL d   1       0.041   4.073  -4.216  0.00  0.00    -0.082 A 
ATOM      9  C7  UNL d   1       0.041   3.125  -3.163  0.00  0.00     0.045 A 
ENDROOT
TORSDOF 0
ENDMDL
