MODEL 1
REMARK minimizedAffinity 14.9747257
REMARK minimizedRMSD -1
REMARK  0 active torsions:
REMARK  status: ('A' for Active; 'I' for Inactive)
ROOT
ATOM      1  C   UNL d   1       2.657  -2.855   3.777  0.00  0.00    -0.002 A 
ATOM      2  C1  UNL d   1       1.322  -2.636   3.466  0.00  0.00     0.010 A 
ATOM      3  C2  UNL d   1       0.932  -1.485   2.779  0.00  0.00     0.041 A 
ATOM      4  C3  UNL d   1       1.916  -0.549   2.404  0.00  0.00    -0.075 A 
ATOM      5  S   UNL d   1       1.672   0.932   1.555  0.00  0.00     0.015 SA
ATOM      6  C4  UNL d   1       3.334   1.308   1.584  0.00  0.00     0.022 A 
ATOM      7  C5  UNL d   1       4.071   0.339   2.222  0.00  0.00     0.026 A 
ATOM      8  C6  UNL d   1       3.266  -0.748   2.705  0.00  0.00    -0.082 A 
ATOM      9  C7  UNL d   1       3.630  -1.924   3.403  0.00  0.00     0.045 A 
ENDROOT
TORSDOF 0
ENDMDL
