MODEL 1
REMARK minimizedAffinity 8.05744934
REMARK minimizedRMSD -1
REMARK  0 active torsions:
REMARK  status: ('A' for Active; 'I' for Inactive)
ROOT
ATOM      1  C   UNL d   1      -0.815   5.323  -5.741  0.00  0.00    -0.002 A 
ATOM      2  C1  UNL d   1       0.368   6.000  -6.000  0.00  0.00     0.010 A 
ATOM      3  C2  UNL d   1       1.494   5.792  -5.201  0.00  0.00     0.041 A 
ATOM      4  C3  UNL d   1       1.410   4.884  -4.127  0.00  0.00    -0.075 A 
ATOM      5  S   UNL d   1       2.661   4.469  -3.016  0.00  0.00     0.015 SA
ATOM      6  C4  UNL d   1       1.654   3.384  -2.171  0.00  0.00     0.022 A 
ATOM      7  C5  UNL d   1       0.391   3.327  -2.711  0.00  0.00     0.026 A 
ATOM      8  C6  UNL d   1       0.230   4.190  -3.847  0.00  0.00    -0.082 A 
ATOM      9  C7  UNL d   1      -0.895   4.423  -4.676  0.00  0.00     0.045 A 
ENDROOT
TORSDOF 0
ENDMDL
