MODEL 1
REMARK minimizedAffinity 1.5412879
REMARK minimizedRMSD -1
REMARK  0 active torsions:
REMARK  status: ('A' for Active; 'I' for Inactive)
ROOT
ATOM      1  C   UNL d   1      -0.776  -1.046   2.903  0.00  0.00     0.172 C 
ATOM      2  N   UNL d   1       0.293  -1.885   2.416  0.00  0.00    -0.070 N 
ATOM      3  C1  UNL d   1       0.169  -2.869   1.472  0.00  0.00    -0.004 A 
ATOM      4  C2  UNL d   1       1.412  -3.434   1.284  0.00  0.00    -0.047 A 
ATOM      5  C3  UNL d   1       2.314  -2.767   2.146  0.00  0.00    -0.047 A 
ATOM      6  C4  UNL d   1       1.595  -1.813   2.835  0.00  0.00    -0.004 A 
ENDROOT
TORSDOF 0
ENDMDL
