MODEL 1
REMARK minimizedAffinity 3.9726975
REMARK minimizedRMSD -1
REMARK  0 active torsions:
REMARK  status: ('A' for Active; 'I' for Inactive)
ROOT
ATOM      1  C   UNL d   1       1.673  -3.211   1.953  0.00  0.00     0.172 C 
ATOM      2  N   UNL d   1       0.732  -2.402   2.690  0.00  0.00    -0.070 N 
ATOM      3  C1  UNL d   1      -0.614  -2.325   2.450  0.00  0.00    -0.004 A 
ATOM      4  C2  UNL d   1      -1.157  -1.450   3.366  0.00  0.00    -0.047 A 
ATOM      5  C3  UNL d   1      -0.100  -0.984   4.184  0.00  0.00    -0.047 A 
ATOM      6  C4  UNL d   1       1.058  -1.589   3.744  0.00  0.00    -0.004 A 
ENDROOT
TORSDOF 0
ENDMDL
