MODEL 1
REMARK minimizedAffinity 4.51464891
REMARK minimizedRMSD -1
REMARK  0 active torsions:
REMARK  status: ('A' for Active; 'I' for Inactive)
ROOT
ATOM      1  C   UNL d   1      -3.797  -0.422  -5.646  0.00  0.00     0.172 C 
ATOM      2  N   UNL d   1      -4.040  -1.127  -4.410  0.00  0.00    -0.070 N 
ATOM      3  C1  UNL d   1      -4.835  -2.232  -4.264  0.00  0.00    -0.004 A 
ATOM      4  C2  UNL d   1      -4.805  -2.601  -2.936  0.00  0.00    -0.047 A 
ATOM      5  C3  UNL d   1      -3.963  -1.686  -2.261  0.00  0.00    -0.047 A 
ATOM      6  C4  UNL d   1      -3.503  -0.784  -3.197  0.00  0.00    -0.004 A 
ENDROOT
TORSDOF 0
ENDMDL
