MODEL 1
REMARK minimizedAffinity 8.53018665
REMARK minimizedRMSD -1
REMARK  0 active torsions:
REMARK  status: ('A' for Active; 'I' for Inactive)
ROOT
ATOM      1  C   UNL d   1      -5.994   0.456  -3.113  0.00  0.00     0.172 C 
ATOM      2  N   UNL d   1      -5.001  -0.580  -2.959  0.00  0.00    -0.070 N 
ATOM      3  C1  UNL d   1      -5.004  -1.790  -3.599  0.00  0.00    -0.004 A 
ATOM      4  C2  UNL d   1      -3.892  -2.490  -3.184  0.00  0.00    -0.047 A 
ATOM      5  C3  UNL d   1      -3.197  -1.673  -2.261  0.00  0.00    -0.047 A 
ATOM      6  C4  UNL d   1      -3.906  -0.496  -2.140  0.00  0.00    -0.004 A 
ENDROOT
TORSDOF 0
ENDMDL
