MODEL 1
REMARK minimizedAffinity 6.91080475
REMARK minimizedRMSD -1
REMARK  0 active torsions:
REMARK  status: ('A' for Active; 'I' for Inactive)
ROOT
ATOM      1  C   UNL d   1       2.251   0.348   0.504  0.00  0.00     0.172 C 
ATOM      2  N   UNL d   1       2.098  -1.018   0.946  0.00  0.00    -0.070 N 
ATOM      3  C1  UNL d   1       0.969  -1.780   0.807  0.00  0.00    -0.004 A 
ATOM      4  C2  UNL d   1       1.226  -3.018   1.355  0.00  0.00    -0.047 A 
ATOM      5  C3  UNL d   1       2.555  -2.999   1.841  0.00  0.00    -0.047 A 
ATOM      6  C4  UNL d   1       3.071  -1.748   1.575  0.00  0.00    -0.004 A 
ENDROOT
TORSDOF 0
ENDMDL
