MODEL 1
REMARK minimizedAffinity 6.56708765
REMARK minimizedRMSD -1
REMARK  0 active torsions:
REMARK  status: ('A' for Active; 'I' for Inactive)
ROOT
ATOM      1  C   UNL d   1      -0.573  -1.789   3.332  0.00  0.00     0.172 C 
ATOM      2  N   UNL d   1       0.560  -2.404   2.682  0.00  0.00    -0.070 N 
ATOM      3  C1  UNL d   1       1.843  -2.418   3.159  0.00  0.00    -0.004 A 
ATOM      4  C2  UNL d   1       2.624  -3.101   2.251  0.00  0.00    -0.047 A 
ATOM      5  C3  UNL d   1       1.780  -3.511   1.191  0.00  0.00    -0.047 A 
ATOM      6  C4  UNL d   1       0.508  -3.066   1.484  0.00  0.00    -0.004 A 
ENDROOT
TORSDOF 0
ENDMDL
