MODEL 1
REMARK minimizedAffinity 7.13574028
REMARK minimizedRMSD -1
REMARK  0 active torsions:
REMARK  status: ('A' for Active; 'I' for Inactive)
ROOT
ATOM      1  C   UNL d   1       0.949  -1.502   1.297  0.00  0.00     0.172 C 
ATOM      2  N   UNL d   1       1.150  -0.573   0.210  0.00  0.00    -0.070 N 
ATOM      3  C1  UNL d   1       0.505  -0.605  -0.997  0.00  0.00    -0.004 A 
ATOM      4  C2  UNL d   1       0.974   0.447  -1.755  0.00  0.00    -0.047 A 
ATOM      5  C3  UNL d   1       1.934   1.135  -0.975  0.00  0.00    -0.047 A 
ATOM      6  C4  UNL d   1       2.023   0.482   0.236  0.00  0.00    -0.004 A 
ENDROOT
TORSDOF 0
ENDMDL
