MODEL 1
REMARK minimizedAffinity 10.3318634
REMARK minimizedRMSD -1
REMARK  0 active torsions:
REMARK  status: ('A' for Active; 'I' for Inactive)
ROOT
ATOM      1  C   UNL d   1       0.897  -1.816   1.386  0.00  0.00     0.172 C 
ATOM      2  N   UNL d   1       1.105  -0.754   0.431  0.00  0.00    -0.070 N 
ATOM      3  C1  UNL d   1       0.562  -0.691  -0.825  0.00  0.00    -0.004 A 
ATOM      4  C2  UNL d   1       1.001   0.474  -1.417  0.00  0.00    -0.047 A 
ATOM      5  C3  UNL d   1       1.837   1.134  -0.485  0.00  0.00    -0.047 A 
ATOM      6  C4  UNL d   1       1.884   0.352   0.650  0.00  0.00    -0.004 A 
ENDROOT
TORSDOF 0
ENDMDL
