MODEL 1
REMARK minimizedAffinity 2.47085738
REMARK minimizedRMSD -1
REMARK  1 active torsions:
REMARK  status: ('A' for Active; 'I' for Inactive)
REMARK    1  A    between atoms: C1_2  and  C2_3 
ROOT
ATOM      1  C2  UNL d   1      -4.371  -1.108   1.208  0.00  0.00    -0.073 A 
ATOM      2  C3  UNL d   1      -3.373  -1.659   0.396  0.00  0.00    -0.002 A 
ATOM      3  C4  UNL d   1      -2.037  -1.618   0.795  0.00  0.00     0.004 A 
ATOM      4  C5  UNL d   1      -1.685  -1.033   2.012  0.00  0.00    -0.004 A 
ATOM      5  C6  UNL d   1      -2.669  -0.488   2.843  0.00  0.00    -0.075 A 
ATOM      6  C7  UNL d   1      -2.307   0.147   4.153  0.00  0.00     0.076 C 
ATOM      7  C8  UNL d   1      -4.008  -0.531   2.434  0.00  0.00     0.001 A 
ENDROOT
BRANCH   1   8
ATOM      8  C1  UNL d   1      -5.816  -1.156   0.785  0.00  0.00     0.053 C 
ATOM      9  C   UNL d   1      -5.992  -0.794  -0.681  0.00  0.00     0.018 C 
ENDBRANCH   1   8
TORSDOF 1
ENDMDL
