MODEL 1
REMARK minimizedAffinity 2.5446527
REMARK minimizedRMSD -1
REMARK  1 active torsions:
REMARK  status: ('A' for Active; 'I' for Inactive)
REMARK    1  A    between atoms: C1_2  and  C2_3 
ROOT
ATOM      1  C2  UNL d   1       4.909   1.482   3.460  0.00  0.00    -0.073 A 
ATOM      2  C3  UNL d   1       5.853   1.487   4.493  0.00  0.00    -0.002 A 
ATOM      3  C4  UNL d   1       6.000   0.373   5.320  0.00  0.00     0.004 A 
ATOM      4  C5  UNL d   1       5.211  -0.759   5.119  0.00  0.00    -0.004 A 
ATOM      5  C6  UNL d   1       4.269  -0.788   4.085  0.00  0.00    -0.075 A 
ATOM      6  C7  UNL d   1       3.411  -1.998   3.857  0.00  0.00     0.076 C 
ATOM      7  C8  UNL d   1       4.126   0.335   3.260  0.00  0.00     0.001 A 
ENDROOT
BRANCH   1   8
ATOM      8  C1  UNL d   1       4.751   2.680   2.560  0.00  0.00     0.053 C 
ATOM      9  C   UNL d   1       3.469   2.617   1.746  0.00  0.00     0.018 C 
ENDBRANCH   1   8
TORSDOF 1
ENDMDL
