MODEL 1
REMARK minimizedAffinity -5.74414539
REMARK minimizedRMSD -1
REMARK  1 active torsions:
REMARK  status: ('A' for Active; 'I' for Inactive)
REMARK    1  A    between atoms: C1_2  and  C2_3 
ROOT
ATOM      1  C2  UNL d   1       3.497  -0.007  -4.362  0.00  0.00    -0.073 A 
ATOM      2  C3  UNL d   1       2.329   0.764  -4.340  0.00  0.00    -0.002 A 
ATOM      3  C4  UNL d   1       1.208   0.326  -3.635  0.00  0.00     0.004 A 
ATOM      4  C5  UNL d   1       1.244  -0.882  -2.939  0.00  0.00    -0.004 A 
ATOM      5  C6  UNL d   1       2.405  -1.662  -2.939  0.00  0.00    -0.075 A 
ATOM      6  C7  UNL d   1       2.460  -2.965  -2.198  0.00  0.00     0.076 C 
ATOM      7  C8  UNL d   1       3.526  -1.216  -3.652  0.00  0.00     0.001 A 
ENDROOT
BRANCH   1   8
ATOM      8  C1  UNL d   1       4.712   0.465  -5.117  0.00  0.00     0.053 C 
ATOM      9  C   UNL d   1       6.000  -0.088  -4.527  0.00  0.00     0.018 C 
ENDBRANCH   1   8
TORSDOF 1
ENDMDL
