MODEL 1
REMARK minimizedAffinity 7.71641541
REMARK minimizedRMSD -1
REMARK  1 active torsions:
REMARK  status: ('A' for Active; 'I' for Inactive)
REMARK    1  A    between atoms: C1_2  and  C2_3 
ROOT
ATOM      1  C2  UNL d   1      -2.970   0.949   1.684  0.00  0.00    -0.073 A 
ATOM      2  C3  UNL d   1      -2.215   1.015   2.861  0.00  0.00    -0.002 A 
ATOM      3  C4  UNL d   1      -2.572   0.249   3.971  0.00  0.00     0.004 A 
ATOM      4  C5  UNL d   1      -3.681  -0.595   3.914  0.00  0.00    -0.004 A 
ATOM      5  C6  UNL d   1      -4.441  -0.683   2.743  0.00  0.00    -0.075 A 
ATOM      6  C7  UNL d   1      -5.638  -1.584   2.667  0.00  0.00     0.076 C 
ATOM      7  C8  UNL d   1      -4.077   0.091   1.633  0.00  0.00     0.001 A 
ENDROOT
BRANCH   1   8
ATOM      8  C1  UNL d   1      -2.584   1.770   0.480  0.00  0.00     0.053 C 
ATOM      9  C   UNL d   1      -2.278   0.900  -0.729  0.00  0.00     0.018 C 
ENDBRANCH   1   8
TORSDOF 1
ENDMDL
