MODEL 1
REMARK minimizedAffinity -5.07601929
REMARK minimizedRMSD -1
REMARK  1 active torsions:
REMARK  status: ('A' for Active; 'I' for Inactive)
REMARK    1  A    between atoms: C1_2  and  C2_3 
ROOT
ATOM      1  C2  UNL d   1      -2.826   0.754   2.723  0.00  0.00    -0.073 A 
ATOM      2  C3  UNL d   1      -2.700   1.988   2.075  0.00  0.00    -0.002 A 
ATOM      3  C4  UNL d   1      -2.561   2.044   0.687  0.00  0.00     0.004 A 
ATOM      4  C5  UNL d   1      -2.554   0.870  -0.065  0.00  0.00    -0.004 A 
ATOM      5  C6  UNL d   1      -2.691  -0.372   0.563  0.00  0.00    -0.075 A 
ATOM      6  C7  UNL d   1      -2.683  -1.645  -0.232  0.00  0.00     0.076 C 
ATOM      7  C8  UNL d   1      -2.827  -0.420   1.957  0.00  0.00     0.001 A 
ENDROOT
BRANCH   1   8
ATOM      8  C1  UNL d   1      -2.982   0.689   4.221  0.00  0.00     0.053 C 
ATOM      9  C   UNL d   1      -4.107  -0.245   4.636  0.00  0.00     0.018 C 
ENDBRANCH   1   8
TORSDOF 1
ENDMDL
