MODEL 1
REMARK minimizedAffinity 6.65705347
REMARK minimizedRMSD -1
REMARK  1 active torsions:
REMARK  status: ('A' for Active; 'I' for Inactive)
REMARK    1  A    between atoms: C1_2  and  C2_3 
ROOT
ATOM      1  C2  UNL d   1      -3.675  -0.196   1.203  0.00  0.00    -0.073 A 
ATOM      2  C3  UNL d   1      -4.948  -0.675   1.531  0.00  0.00    -0.002 A 
ATOM      3  C4  UNL d   1      -5.239  -1.067   2.838  0.00  0.00     0.004 A 
ATOM      4  C5  UNL d   1      -4.264  -0.979   3.831  0.00  0.00    -0.004 A 
ATOM      5  C6  UNL d   1      -2.989  -0.492   3.526  0.00  0.00    -0.075 A 
ATOM      6  C7  UNL d   1      -1.928  -0.393   4.582  0.00  0.00     0.076 C 
ATOM      7  C8  UNL d   1      -2.703  -0.102   2.211  0.00  0.00     0.001 A 
ENDROOT
BRANCH   1   8
ATOM      8  C1  UNL d   1      -3.358   0.235  -0.205  0.00  0.00     0.053 C 
ATOM      9  C   UNL d   1      -2.786   1.643  -0.255  0.00  0.00     0.018 C 
ENDBRANCH   1   8
TORSDOF 1
ENDMDL
