MODEL 1
REMARK minimizedAffinity 0.462162554
REMARK minimizedRMSD -1
REMARK  1 active torsions:
REMARK  status: ('A' for Active; 'I' for Inactive)
REMARK    1  A    between atoms: C1_2  and  C2_3 
ROOT
ATOM      1  C2  UNL d   1      -2.975   1.408   0.624  0.00  0.00    -0.073 A 
ATOM      2  C3  UNL d   1      -3.498   2.677   0.352  0.00  0.00    -0.002 A 
ATOM      3  C4  UNL d   1      -2.873   3.513  -0.574  0.00  0.00     0.004 A 
ATOM      4  C5  UNL d   1      -1.724   3.087  -1.241  0.00  0.00    -0.004 A 
ATOM      5  C6  UNL d   1      -1.193   1.818  -0.991  0.00  0.00    -0.075 A 
ATOM      6  C7  UNL d   1       0.043   1.346  -1.699  0.00  0.00     0.076 C 
ATOM      7  C8  UNL d   1      -1.825   0.985  -0.058  0.00  0.00     0.001 A 
ENDROOT
BRANCH   1   8
ATOM      8  C1  UNL d   1      -3.650   0.499   1.618  0.00  0.00     0.053 C 
ATOM      9  C   UNL d   1      -2.871   0.399   2.920  0.00  0.00     0.018 C 
ENDBRANCH   1   8
TORSDOF 1
ENDMDL
