MODEL 1
REMARK minimizedAffinity 3.06364727
REMARK minimizedRMSD -1
REMARK  1 active torsions:
REMARK  status: ('A' for Active; 'I' for Inactive)
REMARK    1  A    between atoms: C1_2  and  C2_3 
ROOT
ATOM      1  C2  UNL d   1      -4.283  -0.654   1.062  0.00  0.00    -0.073 A 
ATOM      2  C3  UNL d   1      -5.501  -0.994   1.660  0.00  0.00    -0.002 A 
ATOM      3  C4  UNL d   1      -5.570  -1.231   3.034  0.00  0.00     0.004 A 
ATOM      4  C5  UNL d   1      -4.425  -1.124   3.823  0.00  0.00    -0.004 A 
ATOM      5  C6  UNL d   1      -3.200  -0.775   3.245  0.00  0.00    -0.075 A 
ATOM      6  C7  UNL d   1      -1.958  -0.658   4.079  0.00  0.00     0.076 C 
ATOM      7  C8  UNL d   1      -3.139  -0.541   1.864  0.00  0.00     0.001 A 
ENDROOT
BRANCH   1   8
ATOM      8  C1  UNL d   1      -4.205  -0.391  -0.420  0.00  0.00     0.053 C 
ATOM      9  C   UNL d   1      -5.582  -0.248  -1.047  0.00  0.00     0.018 C 
ENDBRANCH   1   8
TORSDOF 1
ENDMDL
