MODEL 1
REMARK minimizedAffinity 5.32225132
REMARK minimizedRMSD -1
REMARK  3 active torsions:
REMARK  status: ('A' for Active; 'I' for Inactive)
REMARK    1  A    between atoms: C3'_2  and  C2'_3 
REMARK    2  A    between atoms: C2'_3  and  C1'_4 
REMARK    3  A    between atoms: C1'_4  and  C1_5 
ROOT
ATOM      1  C1  N4B d   1       0.539  -2.051   2.133  0.00  0.00    -0.075 A 
ATOM      2  C2  N4B d   1       0.910  -1.282   1.007  0.00  0.00     0.002 A 
ATOM      3  C3  N4B d   1       1.947  -1.694   0.207  0.00  0.00     0.002 A 
ATOM      4  C4  N4B d   1       2.637  -2.855   0.521  0.00  0.00    -0.004 A 
ATOM      5  C5  N4B d   1       2.256  -3.605   1.595  0.00  0.00     0.002 A 
ATOM      6  C6  N4B d   1       1.213  -3.205   2.406  0.00  0.00     0.002 A 
ENDROOT
BRANCH   1   7
ATOM      7  C1' N4B d   1      -0.532  -1.597   3.086  0.00  0.00     0.057 C 
BRANCH   7   8
ATOM      8  C2' N4B d   1      -1.222  -0.362   2.513  0.00  0.00     0.009 C 
BRANCH   8   9
ATOM      9  C3' N4B d   1      -2.628  -0.671   2.026  0.00  0.00     0.004 C 
ATOM     10  C4' N4B d   1      -2.682  -0.962   0.556  0.00  0.00     0.003 C 
ENDBRANCH   8   9
ENDBRANCH   7   8
ENDBRANCH   1   7
TORSDOF 3
ENDMDL
