MODEL 1
REMARK minimizedAffinity 0.603557408
REMARK minimizedRMSD -1
REMARK  3 active torsions:
REMARK  status: ('A' for Active; 'I' for Inactive)
REMARK    1  A    between atoms: C3'_2  and  C2'_3 
REMARK    2  A    between atoms: C2'_3  and  C1'_4 
REMARK    3  A    between atoms: C1'_4  and  C1_5 
ROOT
ATOM      1  C1  N4B d   1       4.195   2.771   2.225  0.00  0.00    -0.075 A 
ATOM      2  C2  N4B d   1       3.327   2.640   1.119  0.00  0.00     0.002 A 
ATOM      3  C3  N4B d   1       1.968   2.714   1.300  0.00  0.00     0.002 A 
ATOM      4  C4  N4B d   1       1.455   2.899   2.575  0.00  0.00    -0.004 A 
ATOM      5  C5  N4B d   1       2.301   3.050   3.635  0.00  0.00     0.002 A 
ATOM      6  C6  N4B d   1       3.669   2.982   3.467  0.00  0.00     0.002 A 
ENDROOT
BRANCH   1   7
ATOM      7  C1' N4B d   1       5.684   2.611   2.088  0.00  0.00     0.057 C 
BRANCH   7   8
ATOM      8  C2' N4B d   1       5.988   1.789   0.839  0.00  0.00     0.009 C 
BRANCH   8   9
ATOM      9  C3' N4B d   1       5.976   0.297   1.123  0.00  0.00     0.004 C 
ATOM     10  C4' N4B d   1       5.999  -0.532  -0.126  0.00  0.00     0.003 C 
ENDBRANCH   8   9
ENDBRANCH   7   8
ENDBRANCH   1   7
TORSDOF 3
ENDMDL
