MODEL 1
REMARK minimizedAffinity 11.2364035
REMARK minimizedRMSD -1
REMARK  3 active torsions:
REMARK  status: ('A' for Active; 'I' for Inactive)
REMARK    1  A    between atoms: C3'_2  and  C2'_3 
REMARK    2  A    between atoms: C2'_3  and  C1'_4 
REMARK    3  A    between atoms: C1'_4  and  C1_5 
ROOT
ATOM      1  C1  N4B d   1      -2.145   0.315   2.642  0.00  0.00    -0.075 A 
ATOM      2  C2  N4B d   1      -2.643   0.864   3.844  0.00  0.00     0.002 A 
ATOM      3  C3  N4B d   1      -3.907   1.401   3.882  0.00  0.00     0.002 A 
ATOM      4  C4  N4B d   1      -4.680   1.416   2.731  0.00  0.00    -0.004 A 
ATOM      5  C5  N4B d   1      -4.201   0.861   1.581  0.00  0.00     0.002 A 
ATOM      6  C6  N4B d   1      -2.935   0.315   1.529  0.00  0.00     0.002 A 
ENDROOT
BRANCH   1   7
ATOM      7  C1' N4B d   1      -0.738  -0.206   2.530  0.00  0.00     0.057 C 
BRANCH   7   8
ATOM      8  C2' N4B d   1      -0.450  -1.128   3.710  0.00  0.00     0.009 C 
BRANCH   8   9
ATOM      9  C3' N4B d   1      -0.804  -2.573   3.403  0.00  0.00     0.004 C 
ATOM     10  C4' N4B d   1      -1.968  -3.070   4.208  0.00  0.00     0.003 C 
ENDBRANCH   8   9
ENDBRANCH   7   8
ENDBRANCH   1   7
TORSDOF 3
ENDMDL
