MODEL 1
REMARK minimizedAffinity 4.80649185
REMARK minimizedRMSD -1
REMARK  3 active torsions:
REMARK  status: ('A' for Active; 'I' for Inactive)
REMARK    1  A    between atoms: C3'_2  and  C2'_3 
REMARK    2  A    between atoms: C2'_3  and  C1'_4 
REMARK    3  A    between atoms: C1'_4  and  C1_5 
ROOT
ATOM      1  C1  N4B d   1       3.294  -4.056   3.710  0.00  0.00    -0.075 A 
ATOM      2  C2  N4B d   1       3.604  -5.433   3.736  0.00  0.00     0.002 A 
ATOM      3  C3  N4B d   1       4.117  -6.000   4.877  0.00  0.00     0.002 A 
ATOM      4  C4  N4B d   1       4.345  -5.208   5.993  0.00  0.00    -0.004 A 
ATOM      5  C5  N4B d   1       4.020  -3.883   5.967  0.00  0.00     0.002 A 
ATOM      6  C6  N4B d   1       3.500  -3.302   4.829  0.00  0.00     0.002 A 
ENDROOT
BRANCH   1   7
ATOM      7  C1' N4B d   1       2.812  -3.374   2.458  0.00  0.00     0.057 C 
BRANCH   7   8
ATOM      8  C2' N4B d   1       1.292  -3.253   2.508  0.00  0.00     0.009 C 
BRANCH   8   9
ATOM      9  C3' N4B d   1       0.847  -1.928   3.105  0.00  0.00     0.004 C 
ATOM     10  C4' N4B d   1      -0.597  -1.929   3.508  0.00  0.00     0.003 C 
ENDBRANCH   8   9
ENDBRANCH   7   8
ENDBRANCH   1   7
TORSDOF 3
ENDMDL
