MODEL 1
REMARK minimizedAffinity 4.49444866
REMARK minimizedRMSD -1
REMARK  3 active torsions:
REMARK  status: ('A' for Active; 'I' for Inactive)
REMARK    1  A    between atoms: C3'_2  and  C2'_3 
REMARK    2  A    between atoms: C2'_3  and  C1'_4 
REMARK    3  A    between atoms: C1'_4  and  C1_5 
ROOT
ATOM      1  C1  N4B d   1       1.965  -2.730   1.453  0.00  0.00    -0.075 A 
ATOM      2  C2  N4B d   1       1.406  -4.025   1.512  0.00  0.00     0.002 A 
ATOM      3  C3  N4B d   1       2.161  -5.116   1.154  0.00  0.00     0.002 A 
ATOM      4  C4  N4B d   1       3.465  -4.934   0.719  0.00  0.00    -0.004 A 
ATOM      5  C5  N4B d   1       4.006  -3.682   0.689  0.00  0.00     0.002 A 
ATOM      6  C6  N4B d   1       3.260  -2.577   1.049  0.00  0.00     0.002 A 
ENDROOT
BRANCH   1   7
ATOM      7  C1' N4B d   1       1.152  -1.500   1.752  0.00  0.00     0.057 C 
BRANCH   7   8
ATOM      8  C2' N4B d   1       0.780  -1.493   3.231  0.00  0.00     0.009 C 
BRANCH   8   9
ATOM      9  C3' N4B d   1      -0.702  -1.748   3.446  0.00  0.00     0.004 C 
ATOM     10  C4' N4B d   1      -1.456  -0.509   3.826  0.00  0.00     0.003 C 
ENDBRANCH   8   9
ENDBRANCH   7   8
ENDBRANCH   1   7
TORSDOF 3
ENDMDL
