MODEL 1
REMARK minimizedAffinity 17.3037567
REMARK minimizedRMSD -1
REMARK  0 active torsions:
REMARK  status: ('A' for Active; 'I' for Inactive)
ROOT
ATOM      1  C   UNL d   1      -3.233   0.834  -3.995  0.00  0.00     0.124 A 
ATOM      2  C1  UNL d   1      -4.379   1.590  -3.793  0.00  0.00     0.062 A 
ATOM      3  C2  UNL d   1      -4.476   2.871  -4.330  0.00  0.00     0.162 A 
ATOM      4  C3  UNL d   1      -3.424   3.403  -5.075  0.00  0.00    -0.034 A 
ATOM      5  C4  UNL d   1      -2.274   2.636  -5.273  0.00  0.00     0.162 A 
ATOM      6  C5  UNL d   1      -2.182   1.357  -4.734  0.00  0.00     0.062 A 
ATOM      7  F   UNL d   1      -1.074   0.627  -4.930  0.00  0.00    -0.097 F 
ATOM      8  F1  UNL d   1      -1.244   3.117  -5.984  0.00  0.00    -0.096 F 
ATOM      9  I   UNL d   1      -3.565   5.317  -5.879  0.00  0.00    -0.060 I 
ATOM     10  F2  UNL d   1      -5.595   3.579  -4.119  0.00  0.00    -0.096 F 
ATOM     11  F3  UNL d   1      -5.396   1.087  -3.078  0.00  0.00    -0.097 F 
ATOM     12  F4  UNL d   1      -3.142  -0.398  -3.476  0.00  0.00    -0.092 F 
ENDROOT
TORSDOF 0
ENDMDL
