MODEL 1
REMARK minimizedAffinity 22.9443493
REMARK minimizedRMSD -1
REMARK  0 active torsions:
REMARK  status: ('A' for Active; 'I' for Inactive)
ROOT
ATOM      1  C   UNL d   1      -3.050   0.763  -3.695  0.00  0.00     0.124 A 
ATOM      2  C1  UNL d   1      -4.338   1.247  -3.513  0.00  0.00     0.062 A 
ATOM      3  C2  UNL d   1      -4.750   2.403  -4.170  0.00  0.00     0.162 A 
ATOM      4  C3  UNL d   1      -3.873   3.083  -5.016  0.00  0.00    -0.034 A 
ATOM      5  C4  UNL d   1      -2.579   2.590  -5.193  0.00  0.00     0.162 A 
ATOM      6  C5  UNL d   1      -2.172   1.434  -4.534  0.00  0.00     0.062 A 
ATOM      7  F   UNL d   1      -0.927   0.967  -4.711  0.00  0.00    -0.097 F 
ATOM      8  F1  UNL d   1      -1.710   3.218  -5.999  0.00  0.00    -0.096 F 
ATOM      9  I   UNL d   1      -4.485   4.811  -6.000  0.00  0.00    -0.060 I 
ATOM     10  F2  UNL d   1      -6.000   2.848  -3.976  0.00  0.00    -0.096 F 
ATOM     11  F3  UNL d   1      -5.187   0.601  -2.702  0.00  0.00    -0.097 F 
ATOM     12  F4  UNL d   1      -2.655  -0.349  -3.061  0.00  0.00    -0.092 F 
ENDROOT
TORSDOF 0
ENDMDL
