MODEL 1
REMARK minimizedAffinity 21.472908
REMARK minimizedRMSD -1
REMARK  0 active torsions:
REMARK  status: ('A' for Active; 'I' for Inactive)
ROOT
ATOM      1  C   UNL d   1      -0.504   2.262   0.536  0.00  0.00     0.124 A 
ATOM      2  C1  UNL d   1       0.857   2.372   0.785  0.00  0.00     0.062 A 
ATOM      3  C2  UNL d   1       1.581   3.438   0.259  0.00  0.00     0.162 A 
ATOM      4  C3  UNL d   1       0.945   4.404  -0.521  0.00  0.00    -0.034 A 
ATOM      5  C4  UNL d   1      -0.424   4.286  -0.768  0.00  0.00     0.162 A 
ATOM      6  C5  UNL d   1      -1.143   3.218  -0.240  0.00  0.00     0.062 A 
ATOM      7  F   UNL d   1      -2.458   3.113  -0.482  0.00  0.00    -0.097 F 
ATOM      8  F1  UNL d   1      -1.067   5.196  -1.514  0.00  0.00    -0.096 F 
ATOM      9  I   UNL d   1       2.024   5.999  -1.309  0.00  0.00    -0.060 I 
ATOM     10  F2  UNL d   1       2.895   3.519   0.516  0.00  0.00    -0.096 F 
ATOM     11  F3  UNL d   1       1.477   1.448   1.534  0.00  0.00    -0.097 F 
ATOM     12  F4  UNL d   1      -1.198   1.234   1.042  0.00  0.00    -0.092 F 
ENDROOT
TORSDOF 0
ENDMDL
