MODEL 1
REMARK minimizedAffinity 25.3537617
REMARK minimizedRMSD -1
REMARK  0 active torsions:
REMARK  status: ('A' for Active; 'I' for Inactive)
ROOT
ATOM      1  C   UNL d   1       5.272  -2.991   3.763  0.00  0.00     0.124 A 
ATOM      2  C1  UNL d   1       4.568  -2.254   4.706  0.00  0.00     0.062 A 
ATOM      3  C2  UNL d   1       3.812  -1.154   4.313  0.00  0.00     0.162 A 
ATOM      4  C3  UNL d   1       3.755  -0.784   2.969  0.00  0.00    -0.034 A 
ATOM      5  C4  UNL d   1       4.466  -1.528   2.027  0.00  0.00     0.162 A 
ATOM      6  C5  UNL d   1       5.221  -2.627   2.425  0.00  0.00     0.062 A 
ATOM      7  F   UNL d   1       5.900  -3.337   1.513  0.00  0.00    -0.097 F 
ATOM      8  F1  UNL d   1       4.433  -1.200   0.727  0.00  0.00    -0.096 F 
ATOM      9  I   UNL d   1       2.625   0.861   2.377  0.00  0.00    -0.060 I 
ATOM     10  F2  UNL d   1       3.142  -0.461   5.245  0.00  0.00    -0.096 F 
ATOM     11  F3  UNL d   1       4.617  -2.603   6.000  0.00  0.00    -0.097 F 
ATOM     12  F4  UNL d   1       6.000  -4.048   4.145  0.00  0.00    -0.092 F 
ENDROOT
TORSDOF 0
ENDMDL
