MODEL 1
REMARK minimizedAffinity 27.3455162
REMARK minimizedRMSD -1
REMARK  0 active torsions:
REMARK  status: ('A' for Active; 'I' for Inactive)
ROOT
ATOM      1  C   UNL d   1       1.563   5.266  -1.123  0.00  0.00     0.124 A 
ATOM      2  C1  UNL d   1       0.313   5.288  -1.725  0.00  0.00     0.062 A 
ATOM      3  C2  UNL d   1      -0.744   4.573  -1.170  0.00  0.00     0.162 A 
ATOM      4  C3  UNL d   1      -0.556   3.830  -0.005  0.00  0.00    -0.034 A 
ATOM      5  C4  UNL d   1       0.705   3.812   0.595  0.00  0.00     0.162 A 
ATOM      6  C5  UNL d   1       1.758   4.528   0.036  0.00  0.00     0.062 A 
ATOM      7  F   UNL d   1       2.965   4.506   0.619  0.00  0.00    -0.097 F 
ATOM      8  F1  UNL d   1       0.921   3.108   1.716  0.00  0.00    -0.096 F 
ATOM      9  I   UNL d   1      -2.134   2.759   0.829  0.00  0.00    -0.060 I 
ATOM     10  F2  UNL d   1      -1.942   4.613  -1.773  0.00  0.00    -0.096 F 
ATOM     11  F3  UNL d   1       0.122   6.000  -2.846  0.00  0.00    -0.097 F 
ATOM     12  F4  UNL d   1       2.579   5.955  -1.660  0.00  0.00    -0.092 F 
ENDROOT
TORSDOF 0
ENDMDL
