MODEL 1
REMARK minimizedAffinity 12.3067322
REMARK minimizedRMSD -1
REMARK  0 active torsions:
REMARK  status: ('A' for Active; 'I' for Inactive)
ROOT
ATOM      1  C   UNL d   1      -1.713   1.969  -5.081  0.00  0.00     0.124 A 
ATOM      2  C1  UNL d   1      -0.694   1.474  -4.278  0.00  0.00     0.062 A 
ATOM      3  C2  UNL d   1      -0.092   2.294  -3.328  0.00  0.00     0.162 A 
ATOM      4  C3  UNL d   1      -0.507   3.617  -3.174  0.00  0.00    -0.034 A 
ATOM      5  C4  UNL d   1      -1.531   4.107  -3.986  0.00  0.00     0.162 A 
ATOM      6  C5  UNL d   1      -2.130   3.284  -4.934  0.00  0.00     0.062 A 
ATOM      7  F   UNL d   1      -3.114   3.764  -5.709  0.00  0.00    -0.097 F 
ATOM      8  F1  UNL d   1      -1.955   5.374  -3.865  0.00  0.00    -0.096 F 
ATOM      9  I   UNL d   1       0.392   4.845  -1.755  0.00  0.00    -0.060 I 
ATOM     10  F2  UNL d   1       0.890   1.789  -2.566  0.00  0.00    -0.096 F 
ATOM     11  F3  UNL d   1      -0.289   0.204  -4.418  0.00  0.00    -0.097 F 
ATOM     12  F4  UNL d   1      -2.290   1.179  -5.995  0.00  0.00    -0.092 F 
ENDROOT
TORSDOF 0
ENDMDL
