MODEL 1
REMARK minimizedAffinity 20.7418995
REMARK minimizedRMSD -1
REMARK  0 active torsions:
REMARK  status: ('A' for Active; 'I' for Inactive)
ROOT
ATOM      1  C   UNL d   1       1.485   5.173  -0.745  0.00  0.00     0.124 A 
ATOM      2  C1  UNL d   1       0.320   5.189  -1.498  0.00  0.00     0.062 A 
ATOM      3  C2  UNL d   1      -0.748   4.364  -1.154  0.00  0.00     0.162 A 
ATOM      4  C3  UNL d   1      -0.655   3.517  -0.050  0.00  0.00    -0.034 A 
ATOM      5  C4  UNL d   1       0.521   3.506   0.702  0.00  0.00     0.162 A 
ATOM      6  C5  UNL d   1       1.585   4.332   0.354  0.00  0.00     0.062 A 
ATOM      7  F   UNL d   1       2.710   4.315   1.083  0.00  0.00    -0.097 F 
ATOM      8  F1  UNL d   1       0.644   2.703   1.770  0.00  0.00    -0.096 F 
ATOM      9  I   UNL d   1      -2.248   2.282   0.468  0.00  0.00    -0.060 I 
ATOM     10  F2  UNL d   1      -1.862   4.400  -1.900  0.00  0.00    -0.096 F 
ATOM     11  F3  UNL d   1       0.221   6.000  -2.562  0.00  0.00    -0.097 F 
ATOM     12  F4  UNL d   1       2.511   5.967  -1.079  0.00  0.00    -0.092 F 
ENDROOT
TORSDOF 0
ENDMDL
