MODEL 1
REMARK minimizedAffinity 26.7377796
REMARK minimizedRMSD -1
REMARK  0 active torsions:
REMARK  status: ('A' for Active; 'I' for Inactive)
ROOT
ATOM      1  C   UNL d   1       0.174   3.413  -0.355  0.00  0.00     0.124 A 
ATOM      2  C1  UNL d   1      -0.440   2.443   0.426  0.00  0.00     0.062 A 
ATOM      3  C2  UNL d   1      -1.710   2.665   0.949  0.00  0.00     0.162 A 
ATOM      4  C3  UNL d   1      -2.377   3.863   0.693  0.00  0.00    -0.034 A 
ATOM      5  C4  UNL d   1      -1.753   4.835  -0.092  0.00  0.00     0.162 A 
ATOM      6  C5  UNL d   1      -0.483   4.608  -0.613  0.00  0.00     0.062 A 
ATOM      7  F   UNL d   1       0.107   5.546  -1.367  0.00  0.00    -0.097 F 
ATOM      8  F1  UNL d   1      -2.366   5.998  -0.359  0.00  0.00    -0.096 F 
ATOM      9  I   UNL d   1      -4.277   4.200   1.473  0.00  0.00    -0.060 I 
ATOM     10  F2  UNL d   1      -2.279   1.710   1.700  0.00  0.00    -0.096 F 
ATOM     11  F3  UNL d   1       0.193   1.288   0.678  0.00  0.00    -0.097 F 
ATOM     12  F4  UNL d   1       1.396   3.197  -0.856  0.00  0.00    -0.092 F 
ENDROOT
TORSDOF 0
ENDMDL
