MODEL 1
REMARK minimizedAffinity 12.673974
REMARK minimizedRMSD -1
REMARK  0 active torsions:
REMARK  status: ('A' for Active; 'I' for Inactive)
ROOT
ATOM      1  C   UNL d   1       0.077   1.248  -0.289  0.00  0.00     0.124 A 
ATOM      2  C1  UNL d   1      -0.965   2.045  -0.742  0.00  0.00     0.062 A 
ATOM      3  C2  UNL d   1      -1.442   1.903  -2.042  0.00  0.00     0.162 A 
ATOM      4  C3  UNL d   1      -0.877   0.958  -2.899  0.00  0.00    -0.034 A 
ATOM      5  C4  UNL d   1       0.171   0.160  -2.436  0.00  0.00     0.162 A 
ATOM      6  C5  UNL d   1       0.644   0.306  -1.136  0.00  0.00     0.062 A 
ATOM      7  F   UNL d   1       1.651  -0.465  -0.700  0.00  0.00    -0.097 F 
ATOM      8  F1  UNL d   1       0.737  -0.758  -3.234  0.00  0.00    -0.096 F 
ATOM      9  I   UNL d   1      -1.587   0.741  -4.843  0.00  0.00    -0.060 I 
ATOM     10  F2  UNL d   1      -2.449   2.687  -2.453  0.00  0.00    -0.096 F 
ATOM     11  F3  UNL d   1      -1.514   2.956   0.075  0.00  0.00    -0.097 F 
ATOM     12  F4  UNL d   1       0.534   1.388   0.962  0.00  0.00    -0.092 F 
ENDROOT
TORSDOF 0
ENDMDL
