MODEL 1
REMARK minimizedAffinity 17.6815224
REMARK minimizedRMSD -1
REMARK  0 active torsions:
REMARK  status: ('A' for Active; 'I' for Inactive)
ROOT
ATOM      1  C   UNL d   1      -0.012   2.256  -0.538  0.00  0.00     0.124 A 
ATOM      2  C1  UNL d   1       0.488   1.090  -1.100  0.00  0.00     0.062 A 
ATOM      3  C2  UNL d   1       0.011   0.644  -2.329  0.00  0.00     0.162 A 
ATOM      4  C3  UNL d   1      -0.972   1.366  -3.007  0.00  0.00    -0.034 A 
ATOM      5  C4  UNL d   1      -1.470   2.538  -2.435  0.00  0.00     0.162 A 
ATOM      6  C5  UNL d   1      -0.990   2.979  -1.206  0.00  0.00     0.062 A 
ATOM      7  F   UNL d   1      -1.474   4.107  -0.665  0.00  0.00    -0.097 F 
ATOM      8  F1  UNL d   1      -2.415   3.257  -3.059  0.00  0.00    -0.096 F 
ATOM      9  I   UNL d   1      -1.687   0.704  -4.845  0.00  0.00    -0.060 I 
ATOM     10  F2  UNL d   1       0.512  -0.487  -2.848  0.00  0.00    -0.096 F 
ATOM     11  F3  UNL d   1       1.433   0.389  -0.456  0.00  0.00    -0.097 F 
ATOM     12  F4  UNL d   1       0.448   2.682   0.645  0.00  0.00    -0.092 F 
ENDROOT
TORSDOF 0
ENDMDL
