MODEL 1
REMARK minimizedAffinity 5.41852903
REMARK minimizedRMSD -1
REMARK  1 active torsions:
REMARK  status: ('A' for Active; 'I' for Inactive)
REMARK    1  A    between atoms: C1_2  and  C2_3 
ROOT
ATOM      1  C2  UNL d   1      -2.954   5.359  -4.799  0.00  0.00    -0.076 A 
ATOM      2  C3  UNL d   1      -2.215   5.133  -5.973  0.00  0.00     0.004 A 
ATOM      3  C4  UNL d   1      -0.833   5.319  -5.998  0.00  0.00    -0.003 A 
ATOM      4  C5  UNL d   1      -0.169   5.732  -4.848  0.00  0.00     0.000 A 
ATOM      5  C6  UNL d   1      -0.884   5.944  -3.670  0.00  0.00     0.000 A 
ATOM      6  C7  UNL d   1      -2.275   5.745  -3.624  0.00  0.00    -0.073 A 
ATOM      7  C8  UNL d   1      -2.997   5.994  -2.328  0.00  0.00     0.078 C 
ENDROOT
BRANCH   1   8
ATOM      8  C1  UNL d   1      -4.453   5.167  -4.839  0.00  0.00     0.053 C 
ATOM      9  C   UNL d   1      -5.104   5.906  -5.998  0.00  0.00     0.018 C 
ENDBRANCH   1   8
TORSDOF 1
ENDMDL
