MODEL 1
REMARK minimizedAffinity 4.87401676
REMARK minimizedRMSD -1
REMARK  1 active torsions:
REMARK  status: ('A' for Active; 'I' for Inactive)
REMARK    1  A    between atoms: C1_2  and  C2_3 
ROOT
ATOM      1  C2  UNL d   1       4.268   4.534  -2.387  0.00  0.00    -0.076 A 
ATOM      2  C3  UNL d   1       3.042   4.379  -1.716  0.00  0.00     0.004 A 
ATOM      3  C4  UNL d   1       2.048   3.543  -2.221  0.00  0.00    -0.003 A 
ATOM      4  C5  UNL d   1       2.264   2.847  -3.405  0.00  0.00     0.000 A 
ATOM      5  C6  UNL d   1       3.480   2.975  -4.075  0.00  0.00     0.000 A 
ATOM      6  C7  UNL d   1       4.499   3.802  -3.571  0.00  0.00    -0.073 A 
ATOM      7  C8  UNL d   1       5.788   3.907  -4.338  0.00  0.00     0.078 C 
ENDROOT
BRANCH   1   8
ATOM      8  C1  UNL d   1       5.298   5.476  -1.806  0.00  0.00     0.053 C 
ATOM      9  C   UNL d   1       5.996   4.896  -0.586  0.00  0.00     0.018 C 
ENDBRANCH   1   8
TORSDOF 1
ENDMDL
