MODEL 1
REMARK minimizedAffinity 16.1067162
REMARK minimizedRMSD -1
REMARK  1 active torsions:
REMARK  status: ('A' for Active; 'I' for Inactive)
REMARK    1  A    between atoms: C1_2  and  C2_3 
ROOT
ATOM      1  C2  UNL d   1      -3.383  -1.861  -0.452  0.00  0.00    -0.076 A 
ATOM      2  C3  UNL d   1      -2.994  -1.497  -1.753  0.00  0.00     0.004 A 
ATOM      3  C4  UNL d   1      -2.186  -2.334  -2.520  0.00  0.00    -0.003 A 
ATOM      4  C5  UNL d   1      -1.754  -3.549  -1.999  0.00  0.00     0.000 A 
ATOM      5  C6  UNL d   1      -2.145  -3.934  -0.717  0.00  0.00     0.000 A 
ATOM      6  C7  UNL d   1      -2.973  -3.109   0.064  0.00  0.00    -0.073 A 
ATOM      7  C8  UNL d   1      -3.359  -3.571   1.442  0.00  0.00     0.078 C 
ENDROOT
BRANCH   1   8
ATOM      8  C1  UNL d   1      -4.238  -0.900   0.344  0.00  0.00     0.053 C 
ATOM      9  C   UNL d   1      -5.004   0.069  -0.543  0.00  0.00     0.018 C 
ENDBRANCH   1   8
TORSDOF 1
ENDMDL
