MODEL 1
REMARK minimizedAffinity 25.3243847
REMARK minimizedRMSD -1
REMARK  1 active torsions:
REMARK  status: ('A' for Active; 'I' for Inactive)
REMARK    1  A    between atoms: C1_2  and  C2_3 
ROOT
ATOM      1  C2  UNL d   1       4.692   4.291  -3.841  0.00  0.00    -0.076 A 
ATOM      2  C3  UNL d   1       4.398   4.948  -2.633  0.00  0.00     0.004 A 
ATOM      3  C4  UNL d   1       3.201   4.709  -1.960  0.00  0.00    -0.003 A 
ATOM      4  C5  UNL d   1       2.278   3.810  -2.483  0.00  0.00     0.000 A 
ATOM      5  C6  UNL d   1       2.561   3.136  -3.671  0.00  0.00     0.000 A 
ATOM      6  C7  UNL d   1       3.770   3.353  -4.354  0.00  0.00    -0.073 A 
ATOM      7  C8  UNL d   1       4.021   2.604  -5.634  0.00  0.00     0.078 C 
ENDROOT
BRANCH   1   8
ATOM      8  C1  UNL d   1       5.994   4.610  -4.540  0.00  0.00     0.053 C 
ATOM      9  C   UNL d   1       5.998   6.000  -5.158  0.00  0.00     0.018 C 
ENDBRANCH   1   8
TORSDOF 1
ENDMDL
