MODEL 1
REMARK minimizedAffinity 22.7848148
REMARK minimizedRMSD -1
REMARK  1 active torsions:
REMARK  status: ('A' for Active; 'I' for Inactive)
REMARK    1  A    between atoms: C1_2  and  C2_3 
ROOT
ATOM      1  C2  UNL d   1       3.196   3.404  -3.566  0.00  0.00    -0.076 A 
ATOM      2  C3  UNL d   1       3.795   4.055  -2.473  0.00  0.00     0.004 A 
ATOM      3  C4  UNL d   1       5.082   4.580  -2.568  0.00  0.00    -0.003 A 
ATOM      4  C5  UNL d   1       5.793   4.462  -3.758  0.00  0.00     0.000 A 
ATOM      5  C6  UNL d   1       5.208   3.834  -4.857  0.00  0.00     0.000 A 
ATOM      6  C7  UNL d   1       3.905   3.314  -4.783  0.00  0.00    -0.073 A 
ATOM      7  C8  UNL d   1       3.326   2.642  -5.998  0.00  0.00     0.078 C 
ENDROOT
BRANCH   1   8
ATOM      8  C1  UNL d   1       1.808   2.830  -3.395  0.00  0.00     0.053 C 
ATOM      9  C   UNL d   1       1.749   1.754  -2.322  0.00  0.00     0.018 C 
ENDBRANCH   1   8
TORSDOF 1
ENDMDL
