MODEL 1
REMARK minimizedAffinity 16.0354195
REMARK minimizedRMSD -1
REMARK  1 active torsions:
REMARK  status: ('A' for Active; 'I' for Inactive)
REMARK    1  A    between atoms: C1_2  and  C2_3 
ROOT
ATOM      1  C2  UNL d   1       1.874  -0.504   1.682  0.00  0.00    -0.076 A 
ATOM      2  C3  UNL d   1       3.053  -0.858   2.360  0.00  0.00     0.004 A 
ATOM      3  C4  UNL d   1       3.034  -1.794   3.392  0.00  0.00    -0.003 A 
ATOM      4  C5  UNL d   1       1.835  -2.392   3.763  0.00  0.00     0.000 A 
ATOM      5  C6  UNL d   1       0.658  -2.066   3.090  0.00  0.00     0.000 A 
ATOM      6  C7  UNL d   1       0.663  -1.136   2.036  0.00  0.00    -0.073 A 
ATOM      7  C8  UNL d   1      -0.636  -0.817   1.348  0.00  0.00     0.078 C 
ENDROOT
BRANCH   1   8
ATOM      8  C1  UNL d   1       1.952   0.538   0.588  0.00  0.00     0.053 C 
ATOM      9  C   UNL d   1       3.244   1.339   0.638  0.00  0.00     0.018 C 
ENDBRANCH   1   8
TORSDOF 1
ENDMDL
