MODEL 1
REMARK minimizedAffinity 16.4238071
REMARK minimizedRMSD -1
REMARK  1 active torsions:
REMARK  status: ('A' for Active; 'I' for Inactive)
REMARK    1  A    between atoms: C1_2  and  C2_3 
ROOT
ATOM      1  C2  UNL d   1       3.425   3.540  -3.190  0.00  0.00    -0.076 A 
ATOM      2  C3  UNL d   1       4.034   4.304  -2.179  0.00  0.00     0.004 A 
ATOM      3  C4  UNL d   1       5.310   4.836  -2.352  0.00  0.00    -0.003 A 
ATOM      4  C5  UNL d   1       5.999   4.613  -3.539  0.00  0.00     0.000 A 
ATOM      5  C6  UNL d   1       5.404   3.873  -4.560  0.00  0.00     0.000 A 
ATOM      6  C7  UNL d   1       4.111   3.343  -4.408  0.00  0.00    -0.073 A 
ATOM      7  C8  UNL d   1       3.520   2.547  -5.539  0.00  0.00     0.078 C 
ENDROOT
BRANCH   1   8
ATOM      8  C1  UNL d   1       2.050   2.965  -2.936  0.00  0.00     0.053 C 
ATOM      9  C   UNL d   1       2.097   1.680  -2.124  0.00  0.00     0.018 C 
ENDBRANCH   1   8
TORSDOF 1
ENDMDL
