MODEL 1
REMARK minimizedAffinity 16.2616425
REMARK minimizedRMSD -1
REMARK  1 active torsions:
REMARK  status: ('A' for Active; 'I' for Inactive)
REMARK    1  A    between atoms: C1_2  and  C2_3 
ROOT
ATOM      1  C2  UNL d   1      -1.688   0.111   3.791  0.00  0.00    -0.076 A 
ATOM      2  C3  UNL d   1      -0.724  -0.650   4.475  0.00  0.00     0.004 A 
ATOM      3  C4  UNL d   1       0.157  -1.480   3.783  0.00  0.00    -0.003 A 
ATOM      4  C5  UNL d   1       0.089  -1.561   2.397  0.00  0.00     0.000 A 
ATOM      5  C6  UNL d   1      -0.849  -0.799   1.701  0.00  0.00     0.000 A 
ATOM      6  C7  UNL d   1      -1.734   0.055   2.382  0.00  0.00    -0.073 A 
ATOM      7  C8  UNL d   1      -2.730   0.849   1.582  0.00  0.00     0.078 C 
ENDROOT
BRANCH   1   8
ATOM      8  C1  UNL d   1      -2.635   0.973   4.597  0.00  0.00     0.053 C 
ATOM      9  C   UNL d   1      -3.478   0.161   5.568  0.00  0.00     0.018 C 
ENDBRANCH   1   8
TORSDOF 1
ENDMDL
