MODEL 1
REMARK minimizedAffinity 11.7889996
REMARK minimizedRMSD -1
REMARK  1 active torsions:
REMARK  status: ('A' for Active; 'I' for Inactive)
REMARK    1  A    between atoms: C1_2  and  C2_3 
ROOT
ATOM      1  C2  UNL d   1      -1.106  -0.970   1.959  0.00  0.00    -0.076 A 
ATOM      2  C3  UNL d   1      -1.312   0.234   2.654  0.00  0.00     0.004 A 
ATOM      3  C4  UNL d   1      -2.518   0.925   2.549  0.00  0.00    -0.003 A 
ATOM      4  C5  UNL d   1      -3.537   0.423   1.747  0.00  0.00     0.000 A 
ATOM      5  C6  UNL d   1      -3.356  -0.779   1.064  0.00  0.00     0.000 A 
ATOM      6  C7  UNL d   1      -2.153  -1.497   1.172  0.00  0.00    -0.073 A 
ATOM      7  C8  UNL d   1      -2.009  -2.785   0.409  0.00  0.00     0.078 C 
ENDROOT
BRANCH   1   8
ATOM      8  C1  UNL d   1       0.232  -1.662   2.090  0.00  0.00     0.053 C 
ATOM      9  C   UNL d   1       1.389  -0.782   1.644  0.00  0.00     0.018 C 
ENDBRANCH   1   8
TORSDOF 1
ENDMDL
