MODEL 1
REMARK minimizedAffinity 11.9724712
REMARK minimizedRMSD -1
REMARK  1 active torsions:
REMARK  status: ('A' for Active; 'I' for Inactive)
REMARK    1  A    between atoms: C1_2  and  C2_3 
ROOT
ATOM      1  C2  UNL d   1       3.424   3.599  -3.646  0.00  0.00    -0.076 A 
ATOM      2  C3  UNL d   1       3.770   4.382  -2.531  0.00  0.00     0.004 A 
ATOM      3  C4  UNL d   1       5.047   4.925  -2.405  0.00  0.00    -0.003 A 
ATOM      4  C5  UNL d   1       5.999   4.694  -3.392  0.00  0.00     0.000 A 
ATOM      5  C6  UNL d   1       5.668   3.934  -4.513  0.00  0.00     0.000 A 
ATOM      6  C7  UNL d   1       4.379   3.393  -4.664  0.00  0.00    -0.073 A 
ATOM      7  C8  UNL d   1       4.078   2.576  -5.891  0.00  0.00     0.078 C 
ENDROOT
BRANCH   1   8
ATOM      8  C1  UNL d   1       2.031   3.013  -3.716  0.00  0.00     0.053 C 
ATOM      9  C   UNL d   1       1.743   2.057  -2.569  0.00  0.00     0.018 C 
ENDBRANCH   1   8
TORSDOF 1
ENDMDL
