MODEL 1
REMARK minimizedAffinity 5.90621424
REMARK minimizedRMSD -1
REMARK  1 active torsions:
REMARK  status: ('A' for Active; 'I' for Inactive)
REMARK    1  A    between atoms: C1_2  and  C2_3 
ROOT
ATOM      1  C2  UNL d   1      -3.375  -2.757  -3.521  0.00  0.00    -0.081 A 
ATOM      2  C3  UNL d   1      -3.852  -2.440  -2.244  0.00  0.00     0.006 A 
ATOM      3  C4  UNL d   1      -3.634  -1.171  -1.701  0.00  0.00     0.002 A 
ATOM      4  C5  UNL d   1      -2.942  -0.197  -2.429  0.00  0.00    -0.080 A 
ATOM      5  C6  UNL d   1      -2.727   1.178  -1.871  0.00  0.00     0.076 C 
ATOM      6  C7  UNL d   1      -2.450  -0.520  -3.699  0.00  0.00     0.002 A 
ATOM      7  C8  UNL d   1      -2.667  -1.788  -4.241  0.00  0.00     0.006 A 
ENDROOT
BRANCH   1   8
ATOM      8  C1  UNL d   1      -3.664  -4.103  -4.136  0.00  0.00     0.054 C 
ATOM      9  C   UNL d   1      -4.975  -4.087  -4.910  0.00  0.00     0.018 C 
ENDBRANCH   1   8
TORSDOF 1
ENDMDL
