MODEL 1
REMARK minimizedAffinity 11.1230869
REMARK minimizedRMSD -1
REMARK  1 active torsions:
REMARK  status: ('A' for Active; 'I' for Inactive)
REMARK    1  A    between atoms: C1_2  and  C2_3 
ROOT
ATOM      1  C2  UNL d   1       2.332   2.311   0.281  0.00  0.00    -0.081 A 
ATOM      2  C3  UNL d   1       1.142   2.643   0.940  0.00  0.00     0.006 A 
ATOM      3  C4  UNL d   1       0.859   2.113   2.201  0.00  0.00     0.002 A 
ATOM      4  C5  UNL d   1       1.764   1.249   2.827  0.00  0.00    -0.080 A 
ATOM      5  C6  UNL d   1       1.486   0.697   4.194  0.00  0.00     0.076 C 
ATOM      6  C7  UNL d   1       2.945   0.904   2.162  0.00  0.00     0.002 A 
ATOM      7  C8  UNL d   1       3.228   1.433   0.901  0.00  0.00     0.006 A 
ENDROOT
BRANCH   1   8
ATOM      8  C1  UNL d   1       2.670   2.932  -1.050  0.00  0.00     0.054 C 
ATOM      9  C   UNL d   1       2.061   4.320  -1.184  0.00  0.00     0.018 C 
ENDBRANCH   1   8
TORSDOF 1
ENDMDL
