MODEL 1
REMARK minimizedAffinity 2.35671091
REMARK minimizedRMSD -1
REMARK  1 active torsions:
REMARK  status: ('A' for Active; 'I' for Inactive)
REMARK    1  A    between atoms: C1_2  and  C2_3 
ROOT
ATOM      1  C2  UNL d   1       2.575  -5.921   0.164  0.00  0.00    -0.081 A 
ATOM      2  C3  UNL d   1       1.923  -5.830  -1.072  0.00  0.00     0.006 A 
ATOM      3  C4  UNL d   1       2.656  -5.830  -2.261  0.00  0.00     0.002 A 
ATOM      4  C5  UNL d   1       4.052  -5.927  -2.234  0.00  0.00    -0.080 A 
ATOM      5  C6  UNL d   1       4.849  -5.958  -3.504  0.00  0.00     0.076 C 
ATOM      6  C7  UNL d   1       4.704  -5.999  -0.998  0.00  0.00     0.002 A 
ATOM      7  C8  UNL d   1       3.971  -6.000   0.190  0.00  0.00     0.006 A 
ENDROOT
BRANCH   1   8
ATOM      8  C1  UNL d   1       1.783  -5.987   1.445  0.00  0.00     0.054 C 
ATOM      9  C   UNL d   1       0.285  -5.979   1.171  0.00  0.00     0.018 C 
ENDBRANCH   1   8
TORSDOF 1
ENDMDL
