MODEL 1
REMARK minimizedAffinity -2.82187748
REMARK minimizedRMSD -1
REMARK  2 active torsions:
REMARK  status: ('A' for Active; 'I' for Inactive)
REMARK    1  A    between atoms: C2'_3  and  C1'_4 
REMARK    2  A    between atoms: C1'_4  and  C1_5 
ROOT
ATOM      1  C1  I4B d   1      -0.036   0.328   0.075  0.00  0.00    -0.075 A 
ATOM      2  C2  I4B d   1       0.919  -0.102  -0.812  0.00  0.00     0.003 A 
ATOM      3  C3  I4B d   1       1.723  -1.226  -0.505  0.00  0.00     0.002 A 
ATOM      4  C4  I4B d   1       1.575  -1.855   0.714  0.00  0.00    -0.004 A 
ATOM      5  C5  I4B d   1       0.590  -1.433   1.602  0.00  0.00     0.002 A 
ATOM      6  C6  I4B d   1      -0.229  -0.342   1.277  0.00  0.00     0.003 A 
ENDROOT
BRANCH   1   7
ATOM      7  C1' I4B d   1      -0.845   1.539  -0.267  0.00  0.00     0.060 C 
BRANCH   7   8
ATOM      8  C2' I4B d   1      -1.203   1.461  -1.737  0.00  0.00    -0.013 C 
ATOM      9  C4' I4B d   1      -2.672   1.185  -1.926  0.00  0.00     0.013 C 
ATOM     10  C3' I4B d   1      -0.808   2.757  -2.379  0.00  0.00     0.013 C 
ENDBRANCH   7   8
ENDBRANCH   1   7
TORSDOF 2
ENDMDL
