MODEL 1
REMARK minimizedAffinity -0.291620135
REMARK minimizedRMSD -1
REMARK  2 active torsions:
REMARK  status: ('A' for Active; 'I' for Inactive)
REMARK    1  A    between atoms: C2'_3  and  C1'_4 
REMARK    2  A    between atoms: C1'_4  and  C1_5 
ROOT
ATOM      1  C1  I4B d   1      -0.358   0.941  -0.529  0.00  0.00    -0.075 A 
ATOM      2  C2  I4B d   1      -0.799  -0.003   0.365  0.00  0.00     0.003 A 
ATOM      3  C3  I4B d   1       0.124  -0.872   0.996  0.00  0.00     0.002 A 
ATOM      4  C4  I4B d   1       1.462  -0.797   0.668  0.00  0.00    -0.004 A 
ATOM      5  C5  I4B d   1       1.910   0.176  -0.221  0.00  0.00     0.002 A 
ATOM      6  C6  I4B d   1       0.996   1.059  -0.814  0.00  0.00     0.003 A 
ENDROOT
BRANCH   1   7
ATOM      7  C1' I4B d   1      -1.363   1.821  -1.202  0.00  0.00     0.060 C 
BRANCH   7   8
ATOM      8  C2' I4B d   1      -1.860   1.101  -2.439  0.00  0.00    -0.013 C 
ATOM      9  C4' I4B d   1      -3.365   1.087  -2.494  0.00  0.00     0.013 C 
ATOM     10  C3' I4B d   1      -1.281   1.789  -3.639  0.00  0.00     0.013 C 
ENDBRANCH   7   8
ENDBRANCH   1   7
TORSDOF 2
ENDMDL
