MODEL 1
REMARK minimizedAffinity -4.68163204
REMARK minimizedRMSD -1
REMARK  2 active torsions:
REMARK  status: ('A' for Active; 'I' for Inactive)
REMARK    1  A    between atoms: C2'_3  and  C1'_4 
REMARK    2  A    between atoms: C1'_4  and  C1_5 
ROOT
ATOM      1  C1  I4B d   1       0.042  -0.039   0.552  0.00  0.00    -0.075 A 
ATOM      2  C2  I4B d   1       1.039  -0.417  -0.313  0.00  0.00     0.003 A 
ATOM      3  C3  I4B d   1       1.892  -1.499   0.013  0.00  0.00     0.002 A 
ATOM      4  C4  I4B d   1       1.747  -2.138   1.227  0.00  0.00    -0.004 A 
ATOM      5  C5  I4B d   1       0.721  -1.768   2.092  0.00  0.00     0.002 A 
ATOM      6  C6  I4B d   1      -0.144  -0.720   1.748  0.00  0.00     0.003 A 
ENDROOT
BRANCH   1   7
ATOM      7  C1' I4B d   1      -0.820   1.129   0.191  0.00  0.00     0.060 C 
BRANCH   7   8
ATOM      8  C2' I4B d   1      -1.102   1.060  -1.296  0.00  0.00    -0.013 C 
ATOM      9  C4' I4B d   1      -2.507   0.590  -1.563  0.00  0.00     0.013 C 
ATOM     10  C3' I4B d   1      -0.867   2.423  -1.876  0.00  0.00     0.013 C 
ENDBRANCH   7   8
ENDBRANCH   1   7
TORSDOF 2
ENDMDL
