MODEL 1
REMARK minimizedAffinity -5.2604022
REMARK minimizedRMSD -1
REMARK  2 active torsions:
REMARK  status: ('A' for Active; 'I' for Inactive)
REMARK    1  A    between atoms: C2'_3  and  C1'_4 
REMARK    2  A    between atoms: C1'_4  and  C1_5 
ROOT
ATOM      1  C1  I4B d   1      -0.157   0.237   0.417  0.00  0.00    -0.075 A 
ATOM      2  C2  I4B d   1       0.973   0.194  -0.362  0.00  0.00     0.003 A 
ATOM      3  C3  I4B d   1       1.941  -0.819  -0.158  0.00  0.00     0.002 A 
ATOM      4  C4  I4B d   1       1.765  -1.731   0.862  0.00  0.00    -0.004 A 
ATOM      5  C5  I4B d   1       0.609  -1.700   1.636  0.00  0.00     0.002 A 
ATOM      6  C6  I4B d   1      -0.365  -0.717   1.404  0.00  0.00     0.003 A 
ENDROOT
BRANCH   1   7
ATOM      7  C1' I4B d   1      -1.143   1.340   0.196  0.00  0.00     0.060 C 
BRANCH   7   8
ATOM      8  C2' I4B d   1      -1.356   1.483  -1.297  0.00  0.00    -0.013 C 
ATOM      9  C4' I4B d   1      -2.734   1.025  -1.697  0.00  0.00     0.013 C 
ATOM     10  C3' I4B d   1      -1.138   2.922  -1.661  0.00  0.00     0.013 C 
ENDBRANCH   7   8
ENDBRANCH   1   7
TORSDOF 2
ENDMDL
