MODEL 1
REMARK minimizedAffinity -1.93723607
REMARK minimizedRMSD -1
REMARK  2 active torsions:
REMARK  status: ('A' for Active; 'I' for Inactive)
REMARK    1  A    between atoms: C2'_3  and  C1'_4 
REMARK    2  A    between atoms: C1'_4  and  C1_5 
ROOT
ATOM      1  C1  I4B d   1      -0.196   0.395  -0.124  0.00  0.00    -0.075 A 
ATOM      2  C2  I4B d   1       1.038  -0.069  -0.508  0.00  0.00     0.003 A 
ATOM      3  C3  I4B d   1       1.678  -1.091   0.234  0.00  0.00     0.002 A 
ATOM      4  C4  I4B d   1       1.076  -1.582   1.374  0.00  0.00    -0.004 A 
ATOM      5  C5  I4B d   1      -0.185  -1.127   1.749  0.00  0.00     0.002 A 
ATOM      6  C6  I4B d   1      -0.831  -0.141   0.988  0.00  0.00     0.003 A 
ENDROOT
BRANCH   1   7
ATOM      7  C1' I4B d   1      -0.828   1.498  -0.912  0.00  0.00     0.060 C 
BRANCH   7   8
ATOM      8  C2' I4B d   1      -1.168   0.955  -2.285  0.00  0.00    -0.013 C 
ATOM      9  C4' I4B d   1      -2.503   0.258  -2.281  0.00  0.00     0.013 C 
ATOM     10  C3' I4B d   1      -1.159   2.102  -3.251  0.00  0.00     0.013 C 
ENDBRANCH   7   8
ENDBRANCH   1   7
TORSDOF 2
ENDMDL
