MODEL 1
REMARK minimizedAffinity -1.81399655
REMARK minimizedRMSD -1
REMARK  2 active torsions:
REMARK  status: ('A' for Active; 'I' for Inactive)
REMARK    1  A    between atoms: C2'_3  and  C1'_4 
REMARK    2  A    between atoms: C1'_4  and  C1_5 
ROOT
ATOM      1  C1  I4B d   1      -1.136   0.978  -1.243  0.00  0.00    -0.075 A 
ATOM      2  C2  I4B d   1      -0.544   1.263  -2.448  0.00  0.00     0.003 A 
ATOM      3  C3  I4B d   1      -1.334   1.668  -3.552  0.00  0.00     0.002 A 
ATOM      4  C4  I4B d   1      -2.706   1.726  -3.421  0.00  0.00    -0.004 A 
ATOM      5  C5  I4B d   1      -3.302   1.459  -2.191  0.00  0.00     0.002 A 
ATOM      6  C6  I4B d   1      -2.512   1.095  -1.092  0.00  0.00     0.003 A 
ENDROOT
BRANCH   1   7
ATOM      7  C1' I4B d   1      -0.276   0.521  -0.108  0.00  0.00     0.060 C 
BRANCH   7   8
ATOM      8  C2' I4B d   1       0.968  -0.118  -0.692  0.00  0.00    -0.013 C 
ATOM      9  C4' I4B d   1       2.118  -0.060   0.279  0.00  0.00     0.013 C 
ATOM     10  C3' I4B d   1       0.634  -1.535  -1.053  0.00  0.00     0.013 C 
ENDBRANCH   7   8
ENDBRANCH   1   7
TORSDOF 2
ENDMDL
