MODEL 1
REMARK minimizedAffinity -4.43780613
REMARK minimizedRMSD -1
REMARK  2 active torsions:
REMARK  status: ('A' for Active; 'I' for Inactive)
REMARK    1  A    between atoms: C2'_3  and  C1'_4 
REMARK    2  A    between atoms: C1'_4  and  C1_5 
ROOT
ATOM      1  C1  I4B d   1       0.190  -0.706   0.654  0.00  0.00    -0.075 A 
ATOM      2  C2  I4B d   1      -0.660  -0.734   1.731  0.00  0.00     0.003 A 
ATOM      3  C3  I4B d   1      -0.269  -1.374   2.932  0.00  0.00     0.002 A 
ATOM      4  C4  I4B d   1       0.953  -2.012   2.995  0.00  0.00    -0.004 A 
ATOM      5  C5  I4B d   1       1.823  -1.963   1.910  0.00  0.00     0.002 A 
ATOM      6  C6  I4B d   1       1.445  -1.296   0.736  0.00  0.00     0.003 A 
ENDROOT
BRANCH   1   7
ATOM      7  C1' I4B d   1      -0.269  -0.051  -0.610  0.00  0.00     0.060 C 
BRANCH   7   8
ATOM      8  C2' I4B d   1      -1.228   1.062  -0.237  0.00  0.00    -0.013 C 
ATOM      9  C4' I4B d   1      -0.486   2.315   0.146  0.00  0.00     0.013 C 
ATOM     10  C3' I4B d   1      -2.133   1.304  -1.408  0.00  0.00     0.013 C 
ENDBRANCH   7   8
ENDBRANCH   1   7
TORSDOF 2
ENDMDL
