MODEL 1
REMARK minimizedAffinity 0.76799655
REMARK minimizedRMSD -1
REMARK  2 active torsions:
REMARK  status: ('A' for Active; 'I' for Inactive)
REMARK    1  A    between atoms: C2'_3  and  C1'_4 
REMARK    2  A    between atoms: C1'_4  and  C1_5 
ROOT
ATOM      1  C1  I4B d   1      -0.033   0.560  -0.162  0.00  0.00    -0.075 A 
ATOM      2  C2  I4B d   1       1.111   0.674  -0.912  0.00  0.00     0.003 A 
ATOM      3  C3  I4B d   1       2.212  -0.182  -0.665  0.00  0.00     0.002 A 
ATOM      4  C4  I4B d   1       2.145  -1.096   0.366  0.00  0.00    -0.004 A 
ATOM      5  C5  I4B d   1       0.976  -1.225   1.110  0.00  0.00     0.002 A 
ATOM      6  C6  I4B d   1      -0.125  -0.401   0.837  0.00  0.00     0.003 A 
ENDROOT
BRANCH   1   7
ATOM      7  C1' I4B d   1      -1.165   1.502  -0.427  0.00  0.00     0.060 C 
BRANCH   7   8
ATOM      8  C2' I4B d   1      -1.405   1.534  -1.923  0.00  0.00    -0.013 C 
ATOM      9  C4' I4B d   1      -2.816   1.128  -2.258  0.00  0.00     0.013 C 
ATOM     10  C3' I4B d   1      -1.111   2.921  -2.410  0.00  0.00     0.013 C 
ENDBRANCH   7   8
ENDBRANCH   1   7
TORSDOF 2
ENDMDL
