MODEL 1
REMARK minimizedAffinity -4.95744658
REMARK minimizedRMSD -1
REMARK  2 active torsions:
REMARK  status: ('A' for Active; 'I' for Inactive)
REMARK    1  A    between atoms: C2'_3  and  C1'_4 
REMARK    2  A    between atoms: C1'_4  and  C1_5 
ROOT
ATOM      1  C1  I4B d   1      -0.155  -1.410   0.888  0.00  0.00    -0.075 A 
ATOM      2  C2  I4B d   1      -0.641  -0.957   2.090  0.00  0.00     0.003 A 
ATOM      3  C3  I4B d   1      -0.186  -1.528   3.303  0.00  0.00     0.002 A 
ATOM      4  C4  I4B d   1       0.710  -2.577   3.267  0.00  0.00    -0.004 A 
ATOM      5  C5  I4B d   1       1.218  -3.020   2.049  0.00  0.00     0.002 A 
ATOM      6  C6  I4B d   1       0.792  -2.425   0.853  0.00  0.00     0.003 A 
ENDROOT
BRANCH   1   7
ATOM      7  C1' I4B d   1      -0.682  -0.807  -0.375  0.00  0.00     0.060 C 
BRANCH   7   8
ATOM      8  C2' I4B d   1      -0.148   0.607  -0.475  0.00  0.00    -0.013 C 
ATOM      9  C4' I4B d   1       1.335   0.613  -0.740  0.00  0.00     0.013 C 
ATOM     10  C3' I4B d   1      -0.896   1.308  -1.570  0.00  0.00     0.013 C 
ENDBRANCH   7   8
ENDBRANCH   1   7
TORSDOF 2
ENDMDL
