MODEL 1
REMARK minimizedAffinity -5.45607233
REMARK minimizedRMSD -1
REMARK  2 active torsions:
REMARK  status: ('A' for Active; 'I' for Inactive)
REMARK    1  A    between atoms: C2'_3  and  C1'_4 
REMARK    2  A    between atoms: C1'_4  and  C1_5 
ROOT
ATOM      1  C1  I4B d   1      -0.854   0.661  -0.716  0.00  0.00    -0.075 A 
ATOM      2  C2  I4B d   1      -1.541  -0.253  -1.475  0.00  0.00     0.003 A 
ATOM      3  C3  I4B d   1      -2.392   0.184  -2.519  0.00  0.00     0.002 A 
ATOM      4  C4  I4B d   1      -2.564   1.536  -2.735  0.00  0.00    -0.004 A 
ATOM      5  C5  I4B d   1      -1.848   2.460  -1.980  0.00  0.00     0.002 A 
ATOM      6  C6  I4B d   1      -0.978   2.021  -0.972  0.00  0.00     0.003 A 
ENDROOT
BRANCH   1   7
ATOM      7  C1' I4B d   1       0.011   0.167   0.401  0.00  0.00     0.060 C 
BRANCH   7   8
ATOM      8  C2' I4B d   1       1.290  -0.375  -0.204  0.00  0.00    -0.013 C 
ATOM      9  C4' I4B d   1       2.233   0.740  -0.573  0.00  0.00     0.013 C 
ATOM     10  C3' I4B d   1       1.915  -1.306   0.791  0.00  0.00     0.013 C 
ENDBRANCH   7   8
ENDBRANCH   1   7
TORSDOF 2
ENDMDL
