MODEL 1
REMARK minimizedAffinity -0.0696819276
REMARK minimizedRMSD -1
REMARK  1 active torsions:
REMARK  status: ('A' for Active; 'I' for Inactive)
REMARK    1  A    between atoms: C3_4  and  O_7 
ROOT
ATOM      1  C   UNL d   1       3.266   2.897   1.451  0.00  0.00    -0.033 A 
ATOM      2  C1  UNL d   1       2.900   2.584   0.140  0.00  0.00     0.039 A 
ATOM      3  C2  UNL d   1       1.951   1.590  -0.103  0.00  0.00    -0.080 A 
ATOM      4  C3  UNL d   1       1.376   0.917   0.971  0.00  0.00     0.150 A 
ATOM      5  C4  UNL d   1       1.732   1.226   2.280  0.00  0.00    -0.007 A 
ATOM      6  C5  UNL d   1       2.681   2.219   2.521  0.00  0.00     0.039 A 
ENDROOT
BRANCH   4   7
ATOM      7  O   UNL d   1       0.449  -0.065   0.783  0.00  0.00    -0.526 OA
ATOM      8  H5  UNL d   1       0.323  -0.190  -0.173  0.00  0.00     0.418 HD
ENDBRANCH   4   7
TORSDOF 1
ENDMDL
