MODEL 1
REMARK minimizedAffinity -1.58101237
REMARK minimizedRMSD -1
REMARK  1 active torsions:
REMARK  status: ('A' for Active; 'I' for Inactive)
REMARK    1  A    between atoms: C3_4  and  O_7 
ROOT
ATOM      1  C   UNL d   1       2.836   3.640   1.487  0.00  0.00    -0.033 A 
ATOM      2  C1  UNL d   1       3.034   3.197   0.178  0.00  0.00     0.039 A 
ATOM      3  C2  UNL d   1       2.218   2.196  -0.353  0.00  0.00    -0.080 A 
ATOM      4  C3  UNL d   1       1.209   1.648   0.435  0.00  0.00     0.150 A 
ATOM      5  C4  UNL d   1       1.004   2.088   1.738  0.00  0.00    -0.007 A 
ATOM      6  C5  UNL d   1       1.820   3.087   2.267  0.00  0.00     0.039 A 
ENDROOT
BRANCH   4   7
ATOM      7  O   UNL d   1       0.391   0.665  -0.038  0.00  0.00    -0.526 OA
ATOM      8  H5  UNL d   1       0.668   0.442  -0.942  0.00  0.00     0.418 HD
ENDBRANCH   4   7
TORSDOF 1
ENDMDL
