MODEL 1
REMARK minimizedAffinity -3.86634088
REMARK minimizedRMSD -1
REMARK  1 active torsions:
REMARK  status: ('A' for Active; 'I' for Inactive)
REMARK    1  A    between atoms: C3_4  and  O_7 
ROOT
ATOM      1  C   UNL d   1       0.142  -0.669   0.727  0.00  0.00    -0.033 A 
ATOM      2  C1  UNL d   1      -0.581  -1.607   1.466  0.00  0.00     0.039 A 
ATOM      3  C2  UNL d   1      -1.905  -1.896   1.128  0.00  0.00    -0.080 A 
ATOM      4  C3  UNL d   1      -2.492  -1.242   0.048  0.00  0.00     0.150 A 
ATOM      5  C4  UNL d   1      -1.777  -0.309  -0.695  0.00  0.00    -0.007 A 
ATOM      6  C5  UNL d   1      -0.456  -0.021  -0.355  0.00  0.00     0.039 A 
ENDROOT
BRANCH   4   7
ATOM      7  O   UNL d   1      -3.782  -1.487  -0.317  0.00  0.00    -0.526 OA
ATOM      8  H5  UNL d   1      -4.161  -2.132   0.304  0.00  0.00     0.418 HD
ENDBRANCH   4   7
TORSDOF 1
ENDMDL
