MODEL 1
REMARK minimizedAffinity 0.297492951
REMARK minimizedRMSD -1
REMARK  1 active torsions:
REMARK  status: ('A' for Active; 'I' for Inactive)
REMARK    1  A    between atoms: C3_4  and  O_7 
ROOT
ATOM      1  C   UNL d   1       1.419  -0.357   1.071  0.00  0.00    -0.033 A 
ATOM      2  C1  UNL d   1       0.629  -1.246   1.802  0.00  0.00     0.039 A 
ATOM      3  C2  UNL d   1      -0.682  -1.511   1.400  0.00  0.00    -0.080 A 
ATOM      4  C3  UNL d   1      -1.190  -0.883   0.267  0.00  0.00     0.150 A 
ATOM      5  C4  UNL d   1      -0.407   0.001  -0.469  0.00  0.00    -0.007 A 
ATOM      6  C5  UNL d   1       0.901   0.266  -0.065  0.00  0.00     0.039 A 
ENDROOT
BRANCH   4   7
ATOM      7  O   UNL d   1      -2.465  -1.106  -0.161  0.00  0.00    -0.526 OA
ATOM      8  H5  UNL d   1      -2.896  -1.716   0.460  0.00  0.00     0.418 HD
ENDBRANCH   4   7
TORSDOF 1
ENDMDL
