MODEL 1
REMARK minimizedAffinity -2.40727448
REMARK minimizedRMSD -1
REMARK  1 active torsions:
REMARK  status: ('A' for Active; 'I' for Inactive)
REMARK    1  A    between atoms: C3_4  and  O_7 
ROOT
ATOM      1  C   UNL d   1       2.681   3.652   1.742  0.00  0.00    -0.033 A 
ATOM      2  C1  UNL d   1       1.937   2.782   2.541  0.00  0.00     0.039 A 
ATOM      3  C2  UNL d   1       1.473   1.574   2.018  0.00  0.00    -0.080 A 
ATOM      4  C3  UNL d   1       1.761   1.247   0.696  0.00  0.00     0.150 A 
ATOM      5  C4  UNL d   1       2.505   2.107  -0.106  0.00  0.00    -0.007 A 
ATOM      6  C5  UNL d   1       2.966   3.314   0.419  0.00  0.00     0.039 A 
ENDROOT
BRANCH   4   7
ATOM      7  O   UNL d   1       1.326   0.081   0.139  0.00  0.00    -0.526 OA
ATOM      8  H5  UNL d   1       0.801  -0.399   0.801  0.00  0.00     0.418 HD
ENDBRANCH   4   7
TORSDOF 1
ENDMDL
