MODEL 1
REMARK minimizedAffinity -3.14182901
REMARK minimizedRMSD -1
REMARK  1 active torsions:
REMARK  status: ('A' for Active; 'I' for Inactive)
REMARK    1  A    between atoms: C3_4  and  O_7 
ROOT
ATOM      1  C   UNL d   1      -0.411   0.021  -0.267  0.00  0.00    -0.033 A 
ATOM      2  C1  UNL d   1       0.944  -0.249  -0.065  0.00  0.00     0.039 A 
ATOM      3  C2  UNL d   1       1.332  -1.295   0.774  0.00  0.00    -0.080 A 
ATOM      4  C3  UNL d   1       0.357  -2.064   1.404  0.00  0.00     0.150 A 
ATOM      5  C4  UNL d   1      -0.995  -1.803   1.204  0.00  0.00    -0.007 A 
ATOM      6  C5  UNL d   1      -1.381  -0.757   0.367  0.00  0.00     0.039 A 
ENDROOT
BRANCH   4   7
ATOM      7  O   UNL d   1       0.687  -3.092   2.235  0.00  0.00    -0.526 OA
ATOM      8  H5  UNL d   1       1.656  -3.136   2.301  0.00  0.00     0.418 HD
ENDBRANCH   4   7
TORSDOF 1
ENDMDL
