MODEL 1
REMARK minimizedAffinity -5.0717144
REMARK minimizedRMSD -1
REMARK  1 active torsions:
REMARK  status: ('A' for Active; 'I' for Inactive)
REMARK    1  A    between atoms: C3_4  and  O_7 
ROOT
ATOM      1  C   UNL d   1       3.011   2.464   1.411  0.00  0.00    -0.033 A 
ATOM      2  C1  UNL d   1       3.076   3.619   2.193  0.00  0.00     0.039 A 
ATOM      3  C2  UNL d   1       3.518   4.819   1.633  0.00  0.00    -0.080 A 
ATOM      4  C3  UNL d   1       3.891   4.851   0.292  0.00  0.00     0.150 A 
ATOM      5  C4  UNL d   1       3.824   3.706  -0.494  0.00  0.00    -0.007 A 
ATOM      6  C5  UNL d   1       3.384   2.508   0.067  0.00  0.00     0.039 A 
ENDROOT
BRANCH   4   7
ATOM      7  O   UNL d   1       4.333   5.998  -0.297  0.00  0.00    -0.526 OA
ATOM      8  H5  UNL d   1       4.353   6.701   0.374  0.00  0.00     0.418 HD
ENDBRANCH   4   7
TORSDOF 1
ENDMDL
