MODEL 1
REMARK minimizedAffinity -2.20475888
REMARK minimizedRMSD -1
REMARK  1 active torsions:
REMARK  status: ('A' for Active; 'I' for Inactive)
REMARK    1  A    between atoms: C3_4  and  O_7 
ROOT
ATOM      1  C   UNL d   1       1.137  -0.767   0.994  0.00  0.00    -0.033 A 
ATOM      2  C1  UNL d   1       0.474   0.004   0.037  0.00  0.00     0.039 A 
ATOM      3  C2  UNL d   1      -0.921   0.020  -0.005  0.00  0.00    -0.080 A 
ATOM      4  C3  UNL d   1      -1.641  -0.737   0.915  0.00  0.00     0.150 A 
ATOM      5  C4  UNL d   1      -0.987  -1.504   1.874  0.00  0.00    -0.007 A 
ATOM      6  C5  UNL d   1       0.406  -1.520   1.914  0.00  0.00     0.039 A 
ENDROOT
BRANCH   4   7
ATOM      7  O   UNL d   1      -3.004  -0.757   0.910  0.00  0.00    -0.526 OA
ATOM      8  H5  UNL d   1      -3.317  -0.204   0.176  0.00  0.00     0.418 HD
ENDBRANCH   4   7
TORSDOF 1
ENDMDL
