MODEL 1
REMARK minimizedAffinity -0.80802691
REMARK minimizedRMSD -1
REMARK  1 active torsions:
REMARK  status: ('A' for Active; 'I' for Inactive)
REMARK    1  A    between atoms: C3_4  and  O_7 
ROOT
ATOM      1  C   UNL d   1       2.270   2.106   1.876  0.00  0.00    -0.033 A 
ATOM      2  C1  UNL d   1       2.498   1.494   0.642  0.00  0.00     0.039 A 
ATOM      3  C2  UNL d   1       3.189   2.178  -0.361  0.00  0.00    -0.080 A 
ATOM      4  C3  UNL d   1       3.647   3.470  -0.116  0.00  0.00     0.150 A 
ATOM      5  C4  UNL d   1       3.427   4.083   1.113  0.00  0.00    -0.007 A 
ATOM      6  C5  UNL d   1       2.735   3.400   2.112  0.00  0.00     0.039 A 
ENDROOT
BRANCH   4   7
ATOM      7  O   UNL d   1       4.322   4.178  -1.065  0.00  0.00    -0.526 OA
ATOM      8  H5  UNL d   1       4.375   3.639  -1.872  0.00  0.00     0.418 HD
ENDBRANCH   4   7
TORSDOF 1
ENDMDL
