MODEL 1
REMARK minimizedAffinity -4.57246876
REMARK minimizedRMSD -1
REMARK  1 active torsions:
REMARK  status: ('A' for Active; 'I' for Inactive)
REMARK    1  A    between atoms: C3_4  and  O_7 
ROOT
ATOM      1  C   UNL d   1       0.477   0.020   0.944  0.00  0.00    -0.033 A 
ATOM      2  C1  UNL d   1      -0.236   1.188   0.665  0.00  0.00     0.039 A 
ATOM      3  C2  UNL d   1       0.377   2.434   0.810  0.00  0.00    -0.080 A 
ATOM      4  C3  UNL d   1       1.701   2.498   1.235  0.00  0.00     0.150 A 
ATOM      5  C4  UNL d   1       2.418   1.339   1.511  0.00  0.00    -0.007 A 
ATOM      6  C5  UNL d   1       1.804   0.096   1.366  0.00  0.00     0.039 A 
ENDROOT
BRANCH   4   7
ATOM      7  O   UNL d   1       2.340   3.692   1.396  0.00  0.00    -0.526 OA
ATOM      8  H5  UNL d   1       1.713   4.406   1.197  0.00  0.00     0.418 HD
ENDBRANCH   4   7
TORSDOF 1
ENDMDL
