MODEL 1
REMARK minimizedAffinity -2.1096983
REMARK minimizedRMSD -1
REMARK  1 active torsions:
REMARK  status: ('A' for Active; 'I' for Inactive)
REMARK    1  A    between atoms: C3_4  and  O_7 
ROOT
ATOM      1  C   UNL d   1       3.313   1.973   3.618  0.00  0.00    -0.033 A 
ATOM      2  C1  UNL d   1       2.938   3.315   3.531  0.00  0.00     0.039 A 
ATOM      3  C2  UNL d   1       2.920   3.958   2.291  0.00  0.00    -0.080 A 
ATOM      4  C3  UNL d   1       3.278   3.248   1.148  0.00  0.00     0.150 A 
ATOM      5  C4  UNL d   1       3.649   1.909   1.227  0.00  0.00    -0.007 A 
ATOM      6  C5  UNL d   1       3.667   1.270   2.466  0.00  0.00     0.039 A 
ENDROOT
BRANCH   4   7
ATOM      7  O   UNL d   1       3.281   3.833  -0.083  0.00  0.00    -0.526 OA
ATOM      8  H5  UNL d   1       3.031   4.767   0.020  0.00  0.00     0.418 HD
ENDBRANCH   4   7
TORSDOF 1
ENDMDL
