MODEL 1
REMARK minimizedAffinity -4.09427834
REMARK minimizedRMSD -1
REMARK  1 active torsions:
REMARK  status: ('A' for Active; 'I' for Inactive)
REMARK    1  A    between atoms: C3_4  and  O_7 
ROOT
ATOM      1  C   UNL d   1       0.025   0.049   0.011  0.00  0.00    -0.033 A 
ATOM      2  C1  UNL d   1      -0.635   0.100  -1.218  0.00  0.00     0.039 A 
ATOM      3  C2  UNL d   1      -1.967  -0.309  -1.315  0.00  0.00    -0.080 A 
ATOM      4  C3  UNL d   1      -2.625  -0.766  -0.177  0.00  0.00     0.150 A 
ATOM      5  C4  UNL d   1      -1.975  -0.816   1.052  0.00  0.00    -0.007 A 
ATOM      6  C5  UNL d   1      -0.645  -0.408   1.146  0.00  0.00     0.039 A 
ENDROOT
BRANCH   4   7
ATOM      7  O   UNL d   1      -3.923  -1.181  -0.223  0.00  0.00    -0.526 OA
ATOM      8  H5  UNL d   1      -4.234  -1.117  -1.141  0.00  0.00     0.418 HD
ENDBRANCH   4   7
TORSDOF 1
ENDMDL
