MODEL 1
REMARK minimizedAffinity -4.70402622
REMARK minimizedRMSD -1
REMARK  1 active torsions:
REMARK  status: ('A' for Active; 'I' for Inactive)
REMARK    1  A    between atoms: C3_4  and  O_7 
ROOT
ATOM      1  C   UNL d   1       0.088   0.065  -0.124  0.00  0.00    -0.033 A 
ATOM      2  C1  UNL d   1      -0.674   0.168  -1.289  0.00  0.00     0.039 A 
ATOM      3  C2  UNL d   1      -1.993  -0.288  -1.305  0.00  0.00    -0.080 A 
ATOM      4  C3  UNL d   1      -2.538  -0.843  -0.151  0.00  0.00     0.150 A 
ATOM      5  C4  UNL d   1      -1.786  -0.945   1.015  0.00  0.00    -0.007 A 
ATOM      6  C5  UNL d   1      -0.469  -0.490   1.029  0.00  0.00     0.039 A 
ENDROOT
BRANCH   4   7
ATOM      7  O   UNL d   1      -3.820  -1.306  -0.120  0.00  0.00    -0.526 OA
ATOM      8  H5  UNL d   1      -4.209  -1.197  -1.004  0.00  0.00     0.418 HD
ENDBRANCH   4   7
TORSDOF 1
ENDMDL
