MODEL 1
REMARK minimizedAffinity -5.40205717
REMARK minimizedRMSD -1
REMARK  1 active torsions:
REMARK  status: ('A' for Active; 'I' for Inactive)
REMARK    1  A    between atoms: C3_4  and  O_7 
ROOT
ATOM      1  C   UNL d   1      -3.404  -1.991   0.388  0.00  0.00    -0.033 A 
ATOM      2  C1  UNL d   1      -3.277  -0.802  -0.332  0.00  0.00     0.039 A 
ATOM      3  C2  UNL d   1      -2.042  -0.155  -0.405  0.00  0.00    -0.080 A 
ATOM      4  C3  UNL d   1      -0.942  -0.709   0.245  0.00  0.00     0.150 A 
ATOM      5  C4  UNL d   1      -1.060  -1.895   0.962  0.00  0.00    -0.007 A 
ATOM      6  C5  UNL d   1      -2.295  -2.539   1.034  0.00  0.00     0.039 A 
ENDROOT
BRANCH   4   7
ATOM      7  O   UNL d   1       0.283  -0.112   0.207  0.00  0.00    -0.526 OA
ATOM      8  H5  UNL d   1       0.207   0.714  -0.300  0.00  0.00     0.418 HD
ENDBRANCH   4   7
TORSDOF 1
ENDMDL
