MODEL 1
REMARK minimizedAffinity -4.03566313
REMARK minimizedRMSD -1
REMARK  1 active torsions:
REMARK  status: ('A' for Active; 'I' for Inactive)
REMARK    1  A    between atoms: C3_4  and  O_7 
ROOT
ATOM      1  C   UNL d   1       0.218  -0.276   0.194  0.00  0.00    -0.033 A 
ATOM      2  C1  UNL d   1      -0.500  -1.061   1.098  0.00  0.00     0.039 A 
ATOM      3  C2  UNL d   1      -1.871  -1.254   0.922  0.00  0.00    -0.080 A 
ATOM      4  C3  UNL d   1      -2.512  -0.658  -0.161  0.00  0.00     0.150 A 
ATOM      5  C4  UNL d   1      -1.802   0.123  -1.067  0.00  0.00    -0.007 A 
ATOM      6  C5  UNL d   1      -0.433   0.315  -0.890  0.00  0.00     0.039 A 
ENDROOT
BRANCH   4   7
ATOM      7  O   UNL d   1      -3.850  -0.814  -0.371  0.00  0.00    -0.526 OA
ATOM      8  H5  UNL d   1      -4.214  -1.354   0.351  0.00  0.00     0.418 HD
ENDBRANCH   4   7
TORSDOF 1
ENDMDL
