MODEL 1
REMARK minimizedAffinity 5.80531645
REMARK minimizedRMSD -1
REMARK  1 active torsions:
REMARK  status: ('A' for Active; 'I' for Inactive)
REMARK    1  A    between atoms: C1_2  and  C2_3 
ROOT
ATOM      1  C2  UNL d   1       1.985   0.733   1.705  0.00  0.00    -0.077 A 
ATOM      2  C3  UNL d   1       2.374  -0.061   2.793  0.00  0.00     0.002 A 
ATOM      3  C4  UNL d   1       2.836   0.530   3.970  0.00  0.00     0.002 A 
ATOM      4  C5  UNL d   1       2.909   1.918   4.073  0.00  0.00    -0.004 A 
ATOM      5  C6  UNL d   1       2.526   2.717   2.996  0.00  0.00     0.002 A 
ATOM      6  C7  UNL d   1       2.065   2.127   1.818  0.00  0.00     0.002 A 
ENDROOT
BRANCH   1   7
ATOM      7  C1  UNL d   1       1.441   0.099   0.452  0.00  0.00     0.055 C 
ATOM      8  C   UNL d   1       0.244   0.871  -0.084  0.00  0.00     0.019 C 
ENDBRANCH   1   7
TORSDOF 1
ENDMDL
