MODEL 1
REMARK minimizedAffinity 4.055758
REMARK minimizedRMSD -1
REMARK  1 active torsions:
REMARK  status: ('A' for Active; 'I' for Inactive)
REMARK    1  A    between atoms: C1_2  and  C2_3 
ROOT
ATOM      1  C2  UNL d   1       1.828   1.718   1.082  0.00  0.00    -0.077 A 
ATOM      2  C3  UNL d   1       2.178   0.394   1.385  0.00  0.00     0.002 A 
ATOM      3  C4  UNL d   1       2.722   0.075   2.630  0.00  0.00     0.002 A 
ATOM      4  C5  UNL d   1       2.916   1.071   3.584  0.00  0.00    -0.004 A 
ATOM      5  C6  UNL d   1       2.572   2.391   3.292  0.00  0.00     0.002 A 
ATOM      6  C7  UNL d   1       2.030   2.712   2.048  0.00  0.00     0.002 A 
ENDROOT
BRANCH   1   7
ATOM      7  C1  UNL d   1       1.195   2.056  -0.242  0.00  0.00     0.055 C 
ATOM      8  C   UNL d   1      -0.047   2.916  -0.059  0.00  0.00     0.019 C 
ENDBRANCH   1   7
TORSDOF 1
ENDMDL
