MODEL 1
REMARK minimizedAffinity -1.20841134
REMARK minimizedRMSD -1
REMARK  1 active torsions:
REMARK  status: ('A' for Active; 'I' for Inactive)
REMARK    1  A    between atoms: C1_2  and  C2_3 
ROOT
ATOM      1  C2  UNL d   1       2.121  -0.418   3.049  0.00  0.00    -0.077 A 
ATOM      2  C3  UNL d   1       2.213   0.536   4.072  0.00  0.00     0.002 A 
ATOM      3  C4  UNL d   1       2.484   1.872   3.770  0.00  0.00     0.002 A 
ATOM      4  C5  UNL d   1       2.661   2.266   2.445  0.00  0.00    -0.004 A 
ATOM      5  C6  UNL d   1       2.574   1.324   1.421  0.00  0.00     0.002 A 
ATOM      6  C7  UNL d   1       2.304  -0.012   1.721  0.00  0.00     0.002 A 
ENDROOT
BRANCH   1   7
ATOM      7  C1  UNL d   1       1.780  -1.850   3.369  0.00  0.00     0.055 C 
ATOM      8  C   UNL d   1       2.958  -2.570   4.010  0.00  0.00     0.019 C 
ENDBRANCH   1   7
TORSDOF 1
ENDMDL
