MODEL 1
REMARK minimizedAffinity 5.50428724
REMARK minimizedRMSD -1
REMARK  1 active torsions:
REMARK  status: ('A' for Active; 'I' for Inactive)
REMARK    1  A    between atoms: C1_2  and  C2_3 
ROOT
ATOM      1  C2  UNL d   1       1.805   0.076   2.010  0.00  0.00    -0.077 A 
ATOM      2  C3  UNL d   1       2.080  -0.751   3.108  0.00  0.00     0.002 A 
ATOM      3  C4  UNL d   1       1.385  -1.950   3.280  0.00  0.00     0.002 A 
ATOM      4  C5  UNL d   1       0.414  -2.333   2.357  0.00  0.00    -0.004 A 
ATOM      5  C6  UNL d   1       0.133  -1.516   1.263  0.00  0.00     0.002 A 
ATOM      6  C7  UNL d   1       0.826  -0.317   1.090  0.00  0.00     0.002 A 
ENDROOT
BRANCH   1   7
ATOM      7  C1  UNL d   1       2.588   1.345   1.796  0.00  0.00     0.055 C 
ATOM      8  C   UNL d   1       2.614   2.199   3.055  0.00  0.00     0.019 C 
ENDBRANCH   1   7
TORSDOF 1
ENDMDL
