MODEL 1
REMARK minimizedAffinity 8.43380165
REMARK minimizedRMSD -1
REMARK  1 active torsions:
REMARK  status: ('A' for Active; 'I' for Inactive)
REMARK    1  A    between atoms: C1_2  and  C2_3 
ROOT
ATOM      1  C2  UNL d   1       2.274   3.014  -0.289  0.00  0.00    -0.077 A 
ATOM      2  C3  UNL d   1       1.400   3.248   0.782  0.00  0.00     0.002 A 
ATOM      3  C4  UNL d   1       1.252   2.297   1.794  0.00  0.00     0.002 A 
ATOM      4  C5  UNL d   1       1.979   1.110   1.748  0.00  0.00    -0.004 A 
ATOM      5  C6  UNL d   1       2.850   0.867   0.686  0.00  0.00     0.002 A 
ATOM      6  C7  UNL d   1       2.998   1.815  -0.327  0.00  0.00     0.002 A 
ENDROOT
BRANCH   1   7
ATOM      7  C1  UNL d   1       2.472   4.059  -1.356  0.00  0.00     0.055 C 
ATOM      8  C   UNL d   1       1.555   5.254  -1.136  0.00  0.00     0.019 C 
ENDBRANCH   1   7
TORSDOF 1
ENDMDL
