MODEL 1
REMARK minimizedAffinity 6.32850695
REMARK minimizedRMSD -1
REMARK  1 active torsions:
REMARK  status: ('A' for Active; 'I' for Inactive)
REMARK    1  A    between atoms: C1_2  and  C2_3 
ROOT
ATOM      1  C2  UNL d   1       2.383  -2.083   3.224  0.00  0.00    -0.077 A 
ATOM      2  C3  UNL d   1       1.728  -2.591   4.354  0.00  0.00     0.002 A 
ATOM      3  C4  UNL d   1       2.421  -3.374   5.280  0.00  0.00     0.002 A 
ATOM      4  C5  UNL d   1       3.772  -3.653   5.087  0.00  0.00    -0.004 A 
ATOM      5  C6  UNL d   1       4.432  -3.154   3.965  0.00  0.00     0.002 A 
ATOM      6  C7  UNL d   1       3.741  -2.372   3.038  0.00  0.00     0.002 A 
ENDROOT
BRANCH   1   7
ATOM      7  C1  UNL d   1       1.651  -1.198   2.250  0.00  0.00     0.055 C 
ATOM      8  C   UNL d   1       0.661  -1.995   1.414  0.00  0.00     0.019 C 
ENDBRANCH   1   7
TORSDOF 1
ENDMDL
