MODEL 1
REMARK minimizedAffinity 10.4569283
REMARK minimizedRMSD -1
REMARK  1 active torsions:
REMARK  status: ('A' for Active; 'I' for Inactive)
REMARK    1  A    between atoms: C1_2  and  C2_3 
ROOT
ATOM      1  C2  UNL d   1      -0.059  -2.847  -1.158  0.00  0.00    -0.077 A 
ATOM      2  C3  UNL d   1      -1.289  -2.201  -1.342  0.00  0.00     0.002 A 
ATOM      3  C4  UNL d   1      -1.785  -1.335  -0.365  0.00  0.00     0.002 A 
ATOM      4  C5  UNL d   1      -1.056  -1.105   0.799  0.00  0.00    -0.004 A 
ATOM      5  C6  UNL d   1       0.168  -1.745   0.993  0.00  0.00     0.002 A 
ATOM      6  C7  UNL d   1       0.664  -2.612   0.018  0.00  0.00     0.002 A 
ENDROOT
BRANCH   1   7
ATOM      7  C1  UNL d   1       0.501  -3.743  -2.232  0.00  0.00     0.055 C 
ATOM      8  C   UNL d   1       1.931  -3.360  -2.582  0.00  0.00     0.019 C 
ENDBRANCH   1   7
TORSDOF 1
ENDMDL
