MODEL 1
REMARK minimizedAffinity 2.02324486
REMARK minimizedRMSD -1
REMARK  1 active torsions:
REMARK  status: ('A' for Active; 'I' for Inactive)
REMARK    1  A    between atoms: C1_2  and  C2_3 
ROOT
ATOM      1  C2  UNL d   1      -2.550  -2.103  -3.077  0.00  0.00    -0.077 A 
ATOM      2  C3  UNL d   1      -3.150  -2.416  -1.850  0.00  0.00     0.002 A 
ATOM      3  C4  UNL d   1      -2.679  -3.486  -1.086  0.00  0.00     0.002 A 
ATOM      4  C5  UNL d   1      -1.604  -4.248  -1.539  0.00  0.00    -0.004 A 
ATOM      5  C6  UNL d   1      -1.002  -3.945  -2.759  0.00  0.00     0.002 A 
ATOM      6  C7  UNL d   1      -1.471  -2.877  -3.525  0.00  0.00     0.002 A 
ENDROOT
BRANCH   1   7
ATOM      7  C1  UNL d   1      -3.024  -0.919  -3.879  0.00  0.00     0.055 C 
ATOM      8  C   UNL d   1      -2.740   0.389  -3.156  0.00  0.00     0.019 C 
ENDBRANCH   1   7
TORSDOF 1
ENDMDL
