MODEL 1
REMARK minimizedAffinity 0.254575223
REMARK minimizedRMSD -1
REMARK  1 active torsions:
REMARK  status: ('A' for Active; 'I' for Inactive)
REMARK    1  A    between atoms: C1_2  and  C2_3 
ROOT
ATOM      1  C2  UNL d   1       1.846   0.067   1.915  0.00  0.00    -0.077 A 
ATOM      2  C3  UNL d   1       1.860   1.257   1.174  0.00  0.00     0.002 A 
ATOM      3  C4  UNL d   1       0.861   1.515   0.233  0.00  0.00     0.002 A 
ATOM      4  C5  UNL d   1      -0.160   0.590   0.028  0.00  0.00    -0.004 A 
ATOM      5  C6  UNL d   1      -0.181  -0.597   0.758  0.00  0.00     0.002 A 
ATOM      6  C7  UNL d   1       0.817  -0.858   1.698  0.00  0.00     0.002 A 
ENDROOT
BRANCH   1   7
ATOM      7  C1  UNL d   1       2.895  -0.191   2.965  0.00  0.00     0.055 C 
ATOM      8  C   UNL d   1       2.354  -1.071   4.083  0.00  0.00     0.019 C 
ENDBRANCH   1   7
TORSDOF 1
ENDMDL
