MODEL 1
REMARK minimizedAffinity 11.3196125
REMARK minimizedRMSD -1
REMARK  2 active torsions:
REMARK  status: ('A' for Active; 'I' for Inactive)
REMARK    1  A    between atoms: C1_2  and  C2_3 
REMARK    2  A    between atoms: C2_3  and  C3_4 
ROOT
ATOM      1  C3  UNL d   1       3.873   0.097   0.873  0.00  0.00    -0.075 A 
ATOM      2  C4  UNL d   1       3.766   1.492   0.967  0.00  0.00     0.002 A 
ATOM      3  C5  UNL d   1       2.544   2.126   0.740  0.00  0.00     0.002 A 
ATOM      4  C6  UNL d   1       1.418   1.376   0.406  0.00  0.00    -0.004 A 
ATOM      5  C7  UNL d   1       1.517  -0.010   0.294  0.00  0.00     0.002 A 
ATOM      6  C8  UNL d   1       2.737  -0.646   0.525  0.00  0.00     0.002 A 
ENDROOT
BRANCH   1   7
ATOM      7  C2  UNL d   1       5.185  -0.597   1.147  0.00  0.00     0.056 C 
BRANCH   7   8
ATOM      8  C1  UNL d   1       5.999   0.033   2.282  0.00  0.00     0.007 C 
ATOM      9  C   UNL d   1       6.000   1.555   2.247  0.00  0.00     0.009 C 
ENDBRANCH   7   8
ENDBRANCH   1   7
TORSDOF 2
ENDMDL
