MODEL 1
REMARK minimizedAffinity 9.17696285
REMARK minimizedRMSD -1
REMARK  2 active torsions:
REMARK  status: ('A' for Active; 'I' for Inactive)
REMARK    1  A    between atoms: C1_2  and  C2_3 
REMARK    2  A    between atoms: C2_3  and  C3_4 
ROOT
ATOM      1  C3  UNL d   1       3.940   1.782  -1.669  0.00  0.00    -0.075 A 
ATOM      2  C4  UNL d   1       4.566   0.749  -2.383  0.00  0.00     0.002 A 
ATOM      3  C5  UNL d   1       4.716   0.835  -3.767  0.00  0.00     0.002 A 
ATOM      4  C6  UNL d   1       4.236   1.947  -4.456  0.00  0.00    -0.004 A 
ATOM      5  C7  UNL d   1       3.599   2.971  -3.759  0.00  0.00     0.002 A 
ATOM      6  C8  UNL d   1       3.450   2.890  -2.373  0.00  0.00     0.002 A 
ENDROOT
BRANCH   1   7
ATOM      7  C2  UNL d   1       3.801   1.708  -0.167  0.00  0.00     0.056 C 
BRANCH   7   8
ATOM      8  C1  UNL d   1       3.559   0.293   0.368  0.00  0.00     0.007 C 
ATOM      9  C   UNL d   1       4.747  -0.269   1.138  0.00  0.00     0.009 C 
ENDBRANCH   7   8
ENDBRANCH   1   7
TORSDOF 2
ENDMDL
