MODEL 1
REMARK minimizedAffinity 4.9036212
REMARK minimizedRMSD -1
REMARK  2 active torsions:
REMARK  status: ('A' for Active; 'I' for Inactive)
REMARK    1  A    between atoms: C1_2  and  C2_3 
REMARK    2  A    between atoms: C2_3  and  C3_4 
ROOT
ATOM      1  C3  UNL d   1      -2.393  -2.604  -1.960  0.00  0.00    -0.075 A 
ATOM      2  C4  UNL d   1      -3.660  -3.201  -1.880  0.00  0.00     0.002 A 
ATOM      3  C5  UNL d   1      -4.019  -4.223  -2.759  0.00  0.00     0.002 A 
ATOM      4  C6  UNL d   1      -3.123  -4.652  -3.736  0.00  0.00    -0.004 A 
ATOM      5  C7  UNL d   1      -1.868  -4.055  -3.836  0.00  0.00     0.002 A 
ATOM      6  C8  UNL d   1      -1.504  -3.036  -2.954  0.00  0.00     0.002 A 
ENDROOT
BRANCH   1   7
ATOM      7  C2  UNL d   1      -1.988  -1.519  -0.992  0.00  0.00     0.056 C 
BRANCH   7   8
ATOM      8  C1  UNL d   1      -1.473  -2.043   0.353  0.00  0.00     0.007 C 
ATOM      9  C   UNL d   1      -0.389  -1.166   0.964  0.00  0.00     0.009 C 
ENDBRANCH   7   8
ENDBRANCH   1   7
TORSDOF 2
ENDMDL
