MODEL 1
REMARK minimizedAffinity 3.77813244
REMARK minimizedRMSD -1
REMARK  2 active torsions:
REMARK  status: ('A' for Active; 'I' for Inactive)
REMARK    1  A    between atoms: C1_2  and  C2_3 
REMARK    2  A    between atoms: C2_3  and  C3_4 
ROOT
ATOM      1  C3  UNL d   1       1.231  -0.120   0.921  0.00  0.00    -0.075 A 
ATOM      2  C4  UNL d   1       1.074   1.274   0.950  0.00  0.00     0.002 A 
ATOM      3  C5  UNL d   1       2.155   2.114   0.679  0.00  0.00     0.002 A 
ATOM      4  C6  UNL d   1       3.405   1.573   0.387  0.00  0.00    -0.004 A 
ATOM      5  C7  UNL d   1       3.576   0.190   0.371  0.00  0.00     0.002 A 
ATOM      6  C8  UNL d   1       2.495  -0.653   0.638  0.00  0.00     0.002 A 
ENDROOT
BRANCH   1   7
ATOM      7  C2  UNL d   1       0.058  -1.034   1.185  0.00  0.00     0.056 C 
BRANCH   7   8
ATOM      8  C1  UNL d   1      -0.033  -2.224   0.223  0.00  0.00     0.007 C 
ATOM      9  C   UNL d   1      -1.418  -2.400  -0.385  0.00  0.00     0.009 C 
ENDBRANCH   7   8
ENDBRANCH   1   7
TORSDOF 2
ENDMDL
