MODEL 1
REMARK minimizedAffinity 6.01920795
REMARK minimizedRMSD -1
REMARK  2 active torsions:
REMARK  status: ('A' for Active; 'I' for Inactive)
REMARK    1  A    between atoms: C1_2  and  C2_3 
REMARK    2  A    between atoms: C2_3  and  C3_4 
ROOT
ATOM      1  C3  UNL d   1       3.712   2.333   0.818  0.00  0.00    -0.075 A 
ATOM      2  C4  UNL d   1       4.409   1.199   1.259  0.00  0.00     0.002 A 
ATOM      3  C5  UNL d   1       3.975  -0.080   0.907  0.00  0.00     0.002 A 
ATOM      4  C6  UNL d   1       2.837  -0.241   0.120  0.00  0.00    -0.004 A 
ATOM      5  C7  UNL d   1       2.128   0.878  -0.310  0.00  0.00     0.002 A 
ATOM      6  C8  UNL d   1       2.561   2.159   0.037  0.00  0.00     0.002 A 
ENDROOT
BRANCH   1   7
ATOM      7  C2  UNL d   1       4.193   3.721   1.170  0.00  0.00     0.056 C 
BRANCH   7   8
ATOM      8  C1  UNL d   1       5.632   3.768   1.694  0.00  0.00     0.007 C 
ATOM      9  C   UNL d   1       5.971   5.073   2.401  0.00  0.00     0.009 C 
ENDBRANCH   7   8
ENDBRANCH   1   7
TORSDOF 2
ENDMDL
