MODEL 1
REMARK minimizedAffinity 6.51126528
REMARK minimizedRMSD -1
REMARK  2 active torsions:
REMARK  status: ('A' for Active; 'I' for Inactive)
REMARK    1  A    between atoms: C1_2  and  C2_3 
REMARK    2  A    between atoms: C2_3  and  C3_4 
ROOT
ATOM      1  C3  UNL d   1       3.663   0.567   1.003  0.00  0.00    -0.075 A 
ATOM      2  C4  UNL d   1       2.271   0.741   1.032  0.00  0.00     0.002 A 
ATOM      3  C5  UNL d   1       1.714   2.013   0.896  0.00  0.00     0.002 A 
ATOM      4  C6  UNL d   1       2.538   3.125   0.738  0.00  0.00    -0.004 A 
ATOM      5  C7  UNL d   1       3.922   2.966   0.724  0.00  0.00     0.002 A 
ATOM      6  C8  UNL d   1       4.482   1.694   0.856  0.00  0.00     0.002 A 
ENDROOT
BRANCH   1   7
ATOM      7  C2  UNL d   1       4.272  -0.810   1.120  0.00  0.00     0.056 C 
BRANCH   7   8
ATOM      8  C1  UNL d   1       4.438  -1.535  -0.219  0.00  0.00     0.007 C 
ATOM      9  C   UNL d   1       4.922  -0.624  -1.339  0.00  0.00     0.009 C 
ENDBRANCH   7   8
ENDBRANCH   1   7
TORSDOF 2
ENDMDL
