MODEL 1
REMARK minimizedAffinity 6.25507641
REMARK minimizedRMSD -1
REMARK  2 active torsions:
REMARK  status: ('A' for Active; 'I' for Inactive)
REMARK    1  A    between atoms: C1_2  and  C2_3 
REMARK    2  A    between atoms: C2_3  and  C3_4 
ROOT
ATOM      1  C3  UNL d   1       3.752  -0.231   0.472  0.00  0.00    -0.075 A 
ATOM      2  C4  UNL d   1       3.757   1.160   0.292  0.00  0.00     0.002 A 
ATOM      3  C5  UNL d   1       2.577   1.895   0.410  0.00  0.00     0.002 A 
ATOM      4  C6  UNL d   1       1.377   1.248   0.699  0.00  0.00    -0.004 A 
ATOM      5  C7  UNL d   1       1.357  -0.135   0.864  0.00  0.00     0.002 A 
ATOM      6  C8  UNL d   1       2.537  -0.872   0.751  0.00  0.00     0.002 A 
ENDROOT
BRANCH   1   7
ATOM      7  C2  UNL d   1       5.031  -1.027   0.375  0.00  0.00     0.056 C 
BRANCH   7   8
ATOM      8  C1  UNL d   1       6.000  -0.796   1.540  0.00  0.00     0.007 C 
ATOM      9  C   UNL d   1       5.321  -0.841   2.903  0.00  0.00     0.009 C 
ENDBRANCH   7   8
ENDBRANCH   1   7
TORSDOF 2
ENDMDL
