MODEL 1
REMARK minimizedAffinity 12.0769043
REMARK minimizedRMSD -1
REMARK  2 active torsions:
REMARK  status: ('A' for Active; 'I' for Inactive)
REMARK    1  A    between atoms: C1_2  and  C2_3 
REMARK    2  A    between atoms: C2_3  and  C3_4 
ROOT
ATOM      1  C3  UNL d   1       3.464  -0.195   0.743  0.00  0.00    -0.075 A 
ATOM      2  C4  UNL d   1       3.624   0.967  -0.025  0.00  0.00     0.002 A 
ATOM      3  C5  UNL d   1       2.623   1.938  -0.057  0.00  0.00     0.002 A 
ATOM      4  C6  UNL d   1       1.448   1.756   0.670  0.00  0.00    -0.004 A 
ATOM      5  C7  UNL d   1       1.272   0.597   1.423  0.00  0.00     0.002 A 
ATOM      6  C8  UNL d   1       2.274  -0.374   1.459  0.00  0.00     0.002 A 
ENDROOT
BRANCH   1   7
ATOM      7  C2  UNL d   1       4.556  -1.237   0.804  0.00  0.00     0.056 C 
BRANCH   7   8
ATOM      8  C1  UNL d   1       5.930  -0.678   1.192  0.00  0.00     0.007 C 
ATOM      9  C   UNL d   1       6.000  -0.207   2.638  0.00  0.00     0.009 C 
ENDBRANCH   7   8
ENDBRANCH   1   7
TORSDOF 2
ENDMDL
