MODEL 1
REMARK minimizedAffinity -0.493425071
REMARK minimizedRMSD -1
REMARK  2 active torsions:
REMARK  status: ('A' for Active; 'I' for Inactive)
REMARK    1  A    between atoms: C1_2  and  C2_3 
REMARK    2  A    between atoms: C2_3  and  C3_4 
ROOT
ATOM      1  C3  UNL d   1       2.797   1.594  -0.419  0.00  0.00    -0.075 A 
ATOM      2  C4  UNL d   1       3.222   0.277  -0.190  0.00  0.00     0.002 A 
ATOM      3  C5  UNL d   1       2.971  -0.346   1.033  0.00  0.00     0.002 A 
ATOM      4  C6  UNL d   1       2.304   0.342   2.044  0.00  0.00    -0.004 A 
ATOM      5  C7  UNL d   1       1.893   1.656   1.834  0.00  0.00     0.002 A 
ATOM      6  C8  UNL d   1       2.138   2.280   0.610  0.00  0.00     0.002 A 
ENDROOT
BRANCH   1   7
ATOM      7  C2  UNL d   1       3.039   2.263  -1.751  0.00  0.00     0.056 C 
BRANCH   7   8
ATOM      8  C1  UNL d   1       3.718   1.362  -2.787  0.00  0.00     0.007 C 
ATOM      9  C   UNL d   1       3.603   1.892  -4.211  0.00  0.00     0.009 C 
ENDBRANCH   7   8
ENDBRANCH   1   7
TORSDOF 2
ENDMDL
