MODEL 1
REMARK minimizedAffinity 2.7235446
REMARK minimizedRMSD -1
REMARK  2 active torsions:
REMARK  status: ('A' for Active; 'I' for Inactive)
REMARK    1  A    between atoms: C1_2  and  C2_3 
REMARK    2  A    between atoms: C2_3  and  C3_4 
ROOT
ATOM      1  C3  UNL d   1       1.171  -0.238   0.809  0.00  0.00    -0.075 A 
ATOM      2  C4  UNL d   1       1.181   1.119   0.455  0.00  0.00     0.002 A 
ATOM      3  C5  UNL d   1       2.322   1.697  -0.102  0.00  0.00     0.002 A 
ATOM      4  C6  UNL d   1       3.468   0.930  -0.303  0.00  0.00    -0.004 A 
ATOM      5  C7  UNL d   1       3.474  -0.415   0.060  0.00  0.00     0.002 A 
ATOM      6  C8  UNL d   1       2.332  -0.996   0.614  0.00  0.00     0.002 A 
ENDROOT
BRANCH   1   7
ATOM      7  C2  UNL d   1      -0.070  -0.876   1.386  0.00  0.00     0.056 C 
BRANCH   7   8
ATOM      8  C1  UNL d   1      -0.762  -1.863   0.439  0.00  0.00     0.007 C 
ATOM      9  C   UNL d   1      -1.446  -3.013   1.166  0.00  0.00     0.009 C 
ENDBRANCH   7   8
ENDBRANCH   1   7
TORSDOF 2
ENDMDL
