MODEL 1
REMARK minimizedAffinity 4.47942257
REMARK minimizedRMSD -1
REMARK  2 active torsions:
REMARK  status: ('A' for Active; 'I' for Inactive)
REMARK    1  A    between atoms: C1_2  and  C2_3 
REMARK    2  A    between atoms: C2_3  and  C3_4 
ROOT
ATOM      1  C3  UNL d   1      -1.883  -3.597   0.239  0.00  0.00    -0.075 A 
ATOM      2  C4  UNL d   1      -1.480  -2.266   0.062  0.00  0.00     0.002 A 
ATOM      3  C5  UNL d   1      -1.825  -1.570  -1.097  0.00  0.00     0.002 A 
ATOM      4  C6  UNL d   1      -2.567  -2.197  -2.095  0.00  0.00    -0.004 A 
ATOM      5  C7  UNL d   1      -2.958  -3.525  -1.937  0.00  0.00     0.002 A 
ATOM      6  C8  UNL d   1      -2.618  -4.222  -0.776  0.00  0.00     0.002 A 
ENDROOT
BRANCH   1   7
ATOM      7  C2  UNL d   1      -1.538  -4.347   1.504  0.00  0.00     0.056 C 
BRANCH   7   8
ATOM      8  C1  UNL d   1      -1.969  -5.817   1.495  0.00  0.00     0.007 C 
ATOM      9  C   UNL d   1      -3.480  -6.000   1.447  0.00  0.00     0.009 C 
ENDBRANCH   7   8
ENDBRANCH   1   7
TORSDOF 2
ENDMDL
