MODEL 1
REMARK minimizedAffinity 12.0471315
REMARK minimizedRMSD -1
REMARK  2 active torsions:
REMARK  status: ('A' for Active; 'I' for Inactive)
REMARK    1  A    between atoms: C1_2  and  C2_3 
REMARK    2  A    between atoms: C2_3  and  C3_4 
ROOT
ATOM      1  C3  UNL d   1       2.025   0.572   1.112  0.00  0.00    -0.075 A 
ATOM      2  C4  UNL d   1       2.100   1.472   0.039  0.00  0.00     0.002 A 
ATOM      3  C5  UNL d   1       3.171   1.422  -0.853  0.00  0.00     0.002 A 
ATOM      4  C6  UNL d   1       4.184   0.482  -0.679  0.00  0.00    -0.004 A 
ATOM      5  C7  UNL d   1       4.128  -0.406   0.393  0.00  0.00     0.002 A 
ATOM      6  C8  UNL d   1       3.055  -0.361   1.285  0.00  0.00     0.002 A 
ENDROOT
BRANCH   1   7
ATOM      7  C2  UNL d   1       0.854   0.602   2.065  0.00  0.00     0.056 C 
BRANCH   7   8
ATOM      8  C1  UNL d   1       0.869  -0.521   3.107  0.00  0.00     0.007 C 
ATOM      9  C   UNL d   1      -0.392  -1.375   3.089  0.00  0.00     0.009 C 
ENDBRANCH   7   8
ENDBRANCH   1   7
TORSDOF 2
ENDMDL
