MODEL 1
REMARK minimizedAffinity 2.92041564
REMARK minimizedRMSD -1
REMARK  2 active torsions:
REMARK  status: ('A' for Active; 'I' for Inactive)
REMARK    1  A    between atoms: C1_2  and  C2_3 
REMARK    2  A    between atoms: C2_3  and  C3_4 
ROOT
ATOM      1  C3  UNL d   1      -1.985  -3.231  -2.171  0.00  0.00    -0.075 A 
ATOM      2  C4  UNL d   1      -0.895  -3.846  -1.539  0.00  0.00     0.002 A 
ATOM      3  C5  UNL d   1      -0.575  -3.537  -0.217  0.00  0.00     0.002 A 
ATOM      4  C6  UNL d   1      -1.333  -2.603   0.486  0.00  0.00    -0.004 A 
ATOM      5  C7  UNL d   1      -2.408  -1.973  -0.137  0.00  0.00     0.002 A 
ATOM      6  C8  UNL d   1      -2.733  -2.284  -1.459  0.00  0.00     0.002 A 
ENDROOT
BRANCH   1   7
ATOM      7  C2  UNL d   1      -2.354  -3.583  -3.592  0.00  0.00     0.056 C 
BRANCH   7   8
ATOM      8  C1  UNL d   1      -1.161  -3.990  -4.464  0.00  0.00     0.007 C 
ATOM      9  C   UNL d   1      -1.134  -3.284  -5.813  0.00  0.00     0.009 C 
ENDBRANCH   7   8
ENDBRANCH   1   7
TORSDOF 2
ENDMDL
