MODEL 1
REMARK minimizedAffinity 3.67209935
REMARK minimizedRMSD -1
REMARK  2 active torsions:
REMARK  status: ('A' for Active; 'I' for Inactive)
REMARK    1  A    between atoms: C1_2  and  C2_3 
REMARK    2  A    between atoms: C2_3  and  C3_4 
ROOT
ATOM      1  C3  UNL d   1       2.500   0.896   1.503  0.00  0.00    -0.075 A 
ATOM      2  C4  UNL d   1       2.774   0.492   0.189  0.00  0.00     0.002 A 
ATOM      3  C5  UNL d   1       3.831  -0.378  -0.079  0.00  0.00     0.002 A 
ATOM      4  C6  UNL d   1       4.634  -0.844   0.960  0.00  0.00    -0.004 A 
ATOM      5  C7  UNL d   1       4.381  -0.436   2.268  0.00  0.00     0.002 A 
ATOM      6  C8  UNL d   1       3.321   0.430   2.539  0.00  0.00     0.002 A 
ENDROOT
BRANCH   1   7
ATOM      7  C2  UNL d   1       1.338   1.813   1.804  0.00  0.00     0.056 C 
BRANCH   7   8
ATOM      8  C1  UNL d   1       0.252   1.178   2.678  0.00  0.00     0.007 C 
ATOM      9  C   UNL d   1      -0.051  -0.267   2.304  0.00  0.00     0.009 C 
ENDBRANCH   7   8
ENDBRANCH   1   7
TORSDOF 2
ENDMDL
