MODEL 1
REMARK minimizedAffinity -2.81499505
REMARK minimizedRMSD -1
REMARK  1 active torsions:
REMARK  status: ('A' for Active; 'I' for Inactive)
REMARK    1  A    between atoms: C1_2  and  C2_3 
ROOT
ATOM      1  C2  UNL d   1      -0.590   0.131   0.751  0.00  0.00    -0.077 A 
ATOM      2  C3  UNL d   1      -1.372  -0.410  -0.278  0.00  0.00     0.002 A 
ATOM      3  C4  UNL d   1      -1.291   0.106  -1.573  0.00  0.00     0.002 A 
ATOM      4  C5  UNL d   1      -0.426   1.163  -1.851  0.00  0.00    -0.004 A 
ATOM      5  C6  UNL d   1       0.355   1.709  -0.834  0.00  0.00     0.002 A 
ATOM      6  C7  UNL d   1       0.274   1.195   0.461  0.00  0.00     0.002 A 
ENDROOT
BRANCH   1   7
ATOM      7  C1  UNL d   1      -0.639  -0.456   2.137  0.00  0.00     0.055 C 
ATOM      8  C   UNL d   1       0.697  -1.071   2.526  0.00  0.00     0.019 C 
ENDBRANCH   1   7
TORSDOF 1
ENDMDL
