MODEL 1
REMARK minimizedAffinity -3.11581993
REMARK minimizedRMSD -1
REMARK  1 active torsions:
REMARK  status: ('A' for Active; 'I' for Inactive)
REMARK    1  A    between atoms: C1_2  and  C2_3 
ROOT
ATOM      1  C2  UNL d   1      -0.332   0.953  -0.854  0.00  0.00    -0.077 A 
ATOM      2  C3  UNL d   1      -0.776  -0.375  -0.785  0.00  0.00     0.002 A 
ATOM      3  C4  UNL d   1      -0.977  -0.990   0.453  0.00  0.00     0.002 A 
ATOM      4  C5  UNL d   1      -0.742  -0.282   1.630  0.00  0.00    -0.004 A 
ATOM      5  C6  UNL d   1      -0.299   1.038   1.572  0.00  0.00     0.002 A 
ATOM      6  C7  UNL d   1      -0.096   1.654   0.336  0.00  0.00     0.002 A 
ENDROOT
BRANCH   1   7
ATOM      7  C1  UNL d   1      -0.162   1.633  -2.187  0.00  0.00     0.055 C 
ATOM      8  C   UNL d   1      -1.421   2.387  -2.589  0.00  0.00     0.019 C 
ENDBRANCH   1   7
TORSDOF 1
ENDMDL
