MODEL 1
REMARK minimizedAffinity -4.02727318
REMARK minimizedRMSD -1
REMARK  0 active torsions:
REMARK  status: ('A' for Active; 'I' for Inactive)
ROOT
ATOM      1  C   UNL d   1      -0.543   1.897   2.224  0.00  0.00     0.023 A 
ATOM      2  C1  UNL d   1      -1.081   2.152   0.963  0.00  0.00     0.003 A 
ATOM      3  C2  UNL d   1      -0.771   1.317  -0.112  0.00  0.00     0.048 A 
ATOM      4  C3  UNL d   1       0.077   0.227   0.081  0.00  0.00     0.023 A 
ATOM      5  C4  UNL d   1       0.616  -0.034   1.342  0.00  0.00     0.048 A 
ATOM      6  C5  UNL d   1       0.304   0.805   2.414  0.00  0.00     0.003 A 
ATOM      7  I   UNL d   1       0.540  -1.019  -1.517  0.00  0.00    -0.146 I 
ENDROOT
TORSDOF 0
ENDMDL
