MODEL 1
REMARK minimizedAffinity -1.68036401
REMARK minimizedRMSD -1
REMARK  0 active torsions:
REMARK  status: ('A' for Active; 'I' for Inactive)
ROOT
ATOM      1  C   UNL d   1       0.772  -0.457  -1.170  0.00  0.00     0.023 A 
ATOM      2  C1  UNL d   1       0.094   0.650  -1.680  0.00  0.00     0.003 A 
ATOM      3  C2  UNL d   1      -0.545   1.539  -0.814  0.00  0.00     0.048 A 
ATOM      4  C3  UNL d   1      -0.502   1.315   0.562  0.00  0.00     0.023 A 
ATOM      5  C4  UNL d   1       0.176   0.209   1.077  0.00  0.00     0.048 A 
ATOM      6  C5  UNL d   1       0.813  -0.677   0.207  0.00  0.00     0.003 A 
ATOM      7  I   UNL d   1      -1.453   2.637   1.854  0.00  0.00    -0.146 I 
ENDROOT
TORSDOF 0
ENDMDL
