MODEL 1
REMARK minimizedAffinity -3.01182556
REMARK minimizedRMSD -1
REMARK  0 active torsions:
REMARK  status: ('A' for Active; 'I' for Inactive)
ROOT
ATOM      1  C   UNL d   1       0.349   0.649   1.157  0.00  0.00     0.023 A 
ATOM      2  C1  UNL d   1       1.019   0.394  -0.039  0.00  0.00     0.003 A 
ATOM      3  C2  UNL d   1       0.664  -0.710  -0.818  0.00  0.00     0.048 A 
ATOM      4  C3  UNL d   1      -0.362  -1.554  -0.395  0.00  0.00     0.023 A 
ATOM      5  C4  UNL d   1      -1.036  -1.302   0.801  0.00  0.00     0.048 A 
ATOM      6  C5  UNL d   1      -0.677  -0.198   1.577  0.00  0.00     0.003 A 
ATOM      7  I   UNL d   1      -0.892  -3.197  -1.552  0.00  0.00    -0.146 I 
ENDROOT
TORSDOF 0
ENDMDL
