MODEL 1
REMARK minimizedAffinity 4.57731152
REMARK minimizedRMSD -1
REMARK  0 active torsions:
REMARK  status: ('A' for Active; 'I' for Inactive)
ROOT
ATOM      1  C   UNL d   1      -1.483   3.418  -0.072  0.00  0.00     0.023 A 
ATOM      2  C1  UNL d   1      -0.503   2.503  -0.457  0.00  0.00     0.003 A 
ATOM      3  C2  UNL d   1       0.090   1.671   0.495  0.00  0.00     0.048 A 
ATOM      4  C3  UNL d   1      -0.303   1.759   1.831  0.00  0.00     0.023 A 
ATOM      5  C4  UNL d   1      -1.284   2.672   2.220  0.00  0.00     0.048 A 
ATOM      6  C5  UNL d   1      -1.873   3.503   1.265  0.00  0.00     0.003 A 
ATOM      7  I   UNL d   1       0.578   0.522   3.249  0.00  0.00    -0.146 I 
ENDROOT
TORSDOF 0
ENDMDL
