MODEL 1
REMARK minimizedAffinity 2.43056464
REMARK minimizedRMSD -1
REMARK  0 active torsions:
REMARK  status: ('A' for Active; 'I' for Inactive)
ROOT
ATOM      1  C   UNL d   1      -1.505  -4.460  -2.626  0.00  0.00     0.023 A 
ATOM      2  C1  UNL d   1      -1.599  -3.552  -3.681  0.00  0.00     0.003 A 
ATOM      3  C2  UNL d   1      -0.989  -2.299  -3.582  0.00  0.00     0.048 A 
ATOM      4  C3  UNL d   1      -0.286  -1.962  -2.426  0.00  0.00     0.023 A 
ATOM      5  C4  UNL d   1      -0.189  -2.868  -1.368  0.00  0.00     0.048 A 
ATOM      6  C5  UNL d   1      -0.801  -4.119  -1.472  0.00  0.00     0.003 A 
ATOM      7  I   UNL d   1       0.623  -0.099  -2.276  0.00  0.00    -0.146 I 
ENDROOT
TORSDOF 0
ENDMDL
