MODEL 1
REMARK minimizedAffinity -5.14491892
REMARK minimizedRMSD -1
REMARK  1 active torsions:
REMARK  status: ('A' for Active; 'I' for Inactive)
REMARK    1  A    between atoms: N_2  and  C1_3 
ROOT
ATOM      1  C1  UNL d   1       0.808  -0.406  -0.799  0.00  0.00     0.143 A 
ATOM      2  C2  UNL d   1       1.800  -0.730  -1.731  0.00  0.00    -0.057 A 
ATOM      3  C3  UNL d   1       2.142   0.151  -2.763  0.00  0.00     0.033 A 
ATOM      4  C4  UNL d   1       1.475   1.364  -2.900  0.00  0.00    -0.042 A 
ATOM      5  C5  UNL d   1       0.468   1.696  -2.001  0.00  0.00     0.033 A 
ATOM      6  C6  UNL d   1       0.136   0.815  -0.968  0.00  0.00    -0.057 A 
ENDROOT
BRANCH   1   7
ATOM      7  N   UNL d   1       0.354  -1.281   0.191  0.00  0.00    -0.732 N 
ATOM      8  C   UNL d   1       0.116  -2.676  -0.112  0.00  0.00     0.284 C 
ATOM      9  H3  UNL d   1       0.808  -1.122   1.088  0.00  0.00     0.395 HD
ENDBRANCH   1   7
TORSDOF 1
ENDMDL
