MODEL 1
REMARK minimizedAffinity -3.23884368
REMARK minimizedRMSD -1
REMARK  1 active torsions:
REMARK  status: ('A' for Active; 'I' for Inactive)
REMARK    1  A    between atoms: N_2  and  C1_3 
ROOT
ATOM      1  C1  UNL d   1       1.383  -0.140  -1.904  0.00  0.00     0.143 A 
ATOM      2  C2  UNL d   1       2.203  -1.274  -1.884  0.00  0.00    -0.057 A 
ATOM      3  C3  UNL d   1       1.947  -2.339  -1.012  0.00  0.00     0.033 A 
ATOM      4  C4  UNL d   1       0.882  -2.275  -0.120  0.00  0.00    -0.042 A 
ATOM      5  C5  UNL d   1       0.069  -1.147  -0.105  0.00  0.00     0.033 A 
ATOM      6  C6  UNL d   1       0.325  -0.090  -0.983  0.00  0.00    -0.057 A 
ENDROOT
BRANCH   1   7
ATOM      7  N   UNL d   1       1.643   0.994  -2.678  0.00  0.00    -0.732 N 
ATOM      8  C   UNL d   1       0.904   2.219  -2.462  0.00  0.00     0.284 C 
ATOM      9  H3  UNL d   1       2.637   1.131  -2.845  0.00  0.00     0.395 HD
ENDBRANCH   1   7
TORSDOF 1
ENDMDL
