MODEL 1
REMARK minimizedAffinity -4.37525702
REMARK minimizedRMSD -1
REMARK  1 active torsions:
REMARK  status: ('A' for Active; 'I' for Inactive)
REMARK    1  A    between atoms: N_2  and  C1_3 
ROOT
ATOM      1  C1  UNL d   1      -0.449  -0.160  -0.451  0.00  0.00     0.143 A 
ATOM      2  C2  UNL d   1       0.431  -1.231  -0.640  0.00  0.00    -0.057 A 
ATOM      3  C3  UNL d   1       1.528  -1.125  -1.503  0.00  0.00     0.033 A 
ATOM      4  C4  UNL d   1       1.749   0.047  -2.218  0.00  0.00    -0.042 A 
ATOM      5  C5  UNL d   1       0.873   1.116  -2.065  0.00  0.00     0.033 A 
ATOM      6  C6  UNL d   1      -0.217   1.007  -1.196  0.00  0.00    -0.057 A 
ENDROOT
BRANCH   1   7
ATOM      7  N   UNL d   1      -1.613  -0.235   0.318  0.00  0.00    -0.732 N 
ATOM      8  C   UNL d   1      -1.754   0.555   1.521  0.00  0.00     0.284 C 
ATOM      9  H3  UNL d   1      -2.454  -0.277  -0.254  0.00  0.00     0.395 HD
ENDBRANCH   1   7
TORSDOF 1
ENDMDL
