MODEL 1
REMARK minimizedAffinity -4.72651577
REMARK minimizedRMSD -1
REMARK  1 active torsions:
REMARK  status: ('A' for Active; 'I' for Inactive)
REMARK    1  A    between atoms: N_2  and  C1_3 
ROOT
ATOM      1  C1  UNL d   1       0.032  -0.111  -0.350  0.00  0.00     0.143 A 
ATOM      2  C2  UNL d   1       0.372  -1.468  -0.355  0.00  0.00    -0.057 A 
ATOM      3  C3  UNL d   1       1.563  -1.915  -0.941  0.00  0.00     0.033 A 
ATOM      4  C4  UNL d   1       2.423  -1.013  -1.559  0.00  0.00    -0.042 A 
ATOM      5  C5  UNL d   1       2.093   0.337  -1.587  0.00  0.00     0.033 A 
ATOM      6  C6  UNL d   1       0.906   0.778  -0.995  0.00  0.00    -0.057 A 
ENDROOT
BRANCH   1   7
ATOM      7  N   UNL d   1      -1.184   0.384   0.129  0.00  0.00    -0.732 N 
ATOM      8  C   UNL d   1      -1.376   0.626   1.543  0.00  0.00     0.284 C 
ATOM      9  H3  UNL d   1      -1.573   1.106  -0.473  0.00  0.00     0.395 HD
ENDBRANCH   1   7
TORSDOF 1
ENDMDL
