MODEL 1
REMARK minimizedAffinity -3.97238541
REMARK minimizedRMSD -1
REMARK  1 active torsions:
REMARK  status: ('A' for Active; 'I' for Inactive)
REMARK    1  A    between atoms: N_2  and  C1_3 
ROOT
ATOM      1  C1  UNL d   1       0.054   0.268  -0.026  0.00  0.00     0.143 A 
ATOM      2  C2  UNL d   1       0.897  -0.848  -0.071  0.00  0.00    -0.057 A 
ATOM      3  C3  UNL d   1       1.839  -1.006  -1.095  0.00  0.00     0.033 A 
ATOM      4  C4  UNL d   1       1.933  -0.062  -2.113  0.00  0.00    -0.042 A 
ATOM      5  C5  UNL d   1       1.088   1.043  -2.102  0.00  0.00     0.033 A 
ATOM      6  C6  UNL d   1       0.155   1.198  -1.072  0.00  0.00    -0.057 A 
ENDROOT
BRANCH   1   7
ATOM      7  N   UNL d   1      -0.968   0.433   0.911  0.00  0.00    -0.732 N 
ATOM      8  C   UNL d   1      -0.733   1.161   2.139  0.00  0.00     0.284 C 
ATOM      9  H3  UNL d   1      -1.866   0.632   0.476  0.00  0.00     0.395 HD
ENDBRANCH   1   7
TORSDOF 1
ENDMDL
