MODEL 1
REMARK minimizedAffinity -1.96851528
REMARK minimizedRMSD -1
REMARK  1 active torsions:
REMARK  status: ('A' for Active; 'I' for Inactive)
REMARK    1  A    between atoms: N_2  and  C1_3 
ROOT
ATOM      1  C1  UNL d   1      -0.362  -0.234  -0.029  0.00  0.00     0.143 A 
ATOM      2  C2  UNL d   1      -0.535  -1.598   0.230  0.00  0.00    -0.057 A 
ATOM      3  C3  UNL d   1       0.392  -2.545  -0.220  0.00  0.00     0.033 A 
ATOM      4  C4  UNL d   1       1.497  -2.147  -0.965  0.00  0.00    -0.042 A 
ATOM      5  C5  UNL d   1       1.676  -0.799  -1.255  0.00  0.00     0.033 A 
ATOM      6  C6  UNL d   1       0.751   0.143  -0.798  0.00  0.00    -0.057 A 
ENDROOT
BRANCH   1   7
ATOM      7  N   UNL d   1      -1.299   0.747   0.306  0.00  0.00    -0.732 N 
ATOM      8  C   UNL d   1      -1.853   0.811   1.642  0.00  0.00     0.284 C 
ATOM      9  H3  UNL d   1      -1.071   1.654  -0.093  0.00  0.00     0.395 HD
ENDBRANCH   1   7
TORSDOF 1
ENDMDL
