MODEL 1
REMARK minimizedAffinity -4.76557064
REMARK minimizedRMSD -1
REMARK  1 active torsions:
REMARK  status: ('A' for Active; 'I' for Inactive)
REMARK    1  A    between atoms: N_2  and  C1_3 
ROOT
ATOM      1  C1  UNL d   1       0.241  -0.237  -0.192  0.00  0.00     0.143 A 
ATOM      2  C2  UNL d   1       0.609  -1.580  -0.331  0.00  0.00    -0.057 A 
ATOM      3  C3  UNL d   1       1.757  -1.948  -1.043  0.00  0.00     0.033 A 
ATOM      4  C4  UNL d   1       2.544  -0.978  -1.655  0.00  0.00    -0.042 A 
ATOM      5  C5  UNL d   1       2.184   0.361  -1.551  0.00  0.00     0.033 A 
ATOM      6  C6  UNL d   1       1.040   0.722  -0.833  0.00  0.00    -0.057 A 
ENDROOT
BRANCH   1   7
ATOM      7  N   UNL d   1      -0.942   0.186   0.419  0.00  0.00    -0.732 N 
ATOM      8  C   UNL d   1      -0.985   0.441   1.843  0.00  0.00     0.284 C 
ATOM      9  H3  UNL d   1      -1.446   0.869  -0.141  0.00  0.00     0.395 HD
ENDBRANCH   1   7
TORSDOF 1
ENDMDL
