MODEL 1
REMARK minimizedAffinity -4.86640072
REMARK minimizedRMSD -1
REMARK  1 active torsions:
REMARK  status: ('A' for Active; 'I' for Inactive)
REMARK    1  A    between atoms: N_2  and  C1_3 
ROOT
ATOM      1  C1  UNL d   1       1.522   0.373  -1.433  0.00  0.00     0.143 A 
ATOM      2  C2  UNL d   1       0.440   0.531  -0.560  0.00  0.00    -0.057 A 
ATOM      3  C3  UNL d   1      -0.055  -0.546   0.185  0.00  0.00     0.033 A 
ATOM      4  C4  UNL d   1       0.507  -1.811   0.048  0.00  0.00    -0.042 A 
ATOM      5  C5  UNL d   1       1.567  -1.996  -0.832  0.00  0.00     0.033 A 
ATOM      6  C6  UNL d   1       2.062  -0.916  -1.568  0.00  0.00    -0.057 A 
ENDROOT
BRANCH   1   7
ATOM      7  N   UNL d   1       1.997   1.382  -2.274  0.00  0.00    -0.732 N 
ATOM      8  C   UNL d   1       1.178   2.537  -2.576  0.00  0.00     0.284 C 
ATOM      9  H3  UNL d   1       2.976   1.600  -2.106  0.00  0.00     0.395 HD
ENDBRANCH   1   7
TORSDOF 1
ENDMDL
