MODEL 1
REMARK minimizedAffinity -1.87136376
REMARK minimizedRMSD -1
REMARK  1 active torsions:
REMARK  status: ('A' for Active; 'I' for Inactive)
REMARK    1  A    between atoms: N_2  and  C1_3 
ROOT
ATOM      1  C1  UNL d   1       0.014  -0.262  -0.338  0.00  0.00     0.143 A 
ATOM      2  C2  UNL d   1       0.289   0.748  -1.266  0.00  0.00    -0.057 A 
ATOM      3  C3  UNL d   1       1.241   0.565  -2.276  0.00  0.00     0.033 A 
ATOM      4  C4  UNL d   1       1.958  -0.624  -2.358  0.00  0.00    -0.042 A 
ATOM      5  C5  UNL d   1       1.718  -1.633  -1.431  0.00  0.00     0.033 A 
ATOM      6  C6  UNL d   1       0.761  -1.447  -0.429  0.00  0.00    -0.057 A 
ENDROOT
BRANCH   1   7
ATOM      7  N   UNL d   1      -0.850  -0.105   0.749  0.00  0.00    -0.732 N 
ATOM      8  C   UNL d   1      -0.338   0.269   2.050  0.00  0.00     0.284 C 
ATOM      9  H3  UNL d   1      -1.716   0.364   0.493  0.00  0.00     0.395 HD
ENDBRANCH   1   7
TORSDOF 1
ENDMDL
