MODEL 1
REMARK minimizedAffinity -3.96059537
REMARK minimizedRMSD -1
REMARK  1 active torsions:
REMARK  status: ('A' for Active; 'I' for Inactive)
REMARK    1  A    between atoms: N_2  and  C1_3 
ROOT
ATOM      1  C1  UNL d   1       0.196   0.042  -0.116  0.00  0.00     0.143 A 
ATOM      2  C2  UNL d   1       1.390   0.769  -0.055  0.00  0.00    -0.057 A 
ATOM      3  C3  UNL d   1       2.559   0.301  -0.667  0.00  0.00     0.033 A 
ATOM      4  C4  UNL d   1       2.562  -0.922  -1.329  0.00  0.00    -0.042 A 
ATOM      5  C5  UNL d   1       1.394  -1.675  -1.381  0.00  0.00     0.033 A 
ATOM      6  C6  UNL d   1       0.228  -1.198  -0.774  0.00  0.00    -0.057 A 
ENDROOT
BRANCH   1   7
ATOM      7  N   UNL d   1      -0.973   0.407   0.555  0.00  0.00    -0.732 N 
ATOM      8  C   UNL d   1      -0.930   0.812   1.944  0.00  0.00     0.284 C 
ATOM      9  H3  UNL d   1      -1.593   0.969  -0.023  0.00  0.00     0.395 HD
ENDBRANCH   1   7
TORSDOF 1
ENDMDL
