MODEL 1
REMARK minimizedAffinity -3.67780256
REMARK minimizedRMSD -1
REMARK  1 active torsions:
REMARK  status: ('A' for Active; 'I' for Inactive)
REMARK    1  A    between atoms: N_2  and  C1_3 
ROOT
ATOM      1  C1  UNL d   1      -0.169  -0.203  -0.141  0.00  0.00     0.143 A 
ATOM      2  C2  UNL d   1       0.036  -1.534  -0.520  0.00  0.00    -0.057 A 
ATOM      3  C3  UNL d   1       1.281  -1.972  -0.987  0.00  0.00     0.033 A 
ATOM      4  C4  UNL d   1       2.339  -1.076  -1.112  0.00  0.00    -0.042 A 
ATOM      5  C5  UNL d   1       2.150   0.257  -0.764  0.00  0.00     0.033 A 
ATOM      6  C6  UNL d   1       0.906   0.686  -0.292  0.00  0.00    -0.057 A 
ENDROOT
BRANCH   1   7
ATOM      7  N   UNL d   1      -1.410   0.315   0.238  0.00  0.00    -0.732 N 
ATOM      8  C   UNL d   1      -1.733   0.508   1.635  0.00  0.00     0.284 C 
ATOM      9  H3  UNL d   1      -1.715   1.074  -0.368  0.00  0.00     0.395 HD
ENDBRANCH   1   7
TORSDOF 1
ENDMDL
