MODEL 1
REMARK minimizedAffinity -4.00287008
REMARK minimizedRMSD -1
REMARK  1 active torsions:
REMARK  status: ('A' for Active; 'I' for Inactive)
REMARK    1  A    between atoms: N_2  and  C1_3 
ROOT
ATOM      1  C1  UNL d   1       0.601   0.182  -0.880  0.00  0.00     0.143 A 
ATOM      2  C2  UNL d   1       1.780   0.893  -0.635  0.00  0.00    -0.057 A 
ATOM      3  C3  UNL d   1       3.030   0.372  -0.992  0.00  0.00     0.033 A 
ATOM      4  C4  UNL d   1       3.124  -0.887  -1.575  0.00  0.00    -0.042 A 
ATOM      5  C5  UNL d   1       1.967  -1.623  -1.805  0.00  0.00     0.033 A 
ATOM      6  C6  UNL d   1       0.722  -1.094  -1.453  0.00  0.00    -0.057 A 
ENDROOT
BRANCH   1   7
ATOM      7  N   UNL d   1      -0.663   0.602  -0.460  0.00  0.00    -0.732 N 
ATOM      8  C   UNL d   1      -1.386  -0.134   0.555  0.00  0.00     0.284 C 
ATOM      9  H3  UNL d   1      -0.723   1.613  -0.362  0.00  0.00     0.395 HD
ENDBRANCH   1   7
TORSDOF 1
ENDMDL
