MODEL 1
REMARK minimizedAffinity -4.14784622
REMARK minimizedRMSD -1
REMARK  1 active torsions:
REMARK  status: ('A' for Active; 'I' for Inactive)
REMARK    1  A    between atoms: N_2  and  C1_3 
ROOT
ATOM      1  C1  UNL d   1      -0.184   0.096  -0.261  0.00  0.00     0.143 A 
ATOM      2  C2  UNL d   1      -0.062  -1.280  -0.482  0.00  0.00    -0.057 A 
ATOM      3  C3  UNL d   1       1.073  -1.818  -1.100  0.00  0.00     0.033 A 
ATOM      4  C4  UNL d   1       2.096  -0.984  -1.537  0.00  0.00    -0.042 A 
ATOM      5  C5  UNL d   1       1.985   0.390  -1.351  0.00  0.00     0.033 A 
ATOM      6  C6  UNL d   1       0.852   0.921  -0.727  0.00  0.00    -0.057 A 
ENDROOT
BRANCH   1   7
ATOM      7  N   UNL d   1      -1.331   0.702   0.259  0.00  0.00    -0.732 N 
ATOM      8  C   UNL d   1      -2.063   0.084   1.343  0.00  0.00     0.284 C 
ATOM      9  H3  UNL d   1      -1.231   1.711   0.346  0.00  0.00     0.395 HD
ENDBRANCH   1   7
TORSDOF 1
ENDMDL
