MODEL 1
REMARK minimizedAffinity 0.199443251
REMARK minimizedRMSD -1
REMARK  1 active torsions:
REMARK  status: ('A' for Active; 'I' for Inactive)
REMARK    1  A    between atoms: N_2  and  C1_3 
ROOT
ATOM      1  C1  UNL d   1      -2.370   0.430   2.874  0.00  0.00     0.143 A 
ATOM      2  C2  UNL d   1      -1.937  -0.438   1.866  0.00  0.00    -0.057 A 
ATOM      3  C3  UNL d   1      -0.843  -0.119   1.052  0.00  0.00     0.033 A 
ATOM      4  C4  UNL d   1      -0.180   1.093   1.213  0.00  0.00    -0.042 A 
ATOM      5  C5  UNL d   1      -0.608   1.983   2.192  0.00  0.00     0.033 A 
ATOM      6  C6  UNL d   1      -1.697   1.655   3.006  0.00  0.00    -0.057 A 
ENDROOT
BRANCH   1   7
ATOM      7  N   UNL d   1      -3.511   0.214   3.650  0.00  0.00    -0.732 N 
ATOM      8  C   UNL d   1      -4.083  -1.111   3.767  0.00  0.00     0.284 C 
ATOM      9  H3  UNL d   1      -3.492   0.737   4.523  0.00  0.00     0.395 HD
ENDBRANCH   1   7
TORSDOF 1
ENDMDL
