MODEL 1
REMARK minimizedAffinity 2.13177252
REMARK minimizedRMSD -1
REMARK  0 active torsions:
REMARK  status: ('A' for Active; 'I' for Inactive)
ROOT
ATOM      1  C2' OXE d   1       0.513   2.828  -0.778  0.00  0.00     0.078 C 
ATOM      2  C1' OXE d   1       0.243   0.527  -2.364  0.00  0.00     0.078 C 
ATOM      3  C1  OXE d   1       0.723   0.351  -0.945  0.00  0.00    -0.078 A 
ATOM      4  C2  OXE d   1       0.897   1.486  -0.191  0.00  0.00    -0.078 A 
ATOM      5  C3  OXE d   1       1.284   1.376   1.142  0.00  0.00     0.003 A 
ATOM      6  C4  OXE d   1       1.647   0.133   1.674  0.00  0.00    -0.002 A 
ATOM      7  C5  OXE d   1       1.515  -1.032   0.910  0.00  0.00    -0.002 A 
ATOM      8  C6  OXE d   1       1.015  -0.945  -0.384  0.00  0.00     0.003 A 
ENDROOT
TORSDOF 0
ENDMDL
