MODEL 1
REMARK minimizedAffinity -1.2214793
REMARK minimizedRMSD -1
REMARK  0 active torsions:
REMARK  status: ('A' for Active; 'I' for Inactive)
ROOT
ATOM      1  C2' OXE d   1       0.383   1.357   0.315  0.00  0.00     0.078 C 
ATOM      2  C1' OXE d   1      -2.120   2.262  -0.578  0.00  0.00     0.078 C 
ATOM      3  C1  OXE d   1      -0.950   3.208  -0.688  0.00  0.00    -0.078 A 
ATOM      4  C2  OXE d   1       0.261   2.773  -0.205  0.00  0.00    -0.078 A 
ATOM      5  C3  OXE d   1       1.384   3.585  -0.331  0.00  0.00     0.003 A 
ATOM      6  C4  OXE d   1       1.261   4.897  -0.804  0.00  0.00    -0.002 A 
ATOM      7  C5  OXE d   1       0.029   5.373  -1.264  0.00  0.00    -0.002 A 
ATOM      8  C6  OXE d   1      -1.075   4.529  -1.252  0.00  0.00     0.003 A 
ENDROOT
TORSDOF 0
ENDMDL
