MODEL 1
REMARK minimizedAffinity 2.68990254
REMARK minimizedRMSD -1
REMARK  0 active torsions:
REMARK  status: ('A' for Active; 'I' for Inactive)
ROOT
ATOM      1  C2' OXE d   1       1.909  -1.962   6.000  0.00  0.00     0.078 C 
ATOM      2  C1' OXE d   1       2.400  -4.725   5.919  0.00  0.00     0.078 C 
ATOM      3  C1  OXE d   1       3.591  -3.799   5.936  0.00  0.00    -0.078 A 
ATOM      4  C2  OXE d   1       3.341  -2.448   5.929  0.00  0.00    -0.078 A 
ATOM      5  C3  OXE d   1       4.402  -1.550   6.000  0.00  0.00     0.003 A 
ATOM      6  C4  OXE d   1       5.724  -2.007   5.923  0.00  0.00    -0.002 A 
ATOM      7  C5  OXE d   1       6.000  -3.378   5.890  0.00  0.00    -0.002 A 
ATOM      8  C6  OXE d   1       4.948  -4.287   5.939  0.00  0.00     0.003 A 
ENDROOT
TORSDOF 0
ENDMDL
