MODEL 1
REMARK minimizedAffinity 1.0801872
REMARK minimizedRMSD -1
REMARK  0 active torsions:
REMARK  status: ('A' for Active; 'I' for Inactive)
ROOT
ATOM      1  C2' OXE d   1      -2.779   4.219   1.066  0.00  0.00     0.078 C 
ATOM      2  C1' OXE d   1      -3.143   1.939  -0.531  0.00  0.00     0.078 C 
ATOM      3  C1  OXE d   1      -1.729   2.373  -0.235  0.00  0.00    -0.078 A 
ATOM      4  C2  OXE d   1      -1.561   3.516   0.508  0.00  0.00    -0.078 A 
ATOM      5  C3  OXE d   1      -0.278   3.930   0.855  0.00  0.00     0.003 A 
ATOM      6  C4  OXE d   1       0.844   3.280   0.326  0.00  0.00    -0.002 A 
ATOM      7  C5  OXE d   1       0.694   2.136  -0.465  0.00  0.00    -0.002 A 
ATOM      8  C6  OXE d   1      -0.582   1.646  -0.720  0.00  0.00     0.003 A 
ENDROOT
TORSDOF 0
ENDMDL
