MODEL 1
REMARK minimizedAffinity 6.86156988
REMARK minimizedRMSD -1
REMARK  0 active torsions:
REMARK  status: ('A' for Active; 'I' for Inactive)
ROOT
ATOM      1  C2' OXE d   1      -0.091   5.186  -0.420  0.00  0.00     0.078 C 
ATOM      2  C1' OXE d   1       2.333   4.194   0.589  0.00  0.00     0.078 C 
ATOM      3  C1  OXE d   1       1.211   3.212   0.363  0.00  0.00    -0.078 A 
ATOM      4  C2  OXE d   1       0.013   3.713  -0.087  0.00  0.00    -0.078 A 
ATOM      5  C3  OXE d   1      -1.038   2.844  -0.364  0.00  0.00     0.003 A 
ATOM      6  C4  OXE d   1      -0.937   1.485  -0.043  0.00  0.00    -0.002 A 
ATOM      7  C5  OXE d   1       0.261   0.960   0.454  0.00  0.00    -0.002 A 
ATOM      8  C6  OXE d   1       1.356   1.801   0.622  0.00  0.00     0.003 A 
ENDROOT
TORSDOF 0
ENDMDL
