MODEL 1
REMARK minimizedAffinity 9.88815022
REMARK minimizedRMSD -1
REMARK  0 active torsions:
REMARK  status: ('A' for Active; 'I' for Inactive)
ROOT
ATOM      1  C2' OXE d   1       0.777   2.043   0.631  0.00  0.00     0.078 C 
ATOM      2  C1' OXE d   1      -1.916   2.835   0.602  0.00  0.00     0.078 C 
ATOM      3  C1  OXE d   1      -0.917   3.711  -0.112  0.00  0.00    -0.078 A 
ATOM      4  C2  OXE d   1       0.405   3.341  -0.053  0.00  0.00    -0.078 A 
ATOM      5  C3  OXE d   1       1.360   4.084  -0.740  0.00  0.00     0.003 A 
ATOM      6  C4  OXE d   1       1.009   5.288  -1.362  0.00  0.00    -0.002 A 
ATOM      7  C5  OXE d   1      -0.326   5.704  -1.400  0.00  0.00    -0.002 A 
ATOM      8  C6  OXE d   1      -1.305   4.907  -0.818  0.00  0.00     0.003 A 
ENDROOT
TORSDOF 0
ENDMDL
