MODEL 1
REMARK minimizedAffinity 10.8380728
REMARK minimizedRMSD -1
REMARK  0 active torsions:
REMARK  status: ('A' for Active; 'I' for Inactive)
ROOT
ATOM      1  C2' OXE d   1      -3.200   3.709  -3.751  0.00  0.00     0.078 C 
ATOM      2  C1' OXE d   1      -6.000   3.552  -3.882  0.00  0.00     0.078 C 
ATOM      3  C1  OXE d   1      -5.254   2.361  -3.334  0.00  0.00    -0.078 A 
ATOM      4  C2  OXE d   1      -3.881   2.428  -3.317  0.00  0.00    -0.078 A 
ATOM      5  C3  OXE d   1      -3.147   1.380  -2.771  0.00  0.00     0.003 A 
ATOM      6  C4  OXE d   1      -3.784   0.195  -2.382  0.00  0.00    -0.002 A 
ATOM      7  C5  OXE d   1      -5.178   0.091  -2.428  0.00  0.00    -0.002 A 
ATOM      8  C6  OXE d   1      -5.929   1.178  -2.861  0.00  0.00     0.003 A 
ENDROOT
TORSDOF 0
ENDMDL
