MODEL 1
REMARK minimizedAffinity -4.21418095
REMARK minimizedRMSD -1
REMARK  0 active torsions:
REMARK  status: ('A' for Active; 'I' for Inactive)
ROOT
ATOM      1  C2' OXE d   1      -4.874   0.752  -3.004  0.00  0.00     0.078 C 
ATOM      2  C1' OXE d   1      -2.579   2.366  -2.931  0.00  0.00     0.078 C 
ATOM      3  C1  OXE d   1      -3.761   2.859  -3.729  0.00  0.00    -0.078 A 
ATOM      4  C2  OXE d   1      -4.863   2.041  -3.797  0.00  0.00    -0.078 A 
ATOM      5  C3  OXE d   1      -6.000   2.471  -4.475  0.00  0.00     0.003 A 
ATOM      6  C4  OXE d   1      -5.977   3.660  -5.214  0.00  0.00    -0.002 A 
ATOM      7  C5  OXE d   1      -4.851   4.490  -5.190  0.00  0.00    -0.002 A 
ATOM      8  C6  OXE d   1      -3.752   4.125  -4.420  0.00  0.00     0.003 A 
ENDROOT
TORSDOF 0
ENDMDL
