MODEL 1
REMARK minimizedAffinity -0.0899522677
REMARK minimizedRMSD -1
REMARK  0 active torsions:
REMARK  status: ('A' for Active; 'I' for Inactive)
ROOT
ATOM      1  C2' OXE d   1      -3.054   1.992  -3.377  0.00  0.00     0.078 C 
ATOM      2  C1' OXE d   1      -4.516   1.019  -5.567  0.00  0.00     0.078 C 
ATOM      3  C1  OXE d   1      -4.646   2.483  -5.228  0.00  0.00    -0.078 A 
ATOM      4  C2  OXE d   1      -3.964   2.940  -4.126  0.00  0.00    -0.078 A 
ATOM      5  C3  OXE d   1      -4.006   4.293  -3.802  0.00  0.00     0.003 A 
ATOM      6  C4  OXE d   1      -4.859   5.162  -4.494  0.00  0.00    -0.002 A 
ATOM      7  C5  OXE d   1      -5.593   4.708  -5.595  0.00  0.00    -0.002 A 
ATOM      8  C6  OXE d   1      -5.466   3.384  -6.000  0.00  0.00     0.003 A 
ENDROOT
TORSDOF 0
ENDMDL
