MODEL 1
REMARK minimizedAffinity 0.505064428
REMARK minimizedRMSD -1
REMARK  0 active torsions:
REMARK  status: ('A' for Active; 'I' for Inactive)
ROOT
ATOM      1  C2' OXE d   1       4.146  -4.701   0.153  0.00  0.00     0.078 C 
ATOM      2  C1' OXE d   1       5.669  -2.650  -1.010  0.00  0.00     0.078 C 
ATOM      3  C1  OXE d   1       4.352  -2.276  -0.377  0.00  0.00    -0.078 A 
ATOM      4  C2  OXE d   1       3.592  -3.293   0.149  0.00  0.00    -0.078 A 
ATOM      5  C3  OXE d   1       2.395  -2.996   0.794  0.00  0.00     0.003 A 
ATOM      6  C4  OXE d   1       1.885  -1.692   0.777  0.00  0.00    -0.002 A 
ATOM      7  C5  OXE d   1       2.624  -0.648   0.212  0.00  0.00    -0.002 A 
ATOM      8  C6  OXE d   1       3.876  -0.915  -0.330  0.00  0.00     0.003 A 
ENDROOT
TORSDOF 0
ENDMDL
