MODEL 1
REMARK minimizedAffinity 4.71814394
REMARK minimizedRMSD -1
REMARK  0 active torsions:
REMARK  status: ('A' for Active; 'I' for Inactive)
ROOT
ATOM      1  C2' OXE d   1      -4.870   0.780  -3.047  0.00  0.00     0.078 C 
ATOM      2  C1' OXE d   1      -2.560   2.333  -2.681  0.00  0.00     0.078 C 
ATOM      3  C1  OXE d   1      -3.747   2.984  -3.346  0.00  0.00    -0.078 A 
ATOM      4  C2  OXE d   1      -4.857   2.203  -3.563  0.00  0.00    -0.078 A 
ATOM      5  C3  OXE d   1      -5.999   2.768  -4.123  0.00  0.00     0.003 A 
ATOM      6  C4  OXE d   1      -5.975   4.082  -4.607  0.00  0.00    -0.002 A 
ATOM      7  C5  OXE d   1      -4.842   4.883  -4.431  0.00  0.00    -0.002 A 
ATOM      8  C6  OXE d   1      -3.737   4.363  -3.766  0.00  0.00     0.003 A 
ENDROOT
TORSDOF 0
ENDMDL
