MODEL 1
REMARK minimizedAffinity 5.08330917
REMARK minimizedRMSD -1
REMARK  0 active torsions:
REMARK  status: ('A' for Active; 'I' for Inactive)
ROOT
ATOM      1  C2' OXE d   1       0.844  -5.999  -1.209  0.00  0.00     0.078 C 
ATOM      2  C1' OXE d   1       2.710  -5.857  -3.301  0.00  0.00     0.078 C 
ATOM      3  C1  OXE d   1       1.768  -4.693  -3.118  0.00  0.00    -0.078 A 
ATOM      4  C2  OXE d   1       0.827  -4.792  -2.121  0.00  0.00    -0.078 A 
ATOM      5  C3  OXE d   1      -0.030  -3.723  -1.875  0.00  0.00     0.003 A 
ATOM      6  C4  OXE d   1      -0.046  -2.615  -2.729  0.00  0.00    -0.002 A 
ATOM      7  C5  OXE d   1       0.878  -2.512  -3.775  0.00  0.00    -0.002 A 
ATOM      8  C6  OXE d   1       1.817  -3.521  -3.957  0.00  0.00     0.003 A 
ENDROOT
TORSDOF 0
ENDMDL
