MODEL 1
REMARK minimizedAffinity -2.47904301
REMARK minimizedRMSD -1
REMARK  0 active torsions:
REMARK  status: ('A' for Active; 'I' for Inactive)
ROOT
ATOM      1  C2' OXE d   1      -5.234   0.380   0.745  0.00  0.00     0.078 C 
ATOM      2  C1' OXE d   1      -3.341   1.116   2.682  0.00  0.00     0.078 C 
ATOM      3  C1  OXE d   1      -4.233  -0.063   2.982  0.00  0.00    -0.078 A 
ATOM      4  C2  OXE d   1      -5.187  -0.387   2.049  0.00  0.00    -0.078 A 
ATOM      5  C3  OXE d   1      -6.000  -1.499   2.251  0.00  0.00     0.003 A 
ATOM      6  C4  OXE d   1      -5.957  -2.196   3.464  0.00  0.00    -0.002 A 
ATOM      7  C5  OXE d   1      -5.019  -1.858   4.445  0.00  0.00    -0.002 A 
ATOM      8  C6  OXE d   1      -4.123  -0.823   4.203  0.00  0.00     0.003 A 
ENDROOT
TORSDOF 0
ENDMDL
