MODEL 1
REMARK minimizedAffinity 7.38652229
REMARK minimizedRMSD -1
REMARK  1 active torsions:
REMARK  status: ('A' for Active; 'I' for Inactive)
REMARK    1  A    between atoms: C1_2  and  C2_3 
ROOT
ATOM      1  C2  UNL d   1      -0.220  -3.946   0.305  0.00  0.00    -0.073 A 
ATOM      2  C3  UNL d   1       0.376  -4.806  -0.624  0.00  0.00    -0.002 A 
ATOM      3  C4  UNL d   1      -0.160  -4.941  -1.905  0.00  0.00     0.004 A 
ATOM      4  C5  UNL d   1      -1.293  -4.214  -2.272  0.00  0.00    -0.004 A 
ATOM      5  C6  UNL d   1      -1.896  -3.340  -1.361  0.00  0.00    -0.075 A 
ATOM      6  C7  UNL d   1      -3.116  -2.553  -1.740  0.00  0.00     0.076 C 
ATOM      7  C8  UNL d   1      -1.353  -3.213  -0.076  0.00  0.00     0.001 A 
ENDROOT
BRANCH   1   8
ATOM      8  C1  UNL d   1       0.360  -3.793   1.687  0.00  0.00     0.053 C 
ATOM      9  C   UNL d   1       0.446  -5.122   2.420  0.00  0.00     0.018 C 
ENDBRANCH   1   8
TORSDOF 1
ENDMDL
