MODEL 1
REMARK minimizedAffinity -1.22934031
REMARK minimizedRMSD -1
REMARK  1 active torsions:
REMARK  status: ('A' for Active; 'I' for Inactive)
REMARK    1  A    between atoms: C1_2  and  C2_3 
ROOT
ATOM      1  C2  UNL d   1      -0.946  -4.264   1.797  0.00  0.00    -0.073 A 
ATOM      2  C3  UNL d   1      -0.746  -2.903   2.058  0.00  0.00    -0.002 A 
ATOM      3  C4  UNL d   1      -0.868  -1.964   1.033  0.00  0.00     0.004 A 
ATOM      4  C5  UNL d   1      -1.197  -2.374  -0.259  0.00  0.00    -0.004 A 
ATOM      5  C6  UNL d   1      -1.411  -3.728  -0.537  0.00  0.00    -0.075 A 
ATOM      6  C7  UNL d   1      -1.763  -4.185  -1.922  0.00  0.00     0.076 C 
ATOM      7  C8  UNL d   1      -1.284  -4.665   0.497  0.00  0.00     0.001 A 
ENDROOT
BRANCH   1   8
ATOM      8  C1  UNL d   1      -0.821  -5.281   2.902  0.00  0.00     0.053 C 
ATOM      9  C   UNL d   1      -0.083  -4.724   4.109  0.00  0.00     0.018 C 
ENDBRANCH   1   8
TORSDOF 1
ENDMDL
