MODEL 1
REMARK minimizedAffinity 3.87138748
REMARK minimizedRMSD -1
REMARK  1 active torsions:
REMARK  status: ('A' for Active; 'I' for Inactive)
REMARK    1  A    between atoms: C1_2  and  C2_3 
ROOT
ATOM      1  C2  UNL d   1       1.440  -2.320   0.211  0.00  0.00    -0.073 A 
ATOM      2  C3  UNL d   1       0.528  -2.723  -0.771  0.00  0.00    -0.002 A 
ATOM      3  C4  UNL d   1      -0.426  -3.701  -0.488  0.00  0.00     0.004 A 
ATOM      4  C5  UNL d   1      -0.485  -4.279   0.779  0.00  0.00    -0.004 A 
ATOM      5  C6  UNL d   1       0.410  -3.881   1.778  0.00  0.00    -0.075 A 
ATOM      6  C7  UNL d   1       0.362  -4.495   3.147  0.00  0.00     0.076 C 
ATOM      7  C8  UNL d   1       1.367  -2.901   1.486  0.00  0.00     0.001 A 
ENDROOT
BRANCH   1   8
ATOM      8  C1  UNL d   1       2.468  -1.260  -0.088  0.00  0.00     0.053 C 
ATOM      9  C   UNL d   1       2.152   0.054   0.609  0.00  0.00     0.018 C 
ENDBRANCH   1   8
TORSDOF 1
ENDMDL
