MODEL 1
REMARK minimizedAffinity 3.56858754
REMARK minimizedRMSD -1
REMARK  1 active torsions:
REMARK  status: ('A' for Active; 'I' for Inactive)
REMARK    1  A    between atoms: C1_2  and  C2_3 
ROOT
ATOM      1  C2  UNL d   1      -0.901  -3.607   0.531  0.00  0.00    -0.073 A 
ATOM      2  C3  UNL d   1      -0.890  -3.502  -0.864  0.00  0.00    -0.002 A 
ATOM      3  C4  UNL d   1      -1.893  -4.105  -1.625  0.00  0.00     0.004 A 
ATOM      4  C5  UNL d   1      -2.919  -4.812  -0.999  0.00  0.00    -0.004 A 
ATOM      5  C6  UNL d   1      -2.954  -4.919   0.395  0.00  0.00    -0.075 A 
ATOM      6  C7  UNL d   1      -4.050  -5.678   1.084  0.00  0.00     0.076 C 
ATOM      7  C8  UNL d   1      -1.942  -4.313   1.152  0.00  0.00     0.001 A 
ENDROOT
BRANCH   1   8
ATOM      8  C1  UNL d   1       0.176  -2.953   1.357  0.00  0.00     0.053 C 
ATOM      9  C   UNL d   1       1.406  -2.619   0.528  0.00  0.00     0.018 C 
ENDBRANCH   1   8
TORSDOF 1
ENDMDL
