MODEL 1
REMARK minimizedAffinity 2.75397038
REMARK minimizedRMSD -1
REMARK  1 active torsions:
REMARK  status: ('A' for Active; 'I' for Inactive)
REMARK    1  A    between atoms: C1_2  and  C2_3 
ROOT
ATOM      1  C2  UNL d   1       0.686   1.905   2.255  0.00  0.00    -0.073 A 
ATOM      2  C3  UNL d   1       1.247   0.805   1.596  0.00  0.00    -0.002 A 
ATOM      3  C4  UNL d   1       2.413   0.953   0.844  0.00  0.00     0.004 A 
ATOM      4  C5  UNL d   1       3.034   2.199   0.749  0.00  0.00    -0.004 A 
ATOM      5  C6  UNL d   1       2.495   3.308   1.410  0.00  0.00    -0.075 A 
ATOM      6  C7  UNL d   1       3.148   4.655   1.316  0.00  0.00     0.076 C 
ATOM      7  C8  UNL d   1       1.322   3.151   2.161  0.00  0.00     0.001 A 
ENDROOT
BRANCH   1   8
ATOM      8  C1  UNL d   1      -0.570   1.748   3.073  0.00  0.00     0.053 C 
ATOM      9  C   UNL d   1      -1.580   2.847   2.783  0.00  0.00     0.018 C 
ENDBRANCH   1   8
TORSDOF 1
ENDMDL
