MODEL 1
REMARK minimizedAffinity -2.9699955
REMARK minimizedRMSD -1
REMARK  1 active torsions:
REMARK  status: ('A' for Active; 'I' for Inactive)
REMARK    1  A    between atoms: C1_2  and  C2_3 
ROOT
ATOM      1  C2  UNL d   1      -1.625  -0.091   1.199  0.00  0.00    -0.073 A 
ATOM      2  C3  UNL d   1      -1.536  -1.413   0.748  0.00  0.00    -0.002 A 
ATOM      3  C4  UNL d   1      -0.293  -1.975   0.454  0.00  0.00     0.004 A 
ATOM      4  C5  UNL d   1       0.872  -1.225   0.615  0.00  0.00    -0.004 A 
ATOM      5  C6  UNL d   1       0.805   0.094   1.076  0.00  0.00    -0.075 A 
ATOM      6  C7  UNL d   1       2.049   0.914   1.251  0.00  0.00     0.076 C 
ATOM      7  C8  UNL d   1      -0.447   0.652   1.366  0.00  0.00     0.001 A 
ENDROOT
BRANCH   1   8
ATOM      8  C1  UNL d   1      -2.964   0.518   1.523  0.00  0.00     0.053 C 
ATOM      9  C   UNL d   1      -3.274   1.718   0.642  0.00  0.00     0.018 C 
ENDBRANCH   1   8
TORSDOF 1
ENDMDL
