MODEL 1
REMARK minimizedAffinity 8.94378471
REMARK minimizedRMSD -1
REMARK  1 active torsions:
REMARK  status: ('A' for Active; 'I' for Inactive)
REMARK    1  A    between atoms: C1_2  and  C2_3 
ROOT
ATOM      1  C2  UNL d   1       5.627   4.711   1.948  0.00  0.00    -0.073 A 
ATOM      2  C3  UNL d   1       5.701   5.943   1.288  0.00  0.00    -0.002 A 
ATOM      3  C4  UNL d   1       5.872   5.992  -0.096  0.00  0.00     0.004 A 
ATOM      4  C5  UNL d   1       5.963   4.813  -0.834  0.00  0.00    -0.004 A 
ATOM      5  C6  UNL d   1       5.879   3.572  -0.195  0.00  0.00    -0.075 A 
ATOM      6  C7  UNL d   1       5.977   2.294  -0.975  0.00  0.00     0.076 C 
ATOM      7  C8  UNL d   1       5.710   3.531   1.196  0.00  0.00     0.001 A 
ENDROOT
BRANCH   1   8
ATOM      8  C1  UNL d   1       5.436   4.653   3.442  0.00  0.00     0.053 C 
ATOM      9  C   UNL d   1       4.984   5.988   4.011  0.00  0.00     0.018 C 
ENDBRANCH   1   8
TORSDOF 1
ENDMDL
