MODEL 1
REMARK minimizedAffinity 4.96364689
REMARK minimizedRMSD -1
REMARK  1 active torsions:
REMARK  status: ('A' for Active; 'I' for Inactive)
REMARK    1  A    between atoms: C1_2  and  C2_3 
ROOT
ATOM      1  C2  UNL d   1       0.489   1.957  -4.682  0.00  0.00    -0.073 A 
ATOM      2  C3  UNL d   1      -0.070   2.306  -5.916  0.00  0.00    -0.002 A 
ATOM      3  C4  UNL d   1      -1.403   2.712  -5.997  0.00  0.00     0.004 A 
ATOM      4  C5  UNL d   1      -2.187   2.780  -4.846  0.00  0.00    -0.004 A 
ATOM      5  C6  UNL d   1      -1.643   2.446  -3.601  0.00  0.00    -0.075 A 
ATOM      6  C7  UNL d   1      -2.475   2.510  -2.354  0.00  0.00     0.076 C 
ATOM      7  C8  UNL d   1      -0.305   2.036  -3.529  0.00  0.00     0.001 A 
ENDROOT
BRANCH   1   8
ATOM      8  C1  UNL d   1       1.929   1.524  -4.589  0.00  0.00     0.053 C 
ATOM      9  C   UNL d   1       2.322   1.152  -3.168  0.00  0.00     0.018 C 
ENDBRANCH   1   8
TORSDOF 1
ENDMDL
