MODEL 1
REMARK minimizedAffinity 8.93059158
REMARK minimizedRMSD -1
REMARK  1 active torsions:
REMARK  status: ('A' for Active; 'I' for Inactive)
REMARK    1  A    between atoms: C1_2  and  C2_3 
ROOT
ATOM      1  C2  UNL d   1      -1.085  -4.022  -0.964  0.00  0.00    -0.073 A 
ATOM      2  C3  UNL d   1      -1.790  -3.503  -2.056  0.00  0.00    -0.002 A 
ATOM      3  C4  UNL d   1      -3.144  -3.797  -2.224  0.00  0.00     0.004 A 
ATOM      4  C5  UNL d   1      -3.807  -4.605  -1.301  0.00  0.00    -0.004 A 
ATOM      5  C6  UNL d   1      -3.123  -5.123  -0.197  0.00  0.00    -0.075 A 
ATOM      6  C7  UNL d   1      -3.821  -5.996   0.804  0.00  0.00     0.076 C 
ATOM      7  C8  UNL d   1      -1.762  -4.826  -0.036  0.00  0.00     0.001 A 
ENDROOT
BRANCH   1   8
ATOM      8  C1  UNL d   1       0.376  -3.703  -0.775  0.00  0.00     0.053 C 
ATOM      9  C   UNL d   1       0.585  -2.536   0.176  0.00  0.00     0.018 C 
ENDBRANCH   1   8
TORSDOF 1
ENDMDL
