MODEL 1
REMARK minimizedAffinity 1.50509596
REMARK minimizedRMSD -1
REMARK  2 active torsions:
REMARK  status: ('A' for Active; 'I' for Inactive)
REMARK    1  A    between atoms: C1_2  and  C2_3 
REMARK    2  A    between atoms: C2_3  and  C3_4 
ROOT
ATOM      1  C3  UNL d   1      -0.626  -0.239  -1.729  0.00  0.00    -0.075 A 
ATOM      2  C4  UNL d   1      -1.654  -0.647  -0.867  0.00  0.00     0.002 A 
ATOM      3  C5  UNL d   1      -2.794   0.140  -0.701  0.00  0.00     0.002 A 
ATOM      4  C6  UNL d   1      -2.915   1.347  -1.386  0.00  0.00    -0.004 A 
ATOM      5  C7  UNL d   1      -1.893   1.771  -2.232  0.00  0.00     0.002 A 
ATOM      6  C8  UNL d   1      -0.753   0.983  -2.403  0.00  0.00     0.002 A 
ENDROOT
BRANCH   1   7
ATOM      7  C2  UNL d   1       0.597  -1.101  -1.936  0.00  0.00     0.056 C 
BRANCH   7   8
ATOM      8  C1  UNL d   1       0.939  -1.995  -0.739  0.00  0.00     0.007 C 
ATOM      9  C   UNL d   1       2.426  -2.015  -0.411  0.00  0.00     0.009 C 
ENDBRANCH   7   8
ENDBRANCH   1   7
TORSDOF 2
ENDMDL
