MODEL 1
REMARK minimizedAffinity 1.96370339
REMARK minimizedRMSD -1
REMARK  2 active torsions:
REMARK  status: ('A' for Active; 'I' for Inactive)
REMARK    1  A    between atoms: C1_2  and  C2_3 
REMARK    2  A    between atoms: C2_3  and  C3_4 
ROOT
ATOM      1  C3  UNL d   1       3.345  -4.195   0.430  0.00  0.00    -0.075 A 
ATOM      2  C4  UNL d   1       3.622  -4.937   1.587  0.00  0.00     0.002 A 
ATOM      3  C5  UNL d   1       4.941  -5.186   1.970  0.00  0.00     0.002 A 
ATOM      4  C6  UNL d   1       5.996  -4.707   1.197  0.00  0.00    -0.004 A 
ATOM      5  C7  UNL d   1       5.732  -3.983   0.036  0.00  0.00     0.002 A 
ATOM      6  C8  UNL d   1       4.414  -3.729  -0.347  0.00  0.00     0.002 A 
ENDROOT
BRANCH   1   7
ATOM      7  C2  UNL d   1       1.921  -3.897   0.026  0.00  0.00     0.056 C 
BRANCH   7   8
ATOM      8  C1  UNL d   1       1.582  -2.403  -0.009  0.00  0.00     0.007 C 
ATOM      9  C   UNL d   1       0.660  -1.970   1.124  0.00  0.00     0.009 C 
ENDBRANCH   7   8
ENDBRANCH   1   7
TORSDOF 2
ENDMDL
