MODEL 1
REMARK minimizedAffinity 6.60181618
REMARK minimizedRMSD -1
REMARK  2 active torsions:
REMARK  status: ('A' for Active; 'I' for Inactive)
REMARK    1  A    between atoms: C1_2  and  C2_3 
REMARK    2  A    between atoms: C2_3  and  C3_4 
ROOT
ATOM      1  C3  UNL d   1       1.579  -3.248   0.668  0.00  0.00    -0.075 A 
ATOM      2  C4  UNL d   1       0.639  -4.217   1.049  0.00  0.00     0.002 A 
ATOM      3  C5  UNL d   1      -0.560  -3.841   1.656  0.00  0.00     0.002 A 
ATOM      4  C6  UNL d   1      -0.830  -2.496   1.897  0.00  0.00    -0.004 A 
ATOM      5  C7  UNL d   1       0.104  -1.526   1.538  0.00  0.00     0.002 A 
ATOM      6  C8  UNL d   1       1.303  -1.899   0.927  0.00  0.00     0.002 A 
ENDROOT
BRANCH   1   7
ATOM      7  C2  UNL d   1       2.865  -3.646  -0.015  0.00  0.00     0.056 C 
BRANCH   7   8
ATOM      8  C1  UNL d   1       3.792  -4.506   0.851  0.00  0.00     0.007 C 
ATOM      9  C   UNL d   1       4.948  -5.116   0.071  0.00  0.00     0.009 C 
ENDBRANCH   7   8
ENDBRANCH   1   7
TORSDOF 2
ENDMDL
