MODEL 1
REMARK minimizedAffinity -6.38733339
REMARK minimizedRMSD -1
REMARK  2 active torsions:
REMARK  status: ('A' for Active; 'I' for Inactive)
REMARK    1  A    between atoms: C1_2  and  C2_3 
REMARK    2  A    between atoms: C2_3  and  C3_4 
ROOT
ATOM      1  C3  UNL d   1      -2.777  -0.372  -3.912  0.00  0.00    -0.075 A 
ATOM      2  C4  UNL d   1      -2.542  -1.711  -4.256  0.00  0.00     0.002 A 
ATOM      3  C5  UNL d   1      -3.288  -2.325  -5.262  0.00  0.00     0.002 A 
ATOM      4  C6  UNL d   1      -4.283  -1.614  -5.929  0.00  0.00    -0.004 A 
ATOM      5  C7  UNL d   1      -4.536  -0.288  -5.584  0.00  0.00     0.002 A 
ATOM      6  C8  UNL d   1      -3.788   0.331  -4.581  0.00  0.00     0.002 A 
ENDROOT
BRANCH   1   7
ATOM      7  C2  UNL d   1      -1.953   0.307  -2.844  0.00  0.00     0.056 C 
BRANCH   7   8
ATOM      8  C1  UNL d   1      -2.720   1.364  -2.042  0.00  0.00     0.007 C 
ATOM      9  C   UNL d   1      -2.114   2.756  -2.149  0.00  0.00     0.009 C 
ENDBRANCH   7   8
ENDBRANCH   1   7
TORSDOF 2
ENDMDL
