MODEL 1
REMARK minimizedAffinity -2.13256884
REMARK minimizedRMSD -1
REMARK  2 active torsions:
REMARK  status: ('A' for Active; 'I' for Inactive)
REMARK    1  A    between atoms: C1_2  and  C2_3 
REMARK    2  A    between atoms: C2_3  and  C3_4 
ROOT
ATOM      1  C3  UNL d   1       2.763  -1.551  -0.529  0.00  0.00    -0.075 A 
ATOM      2  C4  UNL d   1       3.598  -2.645  -0.260  0.00  0.00     0.002 A 
ATOM      3  C5  UNL d   1       3.422  -3.402   0.899  0.00  0.00     0.002 A 
ATOM      4  C6  UNL d   1       2.420  -3.068   1.807  0.00  0.00    -0.004 A 
ATOM      5  C7  UNL d   1       1.596  -1.973   1.558  0.00  0.00     0.002 A 
ATOM      6  C8  UNL d   1       1.766  -1.217   0.397  0.00  0.00     0.002 A 
ENDROOT
BRANCH   1   7
ATOM      7  C2  UNL d   1       2.929  -0.746  -1.796  0.00  0.00     0.056 C 
BRANCH   7   8
ATOM      8  C1  UNL d   1       3.961   0.382  -1.688  0.00  0.00     0.007 C 
ATOM      9  C   UNL d   1       3.622   1.405  -0.612  0.00  0.00     0.009 C 
ENDBRANCH   7   8
ENDBRANCH   1   7
TORSDOF 2
ENDMDL
