MODEL 1
REMARK minimizedAffinity 3.30240417
REMARK minimizedRMSD -1
REMARK  2 active torsions:
REMARK  status: ('A' for Active; 'I' for Inactive)
REMARK    1  A    between atoms: C1_2  and  C2_3 
REMARK    2  A    between atoms: C2_3  and  C3_4 
ROOT
ATOM      1  C3  UNL d   1       1.988  -0.768   0.979  0.00  0.00    -0.075 A 
ATOM      2  C4  UNL d   1       2.907  -0.684  -0.078  0.00  0.00     0.002 A 
ATOM      3  C5  UNL d   1       3.457   0.545  -0.442  0.00  0.00     0.002 A 
ATOM      4  C6  UNL d   1       3.089   1.705   0.236  0.00  0.00    -0.004 A 
ATOM      5  C7  UNL d   1       2.165   1.636   1.277  0.00  0.00     0.002 A 
ATOM      6  C8  UNL d   1       1.616   0.407   1.647  0.00  0.00     0.002 A 
ENDROOT
BRANCH   1   7
ATOM      7  C2  UNL d   1       1.412  -2.099   1.398  0.00  0.00     0.056 C 
BRANCH   7   8
ATOM      8  C1  UNL d   1       2.142  -3.309   0.805  0.00  0.00     0.007 C 
ATOM      9  C   UNL d   1       3.421  -3.663   1.552  0.00  0.00     0.009 C 
ENDBRANCH   7   8
ENDBRANCH   1   7
TORSDOF 2
ENDMDL
