MODEL 1
REMARK minimizedAffinity -2.75405598
REMARK minimizedRMSD -1
REMARK  2 active torsions:
REMARK  status: ('A' for Active; 'I' for Inactive)
REMARK    1  A    between atoms: C1_2  and  C2_3 
REMARK    2  A    between atoms: C2_3  and  C3_4 
ROOT
ATOM      1  C3  UNL d   1       4.134  -3.732   3.915  0.00  0.00    -0.075 A 
ATOM      2  C4  UNL d   1       4.094  -5.121   3.726  0.00  0.00     0.002 A 
ATOM      3  C5  UNL d   1       4.654  -5.981   4.672  0.00  0.00     0.002 A 
ATOM      4  C6  UNL d   1       5.268  -5.464   5.810  0.00  0.00    -0.004 A 
ATOM      5  C7  UNL d   1       5.328  -4.085   6.000  0.00  0.00     0.002 A 
ATOM      6  C8  UNL d   1       4.765  -3.223   5.058  0.00  0.00     0.002 A 
ENDROOT
BRANCH   1   7
ATOM      7  C2  UNL d   1       3.504  -2.798   2.910  0.00  0.00     0.056 C 
BRANCH   7   8
ATOM      8  C1  UNL d   1       3.071  -3.481   1.609  0.00  0.00     0.007 C 
ATOM      9  C   UNL d   1       1.968  -2.731   0.875  0.00  0.00     0.009 C 
ENDBRANCH   7   8
ENDBRANCH   1   7
TORSDOF 2
ENDMDL
