MODEL 1
REMARK minimizedAffinity 3.76242471
REMARK minimizedRMSD -1
REMARK  2 active torsions:
REMARK  status: ('A' for Active; 'I' for Inactive)
REMARK    1  A    between atoms: C1_2  and  C2_3 
REMARK    2  A    between atoms: C2_3  and  C3_4 
ROOT
ATOM      1  C3  UNL d   1       2.470   1.055   0.964  0.00  0.00    -0.075 A 
ATOM      2  C4  UNL d   1       2.576   1.805   2.145  0.00  0.00     0.002 A 
ATOM      3  C5  UNL d   1       1.925   1.391   3.308  0.00  0.00     0.002 A 
ATOM      4  C6  UNL d   1       1.154   0.231   3.303  0.00  0.00    -0.004 A 
ATOM      5  C7  UNL d   1       1.028  -0.513   2.132  0.00  0.00     0.002 A 
ATOM      6  C8  UNL d   1       1.682  -0.104   0.968  0.00  0.00     0.002 A 
ENDROOT
BRANCH   1   7
ATOM      7  C2  UNL d   1       3.195   1.481  -0.290  0.00  0.00     0.056 C 
BRANCH   7   8
ATOM      8  C1  UNL d   1       4.722   1.423  -0.177  0.00  0.00     0.007 C 
ATOM      9  C   UNL d   1       5.238   0.077   0.314  0.00  0.00     0.009 C 
ENDBRANCH   7   8
ENDBRANCH   1   7
TORSDOF 2
ENDMDL
