MODEL 1
REMARK minimizedAffinity -1.77662325
REMARK minimizedRMSD -1
REMARK  2 active torsions:
REMARK  status: ('A' for Active; 'I' for Inactive)
REMARK    1  A    between atoms: C1_2  and  C2_3 
REMARK    2  A    between atoms: C2_3  and  C3_4 
ROOT
ATOM      1  C3  UNL d   1      -1.462  -0.677  -0.902  0.00  0.00    -0.075 A 
ATOM      2  C4  UNL d   1      -2.562  -0.360  -0.092  0.00  0.00     0.002 A 
ATOM      3  C5  UNL d   1      -2.402  -0.187   1.284  0.00  0.00     0.002 A 
ATOM      4  C6  UNL d   1      -1.146  -0.339   1.867  0.00  0.00    -0.004 A 
ATOM      5  C7  UNL d   1      -0.049  -0.671   1.074  0.00  0.00     0.002 A 
ATOM      6  C8  UNL d   1      -0.206  -0.840  -0.303  0.00  0.00     0.002 A 
ENDROOT
BRANCH   1   7
ATOM      7  C2  UNL d   1      -1.623  -0.837  -2.395  0.00  0.00     0.056 C 
BRANCH   7   8
ATOM      8  C1  UNL d   1      -2.281   0.364  -3.083  0.00  0.00     0.007 C 
ATOM      9  C   UNL d   1      -2.882   0.022  -4.440  0.00  0.00     0.009 C 
ENDBRANCH   7   8
ENDBRANCH   1   7
TORSDOF 2
ENDMDL
