MODEL 1
REMARK minimizedAffinity -3.90859723
REMARK minimizedRMSD -1
REMARK  2 active torsions:
REMARK  status: ('A' for Active; 'I' for Inactive)
REMARK    1  A    between atoms: C1_2  and  C2_3 
REMARK    2  A    between atoms: C2_3  and  C3_4 
ROOT
ATOM      1  C3  UNL d   1      -0.177  -0.010   0.272  0.00  0.00    -0.075 A 
ATOM      2  C4  UNL d   1       0.626  -1.148   0.111  0.00  0.00     0.002 A 
ATOM      3  C5  UNL d   1       2.011  -1.064   0.258  0.00  0.00     0.002 A 
ATOM      4  C6  UNL d   1       2.610   0.158   0.557  0.00  0.00    -0.004 A 
ATOM      5  C7  UNL d   1       1.823   1.298   0.702  0.00  0.00     0.002 A 
ATOM      6  C8  UNL d   1       0.437   1.216   0.560  0.00  0.00     0.002 A 
ENDROOT
BRANCH   1   7
ATOM      7  C2  UNL d   1      -1.679  -0.100   0.143  0.00  0.00     0.056 C 
BRANCH   7   8
ATOM      8  C1  UNL d   1      -2.234   0.528  -1.140  0.00  0.00     0.007 C 
ATOM      9  C   UNL d   1      -2.530  -0.495  -2.229  0.00  0.00     0.009 C 
ENDBRANCH   7   8
ENDBRANCH   1   7
TORSDOF 2
ENDMDL
