MODEL 1
REMARK minimizedAffinity -2.35244298
REMARK minimizedRMSD -1
REMARK  2 active torsions:
REMARK  status: ('A' for Active; 'I' for Inactive)
REMARK    1  A    between atoms: C1_2  and  C2_3 
REMARK    2  A    between atoms: C2_3  and  C3_4 
ROOT
ATOM      1  C3  UNL d   1       0.240  -0.137   0.337  0.00  0.00    -0.075 A 
ATOM      2  C4  UNL d   1       0.734  -1.250   1.032  0.00  0.00     0.002 A 
ATOM      3  C5  UNL d   1       2.052  -1.272   1.490  0.00  0.00     0.002 A 
ATOM      4  C6  UNL d   1       2.894  -0.188   1.250  0.00  0.00    -0.004 A 
ATOM      5  C7  UNL d   1       2.418   0.916   0.546  0.00  0.00     0.002 A 
ATOM      6  C8  UNL d   1       1.099   0.942   0.091  0.00  0.00     0.002 A 
ENDROOT
BRANCH   1   7
ATOM      7  C2  UNL d   1      -1.194  -0.095  -0.135  0.00  0.00     0.056 C 
BRANCH   7   8
ATOM      8  C1  UNL d   1      -1.361  -0.319  -1.642  0.00  0.00     0.007 C 
ATOM      9  C   UNL d   1      -2.560   0.415  -2.228  0.00  0.00     0.009 C 
ENDBRANCH   7   8
ENDBRANCH   1   7
TORSDOF 2
ENDMDL
