MODEL 1
REMARK minimizedAffinity -6.28573179
REMARK minimizedRMSD -1
REMARK  2 active torsions:
REMARK  status: ('A' for Active; 'I' for Inactive)
REMARK    1  A    between atoms: C1_2  and  C2_3 
REMARK    2  A    between atoms: C2_3  and  C3_4 
ROOT
ATOM      1  C3  UNL d   1      -0.105  -0.093   0.325  0.00  0.00    -0.075 A 
ATOM      2  C4  UNL d   1       0.558  -1.263   0.723  0.00  0.00     0.002 A 
ATOM      3  C5  UNL d   1       1.929  -1.246   0.983  0.00  0.00     0.002 A 
ATOM      4  C6  UNL d   1       2.654  -0.065   0.839  0.00  0.00    -0.004 A 
ATOM      5  C7  UNL d   1       2.008   1.099   0.427  0.00  0.00     0.002 A 
ATOM      6  C8  UNL d   1       0.636   1.086   0.171  0.00  0.00     0.002 A 
ENDROOT
BRANCH   1   7
ATOM      7  C2  UNL d   1      -1.594  -0.098   0.070  0.00  0.00     0.056 C 
BRANCH   7   8
ATOM      8  C1  UNL d   1      -1.982   0.271  -1.366  0.00  0.00     0.007 C 
ATOM      9  C   UNL d   1      -3.260   1.095  -1.449  0.00  0.00     0.009 C 
ENDBRANCH   7   8
ENDBRANCH   1   7
TORSDOF 2
ENDMDL
