MODEL 1
REMARK minimizedAffinity -2.54477453
REMARK minimizedRMSD -1
REMARK  2 active torsions:
REMARK  status: ('A' for Active; 'I' for Inactive)
REMARK    1  A    between atoms: C1_2  and  C2_3 
REMARK    2  A    between atoms: C2_3  and  C3_4 
ROOT
ATOM      1  C3  UNL d   1       0.079   0.243  -0.278  0.00  0.00    -0.075 A 
ATOM      2  C4  UNL d   1       0.876   1.308   0.165  0.00  0.00     0.002 A 
ATOM      3  C5  UNL d   1       2.128   1.068   0.731  0.00  0.00     0.002 A 
ATOM      4  C6  UNL d   1       2.594  -0.237   0.871  0.00  0.00    -0.004 A 
ATOM      5  C7  UNL d   1       1.804  -1.304   0.449  0.00  0.00     0.002 A 
ATOM      6  C8  UNL d   1       0.552  -1.067  -0.122  0.00  0.00     0.002 A 
ENDROOT
BRANCH   1   7
ATOM      7  C2  UNL d   1      -1.265   0.497  -0.919  0.00  0.00     0.056 C 
BRANCH   7   8
ATOM      8  C1  UNL d   1      -1.489  -0.272  -2.225  0.00  0.00     0.007 C 
ATOM      9  C   UNL d   1      -2.535   0.368  -3.127  0.00  0.00     0.009 C 
ENDBRANCH   7   8
ENDBRANCH   1   7
TORSDOF 2
ENDMDL
