MODEL 1
REMARK minimizedAffinity -4.61174059
REMARK minimizedRMSD -1
REMARK  2 active torsions:
REMARK  status: ('A' for Active; 'I' for Inactive)
REMARK    1  A    between atoms: C1_2  and  C2_3 
REMARK    2  A    between atoms: C2_3  and  C3_4 
ROOT
ATOM      1  C3  UNL d   1      -0.762   0.627  -0.542  0.00  0.00    -0.075 A 
ATOM      2  C4  UNL d   1       0.312   1.509  -0.731  0.00  0.00     0.002 A 
ATOM      3  C5  UNL d   1       1.607   1.135  -0.370  0.00  0.00     0.002 A 
ATOM      4  C6  UNL d   1       1.842  -0.117   0.193  0.00  0.00    -0.004 A 
ATOM      5  C7  UNL d   1       0.780  -0.995   0.400  0.00  0.00     0.002 A 
ATOM      6  C8  UNL d   1      -0.516  -0.625   0.036  0.00  0.00     0.002 A 
ENDROOT
BRANCH   1   7
ATOM      7  C2  UNL d   1      -2.161   1.014  -0.958  0.00  0.00     0.056 C 
BRANCH   7   8
ATOM      8  C1  UNL d   1      -2.502   0.657  -2.409  0.00  0.00     0.007 C 
ATOM      9  C   UNL d   1      -2.448  -0.840  -2.687  0.00  0.00     0.009 C 
ENDBRANCH   7   8
ENDBRANCH   1   7
TORSDOF 2
ENDMDL
