MODEL 1
REMARK minimizedAffinity -5.06925488
REMARK minimizedRMSD -1
REMARK  2 active torsions:
REMARK  status: ('A' for Active; 'I' for Inactive)
REMARK    1  A    between atoms: C1_2  and  C2_3 
REMARK    2  A    between atoms: C2_3  and  C3_4 
ROOT
ATOM      1  C3  UNL d   1       0.824  -0.165   0.436  0.00  0.00    -0.075 A 
ATOM      2  C4  UNL d   1       0.447  -1.427   0.918  0.00  0.00     0.002 A 
ATOM      3  C5  UNL d   1       1.317  -2.169   1.717  0.00  0.00     0.002 A 
ATOM      4  C6  UNL d   1       2.576  -1.665   2.035  0.00  0.00    -0.004 A 
ATOM      5  C7  UNL d   1       2.967  -0.420   1.549  0.00  0.00     0.002 A 
ATOM      6  C8  UNL d   1       2.097   0.327   0.753  0.00  0.00     0.002 A 
ENDROOT
BRANCH   1   7
ATOM      7  C2  UNL d   1      -0.125   0.656  -0.405  0.00  0.00     0.056 C 
BRANCH   7   8
ATOM      8  C1  UNL d   1      -1.495   0.004  -0.615  0.00  0.00     0.007 C 
ATOM      9  C   UNL d   1      -1.903  -0.077  -2.080  0.00  0.00     0.009 C 
ENDBRANCH   7   8
ENDBRANCH   1   7
TORSDOF 2
ENDMDL
