MODEL 1
REMARK minimizedAffinity -2.30214834
REMARK minimizedRMSD -1
REMARK  0 active torsions:
REMARK  status: ('A' for Active; 'I' for Inactive)
ROOT
ATOM      1  C1  BNZ d   1       4.109  -5.709  -6.000  0.00  0.00     0.000 A 
ATOM      2  C2  BNZ d   1       5.080  -5.998  -5.079  0.00  0.00     0.000 A 
ATOM      3  C3  BNZ d   1       4.798  -6.000  -3.741  0.00  0.00     0.000 A 
ATOM      4  C4  BNZ d   1       3.557  -5.674  -3.325  0.00  0.00     0.000 A 
ATOM      5  C5  BNZ d   1       2.570  -5.372  -4.241  0.00  0.00     0.000 A 
ATOM      6  C6  BNZ d   1       2.847  -5.409  -5.588  0.00  0.00     0.000 A 
ENDROOT
TORSDOF 0
ENDMDL
