MODEL 1
REMARK minimizedAffinity -2.54169559
REMARK minimizedRMSD -1
REMARK  0 active torsions:
REMARK  status: ('A' for Active; 'I' for Inactive)
ROOT
ATOM      1  C1  BNZ d   1       2.809  -5.999  -4.910  0.00  0.00     0.000 A 
ATOM      2  C2  BNZ d   1       3.150  -5.280  -3.796  0.00  0.00     0.000 A 
ATOM      3  C3  BNZ d   1       4.301  -4.543  -3.764  0.00  0.00     0.000 A 
ATOM      4  C4  BNZ d   1       5.128  -4.559  -4.829  0.00  0.00     0.000 A 
ATOM      5  C5  BNZ d   1       4.803  -5.287  -5.956  0.00  0.00     0.000 A 
ATOM      6  C6  BNZ d   1       3.625  -5.996  -6.000  0.00  0.00     0.000 A 
ENDROOT
TORSDOF 0
ENDMDL
