MODEL 1
REMARK minimizedAffinity -2.75583315
REMARK minimizedRMSD -1
REMARK  0 active torsions:
REMARK  status: ('A' for Active; 'I' for Inactive)
ROOT
ATOM      1  C1  BNZ d   1       4.179  -5.632  -3.258  0.00  0.00     0.000 A 
ATOM      2  C2  BNZ d   1       5.255  -5.641  -4.105  0.00  0.00     0.000 A 
ATOM      3  C3  BNZ d   1       5.084  -5.804  -5.452  0.00  0.00     0.000 A 
ATOM      4  C4  BNZ d   1       3.843  -5.997  -5.944  0.00  0.00     0.000 A 
ATOM      5  C5  BNZ d   1       2.750  -6.000  -5.101  0.00  0.00     0.000 A 
ATOM      6  C6  BNZ d   1       2.922  -5.797  -3.751  0.00  0.00     0.000 A 
ENDROOT
TORSDOF 0
ENDMDL
