MODEL 1
REMARK minimizedAffinity -2.06591249
REMARK minimizedRMSD -1
REMARK  0 active torsions:
REMARK  status: ('A' for Active; 'I' for Inactive)
ROOT
ATOM      1  C1  BNZ d   1       3.378  -5.567  -3.643  0.00  0.00     0.000 A 
ATOM      2  C2  BNZ d   1       2.805  -5.907  -4.839  0.00  0.00     0.000 A 
ATOM      3  C3  BNZ d   1       3.532  -5.879  -5.996  0.00  0.00     0.000 A 
ATOM      4  C4  BNZ d   1       4.818  -5.472  -5.962  0.00  0.00     0.000 A 
ATOM      5  C5  BNZ d   1       5.407  -5.117  -4.765  0.00  0.00     0.000 A 
ATOM      6  C6  BNZ d   1       4.683  -5.185  -3.596  0.00  0.00     0.000 A 
ENDROOT
TORSDOF 0
ENDMDL
