MODEL 1
REMARK minimizedAffinity -3.30807495
REMARK minimizedRMSD -1
REMARK  0 active torsions:
REMARK  status: ('A' for Active; 'I' for Inactive)
ROOT
ATOM      1  C1  BNZ d   1       3.813  -5.790  -2.843  0.00  0.00     0.000 A 
ATOM      2  C2  BNZ d   1       2.951  -5.646  -3.898  0.00  0.00     0.000 A 
ATOM      3  C3  BNZ d   1       3.401  -5.224  -5.117  0.00  0.00     0.000 A 
ATOM      4  C4  BNZ d   1       4.703  -4.907  -5.270  0.00  0.00     0.000 A 
ATOM      5  C5  BNZ d   1       5.583  -5.037  -4.214  0.00  0.00     0.000 A 
ATOM      6  C6  BNZ d   1       5.134  -5.500  -2.999  0.00  0.00     0.000 A 
ENDROOT
TORSDOF 0
ENDMDL
