MODEL 1
REMARK minimizedAffinity -4.01519108
REMARK minimizedRMSD -1
REMARK  0 active torsions:
REMARK  status: ('A' for Active; 'I' for Inactive)
ROOT
ATOM      1  C1  BNZ d   1       5.093  -5.367  -5.347  0.00  0.00     0.000 A 
ATOM      2  C2  BNZ d   1       3.861  -5.898  -5.076  0.00  0.00     0.000 A 
ATOM      3  C3  BNZ d   1       3.406  -5.992  -3.790  0.00  0.00     0.000 A 
ATOM      4  C4  BNZ d   1       4.199  -5.592  -2.776  0.00  0.00     0.000 A 
ATOM      5  C5  BNZ d   1       5.449  -5.063  -3.032  0.00  0.00     0.000 A 
ATOM      6  C6  BNZ d   1       5.887  -4.934  -4.330  0.00  0.00     0.000 A 
ENDROOT
TORSDOF 0
ENDMDL
