MODEL 1
REMARK minimizedAffinity -1.77028918
REMARK minimizedRMSD -1
REMARK  0 active torsions:
REMARK  status: ('A' for Active; 'I' for Inactive)
ROOT
ATOM      1  C1  BNZ d   1       2.254  -5.779  -4.692  0.00  0.00     0.000 A 
ATOM      2  C2  BNZ d   1       2.881  -5.696  -5.907  0.00  0.00     0.000 A 
ATOM      3  C3  BNZ d   1       4.241  -5.788  -6.000  0.00  0.00     0.000 A 
ATOM      4  C4  BNZ d   1       4.975  -5.923  -4.876  0.00  0.00     0.000 A 
ATOM      5  C5  BNZ d   1       4.358  -6.000  -3.644  0.00  0.00     0.000 A 
ATOM      6  C6  BNZ d   1       2.986  -5.946  -3.557  0.00  0.00     0.000 A 
ENDROOT
TORSDOF 0
ENDMDL
