MODEL 1
REMARK minimizedAffinity -3.62034011
REMARK minimizedRMSD -1
REMARK  0 active torsions:
REMARK  status: ('A' for Active; 'I' for Inactive)
ROOT
ATOM      1  C1  BNZ d   1       3.810   3.926   2.091  0.00  0.00     0.000 A 
ATOM      2  C2  BNZ d   1       2.907   3.524   1.144  0.00  0.00     0.000 A 
ATOM      3  C3  BNZ d   1       2.585   2.203   0.999  0.00  0.00     0.000 A 
ATOM      4  C4  BNZ d   1       3.196   1.284   1.774  0.00  0.00     0.000 A 
ATOM      5  C5  BNZ d   1       4.115   1.672   2.728  0.00  0.00     0.000 A 
ATOM      6  C6  BNZ d   1       4.408   3.006   2.897  0.00  0.00     0.000 A 
ENDROOT
TORSDOF 0
ENDMDL
