MODEL 1
REMARK minimizedAffinity -3.80916882
REMARK minimizedRMSD -1
REMARK  0 active torsions:
REMARK  status: ('A' for Active; 'I' for Inactive)
ROOT
ATOM      1  C1  BNZ d   1       3.804  -5.196  -3.048  0.00  0.00     0.000 A 
ATOM      2  C2  BNZ d   1       3.501  -5.875  -4.198  0.00  0.00     0.000 A 
ATOM      3  C3  BNZ d   1       4.373  -5.893  -5.251  0.00  0.00     0.000 A 
ATOM      4  C4  BNZ d   1       5.527  -5.200  -5.167  0.00  0.00     0.000 A 
ATOM      5  C5  BNZ d   1       5.843  -4.503  -4.018  0.00  0.00     0.000 A 
ATOM      6  C6  BNZ d   1       4.980  -4.519  -2.946  0.00  0.00     0.000 A 
ENDROOT
TORSDOF 0
ENDMDL
