MODEL 1
REMARK minimizedAffinity -4.11975861
REMARK minimizedRMSD -1
REMARK  0 active torsions:
REMARK  status: ('A' for Active; 'I' for Inactive)
ROOT
ATOM      1  C1  BNZ d   1       4.004   4.550   2.655  0.00  0.00     0.000 A 
ATOM      2  C2  BNZ d   1       3.424   3.391   2.214  0.00  0.00     0.000 A 
ATOM      3  C3  BNZ d   1       4.112   2.209   2.242  0.00  0.00     0.000 A 
ATOM      4  C4  BNZ d   1       5.390   2.196   2.673  0.00  0.00     0.000 A 
ATOM      5  C5  BNZ d   1       5.991   3.359   3.113  0.00  0.00     0.000 A 
ATOM      6  C6  BNZ d   1       5.284   4.539   3.119  0.00  0.00     0.000 A 
ENDROOT
TORSDOF 0
ENDMDL
