MODEL 1
REMARK minimizedAffinity -3.59028101
REMARK minimizedRMSD -1
REMARK  0 active torsions:
REMARK  status: ('A' for Active; 'I' for Inactive)
ROOT
ATOM      1  C1  BNZ d   1       3.043  -5.544  -3.266  0.00  0.00     0.000 A 
ATOM      2  C2  BNZ d   1       4.286  -5.010  -3.056  0.00  0.00     0.000 A 
ATOM      3  C3  BNZ d   1       5.190  -4.918  -4.078  0.00  0.00     0.000 A 
ATOM      4  C4  BNZ d   1       4.863  -5.394  -5.297  0.00  0.00     0.000 A 
ATOM      5  C5  BNZ d   1       3.617  -5.944  -5.522  0.00  0.00     0.000 A 
ATOM      6  C6  BNZ d   1       2.696  -6.000  -4.500  0.00  0.00     0.000 A 
ENDROOT
TORSDOF 0
ENDMDL
