MODEL 1
REMARK minimizedAffinity -3.40041828
REMARK minimizedRMSD -1
REMARK  0 active torsions:
REMARK  status: ('A' for Active; 'I' for Inactive)
ROOT
ATOM      1  C1  BNZ d   1       4.692  -5.526  -4.848  0.00  0.00     0.000 A 
ATOM      2  C2  BNZ d   1       5.644  -4.911  -4.081  0.00  0.00     0.000 A 
ATOM      3  C3  BNZ d   1       5.376  -4.544  -2.791  0.00  0.00     0.000 A 
ATOM      4  C4  BNZ d   1       4.144  -4.757  -2.285  0.00  0.00     0.000 A 
ATOM      5  C5  BNZ d   1       3.170  -5.368  -3.049  0.00  0.00     0.000 A 
ATOM      6  C6  BNZ d   1       3.456  -5.771  -4.333  0.00  0.00     0.000 A 
ENDROOT
TORSDOF 0
ENDMDL
