MODEL 1
REMARK minimizedAffinity -3.69347739
REMARK minimizedRMSD -1
REMARK  0 active torsions:
REMARK  status: ('A' for Active; 'I' for Inactive)
ROOT
ATOM      1  C1  BNZ d   1       3.391  -5.985  -4.093  0.00  0.00     0.000 A 
ATOM      2  C2  BNZ d   1       4.135  -5.991  -5.243  0.00  0.00     0.000 A 
ATOM      3  C3  BNZ d   1       5.419  -5.523  -5.249  0.00  0.00     0.000 A 
ATOM      4  C4  BNZ d   1       5.944  -5.013  -4.116  0.00  0.00     0.000 A 
ATOM      5  C5  BNZ d   1       5.204  -4.991  -2.951  0.00  0.00     0.000 A 
ATOM      6  C6  BNZ d   1       3.925  -5.498  -2.939  0.00  0.00     0.000 A 
ENDROOT
TORSDOF 0
ENDMDL
