MODEL 1
REMARK minimizedAffinity 2.33845568
REMARK minimizedRMSD -1
REMARK  2 active torsions:
REMARK  status: ('A' for Active; 'I' for Inactive)
REMARK    1  A    between atoms: C2'_3  and  C1'_4 
REMARK    2  A    between atoms: C1'_4  and  C1_5 
ROOT
ATOM      1  C1  I4B d   1      -2.045   1.784   2.592  0.00  0.00    -0.075 A 
ATOM      2  C2  I4B d   1      -2.288   0.433   2.615  0.00  0.00     0.003 A 
ATOM      3  C3  I4B d   1      -1.345  -0.469   2.066  0.00  0.00     0.002 A 
ATOM      4  C4  I4B d   1      -0.205   0.022   1.463  0.00  0.00    -0.004 A 
ATOM      5  C5  I4B d   1       0.050   1.390   1.462  0.00  0.00     0.002 A 
ATOM      6  C6  I4B d   1      -0.870   2.276   2.041  0.00  0.00     0.003 A 
ENDROOT
BRANCH   1   7
ATOM      7  C1' I4B d   1      -3.078   2.711   3.152  0.00  0.00     0.060 C 
BRANCH   7   8
ATOM      8  C2' I4B d   1      -3.623   2.090   4.422  0.00  0.00    -0.013 C 
ATOM      9  C4' I4B d   1      -4.399   3.096   5.231  0.00  0.00     0.013 C 
ATOM     10  C3' I4B d   1      -4.485   0.926   4.035  0.00  0.00     0.013 C 
ENDBRANCH   7   8
ENDBRANCH   1   7
TORSDOF 2
ENDMDL
