MODEL 1
REMARK minimizedAffinity 7.95617819
REMARK minimizedRMSD -1
REMARK  2 active torsions:
REMARK  status: ('A' for Active; 'I' for Inactive)
REMARK    1  A    between atoms: C2'_3  and  C1'_4 
REMARK    2  A    between atoms: C1'_4  and  C1_5 
ROOT
ATOM      1  C1  I4B d   1       0.257   0.014   2.114  0.00  0.00    -0.075 A 
ATOM      2  C2  I4B d   1      -0.046   1.180   2.771  0.00  0.00     0.003 A 
ATOM      3  C3  I4B d   1      -0.045   2.413   2.074  0.00  0.00     0.002 A 
ATOM      4  C4  I4B d   1       0.314   2.439   0.741  0.00  0.00    -0.004 A 
ATOM      5  C5  I4B d   1       0.599   1.252   0.071  0.00  0.00     0.002 A 
ATOM      6  C6  I4B d   1       0.559   0.031   0.759  0.00  0.00     0.003 A 
ENDROOT
BRANCH   1   7
ATOM      7  C1' I4B d   1       0.278  -1.265   2.889  0.00  0.00     0.060 C 
BRANCH   7   8
ATOM      8  C2' I4B d   1      -1.028  -1.989   2.631  0.00  0.00    -0.013 C 
ATOM      9  C4' I4B d   1      -0.796  -3.292   1.912  0.00  0.00     0.013 C 
ATOM     10  C3' I4B d   1      -1.703  -2.211   3.951  0.00  0.00     0.013 C 
ENDBRANCH   7   8
ENDBRANCH   1   7
TORSDOF 2
ENDMDL
