MODEL 1
REMARK minimizedAffinity 4.63050604
REMARK minimizedRMSD -1
REMARK  2 active torsions:
REMARK  status: ('A' for Active; 'I' for Inactive)
REMARK    1  A    between atoms: C2'_3  and  C1'_4 
REMARK    2  A    between atoms: C1'_4  and  C1_5 
ROOT
ATOM      1  C1  I4B d   1      -3.272  -4.427  -0.903  0.00  0.00    -0.075 A 
ATOM      2  C2  I4B d   1      -3.592  -3.447   0.003  0.00  0.00     0.003 A 
ATOM      3  C3  I4B d   1      -4.202  -2.245  -0.433  0.00  0.00     0.002 A 
ATOM      4  C4  I4B d   1      -4.426  -2.046  -1.780  0.00  0.00    -0.004 A 
ATOM      5  C5  I4B d   1      -4.122  -3.051  -2.694  0.00  0.00     0.002 A 
ATOM      6  C6  I4B d   1      -3.553  -4.254  -2.252  0.00  0.00     0.003 A 
ENDROOT
BRANCH   1   7
ATOM      7  C1' I4B d   1      -2.599  -5.670  -0.413  0.00  0.00     0.060 C 
BRANCH   7   8
ATOM      8  C2' I4B d   1      -1.119  -5.377  -0.279  0.00  0.00    -0.013 C 
ATOM      9  C4' I4B d   1      -0.550  -6.000   0.968  0.00  0.00     0.013 C 
ATOM     10  C3' I4B d   1      -0.431  -5.898  -1.506  0.00  0.00     0.013 C 
ENDBRANCH   7   8
ENDBRANCH   1   7
TORSDOF 2
ENDMDL
