MODEL 1
REMARK minimizedAffinity 1.85059655
REMARK minimizedRMSD -1
REMARK  2 active torsions:
REMARK  status: ('A' for Active; 'I' for Inactive)
REMARK    1  A    between atoms: C2'_3  and  C1'_4 
REMARK    2  A    between atoms: C1'_4  and  C1_5 
ROOT
ATOM      1  C1  I4B d   1      -0.603   0.643   1.496  0.00  0.00    -0.075 A 
ATOM      2  C2  I4B d   1       0.076  -0.545   1.592  0.00  0.00     0.003 A 
ATOM      3  C3  I4B d   1       1.293  -0.729   0.891  0.00  0.00     0.002 A 
ATOM      4  C4  I4B d   1       1.763   0.276   0.071  0.00  0.00    -0.004 A 
ATOM      5  C5  I4B d   1       1.085   1.489  -0.007  0.00  0.00     0.002 A 
ATOM      6  C6  I4B d   1      -0.100   1.679   0.720  0.00  0.00     0.003 A 
ENDROOT
BRANCH   1   7
ATOM      7  C1' I4B d   1      -1.902   0.792   2.224  0.00  0.00     0.060 C 
BRANCH   7   8
ATOM      8  C2' I4B d   1      -2.062   2.251   2.600  0.00  0.00    -0.013 C 
ATOM      9  C4' I4B d   1      -2.208   3.116   1.376  0.00  0.00     0.013 C 
ATOM     10  C3' I4B d   1      -3.261   2.370   3.493  0.00  0.00     0.013 C 
ENDBRANCH   7   8
ENDBRANCH   1   7
TORSDOF 2
ENDMDL
