MODEL 1
REMARK minimizedAffinity -4.35732889
REMARK minimizedRMSD -1
REMARK  2 active torsions:
REMARK  status: ('A' for Active; 'I' for Inactive)
REMARK    1  A    between atoms: C2'_3  and  C1'_4 
REMARK    2  A    between atoms: C1'_4  and  C1_5 
ROOT
ATOM      1  C1  I4B d   1      -0.325   1.142   1.707  0.00  0.00    -0.075 A 
ATOM      2  C2  I4B d   1      -1.042   2.148   2.306  0.00  0.00     0.003 A 
ATOM      3  C3  I4B d   1      -2.240   1.854   3.000  0.00  0.00     0.002 A 
ATOM      4  C4  I4B d   1      -2.709   0.557   3.027  0.00  0.00    -0.004 A 
ATOM      5  C5  I4B d   1      -1.970  -0.466   2.439  0.00  0.00     0.002 A 
ATOM      6  C6  I4B d   1      -0.764  -0.174   1.786  0.00  0.00     0.003 A 
ENDROOT
BRANCH   1   7
ATOM      7  C1' I4B d   1       0.919   1.492   0.954  0.00  0.00     0.060 C 
BRANCH   7   8
ATOM      8  C2' I4B d   1       1.684   0.210   0.695  0.00  0.00    -0.013 C 
ATOM      9  C4' I4B d   1       2.664   0.380  -0.436  0.00  0.00     0.013 C 
ATOM     10  C3' I4B d   1       2.383  -0.177   1.964  0.00  0.00     0.013 C 
ENDBRANCH   7   8
ENDBRANCH   1   7
TORSDOF 2
ENDMDL
