MODEL 1
REMARK minimizedAffinity 1.20159471
REMARK minimizedRMSD -1
REMARK  2 active torsions:
REMARK  status: ('A' for Active; 'I' for Inactive)
REMARK    1  A    between atoms: C2'_3  and  C1'_4 
REMARK    2  A    between atoms: C1'_4  and  C1_5 
ROOT
ATOM      1  C1  I4B d   1      -1.606  -3.969   1.523  0.00  0.00    -0.075 A 
ATOM      2  C2  I4B d   1      -0.824  -5.094   1.441  0.00  0.00     0.003 A 
ATOM      3  C3  I4B d   1      -0.986  -5.998   0.363  0.00  0.00     0.002 A 
ATOM      4  C4  I4B d   1      -1.969  -5.765  -0.577  0.00  0.00    -0.004 A 
ATOM      5  C5  I4B d   1      -2.745  -4.612  -0.505  0.00  0.00     0.002 A 
ATOM      6  C6  I4B d   1      -2.555  -3.702   0.545  0.00  0.00     0.003 A 
ENDROOT
BRANCH   1   7
ATOM      7  C1' I4B d   1      -1.431  -3.053   2.693  0.00  0.00     0.060 C 
BRANCH   7   8
ATOM      8  C2' I4B d   1      -2.461  -1.948   2.579  0.00  0.00    -0.013 C 
ATOM      9  C4' I4B d   1      -3.330  -1.884   3.807  0.00  0.00     0.013 C 
ATOM     10  C3' I4B d   1      -1.732  -0.656   2.364  0.00  0.00     0.013 C 
ENDBRANCH   7   8
ENDBRANCH   1   7
TORSDOF 2
ENDMDL
