MODEL 1
REMARK minimizedAffinity 1.12036824
REMARK minimizedRMSD -1
REMARK  2 active torsions:
REMARK  status: ('A' for Active; 'I' for Inactive)
REMARK    1  A    between atoms: C2'_3  and  C1'_4 
REMARK    2  A    between atoms: C1'_4  and  C1_5 
ROOT
ATOM      1  C1  I4B d   1      -1.068   0.777   1.213  0.00  0.00    -0.075 A 
ATOM      2  C2  I4B d   1       0.281   0.903   0.992  0.00  0.00     0.003 A 
ATOM      3  C3  I4B d   1       1.140  -0.207   1.177  0.00  0.00     0.002 A 
ATOM      4  C4  I4B d   1       0.618  -1.402   1.630  0.00  0.00    -0.004 A 
ATOM      5  C5  I4B d   1      -0.752  -1.534   1.832  0.00  0.00     0.002 A 
ATOM      6  C6  I4B d   1      -1.603  -0.441   1.611  0.00  0.00     0.003 A 
ENDROOT
BRANCH   1   7
ATOM      7  C1' I4B d   1      -1.942   1.979   1.040  0.00  0.00     0.060 C 
BRANCH   7   8
ATOM      8  C2' I4B d   1      -1.699   2.906   2.213  0.00  0.00    -0.013 C 
ATOM      9  C4' I4B d   1      -1.801   4.350   1.797  0.00  0.00     0.013 C 
ATOM     10  C3' I4B d   1      -2.702   2.577   3.279  0.00  0.00     0.013 C 
ENDBRANCH   7   8
ENDBRANCH   1   7
TORSDOF 2
ENDMDL
