MODEL 1
REMARK minimizedAffinity 12.5148077
REMARK minimizedRMSD -1
REMARK  2 active torsions:
REMARK  status: ('A' for Active; 'I' for Inactive)
REMARK    1  A    between atoms: C2'_3  and  C1'_4 
REMARK    2  A    between atoms: C1'_4  and  C1_5 
ROOT
ATOM      1  C1  I4B d   1      -0.047   0.182   2.162  0.00  0.00    -0.075 A 
ATOM      2  C2  I4B d   1      -0.795   1.265   2.553  0.00  0.00     0.003 A 
ATOM      3  C3  I4B d   1      -0.764   2.462   1.797  0.00  0.00     0.002 A 
ATOM      4  C4  I4B d   1       0.062   2.549   0.695  0.00  0.00    -0.004 A 
ATOM      5  C5  I4B d   1       0.802   1.443   0.288  0.00  0.00     0.002 A 
ATOM      6  C6  I4B d   1       0.738   0.248   1.019  0.00  0.00     0.003 A 
ENDROOT
BRANCH   1   7
ATOM      7  C1' I4B d   1      -0.078  -1.056   3.002  0.00  0.00     0.060 C 
BRANCH   7   8
ATOM      8  C2' I4B d   1      -1.136  -1.979   2.433  0.00  0.00    -0.013 C 
ATOM      9  C4' I4B d   1      -0.552  -3.318   2.069  0.00  0.00     0.013 C 
ATOM     10  C3' I4B d   1      -2.224  -2.122   3.456  0.00  0.00     0.013 C 
ENDBRANCH   7   8
ENDBRANCH   1   7
TORSDOF 2
ENDMDL
