MODEL 1
REMARK minimizedAffinity 0.357371032
REMARK minimizedRMSD -1
REMARK  2 active torsions:
REMARK  status: ('A' for Active; 'I' for Inactive)
REMARK    1  A    between atoms: C2'_3  and  C1'_4 
REMARK    2  A    between atoms: C1'_4  and  C1_5 
ROOT
ATOM      1  C1  I4B d   1      -1.873   1.682   2.250  0.00  0.00    -0.075 A 
ATOM      2  C2  I4B d   1      -0.746   2.337   1.821  0.00  0.00     0.003 A 
ATOM      3  C3  I4B d   1       0.365   1.603   1.338  0.00  0.00     0.002 A 
ATOM      4  C4  I4B d   1       0.324   0.224   1.348  0.00  0.00    -0.004 A 
ATOM      5  C5  I4B d   1      -0.829  -0.438   1.762  0.00  0.00     0.002 A 
ATOM      6  C6  I4B d   1      -1.939   0.296   2.204  0.00  0.00     0.003 A 
ENDROOT
BRANCH   1   7
ATOM      7  C1' I4B d   1      -3.015   2.487   2.785  0.00  0.00     0.060 C 
BRANCH   7   8
ATOM      8  C2' I4B d   1      -3.448   1.868   4.098  0.00  0.00    -0.013 C 
ATOM      9  C4' I4B d   1      -4.165   2.870   4.964  0.00  0.00     0.013 C 
ATOM     10  C3' I4B d   1      -4.327   0.693   3.788  0.00  0.00     0.013 C 
ENDBRANCH   7   8
ENDBRANCH   1   7
TORSDOF 2
ENDMDL
