MODEL 1
REMARK minimizedAffinity 0.532562613
REMARK minimizedRMSD -1
REMARK  2 active torsions:
REMARK  status: ('A' for Active; 'I' for Inactive)
REMARK    1  A    between atoms: C2'_3  and  C1'_4 
REMARK    2  A    between atoms: C1'_4  and  C1_5 
ROOT
ATOM      1  C1  I4B d   1      -0.519   0.507   1.123  0.00  0.00    -0.075 A 
ATOM      2  C2  I4B d   1       0.267   1.305   0.329  0.00  0.00     0.003 A 
ATOM      3  C3  I4B d   1       1.604   0.934   0.047  0.00  0.00     0.002 A 
ATOM      4  C4  I4B d   1       2.127  -0.209   0.616  0.00  0.00    -0.004 A 
ATOM      5  C5  I4B d   1       1.322  -1.029   1.402  0.00  0.00     0.002 A 
ATOM      6  C6  I4B d   1      -0.013  -0.676   1.647  0.00  0.00     0.003 A 
ENDROOT
BRANCH   1   7
ATOM      7  C1' I4B d   1      -1.916   0.946   1.427  0.00  0.00     0.060 C 
BRANCH   7   8
ATOM      8  C2' I4B d   1      -1.839   2.124   2.377  0.00  0.00    -0.013 C 
ATOM      9  C4' I4B d   1      -1.492   3.393   1.645  0.00  0.00     0.013 C 
ATOM     10  C3' I4B d   1      -3.162   2.245   3.073  0.00  0.00     0.013 C 
ENDBRANCH   7   8
ENDBRANCH   1   7
TORSDOF 2
ENDMDL
