MODEL 1
REMARK minimizedAffinity 13.6322489
REMARK minimizedRMSD -1
REMARK  0 active torsions:
REMARK  status: ('A' for Active; 'I' for Inactive)
ROOT
ATOM      1  N1  IND d   1       0.800  -4.689   5.866  0.00  0.00    -0.196 N 
ATOM      2  C2  IND d   1       1.118  -5.977   5.536  0.00  0.00     0.054 A 
ATOM      3  C3  IND d   1       1.973  -5.996   4.489  0.00  0.00    -0.031 A 
ATOM      4  C4  IND d   1       3.061  -4.033   3.229  0.00  0.00     0.051 A 
ATOM      5  C5  IND d   1       3.050  -2.669   3.145  0.00  0.00    -0.031 A 
ATOM      6  C6  IND d   1       2.275  -1.892   3.982  0.00  0.00     0.015 A 
ATOM      7  C7  IND d   1       1.487  -2.454   4.947  0.00  0.00    -0.016 A 
ATOM      8  C8  IND d   1       1.490  -3.839   5.031  0.00  0.00    -0.047 A 
ATOM      9  C9  IND d   1       2.242  -4.634   4.156  0.00  0.00    -0.096 A 
ATOM     10  HN1 IND d   1       0.259  -4.450   6.491  0.00  0.00     0.298 HD
ENDROOT
TORSDOF 0
ENDMDL
