MODEL 1
REMARK minimizedAffinity 9.16151714
REMARK minimizedRMSD -1
REMARK  0 active torsions:
REMARK  status: ('A' for Active; 'I' for Inactive)
ROOT
ATOM      1  N1  IND d   1       1.120  -0.634   2.439  0.00  0.00    -0.196 N 
ATOM      2  C2  IND d   1       1.892   0.365   1.915  0.00  0.00     0.054 A 
ATOM      3  C3  IND d   1       3.133   0.330   2.449  0.00  0.00    -0.031 A 
ATOM      4  C4  IND d   1       4.148  -1.343   4.122  0.00  0.00     0.051 A 
ATOM      5  C5  IND d   1       3.820  -2.409   4.911  0.00  0.00    -0.031 A 
ATOM      6  C6  IND d   1       2.551  -2.951   4.916  0.00  0.00     0.015 A 
ATOM      7  C7  IND d   1       1.561  -2.451   4.118  0.00  0.00    -0.016 A 
ATOM      8  C8  IND d   1       1.888  -1.364   3.320  0.00  0.00    -0.047 A 
ATOM      9  C9  IND d   1       3.162  -0.784   3.343  0.00  0.00    -0.096 A 
ATOM     10  HN1 IND d   1       0.295  -0.782   2.251  0.00  0.00     0.298 HD
ENDROOT
TORSDOF 0
ENDMDL
