MODEL 1
REMARK minimizedAffinity 1.73170233
REMARK minimizedRMSD -1
REMARK  0 active torsions:
REMARK  status: ('A' for Active; 'I' for Inactive)
ROOT
ATOM      1  N1  IND d   1       3.153  -1.473   2.876  0.00  0.00    -0.196 N 
ATOM      2  C2  IND d   1       1.876  -1.645   3.332  0.00  0.00     0.054 A 
ATOM      3  C3  IND d   1       1.885  -2.251   4.540  0.00  0.00    -0.031 A 
ATOM      4  C4  IND d   1       3.884  -2.958   6.000  0.00  0.00     0.051 A 
ATOM      5  C5  IND d   1       5.249  -3.039   5.992  0.00  0.00    -0.031 A 
ATOM      6  C6  IND d   1       5.999  -2.591   4.924  0.00  0.00     0.015 A 
ATOM      7  C7  IND d   1       5.412  -2.032   3.825  0.00  0.00    -0.016 A 
ATOM      8  C8  IND d   1       4.026  -1.954   3.827  0.00  0.00    -0.047 A 
ATOM      9  C9  IND d   1       3.257  -2.446   4.889  0.00  0.00    -0.096 A 
ATOM     10  HN1 IND d   1       3.374  -1.123   2.122  0.00  0.00     0.298 HD
ENDROOT
TORSDOF 0
ENDMDL
