MODEL 1
REMARK minimizedAffinity -0.0681147054
REMARK minimizedRMSD -1
REMARK  0 active torsions:
REMARK  status: ('A' for Active; 'I' for Inactive)
ROOT
ATOM      1  N1  IND d   1       4.523  -2.812   5.710  0.00  0.00    -0.196 N 
ATOM      2  C2  IND d   1       5.829  -2.439   5.557  0.00  0.00     0.054 A 
ATOM      3  C3  IND d   1       5.998  -1.786   4.386  0.00  0.00    -0.031 A 
ATOM      4  C4  IND d   1       4.251  -1.126   2.615  0.00  0.00     0.051 A 
ATOM      5  C5  IND d   1       2.931  -1.278   2.295  0.00  0.00    -0.031 A 
ATOM      6  C6  IND d   1       2.056  -1.960   3.115  0.00  0.00     0.015 A 
ATOM      7  C7  IND d   1       2.467  -2.509   4.296  0.00  0.00    -0.016 A 
ATOM      8  C8  IND d   1       3.809  -2.362   4.621  0.00  0.00    -0.047 A 
ATOM      9  C9  IND d   1       4.711  -1.708   3.772  0.00  0.00    -0.096 A 
ATOM     10  HN1 IND d   1       4.201  -3.252   6.375  0.00  0.00     0.298 HD
ENDROOT
TORSDOF 0
ENDMDL
