MODEL 1
REMARK minimizedAffinity 1.74654341
REMARK minimizedRMSD -1
REMARK  0 active torsions:
REMARK  status: ('A' for Active; 'I' for Inactive)
ROOT
ATOM      1  N1  IND d   1       5.501  -2.015   3.997  0.00  0.00    -0.196 N 
ATOM      2  C2  IND d   1       6.000  -2.562   5.146  0.00  0.00     0.054 A 
ATOM      3  C3  IND d   1       4.995  -2.860   6.000  0.00  0.00    -0.031 A 
ATOM      4  C4  IND d   1       2.451  -2.631   5.677  0.00  0.00     0.051 A 
ATOM      5  C5  IND d   1       1.515  -2.149   4.805  0.00  0.00    -0.031 A 
ATOM      6  C6  IND d   1       1.867  -1.589   3.594  0.00  0.00     0.015 A 
ATOM      7  C7  IND d   1       3.173  -1.500   3.203  0.00  0.00    -0.016 A 
ATOM      8  C8  IND d   1       4.126  -1.982   4.088  0.00  0.00    -0.047 A 
ATOM      9  C9  IND d   1       3.778  -2.513   5.337  0.00  0.00    -0.096 A 
ATOM     10  HN1 IND d   1       5.966  -1.739   3.329  0.00  0.00     0.298 HD
ENDROOT
TORSDOF 0
ENDMDL
