MODEL 1
REMARK minimizedAffinity 12.9043665
REMARK minimizedRMSD -1
REMARK  0 active torsions:
REMARK  status: ('A' for Active; 'I' for Inactive)
ROOT
ATOM      1  N1  IND d   1      -5.644   3.407   3.033  0.00  0.00    -0.196 N 
ATOM      2  C2  IND d   1      -5.748   2.047   3.130  0.00  0.00     0.054 A 
ATOM      3  C3  IND d   1      -5.934   1.502   1.906  0.00  0.00    -0.031 A 
ATOM      4  C4  IND d   1      -5.995   2.642  -0.401  0.00  0.00     0.051 A 
ATOM      5  C5  IND d   1      -5.980   3.873  -0.995  0.00  0.00    -0.031 A 
ATOM      6  C6  IND d   1      -5.847   5.035  -0.262  0.00  0.00     0.015 A 
ATOM      7  C7  IND d   1      -5.712   5.008   1.097  0.00  0.00    -0.016 A 
ATOM      8  C8  IND d   1      -5.733   3.760   1.704  0.00  0.00    -0.047 A 
ATOM      9  C9  IND d   1      -5.911   2.581   0.970  0.00  0.00    -0.096 A 
ATOM     10  HN1 IND d   1      -5.540   3.950   3.691  0.00  0.00     0.298 HD
ENDROOT
TORSDOF 0
ENDMDL
