MODEL 1
REMARK minimizedAffinity 10.6520224
REMARK minimizedRMSD -1
REMARK  0 active torsions:
REMARK  status: ('A' for Active; 'I' for Inactive)
ROOT
ATOM      1  N1  IND d   1       2.154  -5.940  -2.371  0.00  0.00    -0.196 N 
ATOM      2  C2  IND d   1       3.012  -5.953  -1.307  0.00  0.00     0.054 A 
ATOM      3  C3  IND d   1       4.293  -6.000  -1.737  0.00  0.00    -0.031 A 
ATOM      4  C4  IND d   1       5.214  -5.960  -4.141  0.00  0.00     0.051 A 
ATOM      5  C5  IND d   1       4.815  -5.988  -5.448  0.00  0.00    -0.031 A 
ATOM      6  C6  IND d   1       3.482  -5.998  -5.803  0.00  0.00     0.015 A 
ATOM      7  C7  IND d   1       2.493  -5.970  -4.861  0.00  0.00    -0.016 A 
ATOM      8  C8  IND d   1       2.895  -5.949  -3.532  0.00  0.00    -0.047 A 
ATOM      9  C9  IND d   1       4.246  -5.981  -3.165  0.00  0.00    -0.096 A 
ATOM     10  HN1 IND d   1       1.295  -5.929  -2.323  0.00  0.00     0.298 HD
ENDROOT
TORSDOF 0
ENDMDL
