MODEL 1
REMARK minimizedAffinity 5.7977376
REMARK minimizedRMSD -1
REMARK  1 active torsions:
REMARK  status: ('A' for Active; 'I' for Inactive)
REMARK    1  A    between atoms: C1_2  and  C2_3 
ROOT
ATOM      1  C2  UNL d   1       1.550   1.977   2.181  0.00  0.00    -0.073 A 
ATOM      2  C3  UNL d   1       2.827   2.477   1.904  0.00  0.00    -0.002 A 
ATOM      3  C4  UNL d   1       3.577   1.950   0.851  0.00  0.00     0.004 A 
ATOM      4  C5  UNL d   1       3.057   0.925   0.062  0.00  0.00    -0.004 A 
ATOM      5  C6  UNL d   1       1.777   0.420   0.316  0.00  0.00    -0.075 A 
ATOM      6  C7  UNL d   1       1.203  -0.684  -0.523  0.00  0.00     0.076 C 
ATOM      7  C8  UNL d   1       1.031   0.952   1.376  0.00  0.00     0.001 A 
ENDROOT
BRANCH   1   8
ATOM      8  C1  UNL d   1       0.733   2.546   3.312  0.00  0.00     0.053 C 
ATOM      9  C   UNL d   1       0.659   1.596   4.496  0.00  0.00     0.018 C 
ENDBRANCH   1   8
TORSDOF 1
ENDMDL
