MODEL 1
REMARK minimizedAffinity 17.5150566
REMARK minimizedRMSD -1
REMARK  1 active torsions:
REMARK  status: ('A' for Active; 'I' for Inactive)
REMARK    1  A    between atoms: C1_2  and  C2_3 
ROOT
ATOM      1  C2  UNL d   1       0.001  -2.585   4.022  0.00  0.00    -0.073 A 
ATOM      2  C3  UNL d   1       0.869  -3.015   3.012  0.00  0.00    -0.002 A 
ATOM      3  C4  UNL d   1       1.569  -2.085   2.242  0.00  0.00     0.004 A 
ATOM      4  C5  UNL d   1       1.415  -0.719   2.477  0.00  0.00    -0.004 A 
ATOM      5  C6  UNL d   1       0.561  -0.270   3.490  0.00  0.00    -0.075 A 
ATOM      6  C7  UNL d   1       0.382   1.196   3.755  0.00  0.00     0.076 C 
ATOM      7  C8  UNL d   1      -0.141  -1.210   4.258  0.00  0.00     0.001 A 
ENDROOT
BRANCH   1   8
ATOM      8  C1  UNL d   1      -0.752  -3.585   4.861  0.00  0.00     0.053 C 
ATOM      9  C   UNL d   1       0.096  -4.127   6.000  0.00  0.00     0.018 C 
ENDBRANCH   1   8
TORSDOF 1
ENDMDL
