MODEL 1
REMARK minimizedAffinity 14.7977924
REMARK minimizedRMSD -1
REMARK  1 active torsions:
REMARK  status: ('A' for Active; 'I' for Inactive)
REMARK    1  A    between atoms: C1_2  and  C2_3 
ROOT
ATOM      1  C2  UNL d   1       4.325   5.126   0.428  0.00  0.00    -0.073 A 
ATOM      2  C3  UNL d   1       5.045   6.000   1.249  0.00  0.00    -0.002 A 
ATOM      3  C4  UNL d   1       4.841   6.000   2.630  0.00  0.00     0.004 A 
ATOM      4  C5  UNL d   1       3.920   5.123   3.203  0.00  0.00    -0.004 A 
ATOM      5  C6  UNL d   1       3.199   4.233   2.400  0.00  0.00    -0.075 A 
ATOM      6  C7  UNL d   1       2.203   3.285   3.001  0.00  0.00     0.076 C 
ATOM      7  C8  UNL d   1       3.408   4.241   1.014  0.00  0.00     0.001 A 
ENDROOT
BRANCH   1   8
ATOM      8  C1  UNL d   1       4.547   5.118  -1.063  0.00  0.00     0.053 C 
ATOM      9  C   UNL d   1       5.999   4.843  -1.421  0.00  0.00     0.018 C 
ENDBRANCH   1   8
TORSDOF 1
ENDMDL
