MODEL 1
REMARK minimizedAffinity 12.7616673
REMARK minimizedRMSD -1
REMARK  1 active torsions:
REMARK  status: ('A' for Active; 'I' for Inactive)
REMARK    1  A    between atoms: C1_2  and  C2_3 
ROOT
ATOM      1  C2  UNL d   1       2.346   2.032   1.887  0.00  0.00    -0.073 A 
ATOM      2  C3  UNL d   1       1.812   0.744   1.766  0.00  0.00    -0.002 A 
ATOM      3  C4  UNL d   1       2.000   0.010   0.595  0.00  0.00     0.004 A 
ATOM      4  C5  UNL d   1       2.729   0.551  -0.464  0.00  0.00    -0.004 A 
ATOM      5  C6  UNL d   1       3.281   1.832  -0.358  0.00  0.00    -0.075 A 
ATOM      6  C7  UNL d   1       4.066   2.430  -1.488  0.00  0.00     0.076 C 
ATOM      7  C8  UNL d   1       3.085   2.564   0.821  0.00  0.00     0.001 A 
ENDROOT
BRANCH   1   8
ATOM      8  C1  UNL d   1       2.151   2.826   3.153  0.00  0.00     0.053 C 
ATOM      9  C   UNL d   1       1.118   2.191   4.070  0.00  0.00     0.018 C 
ENDBRANCH   1   8
TORSDOF 1
ENDMDL
