MODEL 1
REMARK minimizedAffinity 8.82215405
REMARK minimizedRMSD -1
REMARK  1 active torsions:
REMARK  status: ('A' for Active; 'I' for Inactive)
REMARK    1  A    between atoms: C1_2  and  C2_3 
ROOT
ATOM      1  C2  UNL d   1      -5.835   2.032  -0.782  0.00  0.00    -0.073 A 
ATOM      2  C3  UNL d   1      -5.590   3.237  -0.114  0.00  0.00    -0.002 A 
ATOM      3  C4  UNL d   1      -5.471   4.428  -0.831  0.00  0.00     0.004 A 
ATOM      4  C5  UNL d   1      -5.602   4.428  -2.219  0.00  0.00    -0.004 A 
ATOM      5  C6  UNL d   1      -5.858   3.236  -2.904  0.00  0.00    -0.075 A 
ATOM      6  C7  UNL d   1      -6.000   3.219  -4.398  0.00  0.00     0.076 C 
ATOM      7  C8  UNL d   1      -5.974   2.043  -2.178  0.00  0.00     0.001 A 
ENDROOT
BRANCH   1   8
ATOM      8  C1  UNL d   1      -5.971   0.743  -0.012  0.00  0.00     0.053 C 
ATOM      9  C   UNL d   1      -4.667  -0.038   0.026  0.00  0.00     0.018 C 
ENDBRANCH   1   8
TORSDOF 1
ENDMDL
