MODEL 1
REMARK minimizedAffinity 10.9166822
REMARK minimizedRMSD -1
REMARK  1 active torsions:
REMARK  status: ('A' for Active; 'I' for Inactive)
REMARK    1  A    between atoms: C1_2  and  C2_3 
ROOT
ATOM      1  C2  UNL d   1       3.560   4.778   4.223  0.00  0.00    -0.073 A 
ATOM      2  C3  UNL d   1       4.092   5.584   5.236  0.00  0.00    -0.002 A 
ATOM      3  C4  UNL d   1       5.171   5.137   6.000  0.00  0.00     0.004 A 
ATOM      4  C5  UNL d   1       5.733   3.884   5.755  0.00  0.00    -0.004 A 
ATOM      5  C6  UNL d   1       5.223   3.069   4.739  0.00  0.00    -0.075 A 
ATOM      6  C7  UNL d   1       5.816   1.718   4.465  0.00  0.00     0.076 C 
ATOM      7  C8  UNL d   1       4.138   3.524   3.979  0.00  0.00     0.001 A 
ENDROOT
BRANCH   1   8
ATOM      8  C1  UNL d   1       2.399   5.259   3.392  0.00  0.00     0.053 C 
ATOM      9  C   UNL d   1       1.259   5.780   4.252  0.00  0.00     0.018 C 
ENDBRANCH   1   8
TORSDOF 1
ENDMDL
