MODEL 1
REMARK minimizedAffinity 10.5581894
REMARK minimizedRMSD -1
REMARK  1 active torsions:
REMARK  status: ('A' for Active; 'I' for Inactive)
REMARK    1  A    between atoms: C1_2  and  C2_3 
ROOT
ATOM      1  C2  UNL d   1       2.458  -0.994  -0.472  0.00  0.00    -0.073 A 
ATOM      2  C3  UNL d   1       1.567  -0.104   0.139  0.00  0.00    -0.002 A 
ATOM      3  C4  UNL d   1       1.893   0.495   1.356  0.00  0.00     0.004 A 
ATOM      4  C5  UNL d   1       3.113   0.217   1.971  0.00  0.00    -0.004 A 
ATOM      5  C6  UNL d   1       4.022  -0.660   1.370  0.00  0.00    -0.075 A 
ATOM      6  C7  UNL d   1       5.338  -0.972   2.020  0.00  0.00     0.076 C 
ATOM      7  C8  UNL d   1       3.686  -1.260   0.149  0.00  0.00     0.001 A 
ENDROOT
BRANCH   1   8
ATOM      8  C1  UNL d   1       2.113  -1.638  -1.790  0.00  0.00     0.053 C 
ATOM      9  C   UNL d   1       3.325  -1.760  -2.699  0.00  0.00     0.018 C 
ENDBRANCH   1   8
TORSDOF 1
ENDMDL
