MODEL 1
REMARK minimizedAffinity 5.9457736
REMARK minimizedRMSD -1
REMARK  1 active torsions:
REMARK  status: ('A' for Active; 'I' for Inactive)
REMARK    1  A    between atoms: C1_2  and  C2_3 
ROOT
ATOM      1  C2  UNL d   1       4.785   2.522  -0.705  0.00  0.00    -0.073 A 
ATOM      2  C3  UNL d   1       5.096   2.632   0.656  0.00  0.00    -0.002 A 
ATOM      3  C4  UNL d   1       5.703   3.787   1.149  0.00  0.00     0.004 A 
ATOM      4  C5  UNL d   1       5.999   4.846   0.290  0.00  0.00    -0.004 A 
ATOM      5  C6  UNL d   1       5.686   4.760  -1.070  0.00  0.00    -0.075 A 
ATOM      6  C7  UNL d   1       6.000   5.889  -2.007  0.00  0.00     0.076 C 
ATOM      7  C8  UNL d   1       5.079   3.595  -1.558  0.00  0.00     0.001 A 
ENDROOT
BRANCH   1   8
ATOM      8  C1  UNL d   1       4.124   1.279  -1.241  0.00  0.00     0.053 C 
ATOM      9  C   UNL d   1       3.005   0.792  -0.333  0.00  0.00     0.018 C 
ENDBRANCH   1   8
TORSDOF 1
ENDMDL
