MODEL 1
REMARK minimizedAffinity 6.20918751
REMARK minimizedRMSD -1
REMARK  1 active torsions:
REMARK  status: ('A' for Active; 'I' for Inactive)
REMARK    1  A    between atoms: C1_2  and  C2_3 
ROOT
ATOM      1  C2  UNL d   1      -0.091   4.284  -4.132  0.00  0.00    -0.076 A 
ATOM      2  C3  UNL d   1      -1.366   4.541  -3.599  0.00  0.00     0.004 A 
ATOM      3  C4  UNL d   1      -2.257   5.392  -4.250  0.00  0.00    -0.003 A 
ATOM      4  C5  UNL d   1      -1.889   5.998  -5.446  0.00  0.00     0.000 A 
ATOM      5  C6  UNL d   1      -0.635   5.740  -5.998  0.00  0.00     0.000 A 
ATOM      6  C7  UNL d   1       0.270   4.873  -5.362  0.00  0.00    -0.073 A 
ATOM      7  C8  UNL d   1       1.612   4.635  -6.000  0.00  0.00     0.078 C 
ENDROOT
BRANCH   1   8
ATOM      8  C1  UNL d   1       0.844   3.374  -3.367  0.00  0.00     0.053 C 
ATOM      9  C   UNL d   1       1.927   4.142  -2.625  0.00  0.00     0.018 C 
ENDBRANCH   1   8
TORSDOF 1
ENDMDL
