MODEL 1
REMARK minimizedAffinity 9.69998264
REMARK minimizedRMSD -1
REMARK  1 active torsions:
REMARK  status: ('A' for Active; 'I' for Inactive)
REMARK    1  A    between atoms: C1_2  and  C2_3 
ROOT
ATOM      1  C2  UNL d   1      -2.891   0.205   3.441  0.00  0.00    -0.076 A 
ATOM      2  C3  UNL d   1      -3.485  -0.449   2.348  0.00  0.00     0.004 A 
ATOM      3  C4  UNL d   1      -4.718  -1.086   2.477  0.00  0.00    -0.003 A 
ATOM      4  C5  UNL d   1      -5.377  -1.079   3.702  0.00  0.00     0.000 A 
ATOM      5  C6  UNL d   1      -4.811  -0.420   4.792  0.00  0.00     0.000 A 
ATOM      6  C7  UNL d   1      -3.576   0.241   4.675  0.00  0.00    -0.073 A 
ATOM      7  C8  UNL d   1      -3.009   0.931   5.885  0.00  0.00     0.078 C 
ENDROOT
BRANCH   1   8
ATOM      8  C1  UNL d   1      -1.540   0.856   3.249  0.00  0.00     0.053 C 
ATOM      9  C   UNL d   1      -0.467  -0.141   2.836  0.00  0.00     0.018 C 
ENDBRANCH   1   8
TORSDOF 1
ENDMDL
