MODEL 1
REMARK minimizedAffinity 10.6382132
REMARK minimizedRMSD -1
REMARK  1 active torsions:
REMARK  status: ('A' for Active; 'I' for Inactive)
REMARK    1  A    between atoms: C1_2  and  C2_3 
ROOT
ATOM      1  C2  UNL d   1      -2.787  -2.249   0.748  0.00  0.00    -0.076 A 
ATOM      2  C3  UNL d   1      -3.947  -2.033   1.511  0.00  0.00     0.004 A 
ATOM      3  C4  UNL d   1      -4.894  -3.042   1.679  0.00  0.00    -0.003 A 
ATOM      4  C5  UNL d   1      -4.694  -4.285   1.087  0.00  0.00     0.000 A 
ATOM      5  C6  UNL d   1      -3.540  -4.522   0.342  0.00  0.00     0.000 A 
ATOM      6  C7  UNL d   1      -2.568  -3.521   0.176  0.00  0.00    -0.073 A 
ATOM      7  C8  UNL d   1      -1.346  -3.830  -0.644  0.00  0.00     0.078 C 
ENDROOT
BRANCH   1   8
ATOM      8  C1  UNL d   1      -1.809  -1.108   0.578  0.00  0.00     0.053 C 
ATOM      9  C   UNL d   1      -0.727  -1.104   1.647  0.00  0.00     0.018 C 
ENDBRANCH   1   8
TORSDOF 1
ENDMDL
