MODEL 1
REMARK minimizedAffinity 5.7801218
REMARK minimizedRMSD -1
REMARK  1 active torsions:
REMARK  status: ('A' for Active; 'I' for Inactive)
REMARK    1  A    between atoms: C1_2  and  C2_3 
ROOT
ATOM      1  C2  UNL d   1      -2.027  -2.848   0.771  0.00  0.00    -0.076 A 
ATOM      2  C3  UNL d   1      -1.817  -3.770  -0.270  0.00  0.00     0.004 A 
ATOM      3  C4  UNL d   1      -0.530  -4.174  -0.621  0.00  0.00    -0.003 A 
ATOM      4  C5  UNL d   1       0.568  -3.664   0.063  0.00  0.00     0.000 A 
ATOM      5  C6  UNL d   1       0.377  -2.762   1.110  0.00  0.00     0.000 A 
ATOM      6  C7  UNL d   1      -0.915  -2.356   1.487  0.00  0.00    -0.073 A 
ATOM      7  C8  UNL d   1      -1.062  -1.376   2.619  0.00  0.00     0.078 C 
ENDROOT
BRANCH   1   8
ATOM      8  C1  UNL d   1      -3.443  -2.425   1.089  0.00  0.00     0.053 C 
ATOM      9  C   UNL d   1      -4.329  -3.600   1.475  0.00  0.00     0.018 C 
ENDBRANCH   1   8
TORSDOF 1
ENDMDL
