MODEL 1
REMARK minimizedAffinity 15.8928022
REMARK minimizedRMSD -1
REMARK  1 active torsions:
REMARK  status: ('A' for Active; 'I' for Inactive)
REMARK    1  A    between atoms: C1_2  and  C2_3 
ROOT
ATOM      1  C2  UNL d   1      -1.672   5.627  -4.592  0.00  0.00    -0.076 A 
ATOM      2  C3  UNL d   1      -2.250   6.000  -5.818  0.00  0.00     0.004 A 
ATOM      3  C4  UNL d   1      -3.632   5.965  -6.000  0.00  0.00    -0.003 A 
ATOM      4  C5  UNL d   1      -4.458   5.558  -4.958  0.00  0.00     0.000 A 
ATOM      5  C6  UNL d   1      -3.903   5.201  -3.730  0.00  0.00     0.000 A 
ATOM      6  C7  UNL d   1      -2.513   5.246  -3.525  0.00  0.00    -0.073 A 
ATOM      7  C8  UNL d   1      -1.968   4.845  -2.182  0.00  0.00     0.078 C 
ENDROOT
BRANCH   1   8
ATOM      8  C1  UNL d   1      -0.166   5.658  -4.463  0.00  0.00     0.053 C 
ATOM      9  C   UNL d   1       0.538   5.447  -5.794  0.00  0.00     0.018 C 
ENDBRANCH   1   8
TORSDOF 1
ENDMDL
