MODEL 1
REMARK minimizedAffinity 7.86788034
REMARK minimizedRMSD -1
REMARK  1 active torsions:
REMARK  status: ('A' for Active; 'I' for Inactive)
REMARK    1  A    between atoms: C1_2  and  C2_3 
ROOT
ATOM      1  C2  UNL d   1       3.784   1.162   1.847  0.00  0.00    -0.076 A 
ATOM      2  C3  UNL d   1       4.937   0.476   2.267  0.00  0.00     0.004 A 
ATOM      3  C4  UNL d   1       6.000   1.155   2.860  0.00  0.00    -0.003 A 
ATOM      4  C5  UNL d   1       5.926   2.532   3.044  0.00  0.00     0.000 A 
ATOM      5  C6  UNL d   1       4.783   3.225   2.650  0.00  0.00     0.000 A 
ATOM      6  C7  UNL d   1       3.696   2.553   2.065  0.00  0.00    -0.073 A 
ATOM      7  C8  UNL d   1       2.490   3.353   1.653  0.00  0.00     0.078 C 
ENDROOT
BRANCH   1   8
ATOM      8  C1  UNL d   1       2.675   0.376   1.184  0.00  0.00     0.053 C 
ATOM      9  C   UNL d   1       2.250  -0.834   2.001  0.00  0.00     0.018 C 
ENDBRANCH   1   8
TORSDOF 1
ENDMDL
