MODEL 1
REMARK minimizedAffinity 4.79835844
REMARK minimizedRMSD -1
REMARK  1 active torsions:
REMARK  status: ('A' for Active; 'I' for Inactive)
REMARK    1  A    between atoms: C1_2  and  C2_3 
ROOT
ATOM      1  C2  UNL d   1       0.295  -2.168   2.096  0.00  0.00    -0.076 A 
ATOM      2  C3  UNL d   1       0.760  -3.107   1.159  0.00  0.00     0.004 A 
ATOM      3  C4  UNL d   1      -0.088  -3.629   0.184  0.00  0.00    -0.003 A 
ATOM      4  C5  UNL d   1      -1.415  -3.220   0.129  0.00  0.00     0.000 A 
ATOM      5  C6  UNL d   1      -1.890  -2.276   1.039  0.00  0.00     0.000 A 
ATOM      6  C7  UNL d   1      -1.044  -1.727   2.018  0.00  0.00    -0.073 A 
ATOM      7  C8  UNL d   1      -1.610  -0.717   2.978  0.00  0.00     0.078 C 
ENDROOT
BRANCH   1   8
ATOM      8  C1  UNL d   1       1.253  -1.658   3.148  0.00  0.00     0.053 C 
ATOM      9  C   UNL d   1       2.649  -1.413   2.595  0.00  0.00     0.018 C 
ENDBRANCH   1   8
TORSDOF 1
ENDMDL
