MODEL 1
REMARK minimizedAffinity 13.2305708
REMARK minimizedRMSD -1
REMARK  1 active torsions:
REMARK  status: ('A' for Active; 'I' for Inactive)
REMARK    1  A    between atoms: C1_2  and  C2_3 
ROOT
ATOM      1  C2  UNL d   1       1.278  -1.141   2.345  0.00  0.00    -0.076 A 
ATOM      2  C3  UNL d   1       1.866  -0.148   1.542  0.00  0.00     0.004 A 
ATOM      3  C4  UNL d   1       3.252  -0.020   1.461  0.00  0.00    -0.003 A 
ATOM      4  C5  UNL d   1       4.071  -0.883   2.180  0.00  0.00     0.000 A 
ATOM      5  C6  UNL d   1       3.505  -1.884   2.968  0.00  0.00     0.000 A 
ATOM      6  C7  UNL d   1       2.110  -2.037   3.049  0.00  0.00    -0.073 A 
ATOM      7  C8  UNL d   1       1.553  -3.131   3.918  0.00  0.00     0.078 C 
ENDROOT
BRANCH   1   8
ATOM      8  C1  UNL d   1      -0.231  -1.215   2.416  0.00  0.00     0.053 C 
ATOM      9  C   UNL d   1      -0.905  -0.044   1.716  0.00  0.00     0.018 C 
ENDBRANCH   1   8
TORSDOF 1
ENDMDL
