MODEL 1
REMARK minimizedAffinity 4.78233051
REMARK minimizedRMSD -1
REMARK  1 active torsions:
REMARK  status: ('A' for Active; 'I' for Inactive)
REMARK    1  A    between atoms: C1_2  and  C2_3 
ROOT
ATOM      1  C2  UNL d   1      -3.414   5.174  -4.194  0.00  0.00    -0.076 A 
ATOM      2  C3  UNL d   1      -3.148   4.855  -2.851  0.00  0.00     0.004 A 
ATOM      3  C4  UNL d   1      -4.119   5.031  -1.866  0.00  0.00    -0.003 A 
ATOM      4  C5  UNL d   1      -5.371   5.529  -2.209  0.00  0.00     0.000 A 
ATOM      5  C6  UNL d   1      -5.658   5.834  -3.539  0.00  0.00     0.000 A 
ATOM      6  C7  UNL d   1      -4.696   5.647  -4.547  0.00  0.00    -0.073 A 
ATOM      7  C8  UNL d   1      -5.057   5.998  -5.964  0.00  0.00     0.078 C 
ENDROOT
BRANCH   1   8
ATOM      8  C1  UNL d   1      -2.313   4.987  -5.214  0.00  0.00     0.053 C 
ATOM      9  C   UNL d   1      -1.102   5.861  -4.930  0.00  0.00     0.018 C 
ENDBRANCH   1   8
TORSDOF 1
ENDMDL
