MODEL 1
REMARK minimizedAffinity 15.1751642
REMARK minimizedRMSD -1
REMARK  1 active torsions:
REMARK  status: ('A' for Active; 'I' for Inactive)
REMARK    1  A    between atoms: C1_2  and  C2_3 
ROOT
ATOM      1  C2  UNL d   1      -0.435  -1.633   3.245  0.00  0.00    -0.076 A 
ATOM      2  C3  UNL d   1      -1.207  -1.085   2.207  0.00  0.00     0.004 A 
ATOM      3  C4  UNL d   1      -1.433  -1.794   1.029  0.00  0.00    -0.003 A 
ATOM      4  C5  UNL d   1      -0.891  -3.065   0.870  0.00  0.00     0.000 A 
ATOM      5  C6  UNL d   1      -0.137  -3.632   1.897  0.00  0.00     0.000 A 
ATOM      6  C7  UNL d   1       0.087  -2.936   3.098  0.00  0.00    -0.073 A 
ATOM      7  C8  UNL d   1       0.913  -3.593   4.169  0.00  0.00     0.078 C 
ENDROOT
BRANCH   1   8
ATOM      8  C1  UNL d   1      -0.201  -0.806   4.489  0.00  0.00     0.053 C 
ATOM      9  C   UNL d   1      -1.496  -0.434   5.194  0.00  0.00     0.018 C 
ENDBRANCH   1   8
TORSDOF 1
ENDMDL
