MODEL 1
REMARK minimizedAffinity 10.1858225
REMARK minimizedRMSD -1
REMARK  1 active torsions:
REMARK  status: ('A' for Active; 'I' for Inactive)
REMARK    1  A    between atoms: C1_2  and  C2_3 
ROOT
ATOM      1  C2  UNL d   1      -3.726   5.856  -4.228  0.00  0.00    -0.076 A 
ATOM      2  C3  UNL d   1      -3.375   5.851  -5.590  0.00  0.00     0.004 A 
ATOM      3  C4  UNL d   1      -2.041   5.921  -5.987  0.00  0.00    -0.003 A 
ATOM      4  C5  UNL d   1      -1.036   5.995  -5.029  0.00  0.00     0.000 A 
ATOM      5  C6  UNL d   1      -1.365   5.984  -3.674  0.00  0.00     0.000 A 
ATOM      6  C7  UNL d   1      -2.704   5.897  -3.256  0.00  0.00    -0.073 A 
ATOM      7  C8  UNL d   1      -3.002   5.895  -1.782  0.00  0.00     0.078 C 
ENDROOT
BRANCH   1   8
ATOM      8  C1  UNL d   1      -5.191   5.806  -3.858  0.00  0.00     0.053 C 
ATOM      9  C   UNL d   1      -5.603   4.456  -3.291  0.00  0.00     0.018 C 
ENDBRANCH   1   8
TORSDOF 1
ENDMDL
