MODEL 1
REMARK minimizedAffinity 5.6173768
REMARK minimizedRMSD -1
REMARK  1 active torsions:
REMARK  status: ('A' for Active; 'I' for Inactive)
REMARK    1  A    between atoms: C1_2  and  C2_3 
ROOT
ATOM      1  C2  UNL d   1      -3.112  -4.730  -5.011  0.00  0.00    -0.076 A 
ATOM      2  C3  UNL d   1      -2.646  -5.750  -5.859  0.00  0.00     0.004 A 
ATOM      3  C4  UNL d   1      -1.282  -6.000  -5.998  0.00  0.00    -0.003 A 
ATOM      4  C5  UNL d   1      -0.361  -5.234  -5.291  0.00  0.00     0.000 A 
ATOM      5  C6  UNL d   1      -0.806  -4.230  -4.432  0.00  0.00     0.000 A 
ATOM      6  C7  UNL d   1      -2.179  -3.976  -4.267  0.00  0.00    -0.073 A 
ATOM      7  C8  UNL d   1      -2.602  -2.877  -3.332  0.00  0.00     0.078 C 
ENDROOT
BRANCH   1   8
ATOM      8  C1  UNL d   1      -4.602  -4.487  -4.920  0.00  0.00     0.053 C 
ATOM      9  C   UNL d   1      -5.395  -5.375  -5.866  0.00  0.00     0.018 C 
ENDBRANCH   1   8
TORSDOF 1
ENDMDL
