MODEL 1
REMARK minimizedAffinity 7.15078783
REMARK minimizedRMSD -1
REMARK  1 active torsions:
REMARK  status: ('A' for Active; 'I' for Inactive)
REMARK    1  A    between atoms: C1_2  and  C2_3 
ROOT
ATOM      1  C2  UNL d   1      -3.058   5.642  -3.832  0.00  0.00    -0.076 A 
ATOM      2  C3  UNL d   1      -1.808   5.429  -3.225  0.00  0.00     0.004 A 
ATOM      3  C4  UNL d   1      -0.658   5.254  -3.993  0.00  0.00    -0.003 A 
ATOM      4  C5  UNL d   1      -0.739   5.290  -5.380  0.00  0.00     0.000 A 
ATOM      5  C6  UNL d   1      -1.967   5.518  -5.999  0.00  0.00     0.000 A 
ATOM      6  C7  UNL d   1      -3.134   5.713  -5.240  0.00  0.00    -0.073 A 
ATOM      7  C8  UNL d   1      -4.433   5.949  -5.960  0.00  0.00     0.078 C 
ENDROOT
BRANCH   1   8
ATOM      8  C1  UNL d   1      -4.275   5.798  -2.949  0.00  0.00     0.053 C 
ATOM      9  C   UNL d   1      -4.111   5.108  -1.604  0.00  0.00     0.018 C 
ENDBRANCH   1   8
TORSDOF 1
ENDMDL
