MODEL 1
REMARK minimizedAffinity 7.13593531
REMARK minimizedRMSD -1
REMARK  1 active torsions:
REMARK  status: ('A' for Active; 'I' for Inactive)
REMARK    1  A    between atoms: C1_2  and  C2_3 
ROOT
ATOM      1  C2  UNL d   1      -3.044  -0.039   0.672  0.00  0.00    -0.076 A 
ATOM      2  C3  UNL d   1      -2.803  -1.414   0.502  0.00  0.00     0.004 A 
ATOM      3  C4  UNL d   1      -2.103  -2.143   1.462  0.00  0.00    -0.003 A 
ATOM      4  C5  UNL d   1      -1.634  -1.510   2.608  0.00  0.00     0.000 A 
ATOM      5  C6  UNL d   1      -1.879  -0.151   2.801  0.00  0.00     0.000 A 
ATOM      6  C7  UNL d   1      -2.597   0.595   1.850  0.00  0.00    -0.073 A 
ATOM      7  C8  UNL d   1      -2.827   2.060   2.107  0.00  0.00     0.078 C 
ENDROOT
BRANCH   1   8
ATOM      8  C1  UNL d   1      -3.784   0.705  -0.416  0.00  0.00     0.053 C 
ATOM      9  C   UNL d   1      -3.539   0.116  -1.797  0.00  0.00     0.018 C 
ENDBRANCH   1   8
TORSDOF 1
ENDMDL
