MODEL 1
REMARK minimizedAffinity 12.0691347
REMARK minimizedRMSD -1
REMARK  0 active torsions:
REMARK  status: ('A' for Active; 'I' for Inactive)
ROOT
ATOM      1  C   UNL d   1      -0.365  -1.664   0.570  0.00  0.00     0.172 C 
ATOM      2  N   UNL d   1       0.198  -0.879   1.643  0.00  0.00    -0.070 N 
ATOM      3  C1  UNL d   1       1.151  -1.305   2.529  0.00  0.00    -0.004 A 
ATOM      4  C2  UNL d   1       1.419  -0.265   3.393  0.00  0.00    -0.047 A 
ATOM      5  C3  UNL d   1       0.598   0.824   3.013  0.00  0.00    -0.047 A 
ATOM      6  C4  UNL d   1      -0.148   0.416   1.927  0.00  0.00    -0.004 A 
ENDROOT
TORSDOF 0
ENDMDL
