MODEL 1
REMARK minimizedAffinity 15.1492691
REMARK minimizedRMSD -1
REMARK  0 active torsions:
REMARK  status: ('A' for Active; 'I' for Inactive)
ROOT
ATOM      1  C   UNL d   1      -1.199   2.498   2.389  0.00  0.00     0.172 C 
ATOM      2  N   UNL d   1      -0.302   1.383   2.584  0.00  0.00    -0.070 N 
ATOM      3  C1  UNL d   1       0.650   1.286   3.564  0.00  0.00    -0.004 A 
ATOM      4  C2  UNL d   1       1.291   0.076   3.411  0.00  0.00    -0.047 A 
ATOM      5  C3  UNL d   1       0.705  -0.577   2.301  0.00  0.00    -0.047 A 
ATOM      6  C4  UNL d   1      -0.278   0.255   1.808  0.00  0.00    -0.004 A 
ENDROOT
TORSDOF 0
ENDMDL
