MODEL 1
REMARK minimizedAffinity 7.86553335
REMARK minimizedRMSD -1
REMARK  0 active torsions:
REMARK  status: ('A' for Active; 'I' for Inactive)
ROOT
ATOM      1  C   UNL d   1       3.396  -2.247  -4.963  0.00  0.00     0.172 C 
ATOM      2  N   UNL d   1       1.997  -2.030  -5.246  0.00  0.00    -0.070 N 
ATOM      3  C1  UNL d   1       1.268  -0.931  -4.876  0.00  0.00    -0.004 A 
ATOM      4  C2  UNL d   1      -0.020  -1.106  -5.333  0.00  0.00    -0.047 A 
ATOM      5  C3  UNL d   1      -0.068  -2.354  -5.999  0.00  0.00    -0.047 A 
ATOM      6  C4  UNL d   1       1.194  -2.905  -5.930  0.00  0.00    -0.004 A 
ENDROOT
TORSDOF 0
ENDMDL
