MODEL 1
REMARK minimizedAffinity 2.81610203
REMARK minimizedRMSD -1
REMARK  0 active torsions:
REMARK  status: ('A' for Active; 'I' for Inactive)
ROOT
ATOM      1  C   UNL d   1       1.147  -2.685   4.796  0.00  0.00     0.172 C 
ATOM      2  N   UNL d   1       0.826  -1.509   4.021  0.00  0.00    -0.070 N 
ATOM      3  C1  UNL d   1       1.147  -0.221   4.355  0.00  0.00    -0.004 A 
ATOM      4  C2  UNL d   1       0.667   0.605   3.362  0.00  0.00    -0.047 A 
ATOM      5  C3  UNL d   1       0.035  -0.216   2.398  0.00  0.00    -0.047 A 
ATOM      6  C4  UNL d   1       0.148  -1.520   2.831  0.00  0.00    -0.004 A 
ENDROOT
TORSDOF 0
ENDMDL
