MODEL 1
REMARK minimizedAffinity 6.77721214
REMARK minimizedRMSD -1
REMARK  0 active torsions:
REMARK  status: ('A' for Active; 'I' for Inactive)
ROOT
ATOM      1  C   UNL d   1       4.009   1.008   4.817  0.00  0.00     0.172 C 
ATOM      2  N   UNL d   1       2.846   0.773   3.994  0.00  0.00    -0.070 N 
ATOM      3  C1  UNL d   1       1.592   0.472   4.453  0.00  0.00    -0.004 A 
ATOM      4  C2  UNL d   1       0.766   0.325   3.359  0.00  0.00    -0.047 A 
ATOM      5  C3  UNL d   1       1.552   0.544   2.203  0.00  0.00    -0.047 A 
ATOM      6  C4  UNL d   1       2.835   0.820   2.625  0.00  0.00    -0.004 A 
ENDROOT
TORSDOF 0
ENDMDL
