MODEL 1
REMARK minimizedAffinity -0.33124283
REMARK minimizedRMSD -1
REMARK  0 active torsions:
REMARK  status: ('A' for Active; 'I' for Inactive)
ROOT
ATOM      1  C   UNL d   1       2.185  -1.965   5.716  0.00  0.00     0.172 C 
ATOM      2  N   UNL d   1       1.787  -1.119   4.616  0.00  0.00    -0.070 N 
ATOM      3  C1  UNL d   1       2.112   0.203   4.468  0.00  0.00    -0.004 A 
ATOM      4  C2  UNL d   1       1.544   0.648   3.293  0.00  0.00    -0.047 A 
ATOM      5  C3  UNL d   1       0.853  -0.444   2.716  0.00  0.00    -0.047 A 
ATOM      6  C4  UNL d   1       1.020  -1.525   3.556  0.00  0.00    -0.004 A 
ENDROOT
TORSDOF 0
ENDMDL
