MODEL 1
REMARK minimizedAffinity 13.9409056
REMARK minimizedRMSD -1
REMARK  0 active torsions:
REMARK  status: ('A' for Active; 'I' for Inactive)
ROOT
ATOM      1  N1  IND d   1      -1.197  -5.159   1.063  0.00  0.00    -0.196 N 
ATOM      2  C2  IND d   1      -0.810  -6.000   0.057  0.00  0.00     0.054 A 
ATOM      3  C3  IND d   1      -0.863  -5.363  -1.135  0.00  0.00    -0.031 A 
ATOM      4  C4  IND d   1      -1.457  -2.913  -1.655  0.00  0.00     0.051 A 
ATOM      5  C5  IND d   1      -1.912  -1.767  -1.066  0.00  0.00    -0.031 A 
ATOM      6  C6  IND d   1      -2.154  -1.690   0.291  0.00  0.00     0.015 A 
ATOM      7  C7  IND d   1      -1.938  -2.759   1.114  0.00  0.00    -0.016 A 
ATOM      8  C8  IND d   1      -1.483  -3.927   0.518  0.00  0.00    -0.047 A 
ATOM      9  C9  IND d   1      -1.277  -4.023  -0.864  0.00  0.00    -0.096 A 
ATOM     10  HN1 IND d   1      -1.252  -5.366   1.896  0.00  0.00     0.298 HD
ENDROOT
TORSDOF 0
ENDMDL
