MODEL 1
REMARK minimizedAffinity 2.51766658
REMARK minimizedRMSD -1
REMARK  0 active torsions:
REMARK  status: ('A' for Active; 'I' for Inactive)
ROOT
ATOM      1  N1  IND d   1      -3.506   0.758   1.110  0.00  0.00    -0.196 N 
ATOM      2  C2  IND d   1      -2.983  -0.039   2.090  0.00  0.00     0.054 A 
ATOM      3  C3  IND d   1      -3.523  -1.276   2.029  0.00  0.00    -0.031 A 
ATOM      4  C4  IND d   1      -5.208  -2.243   0.339  0.00  0.00     0.051 A 
ATOM      5  C5  IND d   1      -5.999  -1.888  -0.717  0.00  0.00    -0.031 A 
ATOM      6  C6  IND d   1      -5.999  -0.606  -1.229  0.00  0.00     0.015 A 
ATOM      7  C7  IND d   1      -5.194   0.368  -0.711  0.00  0.00    -0.016 A 
ATOM      8  C8  IND d   1      -4.393   0.012   0.366  0.00  0.00    -0.047 A 
ATOM      9  C9  IND d   1      -4.421  -1.275   0.918  0.00  0.00    -0.096 A 
ATOM     10  HN1 IND d   1      -3.313   1.586   0.980  0.00  0.00     0.298 HD
ENDROOT
TORSDOF 0
ENDMDL
