MODEL 1
REMARK minimizedAffinity 18.7300148
REMARK minimizedRMSD -1
REMARK  0 active torsions:
REMARK  status: ('A' for Active; 'I' for Inactive)
ROOT
ATOM      1  N1  IND d   1      -4.091   2.803  -0.964  0.00  0.00    -0.196 N 
ATOM      2  C2  IND d   1      -4.674   2.963  -2.190  0.00  0.00     0.054 A 
ATOM      3  C3  IND d   1      -5.355   1.848  -2.536  0.00  0.00    -0.031 A 
ATOM      4  C4  IND d   1      -5.731  -0.320  -1.200  0.00  0.00     0.051 A 
ATOM      5  C5  IND d   1      -5.366  -0.949  -0.042  0.00  0.00    -0.031 A 
ATOM      6  C6  IND d   1      -4.543  -0.346   0.887  0.00  0.00     0.015 A 
ATOM      7  C7  IND d   1      -4.062   0.919   0.698  0.00  0.00    -0.016 A 
ATOM      8  C8  IND d   1      -4.424   1.557  -0.480  0.00  0.00    -0.047 A 
ATOM      9  C9  IND d   1      -5.224   0.934  -1.446  0.00  0.00    -0.096 A 
ATOM     10  HN1 IND d   1      -3.599   3.383  -0.563  0.00  0.00     0.298 HD
ENDROOT
TORSDOF 0
ENDMDL
