MODEL 1
REMARK minimizedAffinity 19.3302975
REMARK minimizedRMSD -1
REMARK  0 active torsions:
REMARK  status: ('A' for Active; 'I' for Inactive)
ROOT
ATOM      1  N1  IND d   1      -5.623  -0.734  -0.216  0.00  0.00    -0.196 N 
ATOM      2  C2  IND d   1      -5.998  -1.009  -1.501  0.00  0.00     0.054 A 
ATOM      3  C3  IND d   1      -4.923  -0.984  -2.321  0.00  0.00    -0.031 A 
ATOM      4  C4  IND d   1      -2.440  -0.615  -1.750  0.00  0.00     0.051 A 
ATOM      5  C5  IND d   1      -1.610  -0.291  -0.714  0.00  0.00    -0.031 A 
ATOM      6  C6  IND d   1      -2.084  -0.097   0.567  0.00  0.00     0.015 A 
ATOM      7  C7  IND d   1      -3.411  -0.231   0.864  0.00  0.00    -0.016 A 
ATOM      8  C8  IND d   1      -4.258  -0.554  -0.187  0.00  0.00    -0.047 A 
ATOM      9  C9  IND d   1      -3.788  -0.710  -1.497  0.00  0.00    -0.096 A 
ATOM     10  HN1 IND d   1      -6.151  -0.683   0.461  0.00  0.00     0.298 HD
ENDROOT
TORSDOF 0
ENDMDL
