MODEL 1
REMARK minimizedAffinity 21.1867561
REMARK minimizedRMSD -1
REMARK  0 active torsions:
REMARK  status: ('A' for Active; 'I' for Inactive)
ROOT
ATOM      1  N1  IND d   1      -5.998   4.871  -4.017  0.00  0.00    -0.196 N 
ATOM      2  C2  IND d   1      -5.701   3.602  -4.430  0.00  0.00     0.054 A 
ATOM      3  C3  IND d   1      -5.329   2.840  -3.377  0.00  0.00    -0.031 A 
ATOM      4  C4  IND d   1      -5.235   3.441  -0.875  0.00  0.00     0.051 A 
ATOM      5  C5  IND d   1      -5.381   4.492  -0.014  0.00  0.00    -0.031 A 
ATOM      6  C6  IND d   1      -5.750   5.748  -0.451  0.00  0.00     0.015 A 
ATOM      7  C7  IND d   1      -5.999   5.998  -1.771  0.00  0.00    -0.016 A 
ATOM      8  C8  IND d   1      -5.845   4.934  -2.650  0.00  0.00    -0.047 A 
ATOM      9  C9  IND d   1      -5.430   3.669  -2.217  0.00  0.00    -0.096 A 
ATOM     10  HN1 IND d   1      -6.240   5.520  -4.527  0.00  0.00     0.298 HD
ENDROOT
TORSDOF 0
ENDMDL
