MODEL 1
REMARK minimizedAffinity 7.93310308
REMARK minimizedRMSD -1
REMARK  0 active torsions:
REMARK  status: ('A' for Active; 'I' for Inactive)
ROOT
ATOM      1  N1  IND d   1       5.996   1.490   2.025  0.00  0.00    -0.196 N 
ATOM      2  C2  IND d   1       5.167   0.818   2.880  0.00  0.00     0.054 A 
ATOM      3  C3  IND d   1       4.151   0.244   2.196  0.00  0.00    -0.031 A 
ATOM      4  C4  IND d   1       3.709   0.194  -0.339  0.00  0.00     0.051 A 
ATOM      5  C5  IND d   1       4.170   0.697  -1.523  0.00  0.00    -0.031 A 
ATOM      6  C6  IND d   1       5.287   1.504  -1.587  0.00  0.00     0.015 A 
ATOM      7  C7  IND d   1       5.995   1.830  -0.465  0.00  0.00    -0.016 A 
ATOM      8  C8  IND d   1       5.526   1.327   0.740  0.00  0.00    -0.047 A 
ATOM      9  C9  IND d   1       4.368   0.542   0.816  0.00  0.00    -0.096 A 
ATOM     10  HN1 IND d   1       6.693   1.939   2.251  0.00  0.00     0.298 HD
ENDROOT
TORSDOF 0
ENDMDL
