MODEL 1
REMARK minimizedAffinity 16.6101971
REMARK minimizedRMSD -1
REMARK  0 active torsions:
REMARK  status: ('A' for Active; 'I' for Inactive)
ROOT
ATOM      1  N1  IND d   1      -0.751  -0.581  -1.179  0.00  0.00    -0.196 N 
ATOM      2  C2  IND d   1      -0.941  -1.246  -2.358  0.00  0.00     0.054 A 
ATOM      3  C3  IND d   1      -2.261  -1.418  -2.594  0.00  0.00    -0.031 A 
ATOM      4  C4  IND d   1      -4.286  -0.602  -1.229  0.00  0.00     0.051 A 
ATOM      5  C5  IND d   1      -4.616   0.018  -0.056  0.00  0.00    -0.031 A 
ATOM      6  C6  IND d   1      -3.655   0.481   0.819  0.00  0.00     0.015 A 
ATOM      7  C7  IND d   1      -2.322   0.351   0.547  0.00  0.00    -0.016 A 
ATOM      8  C8  IND d   1      -1.984  -0.283  -0.640  0.00  0.00    -0.047 A 
ATOM      9  C9  IND d   1      -2.954  -0.793  -1.512  0.00  0.00    -0.096 A 
ATOM     10  HN1 IND d   1       0.010  -0.383  -0.832  0.00  0.00     0.298 HD
ENDROOT
TORSDOF 0
ENDMDL
