MODEL 1
REMARK minimizedAffinity 19.6647568
REMARK minimizedRMSD -1
REMARK  0 active torsions:
REMARK  status: ('A' for Active; 'I' for Inactive)
ROOT
ATOM      1  N1  IND d   1       2.241  -4.267   5.997  0.00  0.00    -0.196 N 
ATOM      2  C2  IND d   1       1.899  -5.334   5.214  0.00  0.00     0.054 A 
ATOM      3  C3  IND d   1       1.008  -4.958   4.269  0.00  0.00    -0.031 A 
ATOM      4  C4  IND d   1       0.051  -2.623   3.760  0.00  0.00     0.051 A 
ATOM      5  C5  IND d   1       0.040  -1.338   4.227  0.00  0.00    -0.031 A 
ATOM      6  C6  IND d   1       0.778  -0.956   5.328  0.00  0.00     0.015 A 
ATOM      7  C7  IND d   1       1.568  -1.846   6.000  0.00  0.00    -0.016 A 
ATOM      8  C8  IND d   1       1.577  -3.153   5.533  0.00  0.00    -0.047 A 
ATOM      9  C9  IND d   1       0.797  -3.556   4.442  0.00  0.00    -0.096 A 
ATOM     10  HN1 IND d   1       2.780  -4.288   6.666  0.00  0.00     0.298 HD
ENDROOT
TORSDOF 0
ENDMDL
