MODEL 1
REMARK minimizedAffinity 10.1788492
REMARK minimizedRMSD -1
REMARK  0 active torsions:
REMARK  status: ('A' for Active; 'I' for Inactive)
ROOT
ATOM      1  N1  IND d   1       5.999   1.681   2.532  0.00  0.00    -0.196 N 
ATOM      2  C2  IND d   1       5.986   0.398   2.060  0.00  0.00     0.054 A 
ATOM      3  C3  IND d   1       4.790  -0.182   2.307  0.00  0.00    -0.031 A 
ATOM      4  C4  IND d   1       2.676   0.822   3.380  0.00  0.00     0.051 A 
ATOM      5  C5  IND d   1       2.215   1.948   4.002  0.00  0.00    -0.031 A 
ATOM      6  C6  IND d   1       3.006   3.066   4.167  0.00  0.00     0.015 A 
ATOM      7  C7  IND d   1       4.291   3.104   3.704  0.00  0.00    -0.016 A 
ATOM      8  C8  IND d   1       4.765   1.960   3.078  0.00  0.00    -0.047 A 
ATOM      9  C9  IND d   1       3.980   0.807   2.945  0.00  0.00    -0.096 A 
ATOM     10  HN1 IND d   1       6.666   2.222   2.495  0.00  0.00     0.298 HD
ENDROOT
TORSDOF 0
ENDMDL
