MODEL 1
REMARK minimizedAffinity 12.8939152
REMARK minimizedRMSD -1
REMARK  0 active torsions:
REMARK  status: ('A' for Active; 'I' for Inactive)
ROOT
ATOM      1  N1  IND d   1       5.999   2.199   2.744  0.00  0.00    -0.196 N 
ATOM      2  C2  IND d   1       5.990   0.969   2.147  0.00  0.00     0.054 A 
ATOM      3  C3  IND d   1       4.720   0.577   1.899  0.00  0.00    -0.031 A 
ATOM      4  C4  IND d   1       2.511   1.837   2.298  0.00  0.00     0.051 A 
ATOM      5  C5  IND d   1       2.008   2.979   2.855  0.00  0.00    -0.031 A 
ATOM      6  C6  IND d   1       2.826   3.940   3.413  0.00  0.00     0.015 A 
ATOM      7  C7  IND d   1       4.185   3.799   3.424  0.00  0.00    -0.016 A 
ATOM      8  C8  IND d   1       4.699   2.638   2.865  0.00  0.00    -0.047 A 
ATOM      9  C9  IND d   1       3.871   1.639   2.336  0.00  0.00    -0.096 A 
ATOM     10  HN1 IND d   1       6.700   2.626   3.002  0.00  0.00     0.298 HD
ENDROOT
TORSDOF 0
ENDMDL
