MODEL 1
REMARK minimizedAffinity -2.73206782
REMARK minimizedRMSD -1
REMARK  3 active torsions:
REMARK  status: ('A' for Active; 'I' for Inactive)
REMARK    1  A    between atoms: C3'_2  and  C2'_3 
REMARK    2  A    between atoms: C2'_3  and  C1'_4 
REMARK    3  A    between atoms: C1'_4  and  C1_5 
ROOT
ATOM      1  C1  N4B d   1       0.920  -0.949  -0.072  0.00  0.00    -0.075 A 
ATOM      2  C2  N4B d   1       0.055  -0.049  -0.733  0.00  0.00     0.002 A 
ATOM      3  C3  N4B d   1      -1.017   0.489  -0.064  0.00  0.00     0.002 A 
ATOM      4  C4  N4B d   1      -1.254   0.129   1.254  0.00  0.00    -0.004 A 
ATOM      5  C5  N4B d   1      -0.399  -0.721   1.893  0.00  0.00     0.002 A 
ATOM      6  C6  N4B d   1       0.684  -1.267   1.234  0.00  0.00     0.002 A 
ENDROOT
BRANCH   1   7
ATOM      7  C1' N4B d   1       2.055  -1.630  -0.787  0.00  0.00     0.057 C 
BRANCH   7   8
ATOM      8  C2' N4B d   1       1.680  -1.819  -2.254  0.00  0.00     0.009 C 
BRANCH   8   9
ATOM      9  C3' N4B d   1       2.574  -1.009  -3.178  0.00  0.00     0.004 C 
ATOM     10  C4' N4B d   1       1.817   0.022  -3.961  0.00  0.00     0.003 C 
ENDBRANCH   8   9
ENDBRANCH   7   8
ENDBRANCH   1   7
TORSDOF 3
ENDMDL
