MODEL 1
REMARK minimizedAffinity -4.14155674
REMARK minimizedRMSD -1
REMARK  3 active torsions:
REMARK  status: ('A' for Active; 'I' for Inactive)
REMARK    1  A    between atoms: C3'_2  and  C2'_3 
REMARK    2  A    between atoms: C2'_3  and  C1'_4 
REMARK    3  A    between atoms: C1'_4  and  C1_5 
ROOT
ATOM      1  C1  N4B d   1      -0.133  -0.276  -0.171  0.00  0.00    -0.075 A 
ATOM      2  C2  N4B d   1       0.488  -0.958   0.898  0.00  0.00     0.002 A 
ATOM      3  C3  N4B d   1       1.686  -1.599   0.700  0.00  0.00     0.002 A 
ATOM      4  C4  N4B d   1       2.271  -1.587  -0.557  0.00  0.00    -0.004 A 
ATOM      5  C5  N4B d   1       1.678  -0.904  -1.578  0.00  0.00     0.002 A 
ATOM      6  C6  N4B d   1       0.475  -0.252  -1.393  0.00  0.00     0.002 A 
ENDROOT
BRANCH   1   7
ATOM      7  C1' N4B d   1      -1.485   0.367  -0.025  0.00  0.00     0.057 C 
BRANCH   7   8
ATOM      8  C2' N4B d   1      -2.056   0.026   1.348  0.00  0.00     0.009 C 
BRANCH   8   9
ATOM      9  C3' N4B d   1      -2.142   1.248   2.247  0.00  0.00     0.004 C 
ATOM     10  C4' N4B d   1      -1.688   0.971   3.649  0.00  0.00     0.003 C 
ENDBRANCH   8   9
ENDBRANCH   7   8
ENDBRANCH   1   7
TORSDOF 3
ENDMDL
