MODEL 1
REMARK minimizedAffinity -2.28366423
REMARK minimizedRMSD -1
REMARK  3 active torsions:
REMARK  status: ('A' for Active; 'I' for Inactive)
REMARK    1  A    between atoms: C3'_2  and  C2'_3 
REMARK    2  A    between atoms: C2'_3  and  C1'_4 
REMARK    3  A    between atoms: C1'_4  and  C1_5 
ROOT
ATOM      1  C1  N4B d   1      -1.386   0.736   1.222  0.00  0.00    -0.075 A 
ATOM      2  C2  N4B d   1      -2.603   0.166   1.657  0.00  0.00     0.002 A 
ATOM      3  C3  N4B d   1      -2.841  -0.001   2.999  0.00  0.00     0.002 A 
ATOM      4  C4  N4B d   1      -1.875   0.375   3.920  0.00  0.00    -0.004 A 
ATOM      5  C5  N4B d   1      -0.713   0.948   3.492  0.00  0.00     0.002 A 
ATOM      6  C6  N4B d   1      -0.461   1.126   2.147  0.00  0.00     0.002 A 
ENDROOT
BRANCH   1   7
ATOM      7  C1' N4B d   1      -1.044   0.859  -0.238  0.00  0.00     0.057 C 
BRANCH   7   8
ATOM      8  C2' N4B d   1       0.375   0.346  -0.465  0.00  0.00     0.009 C 
BRANCH   8   9
ATOM      9  C3' N4B d   1       0.401  -1.146  -0.750  0.00  0.00     0.004 C 
ATOM     10  C4' N4B d   1       1.482  -1.862   0.003  0.00  0.00     0.003 C 
ENDBRANCH   8   9
ENDBRANCH   7   8
ENDBRANCH   1   7
TORSDOF 3
ENDMDL
