MODEL 1
REMARK minimizedAffinity 2.92793727
REMARK minimizedRMSD -1
REMARK  3 active torsions:
REMARK  status: ('A' for Active; 'I' for Inactive)
REMARK    1  A    between atoms: C3'_2  and  C2'_3 
REMARK    2  A    between atoms: C2'_3  and  C1'_4 
REMARK    3  A    between atoms: C1'_4  and  C1_5 
ROOT
ATOM      1  C1  N4B d   1       0.407  -0.288   1.182  0.00  0.00    -0.075 A 
ATOM      2  C2  N4B d   1       1.057  -1.492   1.530  0.00  0.00     0.002 A 
ATOM      3  C3  N4B d   1       0.911  -2.605   0.739  0.00  0.00     0.002 A 
ATOM      4  C4  N4B d   1       0.109  -2.543  -0.391  0.00  0.00    -0.004 A 
ATOM      5  C5  N4B d   1      -0.495  -1.369  -0.734  0.00  0.00     0.002 A 
ATOM      6  C6  N4B d   1      -0.355  -0.241   0.050  0.00  0.00     0.002 A 
ENDROOT
BRANCH   1   7
ATOM      7  C1' N4B d   1       0.467   0.931   2.062  0.00  0.00     0.057 C 
BRANCH   7   8
ATOM      8  C2' N4B d   1      -0.946   1.300   2.503  0.00  0.00     0.009 C 
BRANCH   8   9
ATOM      9  C3' N4B d   1      -1.290   0.714   3.861  0.00  0.00     0.004 C 
ATOM     10  C4' N4B d   1      -2.052  -0.574   3.762  0.00  0.00     0.003 C 
ENDBRANCH   8   9
ENDBRANCH   7   8
ENDBRANCH   1   7
TORSDOF 3
ENDMDL
