MODEL 1
REMARK minimizedAffinity -4.91476297
REMARK minimizedRMSD -1
REMARK  3 active torsions:
REMARK  status: ('A' for Active; 'I' for Inactive)
REMARK    1  A    between atoms: C3'_2  and  C2'_3 
REMARK    2  A    between atoms: C2'_3  and  C1'_4 
REMARK    3  A    between atoms: C1'_4  and  C1_5 
ROOT
ATOM      1  C1  N4B d   1       0.767   0.259  -0.343  0.00  0.00    -0.075 A 
ATOM      2  C2  N4B d   1       1.515  -0.870  -0.742  0.00  0.00     0.002 A 
ATOM      3  C3  N4B d   1       2.225  -0.843  -1.917  0.00  0.00     0.002 A 
ATOM      4  C4  N4B d   1       2.187   0.290  -2.716  0.00  0.00    -0.004 A 
ATOM      5  C5  N4B d   1       1.482   1.386  -2.310  0.00  0.00     0.002 A 
ATOM      6  C6  N4B d   1       0.768   1.374  -1.129  0.00  0.00     0.002 A 
ENDROOT
BRANCH   1   7
ATOM      7  C1' N4B d   1      -0.094   0.246   0.891  0.00  0.00     0.057 C 
BRANCH   7   8
ATOM      8  C2' N4B d   1      -1.561   0.318   0.479  0.00  0.00     0.009 C 
BRANCH   8   9
ATOM      9  C3' N4B d   1      -2.490   0.314   1.681  0.00  0.00     0.004 C 
ATOM     10  C4' N4B d   1      -1.889   0.981   2.882  0.00  0.00     0.003 C 
ENDBRANCH   8   9
ENDBRANCH   7   8
ENDBRANCH   1   7
TORSDOF 3
ENDMDL
