MODEL 1
REMARK minimizedAffinity -4.03690958
REMARK minimizedRMSD -1
REMARK  3 active torsions:
REMARK  status: ('A' for Active; 'I' for Inactive)
REMARK    1  A    between atoms: C3'_2  and  C2'_3 
REMARK    2  A    between atoms: C2'_3  and  C1'_4 
REMARK    3  A    between atoms: C1'_4  and  C1_5 
ROOT
ATOM      1  C1  N4B d   1      -0.881   0.249   0.985  0.00  0.00    -0.075 A 
ATOM      2  C2  N4B d   1      -2.242   0.621   1.032  0.00  0.00     0.002 A 
ATOM      3  C3  N4B d   1      -2.797   1.047   2.214  0.00  0.00     0.002 A 
ATOM      4  C4  N4B d   1      -2.019   1.091   3.360  0.00  0.00    -0.004 A 
ATOM      5  C5  N4B d   1      -0.698   0.754   3.301  0.00  0.00     0.002 A 
ATOM      6  C6  N4B d   1      -0.126   0.328   2.120  0.00  0.00     0.002 A 
ENDROOT
BRANCH   1   7
ATOM      7  C1' N4B d   1      -0.251  -0.305  -0.264  0.00  0.00     0.057 C 
BRANCH   7   8
ATOM      8  C2' N4B d   1       0.027  -1.792  -0.068  0.00  0.00     0.009 C 
BRANCH   8   9
ATOM      9  C3' N4B d   1       1.301  -2.229  -0.770  0.00  0.00     0.004 C 
ATOM     10  C4' N4B d   1       1.826  -1.194  -1.719  0.00  0.00     0.003 C 
ENDBRANCH   8   9
ENDBRANCH   7   8
ENDBRANCH   1   7
TORSDOF 3
ENDMDL
