MODEL 1
REMARK minimizedAffinity -5.60769129
REMARK minimizedRMSD -1
REMARK  3 active torsions:
REMARK  status: ('A' for Active; 'I' for Inactive)
REMARK    1  A    between atoms: C3'_2  and  C2'_3 
REMARK    2  A    between atoms: C2'_3  and  C1'_4 
REMARK    3  A    between atoms: C1'_4  and  C1_5 
ROOT
ATOM      1  C1  N4B d   1      -0.061  -0.435  -0.517  0.00  0.00    -0.075 A 
ATOM      2  C2  N4B d   1      -0.174   0.770  -1.244  0.00  0.00     0.002 A 
ATOM      3  C3  N4B d   1       0.705   1.042  -2.264  0.00  0.00     0.002 A 
ATOM      4  C4  N4B d   1       1.713   0.136  -2.560  0.00  0.00    -0.004 A 
ATOM      5  C5  N4B d   1       1.799  -1.038  -1.869  0.00  0.00     0.002 A 
ATOM      6  C6  N4B d   1       0.920  -1.325  -0.845  0.00  0.00     0.002 A 
ENDROOT
BRANCH   1   7
ATOM      7  C1' N4B d   1      -0.945  -0.736   0.663  0.00  0.00     0.057 C 
BRANCH   7   8
ATOM      8  C2' N4B d   1      -1.064   0.512   1.532  0.00  0.00     0.009 C 
BRANCH   8   9
ATOM      9  C3' N4B d   1      -2.244   0.431   2.484  0.00  0.00     0.004 C 
ATOM     10  C4' N4B d   1      -1.932   0.981   3.844  0.00  0.00     0.003 C 
ENDBRANCH   8   9
ENDBRANCH   7   8
ENDBRANCH   1   7
TORSDOF 3
ENDMDL
