MODEL 1
REMARK minimizedAffinity -2.97844815
REMARK minimizedRMSD -1
REMARK  3 active torsions:
REMARK  status: ('A' for Active; 'I' for Inactive)
REMARK    1  A    between atoms: C3'_2  and  C2'_3 
REMARK    2  A    between atoms: C2'_3  and  C1'_4 
REMARK    3  A    between atoms: C1'_4  and  C1_5 
ROOT
ATOM      1  C1  N4B d   1      -1.636   0.341   1.270  0.00  0.00    -0.075 A 
ATOM      2  C2  N4B d   1      -0.672   0.733   2.225  0.00  0.00     0.002 A 
ATOM      3  C3  N4B d   1      -1.071   1.158   3.468  0.00  0.00     0.002 A 
ATOM      4  C4  N4B d   1      -2.422   1.218   3.772  0.00  0.00    -0.004 A 
ATOM      5  C5  N4B d   1      -3.346   0.814   2.853  0.00  0.00     0.002 A 
ATOM      6  C6  N4B d   1      -2.960   0.380   1.601  0.00  0.00     0.002 A 
ENDROOT
BRANCH   1   7
ATOM      7  C1' N4B d   1      -1.253  -0.050  -0.131  0.00  0.00     0.057 C 
BRANCH   7   8
ATOM      8  C2' N4B d   1       0.266  -0.160  -0.223  0.00  0.00     0.009 C 
BRANCH   8   9
ATOM      9  C3' N4B d   1       0.780   0.216  -1.602  0.00  0.00     0.004 C 
ATOM     10  C4' N4B d   1       0.557   1.662  -1.931  0.00  0.00     0.003 C 
ENDBRANCH   8   9
ENDBRANCH   7   8
ENDBRANCH   1   7
TORSDOF 3
ENDMDL
