MODEL 1
REMARK minimizedAffinity -2.80759716
REMARK minimizedRMSD -1
REMARK  3 active torsions:
REMARK  status: ('A' for Active; 'I' for Inactive)
REMARK    1  A    between atoms: C3'_2  and  C2'_3 
REMARK    2  A    between atoms: C2'_3  and  C1'_4 
REMARK    3  A    between atoms: C1'_4  and  C1_5 
ROOT
ATOM      1  C1  N4B d   1      -0.174  -0.201  -0.288  0.00  0.00    -0.075 A 
ATOM      2  C2  N4B d   1       0.044  -1.461   0.311  0.00  0.00     0.002 A 
ATOM      3  C3  N4B d   1       0.922  -2.350  -0.258  0.00  0.00     0.002 A 
ATOM      4  C4  N4B d   1       1.577  -2.010  -1.433  0.00  0.00    -0.004 A 
ATOM      5  C5  N4B d   1       1.381  -0.782  -1.991  0.00  0.00     0.002 A 
ATOM      6  C6  N4B d   1       0.504   0.123  -1.428  0.00  0.00     0.002 A 
ENDROOT
BRANCH   1   7
ATOM      7  C1' N4B d   1      -1.188   0.770   0.250  0.00  0.00     0.057 C 
BRANCH   7   8
ATOM      8  C2' N4B d   1      -1.078   0.817   1.771  0.00  0.00     0.009 C 
BRANCH   8   9
ATOM      9  C3' N4B d   1      -2.318   0.258   2.449  0.00  0.00     0.004 C 
ATOM     10  C4' N4B d   1      -2.457   0.713   3.871  0.00  0.00     0.003 C 
ENDBRANCH   8   9
ENDBRANCH   7   8
ENDBRANCH   1   7
TORSDOF 3
ENDMDL
