MODEL 1
REMARK minimizedAffinity 8.77628899
REMARK minimizedRMSD -1
REMARK  3 active torsions:
REMARK  status: ('A' for Active; 'I' for Inactive)
REMARK    1  A    between atoms: C3'_2  and  C2'_3 
REMARK    2  A    between atoms: C2'_3  and  C1'_4 
REMARK    3  A    between atoms: C1'_4  and  C1_5 
ROOT
ATOM      1  C1  N4B d   1       1.396  -3.201   0.074  0.00  0.00    -0.075 A 
ATOM      2  C2  N4B d   1       1.031  -2.719  -1.202  0.00  0.00     0.002 A 
ATOM      3  C3  N4B d   1       1.761  -1.716  -1.791  0.00  0.00     0.002 A 
ATOM      4  C4  N4B d   1       2.843  -1.169  -1.117  0.00  0.00    -0.004 A 
ATOM      5  C5  N4B d   1       3.204  -1.658   0.104  0.00  0.00     0.002 A 
ATOM      6  C6  N4B d   1       2.482  -2.669   0.706  0.00  0.00     0.002 A 
ENDROOT
BRANCH   1   7
ATOM      7  C1' N4B d   1       0.577  -4.237   0.795  0.00  0.00     0.057 C 
BRANCH   7   8
ATOM      8  C2' N4B d   1      -0.744  -3.614   1.236  0.00  0.00     0.009 C 
BRANCH   8   9
ATOM      9  C3' N4B d   1      -1.099  -2.391   0.408  0.00  0.00     0.004 C 
ATOM     10  C4' N4B d   1      -2.269  -1.634   0.963  0.00  0.00     0.003 C 
ENDBRANCH   8   9
ENDBRANCH   7   8
ENDBRANCH   1   7
TORSDOF 3
ENDMDL
