MODEL 1
REMARK minimizedAffinity 1.2819134
REMARK minimizedRMSD -1
REMARK  0 active torsions:
REMARK  status: ('A' for Active; 'I' for Inactive)
ROOT
ATOM      1  C   UNL d   1      -0.807   0.145   0.699  0.00  0.00     0.124 A 
ATOM      2  C1  UNL d   1      -1.433   1.373   0.529  0.00  0.00     0.062 A 
ATOM      3  C2  UNL d   1      -1.677   1.862  -0.751  0.00  0.00     0.162 A 
ATOM      4  C3  UNL d   1      -1.296   1.124  -1.871  0.00  0.00    -0.034 A 
ATOM      5  C4  UNL d   1      -0.666  -0.109  -1.692  0.00  0.00     0.162 A 
ATOM      6  C5  UNL d   1      -0.424  -0.594  -0.411  0.00  0.00     0.062 A 
ATOM      7  F   UNL d   1       0.180  -1.780  -0.249  0.00  0.00    -0.097 F 
ATOM      8  F1  UNL d   1      -0.287  -0.844  -2.748  0.00  0.00    -0.096 F 
ATOM      9  I   UNL d   1      -1.659   1.853  -3.787  0.00  0.00    -0.060 I 
ATOM     10  F2  UNL d   1      -2.283   3.051  -0.885  0.00  0.00    -0.096 F 
ATOM     11  F3  UNL d   1      -1.803   2.089   1.600  0.00  0.00    -0.097 F 
ATOM     12  F4  UNL d   1      -0.573  -0.323   1.932  0.00  0.00    -0.092 F 
ENDROOT
TORSDOF 0
ENDMDL
