MODEL 1
REMARK minimizedAffinity 5.4623909
REMARK minimizedRMSD -1
REMARK  0 active torsions:
REMARK  status: ('A' for Active; 'I' for Inactive)
ROOT
ATOM      1  C   UNL d   1      -2.857   2.116  -2.951  0.00  0.00     0.124 A 
ATOM      2  C1  UNL d   1      -1.906   2.563  -2.043  0.00  0.00     0.062 A 
ATOM      3  C2  UNL d   1      -1.012   3.566  -2.402  0.00  0.00     0.162 A 
ATOM      4  C3  UNL d   1      -1.063   4.132  -3.676  0.00  0.00    -0.034 A 
ATOM      5  C4  UNL d   1      -2.021   3.678  -4.584  0.00  0.00     0.162 A 
ATOM      6  C5  UNL d   1      -2.913   2.674  -4.220  0.00  0.00     0.062 A 
ATOM      7  F   UNL d   1      -3.830   2.244  -5.099  0.00  0.00    -0.097 F 
ATOM      8  F1  UNL d   1      -2.099   4.200  -5.818  0.00  0.00    -0.096 F 
ATOM      9  I   UNL d   1       0.273   5.633  -4.217  0.00  0.00    -0.060 I 
ATOM     10  F2  UNL d   1      -0.104   3.978  -1.504  0.00  0.00    -0.096 F 
ATOM     11  F3  UNL d   1      -1.849   2.025  -0.816  0.00  0.00    -0.097 F 
ATOM     12  F4  UNL d   1      -3.716   1.150  -2.603  0.00  0.00    -0.092 F 
ENDROOT
TORSDOF 0
ENDMDL
