MODEL 1
REMARK minimizedAffinity -4.24476433
REMARK minimizedRMSD -1
REMARK  0 active torsions:
REMARK  status: ('A' for Active; 'I' for Inactive)
ROOT
ATOM      1  C   UNL d   1       1.029  -1.674   1.335  0.00  0.00     0.124 A 
ATOM      2  C1  UNL d   1       1.863  -0.911   0.530  0.00  0.00     0.062 A 
ATOM      3  C2  UNL d   1       1.337   0.114  -0.252  0.00  0.00     0.162 A 
ATOM      4  C3  UNL d   1      -0.031   0.382  -0.232  0.00  0.00    -0.034 A 
ATOM      5  C4  UNL d   1      -0.865  -0.390   0.579  0.00  0.00     0.162 A 
ATOM      6  C5  UNL d   1      -0.334  -1.413   1.358  0.00  0.00     0.062 A 
ATOM      7  F   UNL d   1      -1.142  -2.149   2.135  0.00  0.00    -0.097 F 
ATOM      8  F1  UNL d   1      -2.185  -0.159   0.621  0.00  0.00    -0.096 F 
ATOM      9  I   UNL d   1      -0.822   1.913  -1.400  0.00  0.00    -0.060 I 
ATOM     10  F2  UNL d   1       2.168   0.835  -1.020  0.00  0.00    -0.096 F 
ATOM     11  F3  UNL d   1       3.180  -1.161   0.505  0.00  0.00    -0.097 F 
ATOM     12  F4  UNL d   1       1.537  -2.659   2.085  0.00  0.00    -0.092 F 
ENDROOT
TORSDOF 0
ENDMDL
