MODEL 1
REMARK minimizedAffinity -0.464311361
REMARK minimizedRMSD -1
REMARK  0 active torsions:
REMARK  status: ('A' for Active; 'I' for Inactive)
ROOT
ATOM      1  C   UNL d   1       0.903  -1.769   1.071  0.00  0.00     0.124 A 
ATOM      2  C1  UNL d   1      -0.250  -1.091   1.440  0.00  0.00     0.062 A 
ATOM      3  C2  UNL d   1      -0.655   0.038   0.734  0.00  0.00     0.162 A 
ATOM      4  C3  UNL d   1       0.094   0.495  -0.351  0.00  0.00    -0.034 A 
ATOM      5  C4  UNL d   1       1.253  -0.192  -0.715  0.00  0.00     0.162 A 
ATOM      6  C5  UNL d   1       1.654  -1.319  -0.006  0.00  0.00     0.062 A 
ATOM      7  F   UNL d   1       2.768  -1.974  -0.364  0.00  0.00    -0.097 F 
ATOM      8  F1  UNL d   1       1.997   0.221  -1.753  0.00  0.00    -0.096 F 
ATOM      9  I   UNL d   1      -0.507   2.183  -1.410  0.00  0.00    -0.060 I 
ATOM     10  F2  UNL d   1      -1.774   0.674   1.112  0.00  0.00    -0.096 F 
ATOM     11  F3  UNL d   1      -0.977  -1.523   2.481  0.00  0.00    -0.097 F 
ATOM     12  F4  UNL d   1       1.290  -2.855   1.754  0.00  0.00    -0.092 F 
ENDROOT
TORSDOF 0
ENDMDL
