MODEL 1
REMARK minimizedAffinity -1.54611337
REMARK minimizedRMSD -1
REMARK  0 active torsions:
REMARK  status: ('A' for Active; 'I' for Inactive)
ROOT
ATOM      1  C   UNL d   1      -0.393  -1.870   1.577  0.00  0.00     0.124 A 
ATOM      2  C1  UNL d   1      -0.964  -0.685   2.021  0.00  0.00     0.062 A 
ATOM      3  C2  UNL d   1      -1.044   0.415   1.171  0.00  0.00     0.162 A 
ATOM      4  C3  UNL d   1      -0.554   0.334  -0.132  0.00  0.00    -0.034 A 
ATOM      5  C4  UNL d   1       0.020  -0.860  -0.571  0.00  0.00     0.162 A 
ATOM      6  C5  UNL d   1       0.098  -1.956   0.282  0.00  0.00     0.062 A 
ATOM      7  F   UNL d   1       0.649  -3.100  -0.149  0.00  0.00    -0.097 F 
ATOM      8  F1  UNL d   1       0.501  -0.972  -1.818  0.00  0.00    -0.096 F 
ATOM      9  I   UNL d   1      -0.672   1.976  -1.405  0.00  0.00    -0.060 I 
ATOM     10  F2  UNL d   1      -1.601   1.547   1.627  0.00  0.00    -0.096 F 
ATOM     11  F3  UNL d   1      -1.438  -0.598   3.272  0.00  0.00    -0.097 F 
ATOM     12  F4  UNL d   1      -0.316  -2.926   2.397  0.00  0.00    -0.092 F 
ENDROOT
TORSDOF 0
ENDMDL
