MODEL 1
REMARK minimizedAffinity -3.91326976
REMARK minimizedRMSD -1
REMARK  0 active torsions:
REMARK  status: ('A' for Active; 'I' for Inactive)
ROOT
ATOM      1  C   UNL d   1       0.791  -1.063   1.213  0.00  0.00     0.124 A 
ATOM      2  C1  UNL d   1      -0.394  -0.389   1.469  0.00  0.00     0.062 A 
ATOM      3  C2  UNL d   1      -0.847   0.589   0.588  0.00  0.00     0.162 A 
ATOM      4  C3  UNL d   1      -0.114   0.898  -0.558  0.00  0.00    -0.034 A 
ATOM      5  C4  UNL d   1       1.078   0.216  -0.808  0.00  0.00     0.162 A 
ATOM      6  C5  UNL d   1       1.526  -0.761   0.076  0.00  0.00     0.062 A 
ATOM      7  F   UNL d   1       2.672  -1.411  -0.173  0.00  0.00    -0.097 F 
ATOM      8  F1  UNL d   1       1.807   0.487  -1.900  0.00  0.00    -0.096 F 
ATOM      9  I   UNL d   1      -0.788   2.359  -1.878  0.00  0.00    -0.060 I 
ATOM     10  F2  UNL d   1      -1.997   1.225   0.859  0.00  0.00    -0.096 F 
ATOM     11  F3  UNL d   1      -1.106  -0.679   2.568  0.00  0.00    -0.097 F 
ATOM     12  F4  UNL d   1       1.225  -2.003   2.063  0.00  0.00    -0.092 F 
ENDROOT
TORSDOF 0
ENDMDL
