MODEL 1
REMARK minimizedAffinity 6.406528
REMARK minimizedRMSD -1
REMARK  0 active torsions:
REMARK  status: ('A' for Active; 'I' for Inactive)
ROOT
ATOM      1  C   UNL d   1       1.666  -2.039   1.377  0.00  0.00     0.124 A 
ATOM      2  C1  UNL d   1       2.384  -0.990   0.820  0.00  0.00     0.062 A 
ATOM      3  C2  UNL d   1       1.718   0.057   0.190  0.00  0.00     0.162 A 
ATOM      4  C3  UNL d   1       0.325   0.061   0.114  0.00  0.00    -0.034 A 
ATOM      5  C4  UNL d   1      -0.390  -0.998   0.676  0.00  0.00     0.162 A 
ATOM      6  C5  UNL d   1       0.280  -2.042   1.304  0.00  0.00     0.062 A 
ATOM      7  F   UNL d   1      -0.415  -3.055   1.841  0.00  0.00    -0.097 F 
ATOM      8  F1  UNL d   1      -1.730  -1.026   0.621  0.00  0.00    -0.096 F 
ATOM      9  I   UNL d   1      -0.674   1.626  -0.826  0.00  0.00    -0.060 I 
ATOM     10  F2  UNL d   1       2.437   1.058  -0.339  0.00  0.00    -0.096 F 
ATOM     11  F3  UNL d   1       3.723  -0.985   0.888  0.00  0.00    -0.097 F 
ATOM     12  F4  UNL d   1       2.310  -3.047   1.981  0.00  0.00    -0.092 F 
ENDROOT
TORSDOF 0
ENDMDL
