MODEL 1
REMARK minimizedAffinity 4.1013236
REMARK minimizedRMSD -1
REMARK  0 active torsions:
REMARK  status: ('A' for Active; 'I' for Inactive)
ROOT
ATOM      1  C   UNL d   1       0.974  -1.951   1.174  0.00  0.00     0.124 A 
ATOM      2  C1  UNL d   1       1.864  -1.285   0.343  0.00  0.00     0.062 A 
ATOM      3  C2  UNL d   1       1.474  -0.119  -0.309  0.00  0.00     0.162 A 
ATOM      4  C3  UNL d   1       0.188   0.391  -0.130  0.00  0.00    -0.034 A 
ATOM      5  C4  UNL d   1      -0.702  -0.285   0.707  0.00  0.00     0.162 A 
ATOM      6  C5  UNL d   1      -0.308  -1.451   1.355  0.00  0.00     0.062 A 
ATOM      7  F   UNL d   1      -1.169  -2.093   2.158  0.00  0.00    -0.097 F 
ATOM      8  F1  UNL d   1      -1.946   0.177   0.901  0.00  0.00    -0.096 F 
ATOM      9  I   UNL d   1      -0.399   2.135  -1.102  0.00  0.00    -0.060 I 
ATOM     10  F2  UNL d   1       2.354   0.504  -1.106  0.00  0.00    -0.096 F 
ATOM     11  F3  UNL d   1       3.102  -1.767   0.165  0.00  0.00    -0.097 F 
ATOM     12  F4  UNL d   1       1.351  -3.074   1.799  0.00  0.00    -0.092 F 
ENDROOT
TORSDOF 0
ENDMDL
