MODEL 1
REMARK minimizedAffinity -2.06895733
REMARK minimizedRMSD -1
REMARK  0 active torsions:
REMARK  status: ('A' for Active; 'I' for Inactive)
ROOT
ATOM      1  C   UNL d   1       1.425  -0.529   0.605  0.00  0.00     0.124 A 
ATOM      2  C1  UNL d   1       1.415   0.804   0.219  0.00  0.00     0.062 A 
ATOM      3  C2  UNL d   1       0.321   1.325  -0.467  0.00  0.00     0.162 A 
ATOM      4  C3  UNL d   1      -0.771   0.513  -0.770  0.00  0.00    -0.034 A 
ATOM      5  C4  UNL d   1      -0.753  -0.827  -0.380  0.00  0.00     0.162 A 
ATOM      6  C5  UNL d   1       0.342  -1.343   0.306  0.00  0.00     0.062 A 
ATOM      7  F   UNL d   1       0.351  -2.632   0.678  0.00  0.00    -0.097 F 
ATOM      8  F1  UNL d   1      -1.787  -1.636  -0.655  0.00  0.00    -0.096 F 
ATOM      9  I   UNL d   1      -2.408   1.288  -1.796  0.00  0.00    -0.060 I 
ATOM     10  F2  UNL d   1       0.338   2.617  -0.828  0.00  0.00    -0.096 F 
ATOM     11  F3  UNL d   1       2.460   1.592   0.506  0.00  0.00    -0.097 F 
ATOM     12  F4  UNL d   1       2.479  -1.029   1.264  0.00  0.00    -0.092 F 
ENDROOT
TORSDOF 0
ENDMDL
