MODEL 1
REMARK minimizedAffinity -0.0779819041
REMARK minimizedRMSD -1
REMARK  0 active torsions:
REMARK  status: ('A' for Active; 'I' for Inactive)
ROOT
ATOM      1  C   UNL d   1      -1.831   3.083  -3.642  0.00  0.00     0.124 A 
ATOM      2  C1  UNL d   1      -0.897   3.385  -2.660  0.00  0.00     0.062 A 
ATOM      3  C2  UNL d   1      -0.796   2.590  -1.522  0.00  0.00     0.162 A 
ATOM      4  C3  UNL d   1      -1.630   1.484  -1.360  0.00  0.00    -0.034 A 
ATOM      5  C4  UNL d   1      -2.567   1.187  -2.351  0.00  0.00     0.162 A 
ATOM      6  C5  UNL d   1      -2.665   1.984  -3.487  0.00  0.00     0.062 A 
ATOM      7  F   UNL d   1      -3.567   1.690  -4.434  0.00  0.00    -0.097 F 
ATOM      8  F1  UNL d   1      -3.385   0.131  -2.227  0.00  0.00    -0.096 F 
ATOM      9  I   UNL d   1      -1.482   0.293   0.341  0.00  0.00    -0.060 I 
ATOM     10  F2  UNL d   1       0.115   2.906  -0.590  0.00  0.00    -0.096 F 
ATOM     11  F3  UNL d   1      -0.091   4.446  -2.808  0.00  0.00    -0.097 F 
ATOM     12  F4  UNL d   1      -1.927   3.849  -4.736  0.00  0.00    -0.092 F 
ENDROOT
TORSDOF 0
ENDMDL
