MODEL 1
REMARK minimizedAffinity -3.26751184
REMARK minimizedRMSD -1
REMARK  0 active torsions:
REMARK  status: ('A' for Active; 'I' for Inactive)
ROOT
ATOM      1  C   UNL d   1       0.948  -1.715   1.019  0.00  0.00     0.124 A 
ATOM      2  C1  UNL d   1       1.810  -1.022   0.181  0.00  0.00     0.062 A 
ATOM      3  C2  UNL d   1       1.368   0.112  -0.495  0.00  0.00     0.162 A 
ATOM      4  C3  UNL d   1       0.058   0.560  -0.335  0.00  0.00    -0.034 A 
ATOM      5  C4  UNL d   1      -0.804  -0.143   0.510  0.00  0.00     0.162 A 
ATOM      6  C5  UNL d   1      -0.357  -1.275   1.183  0.00  0.00     0.062 A 
ATOM      7  F   UNL d   1      -1.192  -1.944   1.992  0.00  0.00    -0.097 F 
ATOM      8  F1  UNL d   1      -2.071   0.261   0.687  0.00  0.00    -0.096 F 
ATOM      9  I   UNL d   1      -0.607   2.255  -1.343  0.00  0.00    -0.060 I 
ATOM     10  F2  UNL d   1       2.223   0.762  -1.299  0.00  0.00    -0.096 F 
ATOM     11  F3  UNL d   1       3.072  -1.446   0.020  0.00  0.00    -0.097 F 
ATOM     12  F4  UNL d   1       1.376  -2.807   1.667  0.00  0.00    -0.092 F 
ENDROOT
TORSDOF 0
ENDMDL
