MODEL 1
REMARK minimizedAffinity -2.6669395
REMARK minimizedRMSD -1
REMARK  0 active torsions:
REMARK  status: ('A' for Active; 'I' for Inactive)
ROOT
ATOM      1  C   UNL d   1       0.632  -1.037   1.386  0.00  0.00     0.124 A 
ATOM      2  C1  UNL d   1      -0.629  -0.465   1.482  0.00  0.00     0.062 A 
ATOM      3  C2  UNL d   1      -1.100   0.364   0.469  0.00  0.00     0.162 A 
ATOM      4  C3  UNL d   1      -0.310   0.626  -0.651  0.00  0.00    -0.034 A 
ATOM      5  C4  UNL d   1       0.957   0.047  -0.740  0.00  0.00     0.162 A 
ATOM      6  C5  UNL d   1       1.424  -0.781   0.276  0.00  0.00     0.062 A 
ATOM      7  F   UNL d   1       2.642  -1.333   0.181  0.00  0.00    -0.097 F 
ATOM      8  F1  UNL d   1       1.743   0.277  -1.803  0.00  0.00    -0.096 F 
ATOM      9  I   UNL d   1      -1.011   1.865  -2.169  0.00  0.00    -0.060 I 
ATOM     10  F2  UNL d   1      -2.322   0.904   0.588  0.00  0.00    -0.096 F 
ATOM     11  F3  UNL d   1      -1.395  -0.711   2.555  0.00  0.00    -0.097 F 
ATOM     12  F4  UNL d   1       1.083  -1.834   2.364  0.00  0.00    -0.092 F 
ENDROOT
TORSDOF 0
ENDMDL
