MODEL 1
REMARK minimizedAffinity 1.83652341
REMARK minimizedRMSD -1
REMARK  0 active torsions:
REMARK  status: ('A' for Active; 'I' for Inactive)
ROOT
ATOM      1  C   UNL d   1       0.957  -1.540   1.396  0.00  0.00     0.124 A 
ATOM      2  C1  UNL d   1       1.901  -0.687   0.844  0.00  0.00     0.062 A 
ATOM      3  C2  UNL d   1       1.502   0.356   0.013  0.00  0.00     0.162 A 
ATOM      4  C3  UNL d   1       0.150   0.553  -0.269  0.00  0.00    -0.034 A 
ATOM      5  C4  UNL d   1      -0.794  -0.311   0.289  0.00  0.00     0.162 A 
ATOM      6  C5  UNL d   1      -0.390  -1.352   1.118  0.00  0.00     0.062 A 
ATOM      7  F   UNL d   1      -1.304  -2.176   1.651  0.00  0.00    -0.097 F 
ATOM      8  F1  UNL d   1      -2.102  -0.151   0.038  0.00  0.00    -0.096 F 
ATOM      9  I   UNL d   1      -0.452   2.111  -1.510  0.00  0.00    -0.060 I 
ATOM     10  F2  UNL d   1       2.436   1.166  -0.506  0.00  0.00    -0.096 F 
ATOM     11  F3  UNL d   1       3.203  -0.867   1.110  0.00  0.00    -0.097 F 
ATOM     12  F4  UNL d   1       1.344  -2.544   2.194  0.00  0.00    -0.092 F 
ENDROOT
TORSDOF 0
ENDMDL
