MODEL 1
REMARK minimizedAffinity -1.95544529
REMARK minimizedRMSD -1
REMARK  0 active torsions:
REMARK  status: ('A' for Active; 'I' for Inactive)
ROOT
ATOM      1  C   UNL d   1       1.210  -2.093   0.808  0.00  0.00     0.124 A 
ATOM      2  C1  UNL d   1       1.906  -0.925   0.529  0.00  0.00     0.062 A 
ATOM      3  C2  UNL d   1       1.266   0.137  -0.104  0.00  0.00     0.162 A 
ATOM      4  C3  UNL d   1      -0.078   0.036  -0.463  0.00  0.00    -0.034 A 
ATOM      5  C4  UNL d   1      -0.771  -1.143  -0.181  0.00  0.00     0.162 A 
ATOM      6  C5  UNL d   1      -0.127  -2.201   0.453  0.00  0.00     0.062 A 
ATOM      7  F   UNL d   1      -0.801  -3.329   0.721  0.00  0.00    -0.097 F 
ATOM      8  F1  UNL d   1      -2.064  -1.273  -0.512  0.00  0.00    -0.096 F 
ATOM      9  I   UNL d   1      -1.038   1.621  -1.410  0.00  0.00    -0.060 I 
ATOM     10  F2  UNL d   1       1.963   1.254  -0.361  0.00  0.00    -0.096 F 
ATOM     11  F3  UNL d   1       3.198  -0.819   0.870  0.00  0.00    -0.097 F 
ATOM     12  F4  UNL d   1       1.828  -3.113   1.416  0.00  0.00    -0.092 F 
ENDROOT
TORSDOF 0
ENDMDL
