MODEL 1
REMARK minimizedAffinity 1.00848329
REMARK minimizedRMSD -1
REMARK  0 active torsions:
REMARK  status: ('A' for Active; 'I' for Inactive)
ROOT
ATOM      1  C   UNL d   1      -1.758   0.636   0.648  0.00  0.00     0.124 A 
ATOM      2  C1  UNL d   1      -1.891  -0.374   1.591  0.00  0.00     0.062 A 
ATOM      3  C2  UNL d   1      -0.903  -1.346   1.719  0.00  0.00     0.162 A 
ATOM      4  C3  UNL d   1       0.228  -1.312   0.904  0.00  0.00    -0.034 A 
ATOM      5  C4  UNL d   1       0.355  -0.293  -0.042  0.00  0.00     0.162 A 
ATOM      6  C5  UNL d   1      -0.635   0.676  -0.167  0.00  0.00     0.062 A 
ATOM      7  F   UNL d   1      -0.505   1.651  -1.078  0.00  0.00    -0.097 F 
ATOM      8  F1  UNL d   1       1.430  -0.230  -0.842  0.00  0.00    -0.096 F 
ATOM      9  I   UNL d   1       1.708  -2.763   1.094  0.00  0.00    -0.060 I 
ATOM     10  F2  UNL d   1      -1.058  -2.311   2.638  0.00  0.00    -0.096 F 
ATOM     11  F3  UNL d   1      -2.975  -0.415   2.379  0.00  0.00    -0.097 F 
ATOM     12  F4  UNL d   1      -2.710   1.570   0.526  0.00  0.00    -0.092 F 
ENDROOT
TORSDOF 0
ENDMDL
