MODEL 1
REMARK minimizedAffinity -1.91612828
REMARK minimizedRMSD -1
REMARK  0 active torsions:
REMARK  status: ('A' for Active; 'I' for Inactive)
ROOT
ATOM      1  C   UNL d   1       1.420  -2.047   0.892  0.00  0.00     0.124 A 
ATOM      2  C1  UNL d   1       0.067  -1.841   1.122  0.00  0.00     0.062 A 
ATOM      3  C2  UNL d   1      -0.582  -0.750   0.550  0.00  0.00     0.162 A 
ATOM      4  C3  UNL d   1       0.122   0.143  -0.259  0.00  0.00    -0.034 A 
ATOM      5  C4  UNL d   1       1.483  -0.071  -0.484  0.00  0.00     0.162 A 
ATOM      6  C5  UNL d   1       2.127  -1.162   0.090  0.00  0.00     0.062 A 
ATOM      7  F   UNL d   1       3.434  -1.360  -0.133  0.00  0.00    -0.097 F 
ATOM      8  F1  UNL d   1       2.190   0.768  -1.257  0.00  0.00    -0.096 F 
ATOM      9  I   UNL d   1      -0.844   1.774  -1.116  0.00  0.00    -0.060 I 
ATOM     10  F2  UNL d   1      -1.890  -0.575   0.788  0.00  0.00    -0.096 F 
ATOM     11  F3  UNL d   1      -0.618  -2.693   1.897  0.00  0.00    -0.097 F 
ATOM     12  F4  UNL d   1       2.042  -3.096   1.445  0.00  0.00    -0.092 F 
ENDROOT
TORSDOF 0
ENDMDL
