MODEL 1
REMARK minimizedAffinity -3.37875605
REMARK minimizedRMSD -1
REMARK  0 active torsions:
REMARK  status: ('A' for Active; 'I' for Inactive)
ROOT
ATOM      1  C   UNL d   1      -0.797   1.416   0.663  0.00  0.00     0.124 A 
ATOM      2  C1  UNL d   1      -1.216   0.439   1.556  0.00  0.00     0.062 A 
ATOM      3  C2  UNL d   1      -0.568  -0.792   1.600  0.00  0.00     0.162 A 
ATOM      4  C3  UNL d   1       0.507  -1.053   0.750  0.00  0.00    -0.034 A 
ATOM      5  C4  UNL d   1       0.921  -0.066  -0.145  0.00  0.00     0.162 A 
ATOM      6  C5  UNL d   1       0.271   1.163  -0.186  0.00  0.00     0.062 A 
ATOM      7  F   UNL d   1       0.677   2.106  -1.049  0.00  0.00    -0.097 F 
ATOM      8  F1  UNL d   1       1.951  -0.283  -0.977  0.00  0.00    -0.096 F 
ATOM      9  I   UNL d   1       1.478  -2.893   0.814  0.00  0.00    -0.060 I 
ATOM     10  F2  UNL d   1      -0.994  -1.718   2.473  0.00  0.00    -0.096 F 
ATOM     11  F3  UNL d   1      -2.248   0.681   2.377  0.00  0.00    -0.097 F 
ATOM     12  F4  UNL d   1      -1.423   2.600   0.622  0.00  0.00    -0.092 F 
ENDROOT
TORSDOF 0
ENDMDL
