MODEL 1
REMARK minimizedAffinity -3.60780621
REMARK minimizedRMSD -1
REMARK  0 active torsions:
REMARK  status: ('A' for Active; 'I' for Inactive)
ROOT
ATOM      1  C1  DEN d   1      -1.529  -0.079  -0.086  0.00  0.00     0.130 A 
ATOM      2  C2  DEN d   1      -0.920   0.357  -1.340  0.00  0.00    -0.031 A 
ATOM      3  C3  DEN d   1       0.544   0.391  -1.149  0.00  0.00     0.027 A 
ATOM      4  C4  DEN d   1       1.920  -0.191   0.953  0.00  0.00     0.027 A 
ATOM      5  C5  DEN d   1       1.845  -0.600   2.266  0.00  0.00    -0.003 A 
ATOM      6  C6  DEN d   1       0.649  -0.829   2.892  0.00  0.00     0.001 A 
ATOM      7  C7  DEN d   1      -0.520  -0.695   2.192  0.00  0.00     0.017 A 
ATOM      8  C8  DEN d   1      -0.453  -0.275   0.870  0.00  0.00    -0.094 A 
ATOM      9  C9  DEN d   1       0.766  -0.060   0.251  0.00  0.00    -0.072 A 
ENDROOT
TORSDOF 0
ENDMDL
