MODEL 1
REMARK minimizedAffinity -4.24255371
REMARK minimizedRMSD -1
REMARK  0 active torsions:
REMARK  status: ('A' for Active; 'I' for Inactive)
ROOT
ATOM      1  C1  DEN d   1       1.901  -0.723   1.328  0.00  0.00     0.130 A 
ATOM      2  C2  DEN d   1       1.359  -0.740   2.684  0.00  0.00    -0.031 A 
ATOM      3  C3  DEN d   1      -0.100  -0.531   2.595  0.00  0.00     0.027 A 
ATOM      4  C4  DEN d   1      -1.566  -0.190   0.501  0.00  0.00     0.027 A 
ATOM      5  C5  DEN d   1      -1.554  -0.087  -0.873  0.00  0.00    -0.003 A 
ATOM      6  C6  DEN d   1      -0.396  -0.155  -1.600  0.00  0.00     0.001 A 
ATOM      7  C7  DEN d   1       0.795  -0.375  -0.961  0.00  0.00     0.017 A 
ATOM      8  C8  DEN d   1       0.793  -0.472   0.424  0.00  0.00    -0.094 A 
ATOM      9  C9  DEN d   1      -0.390  -0.414   1.141  0.00  0.00    -0.072 A 
ENDROOT
TORSDOF 0
ENDMDL
