MODEL 1
REMARK minimizedAffinity -3.67784572
REMARK minimizedRMSD -1
REMARK  0 active torsions:
REMARK  status: ('A' for Active; 'I' for Inactive)
ROOT
ATOM      1  C1  DEN d   1       1.998  -1.742  -0.808  0.00  0.00     0.130 A 
ATOM      2  C2  DEN d   1       1.297  -1.523  -2.070  0.00  0.00    -0.031 A 
ATOM      3  C3  DEN d   1       0.004  -0.877  -1.767  0.00  0.00     0.027 A 
ATOM      4  C4  DEN d   1      -0.972  -0.193   0.520  0.00  0.00     0.027 A 
ATOM      5  C5  DEN d   1      -0.748  -0.186   1.879  0.00  0.00    -0.003 A 
ATOM      6  C6  DEN d   1       0.382  -0.723   2.436  0.00  0.00     0.001 A 
ATOM      7  C7  DEN d   1       1.353  -1.250   1.626  0.00  0.00     0.017 A 
ATOM      8  C8  DEN d   1       1.131  -1.267   0.255  0.00  0.00    -0.094 A 
ATOM      9  C9  DEN d   1      -0.012  -0.708  -0.289  0.00  0.00    -0.072 A 
ENDROOT
TORSDOF 0
ENDMDL
