MODEL 1
REMARK minimizedAffinity -5.78574848
REMARK minimizedRMSD -1
REMARK  0 active torsions:
REMARK  status: ('A' for Active; 'I' for Inactive)
ROOT
ATOM      1  C1  DEN d   1       0.300   1.108  -0.421  0.00  0.00     0.130 A 
ATOM      2  C2  DEN d   1      -0.709   0.307  -1.109  0.00  0.00    -0.031 A 
ATOM      3  C3  DEN d   1      -1.019  -0.862  -0.261  0.00  0.00     0.027 A 
ATOM      4  C4  DEN d   1      -0.044  -1.503   2.039  0.00  0.00     0.027 A 
ATOM      5  C5  DEN d   1       0.850  -1.137   3.021  0.00  0.00    -0.003 A 
ATOM      6  C6  DEN d   1       1.641  -0.025   2.910  0.00  0.00     0.001 A 
ATOM      7  C7  DEN d   1       1.522   0.787   1.812  0.00  0.00     0.017 A 
ATOM      8  C8  DEN d   1       0.628   0.420   0.815  0.00  0.00    -0.094 A 
ATOM      9  C9  DEN d   1      -0.172  -0.701   0.952  0.00  0.00    -0.072 A 
ENDROOT
TORSDOF 0
ENDMDL
