MODEL 1
REMARK minimizedAffinity 7.81633806
REMARK minimizedRMSD -1
REMARK  0 active torsions:
REMARK  status: ('A' for Active; 'I' for Inactive)
ROOT
ATOM      1  C   UNL d   1       2.385   5.081   0.002  0.00  0.00     0.023 A 
ATOM      2  C1  UNL d   1       1.085   4.719   0.354  0.00  0.00     0.003 A 
ATOM      3  C2  UNL d   1       0.859   3.556   1.094  0.00  0.00     0.048 A 
ATOM      4  C3  UNL d   1       1.938   2.761   1.480  0.00  0.00     0.023 A 
ATOM      5  C4  UNL d   1       3.241   3.120   1.130  0.00  0.00     0.048 A 
ATOM      6  C5  UNL d   1       3.462   4.283   0.390  0.00  0.00     0.003 A 
ATOM      7  I   UNL d   1       1.604   1.031   2.582  0.00  0.00    -0.146 I 
ENDROOT
TORSDOF 0
ENDMDL
