MODEL 1
REMARK minimizedAffinity 5.59747982
REMARK minimizedRMSD -1
REMARK  0 active torsions:
REMARK  status: ('A' for Active; 'I' for Inactive)
ROOT
ATOM      1  C   UNL d   1       3.306  -5.907  -1.373  0.00  0.00     0.023 A 
ATOM      2  C1  UNL d   1       2.388  -5.969  -2.422  0.00  0.00     0.003 A 
ATOM      3  C2  UNL d   1       2.838  -5.995  -3.744  0.00  0.00     0.048 A 
ATOM      4  C3  UNL d   1       4.206  -5.960  -4.010  0.00  0.00     0.023 A 
ATOM      5  C4  UNL d   1       5.128  -5.898  -2.963  0.00  0.00     0.048 A 
ATOM      6  C5  UNL d   1       4.674  -5.871  -1.643  0.00  0.00     0.003 A 
ATOM      7  I   UNL d   1       4.877  -5.999  -5.976  0.00  0.00    -0.146 I 
ENDROOT
TORSDOF 0
ENDMDL
