MODEL 1
REMARK minimizedAffinity 4.6792202
REMARK minimizedRMSD -1
REMARK  0 active torsions:
REMARK  status: ('A' for Active; 'I' for Inactive)
ROOT
ATOM      1  C   UNL d   1       3.446  -2.196   4.027  0.00  0.00     0.023 A 
ATOM      2  C1  UNL d   1       3.682  -1.119   3.173  0.00  0.00     0.003 A 
ATOM      3  C2  UNL d   1       2.728  -0.761   2.218  0.00  0.00     0.048 A 
ATOM      4  C3  UNL d   1       1.540  -1.484   2.123  0.00  0.00     0.023 A 
ATOM      5  C4  UNL d   1       1.298  -2.562   2.977  0.00  0.00     0.048 A 
ATOM      6  C5  UNL d   1       2.255  -2.916   3.929  0.00  0.00     0.003 A 
ATOM      7  I   UNL d   1       0.118  -0.954   0.702  0.00  0.00    -0.146 I 
ENDROOT
TORSDOF 0
ENDMDL
