MODEL 1
REMARK minimizedAffinity 1.06267834
REMARK minimizedRMSD -1
REMARK  0 active torsions:
REMARK  status: ('A' for Active; 'I' for Inactive)
ROOT
ATOM      1  C   UNL d   1       2.158  -3.159   4.469  0.00  0.00     0.023 A 
ATOM      2  C1  UNL d   1       2.033  -3.337   3.091  0.00  0.00     0.003 A 
ATOM      3  C2  UNL d   1       2.290  -2.275   2.221  0.00  0.00     0.048 A 
ATOM      4  C3  UNL d   1       2.673  -1.037   2.736  0.00  0.00     0.023 A 
ATOM      5  C4  UNL d   1       2.800  -0.854   4.114  0.00  0.00     0.048 A 
ATOM      6  C5  UNL d   1       2.541  -1.919   4.980  0.00  0.00     0.003 A 
ATOM      7  I   UNL d   1       3.056   0.545   1.445  0.00  0.00    -0.146 I 
ENDROOT
TORSDOF 0
ENDMDL
