MODEL 1
REMARK minimizedAffinity 7.23189831
REMARK minimizedRMSD -1
REMARK  0 active torsions:
REMARK  status: ('A' for Active; 'I' for Inactive)
ROOT
ATOM      1  C   UNL d   1       3.147  -0.377   2.534  0.00  0.00     0.023 A 
ATOM      2  C1  UNL d   1       1.850  -0.753   2.881  0.00  0.00     0.003 A 
ATOM      3  C2  UNL d   1       1.638  -1.880   3.678  0.00  0.00     0.048 A 
ATOM      4  C3  UNL d   1       2.728  -2.626   4.126  0.00  0.00     0.023 A 
ATOM      5  C4  UNL d   1       4.028  -2.253   3.781  0.00  0.00     0.048 A 
ATOM      6  C5  UNL d   1       4.235  -1.126   2.983  0.00  0.00     0.003 A 
ATOM      7  I   UNL d   1       2.415  -4.303   5.312  0.00  0.00    -0.146 I 
ENDROOT
TORSDOF 0
ENDMDL
