MODEL 1
REMARK minimizedAffinity 1.69175315
REMARK minimizedRMSD -1
REMARK  0 active torsions:
REMARK  status: ('A' for Active; 'I' for Inactive)
ROOT
ATOM      1  C   UNL d   1       1.134   4.330  -0.743  0.00  0.00     0.023 A 
ATOM      2  C1  UNL d   1       2.293   3.634  -1.086  0.00  0.00     0.003 A 
ATOM      3  C2  UNL d   1       2.697   2.533  -0.327  0.00  0.00     0.048 A 
ATOM      4  C3  UNL d   1       1.937   2.134   0.771  0.00  0.00     0.023 A 
ATOM      5  C4  UNL d   1       0.776   2.828   1.117  0.00  0.00     0.048 A 
ATOM      6  C5  UNL d   1       0.377   3.928   0.357  0.00  0.00     0.003 A 
ATOM      7  I   UNL d   1       2.537   0.496   1.901  0.00  0.00    -0.146 I 
ENDROOT
TORSDOF 0
ENDMDL
