MODEL 1
REMARK minimizedAffinity 9.77661133
REMARK minimizedRMSD -1
REMARK  0 active torsions:
REMARK  status: ('A' for Active; 'I' for Inactive)
ROOT
ATOM      1  C   UNL d   1       3.040   2.191   1.929  0.00  0.00     0.023 A 
ATOM      2  C1  UNL d   1       3.182   1.007   1.205  0.00  0.00     0.003 A 
ATOM      3  C2  UNL d   1       2.897  -0.220   1.807  0.00  0.00     0.048 A 
ATOM      4  C3  UNL d   1       2.470  -0.257   3.134  0.00  0.00     0.023 A 
ATOM      5  C4  UNL d   1       2.326   0.925   3.863  0.00  0.00     0.048 A 
ATOM      6  C5  UNL d   1       2.613   2.150   3.257  0.00  0.00     0.003 A 
ATOM      7  I   UNL d   1       2.045  -2.082   4.032  0.00  0.00    -0.146 I 
ENDROOT
TORSDOF 0
ENDMDL
