MODEL 1
REMARK minimizedAffinity 13.8923283
REMARK minimizedRMSD -1
REMARK  0 active torsions:
REMARK  status: ('A' for Active; 'I' for Inactive)
ROOT
ATOM      1  C   UNL d   1      -1.666  -1.880  -0.671  0.00  0.00     0.023 A 
ATOM      2  C1  UNL d   1      -1.459  -1.033  -1.760  0.00  0.00     0.003 A 
ATOM      3  C2  UNL d   1      -2.234  -1.173  -2.913  0.00  0.00     0.048 A 
ATOM      4  C3  UNL d   1      -3.216  -2.162  -2.970  0.00  0.00     0.023 A 
ATOM      5  C4  UNL d   1      -3.428  -3.011  -1.883  0.00  0.00     0.048 A 
ATOM      6  C5  UNL d   1      -2.649  -2.868  -0.733  0.00  0.00     0.003 A 
ATOM      7  I   UNL d   1      -4.372  -2.372  -4.684  0.00  0.00    -0.146 I 
ENDROOT
TORSDOF 0
ENDMDL
