MODEL 1
REMARK minimizedAffinity 6.67394686
REMARK minimizedRMSD -1
REMARK  0 active torsions:
REMARK  status: ('A' for Active; 'I' for Inactive)
ROOT
ATOM      1  C   UNL d   1      -6.000   2.860   2.587  0.00  0.00     0.023 A 
ATOM      2  C1  UNL d   1      -4.884   2.592   3.381  0.00  0.00     0.003 A 
ATOM      3  C2  UNL d   1      -3.600   2.830   2.886  0.00  0.00     0.048 A 
ATOM      4  C3  UNL d   1      -3.440   3.337   1.597  0.00  0.00     0.023 A 
ATOM      5  C4  UNL d   1      -4.553   3.608   0.800  0.00  0.00     0.048 A 
ATOM      6  C5  UNL d   1      -5.835   3.367   1.299  0.00  0.00     0.003 A 
ATOM      7  I   UNL d   1      -1.530   3.693   0.857  0.00  0.00    -0.146 I 
ENDROOT
TORSDOF 0
ENDMDL
