MODEL 1
REMARK minimizedAffinity 5.85719585
REMARK minimizedRMSD -1
REMARK  1 active torsions:
REMARK  status: ('A' for Active; 'I' for Inactive)
REMARK    1  A    between atoms: C1_2  and  C2_3 
ROOT
ATOM      1  C2  UNL d   1       0.658  -1.040  -0.087  0.00  0.00    -0.076 A 
ATOM      2  C3  UNL d   1       0.840   0.284   0.347  0.00  0.00     0.004 A 
ATOM      3  C4  UNL d   1      -0.074   1.281   0.011  0.00  0.00    -0.003 A 
ATOM      4  C5  UNL d   1      -1.186   0.970  -0.763  0.00  0.00     0.000 A 
ATOM      5  C6  UNL d   1      -1.392  -0.342  -1.188  0.00  0.00     0.000 A 
ATOM      6  C7  UNL d   1      -0.489  -1.363  -0.844  0.00  0.00    -0.073 A 
ATOM      7  C8  UNL d   1      -0.757  -2.759  -1.334  0.00  0.00     0.078 C 
ENDROOT
BRANCH   1   8
ATOM      8  C1  UNL d   1       1.697  -2.074   0.286  0.00  0.00     0.053 C 
ATOM      9  C   UNL d   1       2.737  -2.273  -0.805  0.00  0.00     0.018 C 
ENDBRANCH   1   8
TORSDOF 1
ENDMDL
