MODEL 1
REMARK minimizedAffinity 3.23243046
REMARK minimizedRMSD -1
REMARK  1 active torsions:
REMARK  status: ('A' for Active; 'I' for Inactive)
REMARK    1  A    between atoms: C1_2  and  C2_3 
ROOT
ATOM      1  C2  UNL d   1       1.060  -1.506  -0.108  0.00  0.00    -0.076 A 
ATOM      2  C3  UNL d   1       1.359  -0.139   0.022  0.00  0.00     0.004 A 
ATOM      3  C4  UNL d   1       0.400   0.835  -0.253  0.00  0.00    -0.003 A 
ATOM      4  C5  UNL d   1      -0.874   0.457  -0.663  0.00  0.00     0.000 A 
ATOM      5  C6  UNL d   1      -1.193  -0.895  -0.781  0.00  0.00     0.000 A 
ATOM      6  C7  UNL d   1      -0.243  -1.890  -0.491  0.00  0.00    -0.073 A 
ATOM      7  C8  UNL d   1      -0.640  -3.333  -0.641  0.00  0.00     0.078 C 
ENDROOT
BRANCH   1   8
ATOM      8  C1  UNL d   1       2.148  -2.516   0.178  0.00  0.00     0.053 C 
ATOM      9  C   UNL d   1       3.176  -2.597  -0.940  0.00  0.00     0.018 C 
ENDBRANCH   1   8
TORSDOF 1
ENDMDL
