MODEL 1
REMARK minimizedAffinity 6.50503445
REMARK minimizedRMSD -1
REMARK  1 active torsions:
REMARK  status: ('A' for Active; 'I' for Inactive)
REMARK    1  A    between atoms: C1_2  and  C2_3 
ROOT
ATOM      1  C2  UNL d   1      -0.943  -1.886  -2.258  0.00  0.00    -0.076 A 
ATOM      2  C3  UNL d   1      -0.220  -3.014  -1.831  0.00  0.00     0.004 A 
ATOM      3  C4  UNL d   1       0.399  -3.038  -0.582  0.00  0.00    -0.003 A 
ATOM      4  C5  UNL d   1       0.305  -1.935   0.260  0.00  0.00     0.000 A 
ATOM      5  C6  UNL d   1      -0.423  -0.815  -0.140  0.00  0.00     0.000 A 
ATOM      6  C7  UNL d   1      -1.067  -0.781  -1.389  0.00  0.00    -0.073 A 
ATOM      7  C8  UNL d   1      -1.834   0.455  -1.772  0.00  0.00     0.078 C 
ENDROOT
BRANCH   1   8
ATOM      8  C1  UNL d   1      -1.571  -1.907  -3.633  0.00  0.00     0.053 C 
ATOM      9  C   UNL d   1      -1.490  -3.276  -4.290  0.00  0.00     0.018 C 
ENDBRANCH   1   8
TORSDOF 1
ENDMDL
