MODEL 1
REMARK minimizedAffinity -3.07351494
REMARK minimizedRMSD -1
REMARK  1 active torsions:
REMARK  status: ('A' for Active; 'I' for Inactive)
REMARK    1  A    between atoms: C1_2  and  C2_3 
ROOT
ATOM      1  C2  UNL d   1       1.571   0.054  -0.153  0.00  0.00    -0.076 A 
ATOM      2  C3  UNL d   1       1.463   1.453  -0.071  0.00  0.00     0.004 A 
ATOM      3  C4  UNL d   1       2.593   2.265  -0.144  0.00  0.00    -0.003 A 
ATOM      4  C5  UNL d   1       3.850   1.691  -0.300  0.00  0.00     0.000 A 
ATOM      5  C6  UNL d   1       3.974   0.306  -0.400  0.00  0.00     0.000 A 
ATOM      6  C7  UNL d   1       2.843  -0.526  -0.345  0.00  0.00    -0.073 A 
ATOM      7  C8  UNL d   1       3.035  -2.014  -0.453  0.00  0.00     0.078 C 
ENDROOT
BRANCH   1   8
ATOM      8  C1  UNL d   1       0.313  -0.777  -0.041  0.00  0.00     0.053 C 
ATOM      9  C   UNL d   1      -0.932   0.074   0.161  0.00  0.00     0.018 C 
ENDBRANCH   1   8
TORSDOF 1
ENDMDL
