MODEL 1
REMARK minimizedAffinity -4.52483702
REMARK minimizedRMSD -1
REMARK  1 active torsions:
REMARK  status: ('A' for Active; 'I' for Inactive)
REMARK    1  A    between atoms: C3_4  and  O_7 
ROOT
ATOM      1  C   UNL d   1      -1.920   0.296  -5.053  0.00  0.00    -0.033 A 
ATOM      2  C1  UNL d   1      -1.210  -0.887  -5.271  0.00  0.00     0.039 A 
ATOM      3  C2  UNL d   1       0.185  -0.866  -5.325  0.00  0.00    -0.080 A 
ATOM      4  C3  UNL d   1       0.858   0.341  -5.158  0.00  0.00     0.150 A 
ATOM      5  C4  UNL d   1       0.157   1.522  -4.937  0.00  0.00    -0.007 A 
ATOM      6  C5  UNL d   1      -1.236   1.500  -4.885  0.00  0.00     0.039 A 
ENDROOT
BRANCH   4   7
ATOM      7  O   UNL d   1       2.218   0.411  -5.207  0.00  0.00    -0.526 OA
ATOM      8  H5  UNL d   1       2.566  -0.476  -5.395  0.00  0.00     0.418 HD
ENDBRANCH   4   7
TORSDOF 1
ENDMDL
