MODEL 1
REMARK minimizedAffinity -3.88432431
REMARK minimizedRMSD -1
REMARK  1 active torsions:
REMARK  status: ('A' for Active; 'I' for Inactive)
REMARK    1  A    between atoms: C3_4  and  O_7 
ROOT
ATOM      1  C   UNL d   1      -1.008  -0.632  -4.104  0.00  0.00    -0.033 A 
ATOM      2  C1  UNL d   1      -0.062  -1.609  -3.786  0.00  0.00     0.039 A 
ATOM      3  C2  UNL d   1       1.261  -1.467  -4.207  0.00  0.00    -0.080 A 
ATOM      4  C3  UNL d   1       1.626  -0.344  -4.944  0.00  0.00     0.150 A 
ATOM      5  C4  UNL d   1       0.691   0.636  -5.262  0.00  0.00    -0.007 A 
ATOM      6  C5  UNL d   1      -0.631   0.491  -4.841  0.00  0.00     0.039 A 
ENDROOT
BRANCH   4   7
ATOM      7  O   UNL d   1       2.905  -0.163  -5.381  0.00  0.00    -0.526 OA
ATOM      8  H5  UNL d   1       3.434  -0.933  -5.112  0.00  0.00     0.418 HD
ENDBRANCH   4   7
TORSDOF 1
ENDMDL
