MODEL 1
REMARK minimizedAffinity 3.38622737
REMARK minimizedRMSD -1
REMARK  1 active torsions:
REMARK  status: ('A' for Active; 'I' for Inactive)
REMARK    1  A    between atoms: C3_4  and  O_7 
ROOT
ATOM      1  C   UNL d   1      -0.032  -2.003  -3.761  0.00  0.00    -0.033 A 
ATOM      2  C1  UNL d   1      -0.060  -1.810  -5.144  0.00  0.00     0.039 A 
ATOM      3  C2  UNL d   1      -0.764  -0.733  -5.686  0.00  0.00    -0.080 A 
ATOM      4  C3  UNL d   1      -1.434   0.143  -4.836  0.00  0.00     0.150 A 
ATOM      5  C4  UNL d   1      -1.408  -0.042  -3.458  0.00  0.00    -0.007 A 
ATOM      6  C5  UNL d   1      -0.705  -1.118  -2.918  0.00  0.00     0.039 A 
ENDROOT
BRANCH   4   7
ATOM      7  O   UNL d   1      -2.138   1.205  -5.319  0.00  0.00    -0.526 OA
ATOM      8  H5  UNL d   1      -2.091   1.190  -6.290  0.00  0.00     0.418 HD
ENDBRANCH   4   7
TORSDOF 1
ENDMDL
