MODEL 1
REMARK minimizedAffinity -4.98984098
REMARK minimizedRMSD -1
REMARK  0 active torsions:
REMARK  status: ('A' for Active; 'I' for Inactive)
ROOT
ATOM      1  C   UNL d   1      -3.189  -0.905   2.250  0.00  0.00    -0.002 A 
ATOM      2  C1  UNL d   1      -3.003   0.418   1.875  0.00  0.00     0.010 A 
ATOM      3  C2  UNL d   1      -1.875   0.799   1.146  0.00  0.00     0.041 A 
ATOM      4  C3  UNL d   1      -0.927  -0.183   0.795  0.00  0.00    -0.075 A 
ATOM      5  S   UNL d   1       0.530   0.050  -0.096  0.00  0.00     0.015 SA
ATOM      6  C4  UNL d   1       0.941  -1.601  -0.000  0.00  0.00     0.022 A 
ATOM      7  C5  UNL d   1       0.000  -2.327   0.691  0.00  0.00     0.026 A 
ATOM      8  C6  UNL d   1      -1.092  -1.522   1.161  0.00  0.00    -0.082 A 
ATOM      9  C7  UNL d   1      -2.246  -1.876   1.900  0.00  0.00     0.045 A 
ENDROOT
TORSDOF 0
ENDMDL
