MODEL 1
REMARK minimizedAffinity -3.8749783
REMARK minimizedRMSD -1
REMARK  0 active torsions:
REMARK  status: ('A' for Active; 'I' for Inactive)
ROOT
ATOM      1  C   UNL d   1      -0.671  -2.940   1.453  0.00  0.00    -0.002 A 
ATOM      2  C1  UNL d   1      -1.862  -2.237   1.570  0.00  0.00     0.010 A 
ATOM      3  C2  UNL d   1      -1.953  -0.915   1.129  0.00  0.00     0.041 A 
ATOM      4  C3  UNL d   1      -0.816  -0.307   0.560  0.00  0.00    -0.075 A 
ATOM      5  S   UNL d   1      -0.694   1.301  -0.050  0.00  0.00     0.015 SA
ATOM      6  C4  UNL d   1       0.942   1.092  -0.482  0.00  0.00     0.022 A 
ATOM      7  C5  UNL d   1       1.399  -0.168  -0.175  0.00  0.00     0.026 A 
ATOM      8  C6  UNL d   1       0.393  -0.995   0.430  0.00  0.00    -0.082 A 
ATOM      9  C7  UNL d   1       0.454  -2.333   0.888  0.00  0.00     0.045 A 
ENDROOT
TORSDOF 0
ENDMDL
