MODEL 1
REMARK minimizedAffinity -3.00600624
REMARK minimizedRMSD -1
REMARK  0 active torsions:
REMARK  status: ('A' for Active; 'I' for Inactive)
ROOT
ATOM      1  C   UNL d   1      -0.479  -2.585   0.271  0.00  0.00    -0.002 A 
ATOM      2  C1  UNL d   1      -1.381  -1.897   1.071  0.00  0.00     0.010 A 
ATOM      3  C2  UNL d   1      -1.418  -0.501   1.061  0.00  0.00     0.041 A 
ATOM      4  C3  UNL d   1      -0.526   0.199   0.225  0.00  0.00    -0.075 A 
ATOM      5  S   UNL d   1      -0.391   1.908   0.047  0.00  0.00     0.015 SA
ATOM      6  C4  UNL d   1       0.866   1.766  -1.094  0.00  0.00     0.022 A 
ATOM      7  C5  UNL d   1       1.189   0.453  -1.345  0.00  0.00     0.026 A 
ATOM      8  C6  UNL d   1       0.391  -0.472  -0.590  0.00  0.00    -0.082 A 
ATOM      9  C7  UNL d   1       0.405  -1.887  -0.557  0.00  0.00     0.045 A 
ENDROOT
TORSDOF 0
ENDMDL
