MODEL 1
REMARK minimizedAffinity 0.120953768
REMARK minimizedRMSD -1
REMARK  0 active torsions:
REMARK  status: ('A' for Active; 'I' for Inactive)
ROOT
ATOM      1  C   UNL d   1       0.279  -2.641   1.522  0.00  0.00    -0.002 A 
ATOM      2  C1  UNL d   1       1.550  -2.213   1.166  0.00  0.00     0.010 A 
ATOM      3  C2  UNL d   1       1.738  -0.961   0.575  0.00  0.00     0.041 A 
ATOM      4  C3  UNL d   1       0.617  -0.139   0.348  0.00  0.00    -0.075 A 
ATOM      5  S   UNL d   1       0.607   1.432  -0.360  0.00  0.00     0.015 SA
ATOM      6  C4  UNL d   1      -1.084   1.573  -0.206  0.00  0.00     0.022 A 
ATOM      7  C5  UNL d   1      -1.644   0.457   0.369  0.00  0.00     0.026 A 
ATOM      8  C6  UNL d   1      -0.673  -0.548   0.699  0.00  0.00    -0.082 A 
ATOM      9  C7  UNL d   1      -0.831  -1.822   1.295  0.00  0.00     0.045 A 
ENDROOT
TORSDOF 0
ENDMDL
