MODEL 1
REMARK minimizedAffinity -0.211123154
REMARK minimizedRMSD -1
REMARK  0 active torsions:
REMARK  status: ('A' for Active; 'I' for Inactive)
ROOT
ATOM      1  C   UNL d   1      -1.787  -2.524   1.441  0.00  0.00    -0.002 A 
ATOM      2  C1  UNL d   1      -2.577  -1.859   0.513  0.00  0.00     0.010 A 
ATOM      3  C2  UNL d   1      -2.076  -0.762  -0.190  0.00  0.00     0.041 A 
ATOM      4  C3  UNL d   1      -0.755  -0.341   0.056  0.00  0.00    -0.075 A 
ATOM      5  S   UNL d   1       0.071   0.977  -0.687  0.00  0.00     0.015 SA
ATOM      6  C4  UNL d   1       1.493   0.689   0.208  0.00  0.00     0.022 A 
ATOM      7  C5  UNL d   1       1.358  -0.383   1.059  0.00  0.00     0.026 A 
ATOM      8  C6  UNL d   1       0.060  -0.994   0.985  0.00  0.00    -0.082 A 
ATOM      9  C7  UNL d   1      -0.477  -2.103   1.682  0.00  0.00     0.045 A 
ENDROOT
TORSDOF 0
ENDMDL
