MODEL 1
REMARK minimizedAffinity 0.922465622
REMARK minimizedRMSD -1
REMARK  0 active torsions:
REMARK  status: ('A' for Active; 'I' for Inactive)
ROOT
ATOM      1  C   UNL d   1      -0.209   0.928  -0.535  0.00  0.00    -0.002 A 
ATOM      2  C1  UNL d   1       1.085   0.637  -0.127  0.00  0.00     0.010 A 
ATOM      3  C2  UNL d   1       1.352  -0.512   0.620  0.00  0.00     0.041 A 
ATOM      4  C3  UNL d   1       0.287  -1.373   0.951  0.00  0.00    -0.075 A 
ATOM      5  S   UNL d   1       0.377  -2.837   1.857  0.00  0.00     0.015 SA
ATOM      6  C4  UNL d   1      -1.299  -3.111   1.723  0.00  0.00     0.022 A 
ATOM      7  C5  UNL d   1      -1.928  -2.119   1.008  0.00  0.00     0.026 A 
ATOM      8  C6  UNL d   1      -1.024  -1.101   0.551  0.00  0.00    -0.082 A 
ATOM      9  C7  UNL d   1      -1.263   0.072  -0.204  0.00  0.00     0.045 A 
ENDROOT
TORSDOF 0
ENDMDL
