MODEL 1
REMARK minimizedAffinity -2.61027479
REMARK minimizedRMSD -1
REMARK  0 active torsions:
REMARK  status: ('A' for Active; 'I' for Inactive)
ROOT
ATOM      1  C   UNL d   1       0.268   2.257  -0.213  0.00  0.00    -0.002 A 
ATOM      2  C1  UNL d   1      -0.940   2.173   0.464  0.00  0.00     0.010 A 
ATOM      3  C2  UNL d   1      -1.439   0.935   0.874  0.00  0.00     0.041 A 
ATOM      4  C3  UNL d   1      -0.695  -0.227   0.592  0.00  0.00    -0.075 A 
ATOM      5  S   UNL d   1      -1.109  -1.851   0.999  0.00  0.00     0.015 SA
ATOM      6  C4  UNL d   1       0.309  -2.470   0.285  0.00  0.00     0.022 A 
ATOM      7  C5  UNL d   1       1.090  -1.477  -0.256  0.00  0.00     0.026 A 
ATOM      8  C6  UNL d   1       0.525  -0.168  -0.088  0.00  0.00    -0.082 A 
ATOM      9  C7  UNL d   1       1.004   1.102  -0.492  0.00  0.00     0.045 A 
ENDROOT
TORSDOF 0
ENDMDL
