MODEL 1
REMARK minimizedAffinity -3.75893784
REMARK minimizedRMSD -1
REMARK  0 active torsions:
REMARK  status: ('A' for Active; 'I' for Inactive)
ROOT
ATOM      1  C   UNL d   1      -2.328  -0.376   2.419  0.00  0.00    -0.002 A 
ATOM      2  C1  UNL d   1      -1.717  -1.622   2.447  0.00  0.00     0.010 A 
ATOM      3  C2  UNL d   1      -0.561  -1.864   1.703  0.00  0.00     0.041 A 
ATOM      4  C3  UNL d   1      -0.022  -0.821   0.924  0.00  0.00    -0.075 A 
ATOM      5  S   UNL d   1       1.387  -0.886  -0.067  0.00  0.00     0.015 SA
ATOM      6  C4  UNL d   1       1.213   0.740  -0.551  0.00  0.00     0.022 A 
ATOM      7  C5  UNL d   1       0.112   1.332   0.021  0.00  0.00     0.026 A 
ATOM      8  C6  UNL d   1      -0.618   0.443   0.880  0.00  0.00    -0.082 A 
ATOM      9  C7  UNL d   1      -1.790   0.656   1.645  0.00  0.00     0.045 A 
ENDROOT
TORSDOF 0
ENDMDL
