MODEL 1
REMARK minimizedAffinity 1.27996147
REMARK minimizedRMSD -1
REMARK  0 active torsions:
REMARK  status: ('A' for Active; 'I' for Inactive)
ROOT
ATOM      1  C   UNL d   1       0.262  -2.601   1.136  0.00  0.00    -0.002 A 
ATOM      2  C1  UNL d   1       1.424  -2.570   0.378  0.00  0.00     0.010 A 
ATOM      3  C2  UNL d   1       1.803  -1.406  -0.294  0.00  0.00     0.041 A 
ATOM      4  C3  UNL d   1       0.987  -0.262  -0.189  0.00  0.00    -0.075 A 
ATOM      5  S   UNL d   1       1.252   1.275  -0.924  0.00  0.00     0.015 SA
ATOM      6  C4  UNL d   1      -0.171   1.926  -0.249  0.00  0.00     0.022 A 
ATOM      7  C5  UNL d   1      -0.844   1.008   0.521  0.00  0.00     0.026 A 
ATOM      8  C6  UNL d   1      -0.187  -0.269   0.569  0.00  0.00    -0.082 A 
ATOM      9  C7  UNL d   1      -0.545  -1.464   1.238  0.00  0.00     0.045 A 
ENDROOT
TORSDOF 0
ENDMDL
