MODEL 1
REMARK minimizedAffinity -2.12884283
REMARK minimizedRMSD -1
REMARK  0 active torsions:
REMARK  status: ('A' for Active; 'I' for Inactive)
ROOT
ATOM      1  C   UNL d   1      -0.279  -2.627   1.401  0.00  0.00    -0.002 A 
ATOM      2  C1  UNL d   1      -1.575  -2.152   1.539  0.00  0.00     0.010 A 
ATOM      3  C2  UNL d   1      -1.929  -0.895   1.043  0.00  0.00     0.041 A 
ATOM      4  C3  UNL d   1      -0.948  -0.118   0.396  0.00  0.00    -0.075 A 
ATOM      5  S   UNL d   1      -1.151   1.450  -0.292  0.00  0.00     0.015 SA
ATOM      6  C4  UNL d   1       0.478   1.526  -0.787  0.00  0.00     0.022 A 
ATOM      7  C5  UNL d   1       1.175   0.391  -0.443  0.00  0.00     0.026 A 
ATOM      8  C6  UNL d   1       0.364  -0.575   0.244  0.00  0.00    -0.082 A 
ATOM      9  C7  UNL d   1       0.691  -1.852   0.759  0.00  0.00     0.045 A 
ENDROOT
TORSDOF 0
ENDMDL
