MODEL 1
REMARK minimizedAffinity -3.40656662
REMARK minimizedRMSD -1
REMARK  0 active torsions:
REMARK  status: ('A' for Active; 'I' for Inactive)
ROOT
ATOM      1  C   UNL d   1      -2.401  -1.070   2.339  0.00  0.00    -0.002 A 
ATOM      2  C1  UNL d   1      -2.761   0.234   2.030  0.00  0.00     0.010 A 
ATOM      3  C2  UNL d   1      -1.924   1.037   1.254  0.00  0.00     0.041 A 
ATOM      4  C3  UNL d   1      -0.708   0.502   0.786  0.00  0.00    -0.075 A 
ATOM      5  S   UNL d   1       0.475   1.300  -0.182  0.00  0.00     0.015 SA
ATOM      6  C4  UNL d   1       1.486  -0.071  -0.210  0.00  0.00     0.022 A 
ATOM      7  C5  UNL d   1       0.950  -1.122   0.497  0.00  0.00     0.026 A 
ATOM      8  C6  UNL d   1      -0.324  -0.808   1.082  0.00  0.00    -0.082 A 
ATOM      9  C7  UNL d   1      -1.194  -1.597   1.873  0.00  0.00     0.045 A 
ENDROOT
TORSDOF 0
ENDMDL
