MODEL 1
REMARK minimizedAffinity 2.0793438
REMARK minimizedRMSD -1
REMARK  1 active torsions:
REMARK  status: ('A' for Active; 'I' for Inactive)
REMARK    1  A    between atoms: N_2  and  C1_3 
ROOT
ATOM      1  C1  UNL d   1       2.004  -0.602   1.805  0.00  0.00     0.143 A 
ATOM      2  C2  UNL d   1       1.846  -1.140   0.523  0.00  0.00    -0.057 A 
ATOM      3  C3  UNL d   1       0.577  -1.306  -0.043  0.00  0.00     0.033 A 
ATOM      4  C4  UNL d   1      -0.563  -0.963   0.676  0.00  0.00    -0.042 A 
ATOM      5  C5  UNL d   1      -0.431  -0.450   1.962  0.00  0.00     0.033 A 
ATOM      6  C6  UNL d   1       0.839  -0.280   2.520  0.00  0.00    -0.057 A 
ENDROOT
BRANCH   1   7
ATOM      7  N   UNL d   1       3.233  -0.504   2.462  0.00  0.00    -0.732 N 
ATOM      8  C   UNL d   1       4.402  -1.183   1.944  0.00  0.00     0.284 C 
ATOM      9  H3  UNL d   1       3.417   0.436   2.804  0.00  0.00     0.395 HD
ENDBRANCH   1   7
TORSDOF 1
ENDMDL
