MODEL 1
REMARK minimizedAffinity -0.377583712
REMARK minimizedRMSD -1
REMARK  1 active torsions:
REMARK  status: ('A' for Active; 'I' for Inactive)
REMARK    1  A    between atoms: N_2  and  C1_3 
ROOT
ATOM      1  C1  UNL d   1       2.678  -3.851  -0.156  0.00  0.00     0.143 A 
ATOM      2  C2  UNL d   1       3.152  -2.624   0.320  0.00  0.00    -0.057 A 
ATOM      3  C3  UNL d   1       2.276  -1.576   0.626  0.00  0.00     0.033 A 
ATOM      4  C4  UNL d   1       0.907  -1.728   0.435  0.00  0.00    -0.042 A 
ATOM      5  C5  UNL d   1       0.414  -2.930  -0.061  0.00  0.00     0.033 A 
ATOM      6  C6  UNL d   1       1.294  -3.975  -0.359  0.00  0.00    -0.057 A 
ENDROOT
BRANCH   1   7
ATOM      7  N   UNL d   1       3.505  -4.897  -0.572  0.00  0.00    -0.732 N 
ATOM      8  C   UNL d   1       4.336  -5.603   0.380  0.00  0.00     0.284 C 
ATOM      9  H3  UNL d   1       3.055  -5.499  -1.258  0.00  0.00     0.395 HD
ENDBRANCH   1   7
TORSDOF 1
ENDMDL
