MODEL 1
REMARK minimizedAffinity -2.00284863
REMARK minimizedRMSD -1
REMARK  1 active torsions:
REMARK  status: ('A' for Active; 'I' for Inactive)
REMARK    1  A    between atoms: N_2  and  C1_3 
ROOT
ATOM      1  C1  UNL d   1       5.060   5.204  -0.554  0.00  0.00     0.143 A 
ATOM      2  C2  UNL d   1       5.391   5.337   0.798  0.00  0.00    -0.057 A 
ATOM      3  C3  UNL d   1       4.432   5.713   1.747  0.00  0.00     0.033 A 
ATOM      4  C4  UNL d   1       3.127   5.991   1.353  0.00  0.00    -0.042 A 
ATOM      5  C5  UNL d   1       2.781   5.890   0.010  0.00  0.00     0.033 A 
ATOM      6  C6  UNL d   1       3.742   5.508  -0.931  0.00  0.00    -0.057 A 
ENDROOT
BRANCH   1   7
ATOM      7  N   UNL d   1       5.990   4.930  -1.560  0.00  0.00    -0.732 N 
ATOM      8  C   UNL d   1       5.993   3.649  -2.232  0.00  0.00     0.284 C 
ATOM      9  H3  UNL d   1       6.140   5.725  -2.178  0.00  0.00     0.395 HD
ENDBRANCH   1   7
TORSDOF 1
ENDMDL
