MODEL 1
REMARK minimizedAffinity 3.7457757
REMARK minimizedRMSD -1
REMARK  1 active torsions:
REMARK  status: ('A' for Active; 'I' for Inactive)
REMARK    1  A    between atoms: N_2  and  C1_3 
ROOT
ATOM      1  C1  UNL d   1       3.852   2.979  -1.924  0.00  0.00     0.143 A 
ATOM      2  C2  UNL d   1       3.904   1.593  -2.113  0.00  0.00    -0.057 A 
ATOM      3  C3  UNL d   1       3.204   0.977  -3.158  0.00  0.00     0.033 A 
ATOM      4  C4  UNL d   1       2.415   1.734  -4.017  0.00  0.00    -0.042 A 
ATOM      5  C5  UNL d   1       2.329   3.110  -3.832  0.00  0.00     0.033 A 
ATOM      6  C6  UNL d   1       3.035   3.720  -2.791  0.00  0.00    -0.057 A 
ENDROOT
BRANCH   1   7
ATOM      7  N   UNL d   1       4.445   3.639  -0.845  0.00  0.00    -0.732 N 
ATOM      8  C   UNL d   1       3.956   4.930  -0.412  0.00  0.00     0.284 C 
ATOM      9  H3  UNL d   1       4.679   3.006  -0.083  0.00  0.00     0.395 HD
ENDBRANCH   1   7
TORSDOF 1
ENDMDL
