MODEL 1
REMARK minimizedAffinity -5.0076642
REMARK minimizedRMSD -1
REMARK  1 active torsions:
REMARK  status: ('A' for Active; 'I' for Inactive)
REMARK    1  A    between atoms: N_2  and  C1_3 
ROOT
ATOM      1  C1  UNL d   1      -1.646  -0.412   1.091  0.00  0.00     0.143 A 
ATOM      2  C2  UNL d   1      -2.157  -1.591   0.538  0.00  0.00    -0.057 A 
ATOM      3  C3  UNL d   1      -1.325  -2.680   0.254  0.00  0.00     0.033 A 
ATOM      4  C4  UNL d   1       0.043  -2.598   0.491  0.00  0.00    -0.042 A 
ATOM      5  C5  UNL d   1       0.577  -1.427   1.017  0.00  0.00     0.033 A 
ATOM      6  C6  UNL d   1      -0.260  -0.345   1.305  0.00  0.00    -0.057 A 
ENDROOT
BRANCH   1   7
ATOM      7  N   UNL d   1      -2.406   0.740   1.305  0.00  0.00    -0.732 N 
ATOM      8  C   UNL d   1      -3.486   1.088   0.407  0.00  0.00     0.284 C 
ATOM      9  H3  UNL d   1      -2.620   0.888   2.289  0.00  0.00     0.395 HD
ENDBRANCH   1   7
TORSDOF 1
ENDMDL
