MODEL 1
REMARK minimizedAffinity -1.61765468
REMARK minimizedRMSD -1
REMARK  1 active torsions:
REMARK  status: ('A' for Active; 'I' for Inactive)
REMARK    1  A    between atoms: N_2  and  C1_3 
ROOT
ATOM      1  C1  UNL d   1       0.141  -1.251   1.026  0.00  0.00     0.143 A 
ATOM      2  C2  UNL d   1       0.436  -2.524   0.527  0.00  0.00    -0.057 A 
ATOM      3  C3  UNL d   1       1.739  -2.873   0.150  0.00  0.00     0.033 A 
ATOM      4  C4  UNL d   1       2.767  -1.941   0.237  0.00  0.00    -0.042 A 
ATOM      5  C5  UNL d   1       2.493  -0.661   0.707  0.00  0.00     0.033 A 
ATOM      6  C6  UNL d   1       1.191  -0.322   1.088  0.00  0.00    -0.057 A 
ENDROOT
BRANCH   1   7
ATOM      7  N   UNL d   1      -1.151  -0.813   1.325  0.00  0.00    -0.732 N 
ATOM      8  C   UNL d   1      -1.473   0.598   1.308  0.00  0.00     0.284 C 
ATOM      9  H3  UNL d   1      -1.867  -1.408   0.916  0.00  0.00     0.395 HD
ENDBRANCH   1   7
TORSDOF 1
ENDMDL
