MODEL 1
REMARK minimizedAffinity 2.65474868
REMARK minimizedRMSD -1
REMARK  1 active torsions:
REMARK  status: ('A' for Active; 'I' for Inactive)
REMARK    1  A    between atoms: N_2  and  C1_3 
ROOT
ATOM      1  C1  UNL d   1       0.739  -2.477   0.042  0.00  0.00     0.143 A 
ATOM      2  C2  UNL d   1      -0.595  -2.246   0.394  0.00  0.00    -0.057 A 
ATOM      3  C3  UNL d   1      -0.978  -1.077   1.062  0.00  0.00     0.033 A 
ATOM      4  C4  UNL d   1      -0.025  -0.128   1.418  0.00  0.00    -0.042 A 
ATOM      5  C5  UNL d   1       1.311  -0.348   1.100  0.00  0.00     0.033 A 
ATOM      6  C6  UNL d   1       1.686  -1.515   0.427  0.00  0.00    -0.057 A 
ENDROOT
BRANCH   1   7
ATOM      7  N   UNL d   1       1.197  -3.664  -0.535  0.00  0.00    -0.732 N 
ATOM      8  C   UNL d   1       2.612  -3.966  -0.577  0.00  0.00     0.284 C 
ATOM      9  H3  UNL d   1       0.609  -4.461  -0.303  0.00  0.00     0.395 HD
ENDBRANCH   1   7
TORSDOF 1
ENDMDL
