MODEL 1
REMARK minimizedAffinity 1.82299244
REMARK minimizedRMSD -1
REMARK  1 active torsions:
REMARK  status: ('A' for Active; 'I' for Inactive)
REMARK    1  A    between atoms: N_2  and  C1_3 
ROOT
ATOM      1  C1  UNL d   1       1.879  -3.085   0.030  0.00  0.00     0.143 A 
ATOM      2  C2  UNL d   1       0.516  -2.892   0.279  0.00  0.00    -0.057 A 
ATOM      3  C3  UNL d   1       0.011  -1.630   0.616  0.00  0.00     0.033 A 
ATOM      4  C4  UNL d   1       0.869  -0.541   0.738  0.00  0.00    -0.042 A 
ATOM      5  C5  UNL d   1       2.231  -0.715   0.520  0.00  0.00     0.033 A 
ATOM      6  C6  UNL d   1       2.728  -1.977   0.177  0.00  0.00    -0.057 A 
ENDROOT
BRANCH   1   7
ATOM      7  N   UNL d   1       2.456  -4.334  -0.212  0.00  0.00    -0.732 N 
ATOM      8  C   UNL d   1       3.880  -4.457  -0.438  0.00  0.00     0.284 C 
ATOM      9  H3  UNL d   1       2.065  -5.064   0.379  0.00  0.00     0.395 HD
ENDBRANCH   1   7
TORSDOF 1
ENDMDL
