MODEL 1
REMARK minimizedAffinity -4.46227741
REMARK minimizedRMSD -1
REMARK  0 active torsions:
REMARK  status: ('A' for Active; 'I' for Inactive)
ROOT
ATOM      1  C   UNL d   1      -2.296  -1.441   2.081  0.00  0.00     0.077 C 
ATOM      2  C1  UNL d   1      -1.183  -1.180   1.110  0.00  0.00    -0.074 A 
ATOM      3  C2  UNL d   1      -0.312  -2.203   0.722  0.00  0.00    -0.005 A 
ATOM      4  C3  UNL d   1       0.712  -1.948  -0.189  0.00  0.00     0.006 A 
ATOM      5  C4  UNL d   1       0.875  -0.668  -0.722  0.00  0.00    -0.005 A 
ATOM      6  C5  UNL d   1       0.014   0.368  -0.346  0.00  0.00    -0.074 A 
ATOM      7  C6  UNL d   1       0.170   1.746  -0.917  0.00  0.00     0.077 C 
ATOM      8  C7  UNL d   1      -1.017   0.101   0.565  0.00  0.00    -0.001 A 
ENDROOT
TORSDOF 0
ENDMDL
