MODEL 1
REMARK minimizedAffinity -3.42640424
REMARK minimizedRMSD -1
REMARK  0 active torsions:
REMARK  status: ('A' for Active; 'I' for Inactive)
ROOT
ATOM      1  C   UNL d   1       1.342   2.303  -3.353  0.00  0.00     0.077 C 
ATOM      2  C1  UNL d   1       0.932   1.827  -1.991  0.00  0.00    -0.074 A 
ATOM      3  C2  UNL d   1       0.791   2.724  -0.928  0.00  0.00    -0.005 A 
ATOM      4  C3  UNL d   1       0.399   2.267   0.330  0.00  0.00     0.006 A 
ATOM      5  C4  UNL d   1       0.145   0.911   0.538  0.00  0.00    -0.005 A 
ATOM      6  C5  UNL d   1       0.279  -0.001  -0.514  0.00  0.00    -0.074 A 
ATOM      7  C6  UNL d   1      -0.000  -1.460  -0.310  0.00  0.00     0.077 C 
ATOM      8  C7  UNL d   1       0.666   0.467  -1.777  0.00  0.00    -0.001 A 
ENDROOT
TORSDOF 0
ENDMDL
