MODEL 1
REMARK minimizedAffinity -3.46933103
REMARK minimizedRMSD -1
REMARK  0 active torsions:
REMARK  status: ('A' for Active; 'I' for Inactive)
ROOT
ATOM      1  C   UNL d   1       4.241   1.832  -3.282  0.00  0.00     0.077 C 
ATOM      2  C1  UNL d   1       2.809   2.077  -2.910  0.00  0.00    -0.074 A 
ATOM      3  C2  UNL d   1       1.896   2.568  -3.849  0.00  0.00    -0.005 A 
ATOM      4  C3  UNL d   1       0.565   2.781  -3.491  0.00  0.00     0.006 A 
ATOM      5  C4  UNL d   1       0.133   2.506  -2.193  0.00  0.00    -0.005 A 
ATOM      6  C5  UNL d   1       1.031   2.013  -1.241  0.00  0.00    -0.074 A 
ATOM      7  C6  UNL d   1       0.582   1.702   0.156  0.00  0.00     0.077 C 
ATOM      8  C7  UNL d   1       2.366   1.795  -1.610  0.00  0.00    -0.001 A 
ENDROOT
TORSDOF 0
ENDMDL
