MODEL 1
REMARK minimizedAffinity -4.5284133
REMARK minimizedRMSD -1
REMARK  0 active torsions:
REMARK  status: ('A' for Active; 'I' for Inactive)
ROOT
ATOM      1  C   UNL d   1       0.402  -3.133   1.155  0.00  0.00     0.077 C 
ATOM      2  C1  UNL d   1      -0.057  -1.711   1.031  0.00  0.00    -0.074 A 
ATOM      3  C2  UNL d   1      -1.141  -1.238   1.778  0.00  0.00    -0.005 A 
ATOM      4  C3  UNL d   1      -1.551   0.090   1.659  0.00  0.00     0.006 A 
ATOM      5  C4  UNL d   1      -0.882   0.957   0.794  0.00  0.00    -0.005 A 
ATOM      6  C5  UNL d   1       0.204   0.502   0.040  0.00  0.00    -0.074 A 
ATOM      7  C6  UNL d   1       0.940   1.423  -0.887  0.00  0.00     0.077 C 
ATOM      8  C7  UNL d   1       0.614  -0.832   0.170  0.00  0.00    -0.001 A 
ENDROOT
TORSDOF 0
ENDMDL
