MODEL 1
REMARK minimizedAffinity -3.06796741
REMARK minimizedRMSD -1
REMARK  0 active torsions:
REMARK  status: ('A' for Active; 'I' for Inactive)
ROOT
ATOM      1  C   UNL d   1       0.198   1.147  -0.750  0.00  0.00     0.077 C 
ATOM      2  C1  UNL d   1      -0.265  -0.068  -0.001  0.00  0.00    -0.074 A 
ATOM      3  C2  UNL d   1       0.308  -1.321  -0.241  0.00  0.00    -0.005 A 
ATOM      4  C3  UNL d   1      -0.126  -2.440   0.470  0.00  0.00     0.006 A 
ATOM      5  C4  UNL d   1      -1.135  -2.317   1.426  0.00  0.00    -0.005 A 
ATOM      6  C5  UNL d   1      -1.719  -1.072   1.679  0.00  0.00    -0.074 A 
ATOM      7  C6  UNL d   1      -2.798  -0.921   2.710  0.00  0.00     0.077 C 
ATOM      8  C7  UNL d   1      -1.273   0.049   0.966  0.00  0.00    -0.001 A 
ENDROOT
TORSDOF 0
ENDMDL
