MODEL 1
REMARK minimizedAffinity -3.40637112
REMARK minimizedRMSD -1
REMARK  0 active torsions:
REMARK  status: ('A' for Active; 'I' for Inactive)
ROOT
ATOM      1  C   UNL d   1       0.819   2.532  -2.979  0.00  0.00     0.077 C 
ATOM      2  C1  UNL d   1       0.795   1.254  -2.194  0.00  0.00    -0.074 A 
ATOM      3  C2  UNL d   1       0.465   0.041  -2.806  0.00  0.00    -0.005 A 
ATOM      4  C3  UNL d   1       0.456  -1.141  -2.064  0.00  0.00     0.006 A 
ATOM      5  C4  UNL d   1       0.777  -1.121  -0.707  0.00  0.00    -0.005 A 
ATOM      6  C5  UNL d   1       1.110   0.083  -0.078  0.00  0.00    -0.074 A 
ATOM      7  C6  UNL d   1       1.467   0.120   1.378  0.00  0.00     0.077 C 
ATOM      8  C7  UNL d   1       1.124   1.265  -0.831  0.00  0.00    -0.001 A 
ENDROOT
TORSDOF 0
ENDMDL
