MODEL 1
REMARK minimizedAffinity -2.52080011
REMARK minimizedRMSD -1
REMARK  0 active torsions:
REMARK  status: ('A' for Active; 'I' for Inactive)
ROOT
ATOM      1  C   UNL d   1      -0.811  -1.958   2.585  0.00  0.00     0.077 C 
ATOM      2  C1  UNL d   1      -0.693  -1.475   1.170  0.00  0.00    -0.074 A 
ATOM      3  C2  UNL d   1      -1.296  -2.173   0.119  0.00  0.00    -0.005 A 
ATOM      4  C3  UNL d   1      -1.186  -1.706  -1.190  0.00  0.00     0.006 A 
ATOM      5  C4  UNL d   1      -0.472  -0.539  -1.462  0.00  0.00    -0.005 A 
ATOM      6  C5  UNL d   1       0.138   0.173  -0.424  0.00  0.00    -0.074 A 
ATOM      7  C6  UNL d   1       0.901   1.435  -0.698  0.00  0.00     0.077 C 
ATOM      8  C7  UNL d   1       0.017  -0.299   0.890  0.00  0.00    -0.001 A 
ENDROOT
TORSDOF 0
ENDMDL
