MODEL 1
REMARK minimizedAffinity -3.65515161
REMARK minimizedRMSD -1
REMARK  0 active torsions:
REMARK  status: ('A' for Active; 'I' for Inactive)
ROOT
ATOM      1  C   UNL d   1       1.213  -2.325   0.281  0.00  0.00     0.077 C 
ATOM      2  C1  UNL d   1      -0.002  -1.720   0.921  0.00  0.00    -0.074 A 
ATOM      3  C2  UNL d   1      -0.775  -2.451   1.829  0.00  0.00    -0.005 A 
ATOM      4  C3  UNL d   1      -1.896  -1.872   2.423  0.00  0.00     0.006 A 
ATOM      5  C4  UNL d   1      -2.255  -0.559   2.116  0.00  0.00    -0.005 A 
ATOM      6  C5  UNL d   1      -1.493   0.188   1.211  0.00  0.00    -0.074 A 
ATOM      7  C6  UNL d   1      -1.859   1.604   0.878  0.00  0.00     0.077 C 
ATOM      8  C7  UNL d   1      -0.364  -0.399   0.624  0.00  0.00    -0.001 A 
ENDROOT
TORSDOF 0
ENDMDL
