MODEL 1
REMARK minimizedAffinity -3.5493598
REMARK minimizedRMSD -1
REMARK  0 active torsions:
REMARK  status: ('A' for Active; 'I' for Inactive)
ROOT
ATOM      1  C   UNL d   1      -2.039   0.376   1.895  0.00  0.00     0.077 C 
ATOM      2  C1  UNL d   1      -0.896  -0.040   1.017  0.00  0.00    -0.074 A 
ATOM      3  C2  UNL d   1      -0.346  -1.322   1.112  0.00  0.00    -0.005 A 
ATOM      4  C3  UNL d   1       0.711  -1.697   0.282  0.00  0.00     0.006 A 
ATOM      5  C4  UNL d   1       1.227  -0.796  -0.650  0.00  0.00    -0.005 A 
ATOM      6  C5  UNL d   1       0.688   0.490  -0.760  0.00  0.00    -0.074 A 
ATOM      7  C6  UNL d   1       1.224   1.468  -1.763  0.00  0.00     0.077 C 
ATOM      8  C7  UNL d   1      -0.378   0.857   0.072  0.00  0.00    -0.001 A 
ENDROOT
TORSDOF 0
ENDMDL
