MODEL 1
REMARK minimizedAffinity -5.26726818
REMARK minimizedRMSD -1
REMARK  0 active torsions:
REMARK  status: ('A' for Active; 'I' for Inactive)
ROOT
ATOM      1  C   UNL d   1      -1.968  -2.759   0.728  0.00  0.00     0.077 C 
ATOM      2  C1  UNL d   1      -0.840  -1.786   0.552  0.00  0.00    -0.074 A 
ATOM      3  C2  UNL d   1       0.463  -2.233   0.313  0.00  0.00    -0.005 A 
ATOM      4  C3  UNL d   1       1.501  -1.317   0.141  0.00  0.00     0.006 A 
ATOM      5  C4  UNL d   1       1.246   0.053   0.207  0.00  0.00    -0.005 A 
ATOM      6  C5  UNL d   1      -0.051   0.519   0.444  0.00  0.00    -0.074 A 
ATOM      7  C6  UNL d   1      -0.344   1.989   0.508  0.00  0.00     0.077 C 
ATOM      8  C7  UNL d   1      -1.090  -0.408   0.608  0.00  0.00    -0.001 A 
ENDROOT
TORSDOF 0
ENDMDL
