MODEL 1
REMARK minimizedAffinity -3.75660086
REMARK minimizedRMSD -1
REMARK  0 active torsions:
REMARK  status: ('A' for Active; 'I' for Inactive)
ROOT
ATOM      1  C   UNL d   1      -0.323  -2.140   0.179  0.00  0.00     0.077 C 
ATOM      2  C1  UNL d   1      -0.054  -0.740  -0.288  0.00  0.00    -0.074 A 
ATOM      3  C2  UNL d   1      -0.180   0.345   0.585  0.00  0.00    -0.005 A 
ATOM      4  C3  UNL d   1       0.083   1.640   0.139  0.00  0.00     0.006 A 
ATOM      5  C4  UNL d   1       0.474   1.863  -1.182  0.00  0.00    -0.005 A 
ATOM      6  C5  UNL d   1       0.607   0.790  -2.069  0.00  0.00    -0.074 A 
ATOM      7  C6  UNL d   1       1.036   1.011  -3.489  0.00  0.00     0.077 C 
ATOM      8  C7  UNL d   1       0.347  -0.509  -1.611  0.00  0.00    -0.001 A 
ENDROOT
TORSDOF 0
ENDMDL
