MODEL 1
REMARK minimizedAffinity -5.10821533
REMARK minimizedRMSD -1
REMARK  0 active torsions:
REMARK  status: ('A' for Active; 'I' for Inactive)
ROOT
ATOM      1  C   UNL d   1       1.124   1.503  -2.841  0.00  0.00     0.077 C 
ATOM      2  C1  UNL d   1       0.630   0.969  -1.529  0.00  0.00    -0.074 A 
ATOM      3  C2  UNL d   1       0.088   1.823  -0.563  0.00  0.00    -0.005 A 
ATOM      4  C3  UNL d   1      -0.376   1.310   0.648  0.00  0.00     0.006 A 
ATOM      5  C4  UNL d   1      -0.302  -0.059   0.906  0.00  0.00    -0.005 A 
ATOM      6  C5  UNL d   1       0.237  -0.929  -0.048  0.00  0.00    -0.074 A 
ATOM      7  C6  UNL d   1       0.314  -2.404   0.209  0.00  0.00     0.077 C 
ATOM      8  C7  UNL d   1       0.694  -0.407  -1.266  0.00  0.00    -0.001 A 
ENDROOT
TORSDOF 0
ENDMDL
