MODEL 1
REMARK minimizedAffinity -2.76372814
REMARK minimizedRMSD -1
REMARK  0 active torsions:
REMARK  status: ('A' for Active; 'I' for Inactive)
ROOT
ATOM      1  C   UNL d   1       0.798   1.779  -2.427  0.00  0.00     0.077 C 
ATOM      2  C1  UNL d   1       0.299   0.883  -1.333  0.00  0.00    -0.074 A 
ATOM      3  C2  UNL d   1       1.017  -0.255  -0.951  0.00  0.00    -0.005 A 
ATOM      4  C3  UNL d   1       0.545  -1.073   0.075  0.00  0.00     0.006 A 
ATOM      5  C4  UNL d   1      -0.649  -0.763   0.728  0.00  0.00    -0.005 A 
ATOM      6  C5  UNL d   1      -1.380   0.370   0.360  0.00  0.00    -0.074 A 
ATOM      7  C6  UNL d   1      -2.660   0.723   1.059  0.00  0.00     0.077 C 
ATOM      8  C7  UNL d   1      -0.896   1.192  -0.667  0.00  0.00    -0.001 A 
ENDROOT
TORSDOF 0
ENDMDL
