MODEL 1
REMARK minimizedAffinity -4.02501202
REMARK minimizedRMSD -1
REMARK  0 active torsions:
REMARK  status: ('A' for Active; 'I' for Inactive)
ROOT
ATOM      1  C   UNL d   1       0.696   1.665  -3.450  0.00  0.00     0.077 C 
ATOM      2  C1  UNL d   1       0.474   1.272  -2.020  0.00  0.00    -0.074 A 
ATOM      3  C2  UNL d   1       0.745   2.165  -0.978  0.00  0.00    -0.005 A 
ATOM      4  C3  UNL d   1       0.525   1.788   0.346  0.00  0.00     0.006 A 
ATOM      5  C4  UNL d   1       0.032   0.516   0.642  0.00  0.00    -0.005 A 
ATOM      6  C5  UNL d   1      -0.246  -0.390  -0.386  0.00  0.00    -0.074 A 
ATOM      7  C6  UNL d   1      -0.786  -1.756  -0.086  0.00  0.00     0.077 C 
ATOM      8  C7  UNL d   1      -0.029  -0.001  -1.715  0.00  0.00    -0.001 A 
ENDROOT
TORSDOF 0
ENDMDL
