MODEL 1
REMARK minimizedAffinity -2.1127882
REMARK minimizedRMSD -1
REMARK  0 active torsions:
REMARK  status: ('A' for Active; 'I' for Inactive)
ROOT
ATOM      1  C   UNL d   1       1.181   1.573  -3.520  0.00  0.00     0.077 C 
ATOM      2  C1  UNL d   1       0.774   1.169  -2.134  0.00  0.00    -0.074 A 
ATOM      3  C2  UNL d   1       0.319   2.118  -1.213  0.00  0.00    -0.005 A 
ATOM      4  C3  UNL d   1      -0.064   1.725   0.070  0.00  0.00     0.006 A 
ATOM      5  C4  UNL d   1       0.003   0.382   0.443  0.00  0.00    -0.005 A 
ATOM      6  C5  UNL d   1       0.454  -0.581  -0.465  0.00  0.00    -0.074 A 
ATOM      7  C6  UNL d   1       0.523  -2.030  -0.083  0.00  0.00     0.077 C 
ATOM      8  C7  UNL d   1       0.831  -0.179  -1.754  0.00  0.00    -0.001 A 
ENDROOT
TORSDOF 0
ENDMDL
