MODEL 1
REMARK minimizedAffinity 5.37457371
REMARK minimizedRMSD -1
REMARK  1 active torsions:
REMARK  status: ('A' for Active; 'I' for Inactive)
REMARK    1  A    between atoms: N_2  and  C1_3 
ROOT
ATOM      1  C1  UNL d   1       0.171   3.182  -0.041  0.00  0.00     0.143 A 
ATOM      2  C2  UNL d   1      -0.454   2.381   0.921  0.00  0.00    -0.057 A 
ATOM      3  C3  UNL d   1       0.038   2.301   2.229  0.00  0.00     0.033 A 
ATOM      4  C4  UNL d   1       1.184   3.000   2.592  0.00  0.00    -0.042 A 
ATOM      5  C5  UNL d   1       1.837   3.782   1.645  0.00  0.00     0.033 A 
ATOM      6  C6  UNL d   1       1.337   3.863   0.342  0.00  0.00    -0.057 A 
ENDROOT
BRANCH   1   7
ATOM      7  N   UNL d   1      -0.212   3.226  -1.384  0.00  0.00    -0.732 N 
ATOM      8  C   UNL d   1      -1.331   4.041  -1.805  0.00  0.00     0.284 C 
ATOM      9  H3  UNL d   1       0.586   3.258  -2.015  0.00  0.00     0.395 HD
ENDBRANCH   1   7
TORSDOF 1
ENDMDL
