MODEL 1
REMARK minimizedAffinity 3.11622286
REMARK minimizedRMSD -1
REMARK  1 active torsions:
REMARK  status: ('A' for Active; 'I' for Inactive)
REMARK    1  A    between atoms: N_2  and  C1_3 
ROOT
ATOM      1  C1  UNL d   1      -3.787   2.937  -2.861  0.00  0.00     0.143 A 
ATOM      2  C2  UNL d   1      -3.800   2.523  -4.197  0.00  0.00    -0.057 A 
ATOM      3  C3  UNL d   1      -4.900   1.846  -4.737  0.00  0.00     0.033 A 
ATOM      4  C4  UNL d   1      -5.999   1.545  -3.939  0.00  0.00    -0.042 A 
ATOM      5  C5  UNL d   1      -5.998   1.925  -2.602  0.00  0.00     0.033 A 
ATOM      6  C6  UNL d   1      -4.899   2.607  -2.070  0.00  0.00    -0.057 A 
ENDROOT
BRANCH   1   7
ATOM      7  N   UNL d   1      -2.683   3.527  -2.240  0.00  0.00    -0.732 N 
ATOM      8  C   UNL d   1      -2.250   4.856  -2.613  0.00  0.00     0.284 C 
ATOM      9  H3  UNL d   1      -2.658   3.347  -1.239  0.00  0.00     0.395 HD
ENDBRANCH   1   7
TORSDOF 1
ENDMDL
