MODEL 1
REMARK minimizedAffinity 0.835422158
REMARK minimizedRMSD -1
REMARK  1 active torsions:
REMARK  status: ('A' for Active; 'I' for Inactive)
REMARK    1  A    between atoms: N_2  and  C1_3 
ROOT
ATOM      1  C1  UNL d   1       0.048   3.320   1.807  0.00  0.00     0.143 A 
ATOM      2  C2  UNL d   1       1.308   3.457   1.215  0.00  0.00    -0.057 A 
ATOM      3  C3  UNL d   1       1.582   4.502   0.323  0.00  0.00     0.033 A 
ATOM      4  C4  UNL d   1       0.587   5.413  -0.016  0.00  0.00    -0.042 A 
ATOM      5  C5  UNL d   1      -0.680   5.281   0.541  0.00  0.00     0.033 A 
ATOM      6  C6  UNL d   1      -0.945   4.240   1.436  0.00  0.00    -0.057 A 
ENDROOT
BRANCH   1   7
ATOM      7  N   UNL d   1      -0.314   2.246   2.624  0.00  0.00    -0.732 N 
ATOM      8  C   UNL d   1       0.554   1.097   2.759  0.00  0.00     0.284 C 
ATOM      9  H3  UNL d   1      -0.742   2.550   3.496  0.00  0.00     0.395 HD
ENDBRANCH   1   7
TORSDOF 1
ENDMDL
