MODEL 1
REMARK minimizedAffinity 5.0431366
REMARK minimizedRMSD -1
REMARK  1 active torsions:
REMARK  status: ('A' for Active; 'I' for Inactive)
REMARK    1  A    between atoms: N_2  and  C1_3 
ROOT
ATOM      1  C1  UNL d   1       0.414   3.527   0.834  0.00  0.00     0.143 A 
ATOM      2  C2  UNL d   1      -0.712   3.556   1.664  0.00  0.00    -0.057 A 
ATOM      3  C3  UNL d   1      -0.756   2.820   2.854  0.00  0.00     0.033 A 
ATOM      4  C4  UNL d   1       0.318   2.016   3.222  0.00  0.00    -0.042 A 
ATOM      5  C5  UNL d   1       1.437   1.952   2.400  0.00  0.00     0.033 A 
ATOM      6  C6  UNL d   1       1.478   2.694   1.216  0.00  0.00    -0.057 A 
ENDROOT
BRANCH   1   7
ATOM      7  N   UNL d   1       0.480   4.158  -0.410  0.00  0.00    -0.732 N 
ATOM      8  C   UNL d   1       1.583   5.038  -0.733  0.00  0.00     0.284 C 
ATOM      9  H3  UNL d   1       0.200   3.545  -1.172  0.00  0.00     0.395 HD
ENDBRANCH   1   7
TORSDOF 1
ENDMDL
