MODEL 1
REMARK minimizedAffinity 4.61587143
REMARK minimizedRMSD -1
REMARK  1 active torsions:
REMARK  status: ('A' for Active; 'I' for Inactive)
REMARK    1  A    between atoms: N_2  and  C1_3 
ROOT
ATOM      1  C1  UNL d   1       0.728  -1.491  -1.766  0.00  0.00     0.143 A 
ATOM      2  C2  UNL d   1      -0.013  -2.111  -2.778  0.00  0.00    -0.057 A 
ATOM      3  C3  UNL d   1      -0.343  -3.470  -2.708  0.00  0.00     0.033 A 
ATOM      4  C4  UNL d   1       0.089  -4.242  -1.634  0.00  0.00    -0.042 A 
ATOM      5  C5  UNL d   1       0.849  -3.652  -0.630  0.00  0.00     0.033 A 
ATOM      6  C6  UNL d   1       1.169  -2.293  -0.702  0.00  0.00    -0.057 A 
ENDROOT
BRANCH   1   7
ATOM      7  N   UNL d   1       1.171  -0.167  -1.827  0.00  0.00    -0.732 N 
ATOM      8  C   UNL d   1       0.457   0.882  -1.132  0.00  0.00     0.284 C 
ATOM      9  H3  UNL d   1       2.184  -0.094  -1.763  0.00  0.00     0.395 HD
ENDBRANCH   1   7
TORSDOF 1
ENDMDL
