MODEL 1
REMARK minimizedAffinity 2.7886591
REMARK minimizedRMSD -1
REMARK  1 active torsions:
REMARK  status: ('A' for Active; 'I' for Inactive)
REMARK    1  A    between atoms: N_2  and  C1_3 
ROOT
ATOM      1  C1  UNL d   1      -5.364   3.015  -2.839  0.00  0.00     0.143 A 
ATOM      2  C2  UNL d   1      -6.000   3.483  -3.993  0.00  0.00    -0.057 A 
ATOM      3  C3  UNL d   1      -5.352   4.357  -4.875  0.00  0.00     0.033 A 
ATOM      4  C4  UNL d   1      -4.064   4.802  -4.602  0.00  0.00    -0.042 A 
ATOM      5  C5  UNL d   1      -3.421   4.370  -3.447  0.00  0.00     0.033 A 
ATOM      6  C6  UNL d   1      -4.071   3.492  -2.573  0.00  0.00    -0.057 A 
ENDROOT
BRANCH   1   7
ATOM      7  N   UNL d   1      -5.990   2.223  -1.872  0.00  0.00    -0.732 N 
ATOM      8  C   UNL d   1      -5.999   0.781  -1.994  0.00  0.00     0.284 C 
ATOM      9  H3  UNL d   1      -5.823   2.560  -0.927  0.00  0.00     0.395 HD
ENDBRANCH   1   7
TORSDOF 1
ENDMDL
