MODEL 1
REMARK minimizedAffinity 5.52642345
REMARK minimizedRMSD -1
REMARK  1 active torsions:
REMARK  status: ('A' for Active; 'I' for Inactive)
REMARK    1  A    between atoms: N_2  and  C1_3 
ROOT
ATOM      1  C1  UNL d   1      -4.964   3.072  -3.445  0.00  0.00     0.143 A 
ATOM      2  C2  UNL d   1      -5.998   3.179  -4.381  0.00  0.00    -0.057 A 
ATOM      3  C3  UNL d   1      -5.815   3.863  -5.589  0.00  0.00     0.033 A 
ATOM      4  C4  UNL d   1      -4.600   4.477  -5.871  0.00  0.00    -0.042 A 
ATOM      5  C5  UNL d   1      -3.566   4.405  -4.944  0.00  0.00     0.033 A 
ATOM      6  C6  UNL d   1      -3.753   3.715  -3.742  0.00  0.00    -0.057 A 
ENDROOT
BRANCH   1   7
ATOM      7  N   UNL d   1      -5.115   2.490  -2.183  0.00  0.00    -0.732 N 
ATOM      8  C   UNL d   1      -5.609   1.137  -2.050  0.00  0.00     0.284 C 
ATOM      9  H3  UNL d   1      -4.345   2.716  -1.558  0.00  0.00     0.395 HD
ENDBRANCH   1   7
TORSDOF 1
ENDMDL
