MODEL 1
REMARK minimizedAffinity 0.347275078
REMARK minimizedRMSD -1
REMARK  1 active torsions:
REMARK  status: ('A' for Active; 'I' for Inactive)
REMARK    1  A    between atoms: N_2  and  C1_3 
ROOT
ATOM      1  C1  UNL d   1      -4.563   3.089  -3.858  0.00  0.00     0.143 A 
ATOM      2  C2  UNL d   1      -5.301   4.042  -3.147  0.00  0.00    -0.057 A 
ATOM      3  C3  UNL d   1      -6.000   3.698  -1.983  0.00  0.00     0.033 A 
ATOM      4  C4  UNL d   1      -5.997   2.385  -1.525  0.00  0.00    -0.042 A 
ATOM      5  C5  UNL d   1      -5.291   1.416  -2.230  0.00  0.00     0.033 A 
ATOM      6  C6  UNL d   1      -4.589   1.767  -3.387  0.00  0.00    -0.057 A 
ENDROOT
BRANCH   1   7
ATOM      7  N   UNL d   1      -3.927   3.347  -5.075  0.00  0.00    -0.732 N 
ATOM      8  C   UNL d   1      -4.473   4.317  -6.000  0.00  0.00     0.284 C 
ATOM      9  H3  UNL d   1      -2.914   3.383  -4.984  0.00  0.00     0.395 HD
ENDBRANCH   1   7
TORSDOF 1
ENDMDL
