MODEL 1
REMARK minimizedAffinity -0.0888600796
REMARK minimizedRMSD -1
REMARK  0 active torsions:
REMARK  status: ('A' for Active; 'I' for Inactive)
ROOT
ATOM      1  C   UNL d   1       1.222  -2.209  -0.458  0.00  0.00    -0.002 A 
ATOM      2  C1  UNL d   1       0.255  -1.521   0.262  0.00  0.00     0.010 A 
ATOM      3  C2  UNL d   1      -0.137  -0.238  -0.122  0.00  0.00     0.041 A 
ATOM      4  C3  UNL d   1       0.462   0.349  -1.254  0.00  0.00    -0.075 A 
ATOM      5  S   UNL d   1       0.138   1.909  -1.911  0.00  0.00     0.015 SA
ATOM      6  C4  UNL d   1       1.275   1.700  -3.163  0.00  0.00     0.022 A 
ATOM      7  C5  UNL d   1       1.896   0.476  -3.097  0.00  0.00     0.026 A 
ATOM      8  C6  UNL d   1       1.437  -0.324  -1.996  0.00  0.00    -0.082 A 
ATOM      9  C7  UNL d   1       1.815  -1.624  -1.581  0.00  0.00     0.045 A 
ENDROOT
TORSDOF 0
ENDMDL
