MODEL 1
REMARK minimizedAffinity 1.03190947
REMARK minimizedRMSD -1
REMARK  0 active torsions:
REMARK  status: ('A' for Active; 'I' for Inactive)
ROOT
ATOM      1  C   UNL d   1       1.003  -3.047  -0.430  0.00  0.00    -0.002 A 
ATOM      2  C1  UNL d   1       1.827  -2.269  -1.232  0.00  0.00     0.010 A 
ATOM      3  C2  UNL d   1       1.604  -0.897  -1.359  0.00  0.00     0.041 A 
ATOM      4  C3  UNL d   1       0.530  -0.313  -0.660  0.00  0.00    -0.075 A 
ATOM      5  S   UNL d   1       0.067   1.348  -0.664  0.00  0.00     0.015 SA
ATOM      6  C4  UNL d   1      -1.235   1.064   0.399  0.00  0.00     0.022 A 
ATOM      7  C5  UNL d   1      -1.329  -0.259   0.758  0.00  0.00     0.026 A 
ATOM      8  C6  UNL d   1      -0.313  -1.075   0.154  0.00  0.00    -0.082 A 
ATOM      9  C7  UNL d   1      -0.062  -2.464   0.262  0.00  0.00     0.045 A 
ENDROOT
TORSDOF 0
ENDMDL
