MODEL 1
REMARK minimizedAffinity -0.756093025
REMARK minimizedRMSD -1
REMARK  0 active torsions:
REMARK  status: ('A' for Active; 'I' for Inactive)
ROOT
ATOM      1  C   UNL d   1       1.465  -1.909   0.000  0.00  0.00    -0.002 A 
ATOM      2  C1  UNL d   1       2.359  -1.159  -0.750  0.00  0.00     0.010 A 
ATOM      3  C2  UNL d   1       1.962   0.046  -1.333  0.00  0.00     0.041 A 
ATOM      4  C3  UNL d   1       0.639   0.491  -1.145  0.00  0.00    -0.075 A 
ATOM      5  S   UNL d   1      -0.070   1.936  -1.762  0.00  0.00     0.015 SA
ATOM      6  C4  UNL d   1      -1.577   1.593  -1.044  0.00  0.00     0.022 A 
ATOM      7  C5  UNL d   1      -1.557   0.408  -0.346  0.00  0.00     0.026 A 
ATOM      8  C6  UNL d   1      -0.280  -0.246  -0.392  0.00  0.00    -0.082 A 
ATOM      9  C7  UNL d   1       0.153  -1.464   0.185  0.00  0.00     0.045 A 
ENDROOT
TORSDOF 0
ENDMDL
