MODEL 1
REMARK minimizedAffinity -3.84632444
REMARK minimizedRMSD -1
REMARK  0 active torsions:
REMARK  status: ('A' for Active; 'I' for Inactive)
ROOT
ATOM      1  C   UNL d   1       0.314   2.456  -2.183  0.00  0.00    -0.002 A 
ATOM      2  C1  UNL d   1      -0.726   1.982  -1.396  0.00  0.00     0.010 A 
ATOM      3  C2  UNL d   1      -0.595   0.783  -0.693  0.00  0.00     0.041 A 
ATOM      4  C3  UNL d   1       0.611   0.062  -0.793  0.00  0.00    -0.075 A 
ATOM      5  S   UNL d   1       0.998  -1.430  -0.021  0.00  0.00     0.015 SA
ATOM      6  C4  UNL d   1       2.553  -1.473  -0.717  0.00  0.00     0.022 A 
ATOM      7  C5  UNL d   1       2.788  -0.384  -1.522  0.00  0.00     0.026 A 
ATOM      8  C6  UNL d   1       1.673   0.519  -1.579  0.00  0.00    -0.082 A 
ATOM      9  C7  UNL d   1       1.509   1.738  -2.280  0.00  0.00     0.045 A 
ENDROOT
TORSDOF 0
ENDMDL
