MODEL 1
REMARK minimizedAffinity -2.06303954
REMARK minimizedRMSD -1
REMARK  0 active torsions:
REMARK  status: ('A' for Active; 'I' for Inactive)
ROOT
ATOM      1  C   UNL d   1       0.490   1.763  -2.042  0.00  0.00    -0.002 A 
ATOM      2  C1  UNL d   1       1.600   1.362  -2.772  0.00  0.00     0.010 A 
ATOM      3  C2  UNL d   1       2.159   0.098  -2.577  0.00  0.00     0.041 A 
ATOM      4  C3  UNL d   1       1.577  -0.766  -1.629  0.00  0.00    -0.075 A 
ATOM      5  S   UNL d   1       2.090  -2.361  -1.223  0.00  0.00     0.015 SA
ATOM      6  C4  UNL d   1       0.847  -2.548  -0.072  0.00  0.00     0.022 A 
ATOM      7  C5  UNL d   1       0.051  -1.431   0.014  0.00  0.00     0.026 A 
ATOM      8  C6  UNL d   1       0.458  -0.385  -0.883  0.00  0.00    -0.082 A 
ATOM      9  C7  UNL d   1      -0.085   0.903  -1.103  0.00  0.00     0.045 A 
ENDROOT
TORSDOF 0
ENDMDL
