MODEL 1
REMARK minimizedAffinity -3.54558706
REMARK minimizedRMSD -1
REMARK  0 active torsions:
REMARK  status: ('A' for Active; 'I' for Inactive)
ROOT
ATOM      1  C   UNL d   1       3.129  -0.910  -1.673  0.00  0.00    -0.002 A 
ATOM      2  C1  UNL d   1       3.180   0.420  -1.279  0.00  0.00     0.010 A 
ATOM      3  C2  UNL d   1       2.044   1.055  -0.772  0.00  0.00     0.041 A 
ATOM      4  C3  UNL d   1       0.845   0.323  -0.664  0.00  0.00    -0.075 A 
ATOM      5  S   UNL d   1      -0.670   0.892  -0.071  0.00  0.00     0.015 SA
ATOM      6  C4  UNL d   1      -1.421  -0.617  -0.326  0.00  0.00     0.022 A 
ATOM      7  C5  UNL d   1      -0.551  -1.544  -0.850  0.00  0.00     0.026 A 
ATOM      8  C6  UNL d   1       0.770  -1.018  -1.053  0.00  0.00    -0.082 A 
ATOM      9  C7  UNL d   1       1.938  -1.632  -1.565  0.00  0.00     0.045 A 
ENDROOT
TORSDOF 0
ENDMDL
