MODEL 1
REMARK minimizedAffinity 7.27089882
REMARK minimizedRMSD -1
REMARK  0 active torsions:
REMARK  status: ('A' for Active; 'I' for Inactive)
ROOT
ATOM      1  C   UNL d   1       0.659  -1.844  -1.179  0.00  0.00    -0.002 A 
ATOM      2  C1  UNL d   1       1.530  -1.716  -2.252  0.00  0.00     0.010 A 
ATOM      3  C2  UNL d   1       1.619  -0.512  -2.954  0.00  0.00     0.041 A 
ATOM      4  C3  UNL d   1       0.813   0.572  -2.555  0.00  0.00    -0.075 A 
ATOM      5  S   UNL d   1       0.755   2.141  -3.266  0.00  0.00     0.015 SA
ATOM      6  C4  UNL d   1      -0.426   2.679  -2.161  0.00  0.00     0.022 A 
ATOM      7  C5  UNL d   1      -0.779   1.698  -1.265  0.00  0.00     0.026 A 
ATOM      8  C6  UNL d   1      -0.071   0.468  -1.477  0.00  0.00    -0.082 A 
ATOM      9  C7  UNL d   1      -0.139  -0.766  -0.786  0.00  0.00     0.045 A 
ENDROOT
TORSDOF 0
ENDMDL
