MODEL 1
REMARK minimizedAffinity 2.05597353
REMARK minimizedRMSD -1
REMARK  0 active torsions:
REMARK  status: ('A' for Active; 'I' for Inactive)
ROOT
ATOM      1  C   UNL d   1      -0.030   1.284   1.166  0.00  0.00    -0.002 A 
ATOM      2  C1  UNL d   1      -0.417   0.004   0.795  0.00  0.00     0.010 A 
ATOM      3  C2  UNL d   1      -1.518  -0.608   1.398  0.00  0.00     0.041 A 
ATOM      4  C3  UNL d   1      -2.231   0.096   2.388  0.00  0.00    -0.075 A 
ATOM      5  S   UNL d   1      -3.612  -0.453   3.263  0.00  0.00     0.015 SA
ATOM      6  C4  UNL d   1      -3.720   0.998   4.149  0.00  0.00     0.022 A 
ATOM      7  C5  UNL d   1      -2.735   1.891   3.799  0.00  0.00     0.026 A 
ATOM      8  C6  UNL d   1      -1.861   1.386   2.778  0.00  0.00    -0.082 A 
ATOM      9  C7  UNL d   1      -0.739   1.978   2.149  0.00  0.00     0.045 A 
ENDROOT
TORSDOF 0
ENDMDL
