MODEL 1
REMARK minimizedAffinity 1.65895557
REMARK minimizedRMSD -1
REMARK  0 active torsions:
REMARK  status: ('A' for Active; 'I' for Inactive)
ROOT
ATOM      1  C   UNL d   1       1.410  -2.621  -0.417  0.00  0.00    -0.002 A 
ATOM      2  C1  UNL d   1       1.614  -1.735  -1.466  0.00  0.00     0.010 A 
ATOM      3  C2  UNL d   1       0.965  -0.500  -1.489  0.00  0.00     0.041 A 
ATOM      4  C3  UNL d   1       0.100  -0.164  -0.428  0.00  0.00    -0.075 A 
ATOM      5  S   UNL d   1      -0.801   1.294  -0.243  0.00  0.00     0.015 SA
ATOM      6  C4  UNL d   1      -1.478   0.776   1.233  0.00  0.00     0.022 A 
ATOM      7  C5  UNL d   1      -1.038  -0.476   1.591  0.00  0.00     0.026 A 
ATOM      8  C6  UNL d   1      -0.120  -1.039   0.640  0.00  0.00    -0.082 A 
ATOM      9  C7  UNL d   1       0.552  -2.285   0.633  0.00  0.00     0.045 A 
ENDROOT
TORSDOF 0
ENDMDL
