MODEL 1
REMARK minimizedAffinity -2.60063767
REMARK minimizedRMSD -1
REMARK  0 active torsions:
REMARK  status: ('A' for Active; 'I' for Inactive)
ROOT
ATOM      1  C   UNL d   1       2.600  -0.472  -1.862  0.00  0.00    -0.002 A 
ATOM      2  C1  UNL d   1       2.300   0.883  -1.833  0.00  0.00     0.010 A 
ATOM      3  C2  UNL d   1       1.161   1.344  -1.170  0.00  0.00     0.041 A 
ATOM      4  C3  UNL d   1       0.322   0.412  -0.527  0.00  0.00    -0.075 A 
ATOM      5  S   UNL d   1      -1.125   0.746   0.348  0.00  0.00     0.015 SA
ATOM      6  C4  UNL d   1      -1.378  -0.901   0.706  0.00  0.00     0.022 A 
ATOM      7  C5  UNL d   1      -0.392  -1.700   0.178  0.00  0.00     0.026 A 
ATOM      8  C6  UNL d   1       0.605  -0.957  -0.541  0.00  0.00    -0.082 A 
ATOM      9  C7  UNL d   1       1.766  -1.393  -1.223  0.00  0.00     0.045 A 
ENDROOT
TORSDOF 0
ENDMDL
