MODEL 1
REMARK minimizedAffinity 13.6650858
REMARK minimizedRMSD -1
REMARK  0 active torsions:
REMARK  status: ('A' for Active; 'I' for Inactive)
ROOT
ATOM      1  C   UNL d   1       0.792  -2.499  -2.626  0.00  0.00    -0.002 A 
ATOM      2  C1  UNL d   1       1.949  -2.634  -1.872  0.00  0.00     0.010 A 
ATOM      3  C2  UNL d   1       1.962  -2.278  -0.522  0.00  0.00     0.041 A 
ATOM      4  C3  UNL d   1       0.781  -1.781   0.063  0.00  0.00    -0.075 A 
ATOM      5  S   UNL d   1       0.562  -1.282   1.699  0.00  0.00     0.015 SA
ATOM      6  C4  UNL d   1      -1.072  -0.878   1.435  0.00  0.00     0.022 A 
ATOM      7  C5  UNL d   1      -1.458  -1.111   0.137  0.00  0.00     0.026 A 
ATOM      8  C6  UNL d   1      -0.396  -1.636  -0.675  0.00  0.00    -0.082 A 
ATOM      9  C7  UNL d   1      -0.377  -2.005  -2.042  0.00  0.00     0.045 A 
ENDROOT
TORSDOF 0
ENDMDL
