MODEL 1
REMARK minimizedAffinity -2.59731698
REMARK minimizedRMSD -1
REMARK  0 active torsions:
REMARK  status: ('A' for Active; 'I' for Inactive)
ROOT
ATOM      1  C   UNL d   1       1.017   0.104  -1.117  0.00  0.00     0.124 A 
ATOM      2  C1  UNL d   1       0.313   1.285  -0.929  0.00  0.00     0.062 A 
ATOM      3  C2  UNL d   1      -0.622   1.388   0.097  0.00  0.00     0.162 A 
ATOM      4  C3  UNL d   1      -0.858   0.305   0.945  0.00  0.00    -0.034 A 
ATOM      5  C4  UNL d   1      -0.147  -0.880   0.749  0.00  0.00     0.162 A 
ATOM      6  C5  UNL d   1       0.786  -0.977  -0.278  0.00  0.00     0.062 A 
ATOM      7  F   UNL d   1       1.466  -2.120  -0.457  0.00  0.00    -0.097 F 
ATOM      8  F1  UNL d   1      -0.349  -1.940   1.546  0.00  0.00    -0.096 F 
ATOM      9  I   UNL d   1      -2.255   0.455   2.480  0.00  0.00    -0.060 I 
ATOM     10  F2  UNL d   1      -1.288   2.541   0.255  0.00  0.00    -0.096 F 
ATOM     11  F3  UNL d   1       0.533   2.331  -1.739  0.00  0.00    -0.097 F 
ATOM     12  F4  UNL d   1       1.915   0.008  -2.106  0.00  0.00    -0.092 F 
ENDROOT
TORSDOF 0
ENDMDL
