MODEL 1
REMARK minimizedAffinity -3.19837952
REMARK minimizedRMSD -1
REMARK  0 active torsions:
REMARK  status: ('A' for Active; 'I' for Inactive)
ROOT
ATOM      1  C   UNL d   1      -0.768   2.279   1.222  0.00  0.00     0.124 A 
ATOM      2  C1  UNL d   1      -1.501   1.359   1.959  0.00  0.00     0.062 A 
ATOM      3  C2  UNL d   1      -1.535   0.022   1.576  0.00  0.00     0.162 A 
ATOM      4  C3  UNL d   1      -0.831  -0.405   0.450  0.00  0.00    -0.034 A 
ATOM      5  C4  UNL d   1      -0.096   0.525  -0.287  0.00  0.00     0.162 A 
ATOM      6  C5  UNL d   1      -0.066   1.861   0.100  0.00  0.00     0.062 A 
ATOM      7  F   UNL d   1       0.643   2.748  -0.614  0.00  0.00    -0.097 F 
ATOM      8  F1  UNL d   1       0.591   0.148  -1.375  0.00  0.00    -0.096 F 
ATOM      9  I   UNL d   1      -0.879  -2.405  -0.127  0.00  0.00    -0.060 I 
ATOM     10  F2  UNL d   1      -2.252  -0.844   2.307  0.00  0.00    -0.096 F 
ATOM     11  F3  UNL d   1      -2.181   1.761   3.043  0.00  0.00    -0.097 F 
ATOM     12  F4  UNL d   1      -0.738   3.565   1.592  0.00  0.00    -0.092 F 
ENDROOT
TORSDOF 0
ENDMDL
