MODEL 1
REMARK minimizedAffinity -1.22434556
REMARK minimizedRMSD -1
REMARK  0 active torsions:
REMARK  status: ('A' for Active; 'I' for Inactive)
ROOT
ATOM      1  C   UNL d   1       0.128   2.138   0.567  0.00  0.00     0.124 A 
ATOM      2  C1  UNL d   1      -0.613   2.514   1.678  0.00  0.00     0.062 A 
ATOM      3  C2  UNL d   1      -1.541   1.636   2.231  0.00  0.00     0.162 A 
ATOM      4  C3  UNL d   1      -1.732   0.372   1.673  0.00  0.00    -0.034 A 
ATOM      5  C4  UNL d   1      -0.984   0.001   0.555  0.00  0.00     0.162 A 
ATOM      6  C5  UNL d   1      -0.058   0.882   0.006  0.00  0.00     0.062 A 
ATOM      7  F   UNL d   1       0.657   0.517  -1.068  0.00  0.00    -0.097 F 
ATOM      8  F1  UNL d   1      -1.143  -1.207  -0.007  0.00  0.00    -0.096 F 
ATOM      9  I   UNL d   1      -3.119  -0.944   2.496  0.00  0.00    -0.060 I 
ATOM     10  F2  UNL d   1      -2.243   2.026   3.305  0.00  0.00    -0.096 F 
ATOM     11  F3  UNL d   1      -0.436   3.727   2.221  0.00  0.00    -0.097 F 
ATOM     12  F4  UNL d   1       1.020   2.985   0.037  0.00  0.00    -0.092 F 
ENDROOT
TORSDOF 0
ENDMDL
