MODEL 1
REMARK minimizedAffinity 2.47470975
REMARK minimizedRMSD -1
REMARK  0 active torsions:
REMARK  status: ('A' for Active; 'I' for Inactive)
ROOT
ATOM      1  C   UNL d   1       0.390  -2.194  -0.075  0.00  0.00     0.124 A 
ATOM      2  C1  UNL d   1       1.380  -1.777  -0.953  0.00  0.00     0.062 A 
ATOM      3  C2  UNL d   1       1.408  -0.459  -1.402  0.00  0.00     0.162 A 
ATOM      4  C3  UNL d   1       0.443   0.451  -0.971  0.00  0.00    -0.034 A 
ATOM      5  C4  UNL d   1      -0.551   0.024  -0.089  0.00  0.00     0.162 A 
ATOM      6  C5  UNL d   1      -0.574  -1.294   0.357  0.00  0.00     0.062 A 
ATOM      7  F   UNL d   1      -1.532  -1.696   1.206  0.00  0.00    -0.097 F 
ATOM      8  F1  UNL d   1      -1.494   0.873   0.345  0.00  0.00    -0.096 F 
ATOM      9  I   UNL d   1       0.481   2.422  -1.640  0.00  0.00    -0.060 I 
ATOM     10  F2  UNL d   1       2.376  -0.084  -2.250  0.00  0.00    -0.096 F 
ATOM     11  F3  UNL d   1       2.312  -2.645  -1.372  0.00  0.00    -0.097 F 
ATOM     12  F4  UNL d   1       0.365  -3.463   0.354  0.00  0.00    -0.092 F 
ENDROOT
TORSDOF 0
ENDMDL
