MODEL 1
REMARK minimizedAffinity -3.62430763
REMARK minimizedRMSD -1
REMARK  0 active torsions:
REMARK  status: ('A' for Active; 'I' for Inactive)
ROOT
ATOM      1  C   UNL d   1       1.492  -0.309  -2.108  0.00  0.00     0.124 A 
ATOM      2  C1  UNL d   1       0.686   0.821  -2.149  0.00  0.00     0.062 A 
ATOM      3  C2  UNL d   1      -0.209   1.079  -1.115  0.00  0.00     0.162 A 
ATOM      4  C3  UNL d   1      -0.304   0.206  -0.031  0.00  0.00    -0.034 A 
ATOM      5  C4  UNL d   1       0.509  -0.928   0.002  0.00  0.00     0.162 A 
ATOM      6  C5  UNL d   1       1.402  -1.182  -1.034  0.00  0.00     0.062 A 
ATOM      7  F   UNL d   1       2.180  -2.274  -0.993  0.00  0.00    -0.097 F 
ATOM      8  F1  UNL d   1       0.443  -1.789   1.029  0.00  0.00    -0.096 F 
ATOM      9  I   UNL d   1      -1.642   0.589   1.516  0.00  0.00    -0.060 I 
ATOM     10  F2  UNL d   1      -0.975   2.178  -1.181  0.00  0.00    -0.096 F 
ATOM     11  F3  UNL d   1       0.770   1.665  -3.187  0.00  0.00    -0.097 F 
ATOM     12  F4  UNL d   1       2.352  -0.556  -3.105  0.00  0.00    -0.092 F 
ENDROOT
TORSDOF 0
ENDMDL
