MODEL 1
REMARK minimizedAffinity -4.9668684
REMARK minimizedRMSD -1
REMARK  0 active torsions:
REMARK  status: ('A' for Active; 'I' for Inactive)
ROOT
ATOM      1  C   UNL d   1       0.470   0.222  -0.997  0.00  0.00     0.124 A 
ATOM      2  C1  UNL d   1       0.812  -0.552   0.103  0.00  0.00     0.062 A 
ATOM      3  C2  UNL d   1       0.238  -0.296   1.344  0.00  0.00     0.162 A 
ATOM      4  C3  UNL d   1      -0.685   0.739   1.493  0.00  0.00    -0.034 A 
ATOM      5  C4  UNL d   1      -1.023   1.514   0.382  0.00  0.00     0.162 A 
ATOM      6  C5  UNL d   1      -0.446   1.255  -0.856  0.00  0.00     0.062 A 
ATOM      7  F   UNL d   1      -0.777   2.004  -1.918  0.00  0.00    -0.097 F 
ATOM      8  F1  UNL d   1      -1.907   2.518   0.490  0.00  0.00    -0.096 F 
ATOM      9  I   UNL d   1      -1.546   1.125   3.348  0.00  0.00    -0.060 I 
ATOM     10  F2  UNL d   1       0.586  -1.061   2.390  0.00  0.00    -0.096 F 
ATOM     11  F3  UNL d   1       1.698  -1.550  -0.031  0.00  0.00    -0.097 F 
ATOM     12  F4  UNL d   1       1.025  -0.026  -2.191  0.00  0.00    -0.092 F 
ENDROOT
TORSDOF 0
ENDMDL
