MODEL 1
REMARK minimizedAffinity 5.26288462
REMARK minimizedRMSD -1
REMARK  0 active torsions:
REMARK  status: ('A' for Active; 'I' for Inactive)
ROOT
ATOM      1  C   UNL d   1       5.264   0.737   4.941  0.00  0.00     0.124 A 
ATOM      2  C1  UNL d   1       5.435   2.115   4.930  0.00  0.00     0.062 A 
ATOM      3  C2  UNL d   1       5.021   2.862   3.831  0.00  0.00     0.162 A 
ATOM      4  C3  UNL d   1       4.432   2.233   2.734  0.00  0.00    -0.034 A 
ATOM      5  C4  UNL d   1       4.265   0.847   2.752  0.00  0.00     0.162 A 
ATOM      6  C5  UNL d   1       4.680   0.105   3.853  0.00  0.00     0.062 A 
ATOM      7  F   UNL d   1       4.514  -1.226   3.862  0.00  0.00    -0.097 F 
ATOM      8  F1  UNL d   1       3.703   0.211   1.714  0.00  0.00    -0.096 F 
ATOM      9  I   UNL d   1       3.813   3.347   1.088  0.00  0.00    -0.060 I 
ATOM     10  F2  UNL d   1       5.199   4.191   3.847  0.00  0.00    -0.096 F 
ATOM     11  F3  UNL d   1       6.000   2.728   5.980  0.00  0.00    -0.097 F 
ATOM     12  F4  UNL d   1       5.664   0.021   6.000  0.00  0.00    -0.092 F 
ENDROOT
TORSDOF 0
ENDMDL
