MODEL 1
REMARK minimizedAffinity -3.82528424
REMARK minimizedRMSD -1
REMARK  0 active torsions:
REMARK  status: ('A' for Active; 'I' for Inactive)
ROOT
ATOM      1  C   UNL d   1       0.518   0.095  -0.837  0.00  0.00     0.124 A 
ATOM      2  C1  UNL d   1       0.038  -1.005  -0.140  0.00  0.00     0.062 A 
ATOM      3  C2  UNL d   1      -0.833  -0.830   0.932  0.00  0.00     0.162 A 
ATOM      4  C3  UNL d   1      -1.230   0.452   1.312  0.00  0.00    -0.034 A 
ATOM      5  C4  UNL d   1      -0.743   1.553   0.607  0.00  0.00     0.162 A 
ATOM      6  C5  UNL d   1       0.127   1.373  -0.463  0.00  0.00     0.062 A 
ATOM      7  F   UNL d   1       0.589   2.437  -1.136  0.00  0.00    -0.097 F 
ATOM      8  F1  UNL d   1      -1.105   2.799   0.947  0.00  0.00    -0.096 F 
ATOM      9  I   UNL d   1      -2.532   0.718   2.914  0.00  0.00    -0.060 I 
ATOM     10  F2  UNL d   1      -1.280  -1.911   1.587  0.00  0.00    -0.096 F 
ATOM     11  F3  UNL d   1       0.415  -2.241  -0.499  0.00  0.00    -0.097 F 
ATOM     12  F4  UNL d   1       1.356  -0.077  -1.867  0.00  0.00    -0.092 F 
ENDROOT
TORSDOF 0
ENDMDL
