MODEL 1
REMARK minimizedAffinity -1.86754382
REMARK minimizedRMSD -1
REMARK  0 active torsions:
REMARK  status: ('A' for Active; 'I' for Inactive)
ROOT
ATOM      1  C   UNL d   1      -2.044   1.555   2.093  0.00  0.00     0.124 A 
ATOM      2  C1  UNL d   1      -2.033   0.175   1.949  0.00  0.00     0.062 A 
ATOM      3  C2  UNL d   1      -1.218  -0.423   0.991  0.00  0.00     0.162 A 
ATOM      4  C3  UNL d   1      -0.406   0.360   0.171  0.00  0.00    -0.034 A 
ATOM      5  C4  UNL d   1      -0.422   1.748   0.322  0.00  0.00     0.162 A 
ATOM      6  C5  UNL d   1      -1.238   2.340   1.280  0.00  0.00     0.062 A 
ATOM      7  F   UNL d   1      -1.247   3.674   1.418  0.00  0.00    -0.097 F 
ATOM      8  F1  UNL d   1       0.346   2.530  -0.450  0.00  0.00    -0.096 F 
ATOM      9  I   UNL d   1       0.814  -0.529  -1.261  0.00  0.00    -0.060 I 
ATOM     10  F2  UNL d   1      -1.228  -1.759   0.874  0.00  0.00    -0.096 F 
ATOM     11  F3  UNL d   1      -2.811  -0.586   2.733  0.00  0.00    -0.097 F 
ATOM     12  F4  UNL d   1      -2.829   2.128   3.014  0.00  0.00    -0.092 F 
ENDROOT
TORSDOF 0
ENDMDL
