MODEL 1
REMARK minimizedAffinity 2.66732883
REMARK minimizedRMSD -1
REMARK  0 active torsions:
REMARK  status: ('A' for Active; 'I' for Inactive)
ROOT
ATOM      1  C   UNL d   1       1.902   1.950   0.206  0.00  0.00     0.124 A 
ATOM      2  C1  UNL d   1       0.523   1.866   0.075  0.00  0.00     0.062 A 
ATOM      3  C2  UNL d   1      -0.072   0.668  -0.311  0.00  0.00     0.162 A 
ATOM      4  C3  UNL d   1       0.713  -0.456  -0.568  0.00  0.00    -0.034 A 
ATOM      5  C4  UNL d   1       2.099  -0.363  -0.435  0.00  0.00     0.162 A 
ATOM      6  C5  UNL d   1       2.689   0.836  -0.050  0.00  0.00     0.062 A 
ATOM      7  F   UNL d   1       4.021   0.916   0.076  0.00  0.00    -0.097 F 
ATOM      8  F1  UNL d   1       2.884  -1.425  -0.675  0.00  0.00    -0.096 F 
ATOM      9  I   UNL d   1      -0.172  -2.249  -1.145  0.00  0.00    -0.060 I 
ATOM     10  F2  UNL d   1      -1.407   0.615  -0.430  0.00  0.00    -0.096 F 
ATOM     11  F3  UNL d   1      -0.240   2.941   0.320  0.00  0.00    -0.097 F 
ATOM     12  F4  UNL d   1       2.471   3.105   0.576  0.00  0.00    -0.092 F 
ENDROOT
TORSDOF 0
ENDMDL
