MODEL 1
REMARK minimizedAffinity -1.94016922
REMARK minimizedRMSD -1
REMARK  0 active torsions:
REMARK  status: ('A' for Active; 'I' for Inactive)
ROOT
ATOM      1  C   UNL d   1       1.323  -1.259  -1.045  0.00  0.00     0.124 A 
ATOM      2  C1  UNL d   1      -0.005  -1.280  -0.639  0.00  0.00     0.062 A 
ATOM      3  C2  UNL d   1      -0.524  -0.229   0.111  0.00  0.00     0.162 A 
ATOM      4  C3  UNL d   1       0.284   0.853   0.461  0.00  0.00    -0.034 A 
ATOM      5  C4  UNL d   1       1.618   0.867   0.051  0.00  0.00     0.162 A 
ATOM      6  C5  UNL d   1       2.132  -0.186  -0.699  0.00  0.00     0.062 A 
ATOM      7  F   UNL d   1       3.415  -0.164  -1.090  0.00  0.00    -0.097 F 
ATOM      8  F1  UNL d   1       2.422   1.891   0.370  0.00  0.00    -0.096 F 
ATOM      9  I   UNL d   1      -0.490   2.426   1.583  0.00  0.00    -0.060 I 
ATOM     10  F2  UNL d   1      -1.810  -0.276   0.489  0.00  0.00    -0.096 F 
ATOM     11  F3  UNL d   1      -0.789  -2.316  -0.971  0.00  0.00    -0.097 F 
ATOM     12  F4  UNL d   1       1.820  -2.271  -1.766  0.00  0.00    -0.092 F 
ENDROOT
TORSDOF 0
ENDMDL
