MODEL 1
REMARK minimizedAffinity -1.3255161
REMARK minimizedRMSD -1
REMARK  0 active torsions:
REMARK  status: ('A' for Active; 'I' for Inactive)
ROOT
ATOM      1  C   UNL d   1       0.696   0.215  -0.997  0.00  0.00     0.124 A 
ATOM      2  C1  UNL d   1       0.863  -0.578   0.129  0.00  0.00     0.062 A 
ATOM      3  C2  UNL d   1       0.104  -0.340   1.272  0.00  0.00     0.162 A 
ATOM      4  C3  UNL d   1      -0.829   0.696   1.293  0.00  0.00    -0.034 A 
ATOM      5  C4  UNL d   1      -0.991   1.490   0.157  0.00  0.00     0.162 A 
ATOM      6  C5  UNL d   1      -0.231   1.248  -0.983  0.00  0.00     0.062 A 
ATOM      7  F   UNL d   1      -0.393   2.015  -2.070  0.00  0.00    -0.097 F 
ATOM      8  F1  UNL d   1      -1.880   2.495   0.143  0.00  0.00    -0.096 F 
ATOM      9  I   UNL d   1      -1.965   1.056   3.000  0.00  0.00    -0.060 I 
ATOM     10  F2  UNL d   1       0.287  -1.122   2.346  0.00  0.00    -0.096 F 
ATOM     11  F3  UNL d   1       1.758  -1.577   0.118  0.00  0.00    -0.097 F 
ATOM     12  F4  UNL d   1       1.428  -0.016  -2.095  0.00  0.00    -0.092 F 
ENDROOT
TORSDOF 0
ENDMDL
