MODEL 1
REMARK minimizedAffinity -4.4243145
REMARK minimizedRMSD -1
REMARK  0 active torsions:
REMARK  status: ('A' for Active; 'I' for Inactive)
ROOT
ATOM      1  C   UNL d   1       1.317  -1.594  -1.119  0.00  0.00     0.124 A 
ATOM      2  C1  UNL d   1       2.237  -0.583  -0.879  0.00  0.00     0.062 A 
ATOM      3  C2  UNL d   1       1.842   0.584  -0.232  0.00  0.00     0.162 A 
ATOM      4  C3  UNL d   1       0.519   0.747   0.181  0.00  0.00    -0.034 A 
ATOM      5  C4  UNL d   1      -0.401  -0.274  -0.065  0.00  0.00     0.162 A 
ATOM      6  C5  UNL d   1      -0.001  -1.439  -0.712  0.00  0.00     0.062 A 
ATOM      7  F   UNL d   1      -0.891  -2.414  -0.943  0.00  0.00    -0.097 F 
ATOM      8  F1  UNL d   1      -1.680  -0.151   0.318  0.00  0.00    -0.096 F 
ATOM      9  I   UNL d   1      -0.076   2.490   1.148  0.00  0.00    -0.060 I 
ATOM     10  F2  UNL d   1       2.752   1.545  -0.013  0.00  0.00    -0.096 F 
ATOM     11  F3  UNL d   1       3.510  -0.730  -1.272  0.00  0.00    -0.097 F 
ATOM     12  F4  UNL d   1       1.700  -2.716  -1.743  0.00  0.00    -0.092 F 
ENDROOT
TORSDOF 0
ENDMDL
