MODEL 1
REMARK minimizedAffinity -1.5506556
REMARK minimizedRMSD -1
REMARK  0 active torsions:
REMARK  status: ('A' for Active; 'I' for Inactive)
ROOT
ATOM      1  C   UNL d   1      -1.100   2.053   0.174  0.00  0.00     0.124 A 
ATOM      2  C1  UNL d   1      -1.018   0.743   0.624  0.00  0.00     0.062 A 
ATOM      3  C2  UNL d   1      -0.117  -0.143   0.041  0.00  0.00     0.162 A 
ATOM      4  C3  UNL d   1       0.711   0.279  -0.999  0.00  0.00    -0.034 A 
ATOM      5  C4  UNL d   1       0.623   1.598  -1.448  0.00  0.00     0.162 A 
ATOM      6  C5  UNL d   1      -0.280   2.479  -0.862  0.00  0.00     0.062 A 
ATOM      7  F   UNL d   1      -0.358   3.744  -1.298  0.00  0.00    -0.097 F 
ATOM      8  F1  UNL d   1       1.404   2.036  -2.446  0.00  0.00    -0.096 F 
ATOM      9  I   UNL d   1       2.061  -1.043  -1.874  0.00  0.00    -0.060 I 
ATOM     10  F2  UNL d   1      -0.059  -1.403   0.497  0.00  0.00    -0.096 F 
ATOM     11  F3  UNL d   1      -1.810   0.328   1.624  0.00  0.00    -0.097 F 
ATOM     12  F4  UNL d   1      -1.969   2.903   0.736  0.00  0.00    -0.092 F 
ENDROOT
TORSDOF 0
ENDMDL
