MODEL 1
REMARK minimizedAffinity 1.94237256
REMARK minimizedRMSD -1
REMARK  0 active torsions:
REMARK  status: ('A' for Active; 'I' for Inactive)
ROOT
ATOM      1  C   UNL d   1       0.807   0.728  -1.535  0.00  0.00     0.124 A 
ATOM      2  C1  UNL d   1       0.702  -0.465  -0.834  0.00  0.00     0.062 A 
ATOM      3  C2  UNL d   1       0.111  -0.487   0.426  0.00  0.00     0.162 A 
ATOM      4  C3  UNL d   1      -0.381   0.688   0.993  0.00  0.00    -0.034 A 
ATOM      5  C4  UNL d   1      -0.271   1.885   0.283  0.00  0.00     0.162 A 
ATOM      6  C5  UNL d   1       0.320   1.902  -0.976  0.00  0.00     0.062 A 
ATOM      7  F   UNL d   1       0.420   3.056  -1.652  0.00  0.00    -0.097 F 
ATOM      8  F1  UNL d   1      -0.734   3.033   0.799  0.00  0.00    -0.096 F 
ATOM      9  I   UNL d   1      -1.265   0.659   2.877  0.00  0.00    -0.060 I 
ATOM     10  F2  UNL d   1       0.024  -1.655   1.081  0.00  0.00    -0.096 F 
ATOM     11  F3  UNL d   1       1.172  -1.600  -1.371  0.00  0.00    -0.097 F 
ATOM     12  F4  UNL d   1       1.376   0.747  -2.747  0.00  0.00    -0.092 F 
ENDROOT
TORSDOF 0
ENDMDL
