MODEL 1
REMARK minimizedAffinity 2.33788037
REMARK minimizedRMSD -1
REMARK  0 active torsions:
REMARK  status: ('A' for Active; 'I' for Inactive)
ROOT
ATOM      1  C   UNL d   1      -0.181   2.796  -0.522  0.00  0.00     0.124 A 
ATOM      2  C1  UNL d   1      -0.632   2.258   0.674  0.00  0.00     0.062 A 
ATOM      3  C2  UNL d   1      -0.601   0.881   0.879  0.00  0.00     0.162 A 
ATOM      4  C3  UNL d   1      -0.115   0.033  -0.116  0.00  0.00    -0.034 A 
ATOM      5  C4  UNL d   1       0.337   0.582  -1.317  0.00  0.00     0.162 A 
ATOM      6  C5  UNL d   1       0.304   1.958  -1.517  0.00  0.00     0.062 A 
ATOM      7  F   UNL d   1       0.740   2.476  -2.674  0.00  0.00    -0.097 F 
ATOM      8  F1  UNL d   1       0.811  -0.205  -2.295  0.00  0.00    -0.096 F 
ATOM      9  I   UNL d   1      -0.066  -2.026   0.186  0.00  0.00    -0.060 I 
ATOM     10  F2  UNL d   1      -1.044   0.389   2.045  0.00  0.00    -0.096 F 
ATOM     11  F3  UNL d   1      -1.101   3.065   1.636  0.00  0.00    -0.097 F 
ATOM     12  F4  UNL d   1      -0.213   4.121  -0.717  0.00  0.00    -0.092 F 
ENDROOT
TORSDOF 0
ENDMDL
