MODEL 1
REMARK minimizedAffinity -3.39318705
REMARK minimizedRMSD -1
REMARK  0 active torsions:
REMARK  status: ('A' for Active; 'I' for Inactive)
ROOT
ATOM      1  C   UNL d   1       1.426  -1.345  -0.487  0.00  0.00     0.124 A 
ATOM      2  C1  UNL d   1       0.145  -1.663  -0.059  0.00  0.00     0.062 A 
ATOM      3  C2  UNL d   1      -0.649  -0.696   0.552  0.00  0.00     0.162 A 
ATOM      4  C3  UNL d   1      -0.163   0.599   0.737  0.00  0.00    -0.034 A 
ATOM      5  C4  UNL d   1       1.127   0.910   0.304  0.00  0.00     0.162 A 
ATOM      6  C5  UNL d   1       1.916  -0.060  -0.305  0.00  0.00     0.062 A 
ATOM      7  F   UNL d   1       3.154   0.248  -0.718  0.00  0.00    -0.097 F 
ATOM      8  F1  UNL d   1       1.626   2.145   0.467  0.00  0.00    -0.096 F 
ATOM      9  I   UNL d   1      -1.346   2.048   1.650  0.00  0.00    -0.060 I 
ATOM     10  F2  UNL d   1      -1.883  -1.030   0.956  0.00  0.00    -0.096 F 
ATOM     11  F3  UNL d   1      -0.331  -2.904  -0.233  0.00  0.00    -0.097 F 
ATOM     12  F4  UNL d   1       2.188  -2.278  -1.074  0.00  0.00    -0.092 F 
ENDROOT
TORSDOF 0
ENDMDL
