MODEL 1
REMARK minimizedAffinity -3.83577156
REMARK minimizedRMSD -1
REMARK  0 active torsions:
REMARK  status: ('A' for Active; 'I' for Inactive)
ROOT
ATOM      1  O1  BZF d   1       0.545   0.774   1.555  0.00  0.00    -0.204 OA
ATOM      2  C2  BZF d   1       1.018   2.071   1.589  0.00  0.00     0.174 A 
ATOM      3  C3  BZF d   1       1.672   2.372   0.448  0.00  0.00    -0.012 A 
ATOM      4  C3A BZF d   1       1.524   1.219  -0.386  0.00  0.00    -0.107 A 
ATOM      5  C4  BZF d   1       1.941   0.914  -1.650  0.00  0.00     0.055 A 
ATOM      6  C5  BZF d   1       1.694  -0.326  -2.146  0.00  0.00    -0.016 A 
ATOM      7  C6  BZF d   1       1.039  -1.288  -1.405  0.00  0.00     0.022 A 
ATOM      8  C7  BZF d   1       0.602  -1.031  -0.148  0.00  0.00     0.029 A 
ATOM      9  C7A BZF d   1       0.821   0.232   0.344  0.00  0.00     0.058 A 
ENDROOT
TORSDOF 0
ENDMDL
