MODEL 1
REMARK minimizedAffinity -0.28425622
REMARK minimizedRMSD -1
REMARK  0 active torsions:
REMARK  status: ('A' for Active; 'I' for Inactive)
ROOT
ATOM      1  O1  BZF d   1      -0.157   0.427   1.085  0.00  0.00    -0.204 OA
ATOM      2  C2  BZF d   1      -0.959  -0.698   1.076  0.00  0.00     0.174 A 
ATOM      3  C3  BZF d   1      -0.869  -1.339  -0.107  0.00  0.00    -0.012 A 
ATOM      4  C3A BZF d   1       0.116  -0.617  -0.853  0.00  0.00    -0.107 A 
ATOM      5  C4  BZF d   1       0.655  -0.777  -2.097  0.00  0.00     0.055 A 
ATOM      6  C5  BZF d   1       1.544   0.144  -2.556  0.00  0.00    -0.016 A 
ATOM      7  C6  BZF d   1       1.910   1.238  -1.800  0.00  0.00     0.022 A 
ATOM      8  C7  BZF d   1       1.406   1.436  -0.557  0.00  0.00     0.029 A 
ATOM      9  C7A BZF d   1       0.534   0.490  -0.078  0.00  0.00     0.058 A 
ENDROOT
TORSDOF 0
ENDMDL
