MODEL 1
REMARK minimizedAffinity -3.66426325
REMARK minimizedRMSD -1
REMARK  0 active torsions:
REMARK  status: ('A' for Active; 'I' for Inactive)
ROOT
ATOM      1  O1  BZF d   1      -0.428   0.055   1.079  0.00  0.00    -0.204 OA
ATOM      2  C2  BZF d   1      -0.500   0.171  -0.296  0.00  0.00     0.174 A 
ATOM      3  C3  BZF d   1       0.367   1.102  -0.744  0.00  0.00    -0.012 A 
ATOM      4  C3A BZF d   1       1.087   1.534   0.415  0.00  0.00    -0.107 A 
ATOM      5  C4  BZF d   1       2.094   2.434   0.613  0.00  0.00     0.055 A 
ATOM      6  C5  BZF d   1       2.525   2.676   1.879  0.00  0.00    -0.016 A 
ATOM      7  C6  BZF d   1       1.968   2.041   2.969  0.00  0.00     0.022 A 
ATOM      8  C7  BZF d   1       0.970   1.135   2.822  0.00  0.00     0.029 A 
ATOM      9  C7A BZF d   1       0.555   0.864   1.541  0.00  0.00     0.058 A 
ENDROOT
TORSDOF 0
ENDMDL
