MODEL 1
REMARK minimizedAffinity -3.49289513
REMARK minimizedRMSD -1
REMARK  0 active torsions:
REMARK  status: ('A' for Active; 'I' for Inactive)
ROOT
ATOM      1  O1  BZF d   1       0.160  -0.251   0.888  0.00  0.00    -0.204 OA
ATOM      2  C2  BZF d   1       0.408   1.059   1.249  0.00  0.00     0.174 A 
ATOM      3  C3  BZF d   1       1.174   1.673   0.324  0.00  0.00    -0.012 A 
ATOM      4  C3A BZF d   1       1.344   0.712  -0.723  0.00  0.00    -0.107 A 
ATOM      5  C4  BZF d   1       1.994   0.735  -1.923  0.00  0.00     0.055 A 
ATOM      6  C5  BZF d   1       2.029  -0.395  -2.677  0.00  0.00    -0.016 A 
ATOM      7  C6  BZF d   1       1.430  -1.565  -2.260  0.00  0.00     0.022 A 
ATOM      8  C7  BZF d   1       0.768  -1.636  -1.080  0.00  0.00     0.029 A 
ATOM      9  C7A BZF d   1       0.703  -0.486  -0.330  0.00  0.00     0.058 A 
ENDROOT
TORSDOF 0
ENDMDL
