MODEL 1
REMARK minimizedAffinity 3.08261538
REMARK minimizedRMSD -1
REMARK  0 active torsions:
REMARK  status: ('A' for Active; 'I' for Inactive)
ROOT
ATOM      1  O1  BZF d   1      -1.842  -1.094  -0.095  0.00  0.00    -0.204 OA
ATOM      2  C2  BZF d   1      -0.593  -0.524   0.063  0.00  0.00     0.174 A 
ATOM      3  C3  BZF d   1      -0.667   0.586   0.825  0.00  0.00    -0.012 A 
ATOM      4  C3A BZF d   1      -2.033   0.667   1.242  0.00  0.00    -0.107 A 
ATOM      5  C4  BZF d   1      -2.724   1.542   2.029  0.00  0.00     0.055 A 
ATOM      6  C5  BZF d   1      -4.065   1.380   2.178  0.00  0.00    -0.016 A 
ATOM      7  C6  BZF d   1      -4.747   0.358   1.551  0.00  0.00     0.022 A 
ATOM      8  C7  BZF d   1      -4.104  -0.539   0.764  0.00  0.00     0.029 A 
ATOM      9  C7A BZF d   1      -2.743  -0.397   0.638  0.00  0.00     0.058 A 
ENDROOT
TORSDOF 0
ENDMDL
