MODEL 1
REMARK minimizedAffinity -1.81409276
REMARK minimizedRMSD -1
REMARK  0 active torsions:
REMARK  status: ('A' for Active; 'I' for Inactive)
ROOT
ATOM      1  O1  BZF d   1       0.355   0.013   1.100  0.00  0.00    -0.204 OA
ATOM      2  C2  BZF d   1       0.300   0.380  -0.231  0.00  0.00     0.174 A 
ATOM      3  C3  BZF d   1       0.904   1.570  -0.424  0.00  0.00    -0.012 A 
ATOM      4  C3A BZF d   1       1.446   1.929   0.850  0.00  0.00    -0.107 A 
ATOM      5  C4  BZF d   1       2.173   2.996   1.295  0.00  0.00     0.055 A 
ATOM      6  C5  BZF d   1       2.483   3.080   2.615  0.00  0.00    -0.016 A 
ATOM      7  C6  BZF d   1       2.079   2.119   3.518  0.00  0.00     0.022 A 
ATOM      8  C7  BZF d   1       1.362   1.039   3.124  0.00  0.00     0.029 A 
ATOM      9  C7A BZF d   1       1.075   0.935   1.785  0.00  0.00     0.058 A 
ENDROOT
TORSDOF 0
ENDMDL
