MODEL 1
REMARK minimizedAffinity -3.05119181
REMARK minimizedRMSD -1
REMARK  0 active torsions:
REMARK  status: ('A' for Active; 'I' for Inactive)
ROOT
ATOM      1  O1  BZF d   1       2.335   2.540   1.919  0.00  0.00    -0.204 OA
ATOM      2  C2  BZF d   1       2.173   2.041   3.197  0.00  0.00     0.174 A 
ATOM      3  C3  BZF d   1       1.233   1.074   3.217  0.00  0.00    -0.012 A 
ATOM      4  C3A BZF d   1       0.845   0.897   1.851  0.00  0.00    -0.107 A 
ATOM      5  C4  BZF d   1      -0.042   0.068   1.227  0.00  0.00     0.055 A 
ATOM      6  C5  BZF d   1      -0.238   0.198  -0.111  0.00  0.00    -0.016 A 
ATOM      7  C6  BZF d   1       0.431   1.149  -0.854  0.00  0.00     0.022 A 
ATOM      8  C7  BZF d   1       1.324   1.991  -0.280  0.00  0.00     0.029 A 
ATOM      9  C7A BZF d   1       1.549   1.840   1.066  0.00  0.00     0.058 A 
ENDROOT
TORSDOF 0
ENDMDL
