MODEL 1
REMARK minimizedAffinity -1.79938209
REMARK minimizedRMSD -1
REMARK  0 active torsions:
REMARK  status: ('A' for Active; 'I' for Inactive)
ROOT
ATOM      1  O1  BZF d   1       0.263   0.457   0.637  0.00  0.00    -0.204 OA
ATOM      2  C2  BZF d   1      -0.938  -0.187   0.412  0.00  0.00     0.174 A 
ATOM      3  C3  BZF d   1      -0.998  -0.660  -0.850  0.00  0.00    -0.012 A 
ATOM      4  C3A BZF d   1       0.281  -0.369  -1.422  0.00  0.00    -0.107 A 
ATOM      5  C4  BZF d   1       0.838  -0.607  -2.646  0.00  0.00     0.055 A 
ATOM      6  C5  BZF d   1       2.082  -0.129  -2.910  0.00  0.00    -0.016 A 
ATOM      7  C6  BZF d   1       2.795   0.594  -1.976  0.00  0.00     0.022 A 
ATOM      8  C7  BZF d   1       2.286   0.851  -0.746  0.00  0.00     0.029 A 
ATOM      9  C7A BZF d   1       1.042   0.341  -0.465  0.00  0.00     0.058 A 
ENDROOT
TORSDOF 0
ENDMDL
