MODEL 1
REMARK minimizedAffinity -2.70941544
REMARK minimizedRMSD -1
REMARK  0 active torsions:
REMARK  status: ('A' for Active; 'I' for Inactive)
ROOT
ATOM      1  O1  BZF d   1       2.355   0.949  -2.079  0.00  0.00    -0.204 OA
ATOM      2  C2  BZF d   1       1.944   0.066  -3.058  0.00  0.00     0.174 A 
ATOM      3  C3  BZF d   1       0.966  -0.740  -2.597  0.00  0.00    -0.012 A 
ATOM      4  C3A BZF d   1       0.688  -0.274  -1.273  0.00  0.00    -0.107 A 
ATOM      5  C4  BZF d   1      -0.197  -0.661  -0.308  0.00  0.00     0.055 A 
ATOM      6  C5  BZF d   1      -0.164  -0.046   0.904  0.00  0.00    -0.016 A 
ATOM      7  C6  BZF d   1       0.742   0.955   1.186  0.00  0.00     0.022 A 
ATOM      8  C7  BZF d   1       1.637   1.376   0.259  0.00  0.00     0.029 A 
ATOM      9  C7A BZF d   1       1.584   0.779  -0.977  0.00  0.00     0.058 A 
ENDROOT
TORSDOF 0
ENDMDL
