MODEL 1
REMARK minimizedAffinity -2.40527296
REMARK minimizedRMSD -1
REMARK  0 active torsions:
REMARK  status: ('A' for Active; 'I' for Inactive)
ROOT
ATOM      1  O1  BZF d   1       0.625   0.374   2.688  0.00  0.00    -0.204 OA
ATOM      2  C2  BZF d   1       0.766   1.229   3.763  0.00  0.00     0.174 A 
ATOM      3  C3  BZF d   1      -0.430   1.730   4.136  0.00  0.00    -0.012 A 
ATOM      4  C3A BZF d   1      -1.388   1.079   3.296  0.00  0.00    -0.107 A 
ATOM      5  C4  BZF d   1      -2.749   1.146   3.198  0.00  0.00     0.055 A 
ATOM      6  C5  BZF d   1      -3.376   0.436   2.223  0.00  0.00    -0.016 A 
ATOM      7  C6  BZF d   1      -2.675  -0.345   1.328  0.00  0.00     0.022 A 
ATOM      8  C7  BZF d   1      -1.325  -0.447   1.389  0.00  0.00     0.029 A 
ATOM      9  C7A BZF d   1      -0.691   0.243   2.394  0.00  0.00     0.058 A 
ENDROOT
TORSDOF 0
ENDMDL
