MODEL 1
REMARK minimizedAffinity -3.85727286
REMARK minimizedRMSD -1
REMARK  0 active torsions:
REMARK  status: ('A' for Active; 'I' for Inactive)
ROOT
ATOM      1  O1  BZF d   1       2.306   0.030  -1.627  0.00  0.00    -0.204 OA
ATOM      2  C2  BZF d   1       2.027   0.354  -2.941  0.00  0.00     0.174 A 
ATOM      3  C3  BZF d   1       0.707   0.572  -3.110  0.00  0.00    -0.012 A 
ATOM      4  C3A BZF d   1       0.137   0.462  -1.802  0.00  0.00    -0.107 A 
ATOM      5  C4  BZF d   1      -1.133   0.591  -1.318  0.00  0.00     0.055 A 
ATOM      6  C5  BZF d   1      -1.366   0.349  -0.001  0.00  0.00    -0.016 A 
ATOM      7  C6  BZF d   1      -0.354  -0.028   0.858  0.00  0.00     0.022 A 
ATOM      8  C7  BZF d   1       0.923  -0.164   0.425  0.00  0.00     0.029 A 
ATOM      9  C7A BZF d   1       1.167   0.112  -0.898  0.00  0.00     0.058 A 
ENDROOT
TORSDOF 0
ENDMDL
