MODEL 1
REMARK minimizedAffinity 1.42028093
REMARK minimizedRMSD -1
REMARK  0 active torsions:
REMARK  status: ('A' for Active; 'I' for Inactive)
ROOT
ATOM      1  O1  BZF d   1       0.247   0.049   1.525  0.00  0.00    -0.204 OA
ATOM      2  C2  BZF d   1       0.544   1.373   1.267  0.00  0.00     0.174 A 
ATOM      3  C3  BZF d   1       0.790   1.561  -0.045  0.00  0.00    -0.012 A 
ATOM      4  C3A BZF d   1       0.547   0.292  -0.660  0.00  0.00    -0.107 A 
ATOM      5  C4  BZF d   1       0.607  -0.154  -1.949  0.00  0.00     0.055 A 
ATOM      6  C5  BZF d   1       0.382  -1.469  -2.204  0.00  0.00    -0.016 A 
ATOM      7  C6  BZF d   1       0.099  -2.366  -1.195  0.00  0.00     0.022 A 
ATOM      8  C7  BZF d   1       0.023  -1.970   0.099  0.00  0.00     0.029 A 
ATOM      9  C7A BZF d   1       0.218  -0.635   0.356  0.00  0.00     0.058 A 
ENDROOT
TORSDOF 0
ENDMDL
