MODEL 1
REMARK minimizedAffinity -4.32396412
REMARK minimizedRMSD -1
REMARK  0 active torsions:
REMARK  status: ('A' for Active; 'I' for Inactive)
ROOT
ATOM      1  O1  BZF d   1      -0.252   0.208   0.486  0.00  0.00    -0.204 OA
ATOM      2  C2  BZF d   1       0.511   1.064   1.257  0.00  0.00     0.174 A 
ATOM      3  C3  BZF d   1       1.662   1.377   0.629  0.00  0.00    -0.012 A 
ATOM      4  C3A BZF d   1       1.575   0.746  -0.653  0.00  0.00    -0.107 A 
ATOM      5  C4  BZF d   1       2.405   0.702  -1.736  0.00  0.00     0.055 A 
ATOM      6  C5  BZF d   1       2.058  -0.064  -2.803  0.00  0.00    -0.016 A 
ATOM      7  C6  BZF d   1       0.892  -0.801  -2.820  0.00  0.00     0.022 A 
ATOM      8  C7  BZF d   1       0.034  -0.785  -1.770  0.00  0.00     0.029 A 
ATOM      9  C7A BZF d   1       0.366   0.013  -0.704  0.00  0.00     0.058 A 
ENDROOT
TORSDOF 0
ENDMDL
