MODEL 1
REMARK minimizedAffinity 0.0216523409
REMARK minimizedRMSD -1
REMARK  0 active torsions:
REMARK  status: ('A' for Active; 'I' for Inactive)
ROOT
ATOM      1  O1  BZF d   1       0.183  -0.006   2.184  0.00  0.00    -0.204 OA
ATOM      2  C2  BZF d   1       0.673   1.285   2.204  0.00  0.00     0.174 A 
ATOM      3  C3  BZF d   1       1.045   1.675   0.968  0.00  0.00    -0.012 A 
ATOM      4  C3A BZF d   1       0.684   0.591   0.107  0.00  0.00    -0.107 A 
ATOM      5  C4  BZF d   1       0.785   0.388  -1.240  0.00  0.00     0.055 A 
ATOM      6  C5  BZF d   1       0.407  -0.810  -1.757  0.00  0.00    -0.016 A 
ATOM      7  C6  BZF d   1      -0.072  -1.828  -0.958  0.00  0.00     0.022 A 
ATOM      8  C7  BZF d   1      -0.195  -1.672   0.383  0.00  0.00     0.029 A 
ATOM      9  C7A BZF d   1       0.156  -0.450   0.904  0.00  0.00     0.058 A 
ENDROOT
TORSDOF 0
ENDMDL
