MODEL 1
REMARK minimizedAffinity -3.37105918
REMARK minimizedRMSD -1
REMARK  0 active torsions:
REMARK  status: ('A' for Active; 'I' for Inactive)
ROOT
ATOM      1  O1  BZF d   1      -6.000   1.378  -5.996  0.00  0.00    -0.204 OA
ATOM      2  C2  BZF d   1      -5.235   0.236  -5.856  0.00  0.00     0.174 A 
ATOM      3  C3  BZF d   1      -3.929   0.546  -5.730  0.00  0.00    -0.012 A 
ATOM      4  C3A BZF d   1      -3.884   1.976  -5.702  0.00  0.00    -0.107 A 
ATOM      5  C4  BZF d   1      -2.868   2.881  -5.578  0.00  0.00     0.055 A 
ATOM      6  C5  BZF d   1      -3.152   4.207  -5.662  0.00  0.00    -0.016 A 
ATOM      7  C6  BZF d   1      -4.436   4.663  -5.875  0.00  0.00     0.022 A 
ATOM      8  C7  BZF d   1      -5.477   3.804  -6.000  0.00  0.00     0.029 A 
ATOM      9  C7A BZF d   1      -5.199   2.464  -5.882  0.00  0.00     0.058 A 
ENDROOT
TORSDOF 0
ENDMDL
