MODEL 1
REMARK minimizedAffinity 2.75080228
REMARK minimizedRMSD -1
REMARK  0 active torsions:
REMARK  status: ('A' for Active; 'I' for Inactive)
ROOT
ATOM      1  O1  BZF d   1      -3.215   5.617  -6.000  0.00  0.00    -0.204 OA
ATOM      2  C2  BZF d   1      -1.912   5.163  -5.923  0.00  0.00     0.174 A 
ATOM      3  C3  BZF d   1      -1.880   3.822  -5.787  0.00  0.00    -0.012 A 
ATOM      4  C3A BZF d   1      -3.245   3.402  -5.871  0.00  0.00    -0.107 A 
ATOM      5  C4  BZF d   1      -3.857   2.182  -5.822  0.00  0.00     0.055 A 
ATOM      6  C5  BZF d   1      -5.214   2.122  -5.861  0.00  0.00    -0.016 A 
ATOM      7  C6  BZF d   1      -5.989   3.260  -5.943  0.00  0.00     0.022 A 
ATOM      8  C7  BZF d   1      -5.428   4.492  -6.000  0.00  0.00     0.029 A 
ATOM      9  C7A BZF d   1      -4.055   4.554  -5.994  0.00  0.00     0.058 A 
ENDROOT
TORSDOF 0
ENDMDL
