MODEL 1
REMARK minimizedAffinity 20.153038
REMARK minimizedRMSD -1
REMARK  1 active torsions:
REMARK  status: ('A' for Active; 'I' for Inactive)
REMARK    1  A    between atoms: C1_2  and  C2_3 
ROOT
ATOM      1  C2  UNL d   1      -3.272   3.361   3.800  0.00  0.00    -0.073 A 
ATOM      2  C3  UNL d   1      -2.038   3.985   3.582  0.00  0.00    -0.002 A 
ATOM      3  C4  UNL d   1      -1.775   5.238   4.138  0.00  0.00     0.004 A 
ATOM      4  C5  UNL d   1      -2.737   5.875   4.921  0.00  0.00    -0.004 A 
ATOM      5  C6  UNL d   1      -3.971   5.262   5.161  0.00  0.00    -0.075 A 
ATOM      6  C7  UNL d   1      -5.017   5.935   6.000  0.00  0.00     0.076 C 
ATOM      7  C8  UNL d   1      -4.229   4.005   4.597  0.00  0.00     0.001 A 
ENDROOT
BRANCH   1   8
ATOM      8  C1  UNL d   1      -3.559   2.005   3.208  0.00  0.00     0.053 C 
ATOM      9  C   UNL d   1      -2.289   1.198   2.990  0.00  0.00     0.018 C 
ENDBRANCH   1   8
TORSDOF 1
ENDMDL
