MODEL 1
REMARK minimizedAffinity 6.72530556
REMARK minimizedRMSD -1
REMARK  1 active torsions:
REMARK  status: ('A' for Active; 'I' for Inactive)
REMARK    1  A    between atoms: C1_2  and  C2_3 
ROOT
ATOM      1  C2  UNL d   1       2.468  -1.090  -2.077  0.00  0.00    -0.073 A 
ATOM      2  C3  UNL d   1       1.935  -2.364  -2.299  0.00  0.00    -0.002 A 
ATOM      3  C4  UNL d   1       0.749  -2.517  -3.019  0.00  0.00     0.004 A 
ATOM      4  C5  UNL d   1       0.090  -1.399  -3.531  0.00  0.00    -0.004 A 
ATOM      5  C6  UNL d   1       0.614  -0.118  -3.330  0.00  0.00    -0.075 A 
ATOM      6  C7  UNL d   1      -0.085   1.094  -3.872  0.00  0.00     0.076 C 
ATOM      7  C8  UNL d   1       1.803   0.027  -2.603  0.00  0.00     0.001 A 
ENDROOT
BRANCH   1   8
ATOM      8  C1  UNL d   1       3.751  -0.920  -1.304  0.00  0.00     0.053 C 
ATOM      9  C   UNL d   1       4.689   0.075  -1.968  0.00  0.00     0.018 C 
ENDBRANCH   1   8
TORSDOF 1
ENDMDL
