MODEL 1
REMARK minimizedAffinity 19.9774666
REMARK minimizedRMSD -1
REMARK  1 active torsions:
REMARK  status: ('A' for Active; 'I' for Inactive)
REMARK    1  A    between atoms: C1_2  and  C2_3 
ROOT
ATOM      1  C2  UNL d   1       1.706  -2.200  -1.886  0.00  0.00    -0.073 A 
ATOM      2  C3  UNL d   1       1.066  -2.971  -2.863  0.00  0.00    -0.002 A 
ATOM      3  C4  UNL d   1       0.399  -2.355  -3.923  0.00  0.00     0.004 A 
ATOM      4  C5  UNL d   1       0.370  -0.963  -4.020  0.00  0.00    -0.004 A 
ATOM      5  C6  UNL d   1       1.013  -0.176  -3.060  0.00  0.00    -0.075 A 
ATOM      6  C7  UNL d   1       0.990   1.322  -3.148  0.00  0.00     0.076 C 
ATOM      7  C8  UNL d   1       1.679  -0.802  -1.997  0.00  0.00     0.001 A 
ENDROOT
BRANCH   1   8
ATOM      8  C1  UNL d   1       2.433  -2.861  -0.744  0.00  0.00     0.053 C 
ATOM      9  C   UNL d   1       3.362  -1.896  -0.025  0.00  0.00     0.018 C 
ENDBRANCH   1   8
TORSDOF 1
ENDMDL
