MODEL 1
REMARK minimizedAffinity 16.4113121
REMARK minimizedRMSD -1
REMARK  1 active torsions:
REMARK  status: ('A' for Active; 'I' for Inactive)
REMARK    1  A    between atoms: C1_2  and  C2_3 
ROOT
ATOM      1  C2  UNL d   1      -1.337   0.514  -0.945  0.00  0.00    -0.073 A 
ATOM      2  C3  UNL d   1      -1.619   1.645  -1.718  0.00  0.00    -0.002 A 
ATOM      3  C4  UNL d   1      -0.634   2.207  -2.532  0.00  0.00     0.004 A 
ATOM      4  C5  UNL d   1       0.639   1.639  -2.586  0.00  0.00    -0.004 A 
ATOM      5  C6  UNL d   1       0.937   0.501  -1.830  0.00  0.00    -0.075 A 
ATOM      6  C7  UNL d   1       2.302  -0.120  -1.876  0.00  0.00     0.076 C 
ATOM      7  C8  UNL d   1      -0.057  -0.055  -1.014  0.00  0.00     0.001 A 
ENDROOT
BRANCH   1   8
ATOM      8  C1  UNL d   1      -2.399  -0.100  -0.070  0.00  0.00     0.053 C 
ATOM      9  C   UNL d   1      -2.185   0.225   1.400  0.00  0.00     0.018 C 
ENDBRANCH   1   8
TORSDOF 1
ENDMDL
