MODEL 1
REMARK minimizedAffinity 12.742135
REMARK minimizedRMSD -1
REMARK  1 active torsions:
REMARK  status: ('A' for Active; 'I' for Inactive)
REMARK    1  A    between atoms: C1_2  and  C2_3 
ROOT
ATOM      1  C2  UNL d   1       3.698  -0.791  -0.609  0.00  0.00    -0.073 A 
ATOM      2  C3  UNL d   1       4.785  -0.460  -1.426  0.00  0.00    -0.002 A 
ATOM      3  C4  UNL d   1       4.590   0.274  -2.596  0.00  0.00     0.004 A 
ATOM      4  C5  UNL d   1       3.309   0.690  -2.959  0.00  0.00    -0.004 A 
ATOM      5  C6  UNL d   1       2.212   0.379  -2.150  0.00  0.00    -0.075 A 
ATOM      6  C7  UNL d   1       0.827   0.817  -2.527  0.00  0.00     0.076 C 
ATOM      7  C8  UNL d   1       2.415  -0.361  -0.977  0.00  0.00     0.001 A 
ENDROOT
BRANCH   1   8
ATOM      8  C1  UNL d   1       3.904  -1.578   0.659  0.00  0.00     0.053 C 
ATOM      9  C   UNL d   1       3.900  -0.685   1.890  0.00  0.00     0.018 C 
ENDBRANCH   1   8
TORSDOF 1
ENDMDL
