MODEL 1
REMARK minimizedAffinity 16.3894711
REMARK minimizedRMSD -1
REMARK  1 active torsions:
REMARK  status: ('A' for Active; 'I' for Inactive)
REMARK    1  A    between atoms: C1_2  and  C2_3 
ROOT
ATOM      1  C2  UNL d   1      -3.859   0.605   3.453  0.00  0.00    -0.073 A 
ATOM      2  C3  UNL d   1      -2.524   0.937   3.710  0.00  0.00    -0.002 A 
ATOM      3  C4  UNL d   1      -2.022   2.182   3.328  0.00  0.00     0.004 A 
ATOM      4  C5  UNL d   1      -2.849   3.108   2.693  0.00  0.00    -0.004 A 
ATOM      5  C6  UNL d   1      -4.189   2.798   2.438  0.00  0.00    -0.075 A 
ATOM      6  C7  UNL d   1      -5.091   3.782   1.753  0.00  0.00     0.076 C 
ATOM      7  C8  UNL d   1      -4.685   1.545   2.822  0.00  0.00     0.001 A 
ENDROOT
BRANCH   1   8
ATOM      8  C1  UNL d   1      -4.408  -0.736   3.870  0.00  0.00     0.053 C 
ATOM      9  C   UNL d   1      -4.292  -0.958   5.370  0.00  0.00     0.018 C 
ENDBRANCH   1   8
TORSDOF 1
ENDMDL
