MODEL 1
REMARK minimizedAffinity 7.37355423
REMARK minimizedRMSD -1
REMARK  1 active torsions:
REMARK  status: ('A' for Active; 'I' for Inactive)
REMARK    1  A    between atoms: C1_2  and  C2_3 
ROOT
ATOM      1  C2  UNL d   1       1.981   2.859  -3.595  0.00  0.00    -0.073 A 
ATOM      2  C3  UNL d   1       0.978   2.427  -4.471  0.00  0.00    -0.002 A 
ATOM      3  C4  UNL d   1       0.411   1.160  -4.324  0.00  0.00     0.004 A 
ATOM      4  C5  UNL d   1       0.835   0.317  -3.297  0.00  0.00    -0.004 A 
ATOM      5  C6  UNL d   1       1.827   0.734  -2.405  0.00  0.00    -0.075 A 
ATOM      6  C7  UNL d   1       2.296  -0.162  -1.297  0.00  0.00     0.076 C 
ATOM      7  C8  UNL d   1       2.394   2.007  -2.561  0.00  0.00     0.001 A 
ENDROOT
BRANCH   1   8
ATOM      8  C1  UNL d   1       2.591   4.228  -3.746  0.00  0.00     0.053 C 
ATOM      9  C   UNL d   1       3.300   4.679  -2.479  0.00  0.00     0.018 C 
ENDBRANCH   1   8
TORSDOF 1
ENDMDL
