MODEL 1
REMARK minimizedAffinity 0.250369638
REMARK minimizedRMSD -1
REMARK  1 active torsions:
REMARK  status: ('A' for Active; 'I' for Inactive)
REMARK    1  A    between atoms: C1_2  and  C2_3 
ROOT
ATOM      1  C2  UNL d   1       1.879   1.508  -1.353  0.00  0.00    -0.073 A 
ATOM      2  C3  UNL d   1       0.760   0.670  -1.411  0.00  0.00    -0.002 A 
ATOM      3  C4  UNL d   1      -0.468   1.097  -0.905  0.00  0.00     0.004 A 
ATOM      4  C5  UNL d   1      -0.592   2.368  -0.343  0.00  0.00    -0.004 A 
ATOM      5  C6  UNL d   1       0.512   3.225  -0.287  0.00  0.00    -0.075 A 
ATOM      6  C7  UNL d   1       0.396   4.594   0.316  0.00  0.00     0.076 C 
ATOM      7  C8  UNL d   1       1.742   2.787  -0.795  0.00  0.00     0.001 A 
ENDROOT
BRANCH   1   8
ATOM      8  C1  UNL d   1       3.205   1.053  -1.904  0.00  0.00     0.053 C 
ATOM      9  C   UNL d   1       3.780  -0.114  -1.116  0.00  0.00     0.018 C 
ENDBRANCH   1   8
TORSDOF 1
ENDMDL
