MODEL 1
REMARK minimizedAffinity 16.555748
REMARK minimizedRMSD -1
REMARK  1 active torsions:
REMARK  status: ('A' for Active; 'I' for Inactive)
REMARK    1  A    between atoms: C1_2  and  C2_3 
ROOT
ATOM      1  C2  UNL d   1      -3.750   3.767   3.509  0.00  0.00    -0.073 A 
ATOM      2  C3  UNL d   1      -5.016   4.364   3.508  0.00  0.00    -0.002 A 
ATOM      3  C4  UNL d   1      -5.274   5.473   4.315  0.00  0.00     0.004 A 
ATOM      4  C5  UNL d   1      -4.269   6.000   5.126  0.00  0.00    -0.004 A 
ATOM      5  C6  UNL d   1      -2.994   5.425   5.132  0.00  0.00    -0.075 A 
ATOM      6  C7  UNL d   1      -1.902   5.979   6.000  0.00  0.00     0.076 C 
ATOM      7  C8  UNL d   1      -2.743   4.310   4.321  0.00  0.00     0.001 A 
ENDROOT
BRANCH   1   8
ATOM      8  C1  UNL d   1      -3.465   2.574   2.635  0.00  0.00     0.053 C 
ATOM      9  C   UNL d   1      -3.020   1.367   3.445  0.00  0.00     0.018 C 
ENDBRANCH   1   8
TORSDOF 1
ENDMDL
