MODEL 1
REMARK minimizedAffinity 3.25212431
REMARK minimizedRMSD -1
REMARK  1 active torsions:
REMARK  status: ('A' for Active; 'I' for Inactive)
REMARK    1  A    between atoms: C1_2  and  C2_3 
ROOT
ATOM      1  C2  UNL d   1       1.785   2.037  -4.203  0.00  0.00    -0.073 A 
ATOM      2  C3  UNL d   1       3.158   1.918  -4.444  0.00  0.00    -0.002 A 
ATOM      3  C4  UNL d   1       3.829   2.888  -5.191  0.00  0.00     0.004 A 
ATOM      4  C5  UNL d   1       3.137   3.987  -5.697  0.00  0.00    -0.004 A 
ATOM      5  C6  UNL d   1       1.766   4.130  -5.457  0.00  0.00    -0.075 A 
ATOM      6  C7  UNL d   1       1.006   5.306  -5.997  0.00  0.00     0.076 C 
ATOM      7  C8  UNL d   1       1.099   3.151  -4.708  0.00  0.00     0.001 A 
ENDROOT
BRANCH   1   8
ATOM      8  C1  UNL d   1       1.057   0.996  -3.392  0.00  0.00     0.053 C 
ATOM      9  C   UNL d   1       0.567   1.549  -2.063  0.00  0.00     0.018 C 
ENDBRANCH   1   8
TORSDOF 1
ENDMDL
