MODEL 1
REMARK minimizedAffinity 6.95854807
REMARK minimizedRMSD -1
REMARK  1 active torsions:
REMARK  status: ('A' for Active; 'I' for Inactive)
REMARK    1  A    between atoms: C1_2  and  C2_3 
ROOT
ATOM      1  C2  UNL d   1       1.626   3.277  -1.092  0.00  0.00    -0.073 A 
ATOM      2  C3  UNL d   1       2.221   3.803  -2.244  0.00  0.00    -0.002 A 
ATOM      3  C4  UNL d   1       2.175   3.097  -3.447  0.00  0.00     0.004 A 
ATOM      4  C5  UNL d   1       1.528   1.863  -3.512  0.00  0.00    -0.004 A 
ATOM      5  C6  UNL d   1       0.917   1.326  -2.375  0.00  0.00    -0.075 A 
ATOM      6  C7  UNL d   1       0.219  -0.001  -2.428  0.00  0.00     0.076 C 
ATOM      7  C8  UNL d   1       0.970   2.040  -1.170  0.00  0.00     0.001 A 
ENDROOT
BRANCH   1   8
ATOM      8  C1  UNL d   1       1.668   4.038   0.207  0.00  0.00     0.053 C 
ATOM      9  C   UNL d   1       2.707   3.476   1.164  0.00  0.00     0.018 C 
ENDBRANCH   1   8
TORSDOF 1
ENDMDL
