MODEL 1
REMARK minimizedAffinity 1.2614187
REMARK minimizedRMSD -1
REMARK  1 active torsions:
REMARK  status: ('A' for Active; 'I' for Inactive)
REMARK    1  A    between atoms: C1_2  and  C2_3 
ROOT
ATOM      1  C2  UNL d   1       0.806   2.393  -1.079  0.00  0.00    -0.073 A 
ATOM      2  C3  UNL d   1       0.207   1.146  -0.865  0.00  0.00    -0.002 A 
ATOM      3  C4  UNL d   1       0.186   0.190  -1.881  0.00  0.00     0.004 A 
ATOM      4  C5  UNL d   1       0.768   0.468  -3.118  0.00  0.00    -0.004 A 
ATOM      5  C6  UNL d   1       1.382   1.703  -3.348  0.00  0.00    -0.075 A 
ATOM      6  C7  UNL d   1       2.011   2.018  -4.673  0.00  0.00     0.076 C 
ATOM      7  C8  UNL d   1       1.397   2.659  -2.323  0.00  0.00     0.001 A 
ENDROOT
BRANCH   1   8
ATOM      8  C1  UNL d   1       0.837   3.426   0.017  0.00  0.00     0.053 C 
ATOM      9  C   UNL d   1       1.878   3.101   1.077  0.00  0.00     0.018 C 
ENDBRANCH   1   8
TORSDOF 1
ENDMDL
