MODEL 1
REMARK minimizedAffinity 2.39230323
REMARK minimizedRMSD -1
REMARK  1 active torsions:
REMARK  status: ('A' for Active; 'I' for Inactive)
REMARK    1  A    between atoms: C1_2  and  C2_3 
ROOT
ATOM      1  C2  UNL d   1       2.242   1.647  -3.477  0.00  0.00    -0.073 A 
ATOM      2  C3  UNL d   1       0.932   2.078  -3.237  0.00  0.00    -0.002 A 
ATOM      3  C4  UNL d   1       0.122   1.398  -2.326  0.00  0.00     0.004 A 
ATOM      4  C5  UNL d   1       0.615   0.287  -1.642  0.00  0.00    -0.004 A 
ATOM      5  C6  UNL d   1       1.926  -0.151  -1.859  0.00  0.00    -0.075 A 
ATOM      6  C7  UNL d   1       2.470  -1.346  -1.133  0.00  0.00     0.076 C 
ATOM      7  C8  UNL d   1       2.731   0.535  -2.778  0.00  0.00     0.001 A 
ENDROOT
BRANCH   1   8
ATOM      8  C1  UNL d   1       3.122   2.382  -4.455  0.00  0.00     0.053 C 
ATOM      9  C   UNL d   1       2.973   3.890  -4.334  0.00  0.00     0.018 C 
ENDBRANCH   1   8
TORSDOF 1
ENDMDL
