MODEL 1
REMARK minimizedAffinity 2.7408886
REMARK minimizedRMSD -1
REMARK  1 active torsions:
REMARK  status: ('A' for Active; 'I' for Inactive)
REMARK    1  A    between atoms: C1_2  and  C2_3 
ROOT
ATOM      1  C2  UNL d   1       3.256   3.364  -3.057  0.00  0.00    -0.073 A 
ATOM      2  C3  UNL d   1       3.960   2.791  -4.122  0.00  0.00    -0.002 A 
ATOM      3  C4  UNL d   1       3.538   1.583  -4.677  0.00  0.00     0.004 A 
ATOM      4  C5  UNL d   1       2.405   0.939  -4.180  0.00  0.00    -0.004 A 
ATOM      5  C6  UNL d   1       1.681   1.502  -3.124  0.00  0.00    -0.075 A 
ATOM      6  C7  UNL d   1       0.461   0.821  -2.576  0.00  0.00     0.076 C 
ATOM      7  C8  UNL d   1       2.113   2.714  -2.569  0.00  0.00     0.001 A 
ENDROOT
BRANCH   1   8
ATOM      8  C1  UNL d   1       3.704   4.672  -2.457  0.00  0.00     0.053 C 
ATOM      9  C   UNL d   1       5.151   4.619  -1.993  0.00  0.00     0.018 C 
ENDBRANCH   1   8
TORSDOF 1
ENDMDL
