MODEL 1
REMARK minimizedAffinity 6.0719347
REMARK minimizedRMSD -1
REMARK  1 active torsions:
REMARK  status: ('A' for Active; 'I' for Inactive)
REMARK    1  A    between atoms: C1_2  and  C2_3 
ROOT
ATOM      1  C2  UNL d   1       2.299   1.578  -3.554  0.00  0.00    -0.073 A 
ATOM      2  C3  UNL d   1       3.034   0.464  -3.131  0.00  0.00    -0.002 A 
ATOM      3  C4  UNL d   1       2.575  -0.324  -2.075  0.00  0.00     0.004 A 
ATOM      4  C5  UNL d   1       1.375  -0.012  -1.436  0.00  0.00    -0.004 A 
ATOM      5  C6  UNL d   1       0.620   1.090  -1.852  0.00  0.00    -0.075 A 
ATOM      6  C7  UNL d   1      -0.671   1.441  -1.174  0.00  0.00     0.076 C 
ATOM      7  C8  UNL d   1       1.090   1.878  -2.912  0.00  0.00     0.001 A 
ENDROOT
BRANCH   1   8
ATOM      8  C1  UNL d   1       2.788   2.428  -4.698  0.00  0.00     0.053 C 
ATOM      9  C   UNL d   1       2.764   3.909  -4.359  0.00  0.00     0.018 C 
ENDBRANCH   1   8
TORSDOF 1
ENDMDL
