MODEL 1
REMARK minimizedAffinity 6.62237406
REMARK minimizedRMSD -1
REMARK  2 active torsions:
REMARK  status: ('A' for Active; 'I' for Inactive)
REMARK    1  A    between atoms: C1_2  and  C2_3 
REMARK    2  A    between atoms: C2_3  and  C3_4 
ROOT
ATOM      1  C3  UNL d   1       2.479  -2.125   4.214  0.00  0.00    -0.075 A 
ATOM      2  C4  UNL d   1       1.600  -1.034   4.289  0.00  0.00     0.002 A 
ATOM      3  C5  UNL d   1       1.629  -0.033   3.318  0.00  0.00     0.002 A 
ATOM      4  C6  UNL d   1       2.540  -0.103   2.267  0.00  0.00    -0.004 A 
ATOM      5  C7  UNL d   1       3.429  -1.174   2.191  0.00  0.00     0.002 A 
ATOM      6  C8  UNL d   1       3.400  -2.179   3.159  0.00  0.00     0.002 A 
ENDROOT
BRANCH   1   7
ATOM      7  C2  UNL d   1       2.433  -3.227   5.245  0.00  0.00     0.056 C 
BRANCH   7   8
ATOM      8  C1  UNL d   1       1.110  -3.999   5.275  0.00  0.00     0.007 C 
ATOM      9  C   UNL d   1       1.278  -5.465   5.649  0.00  0.00     0.009 C 
ENDBRANCH   7   8
ENDBRANCH   1   7
TORSDOF 2
ENDMDL
