MODEL 1
REMARK minimizedAffinity 7.52886724
REMARK minimizedRMSD -1
REMARK  2 active torsions:
REMARK  status: ('A' for Active; 'I' for Inactive)
REMARK    1  A    between atoms: C1_2  and  C2_3 
REMARK    2  A    between atoms: C2_3  and  C3_4 
ROOT
ATOM      1  C3  UNL d   1       1.763  -3.328   4.552  0.00  0.00    -0.075 A 
ATOM      2  C4  UNL d   1       2.501  -4.345   3.930  0.00  0.00     0.002 A 
ATOM      3  C5  UNL d   1       2.355  -5.673   4.331  0.00  0.00     0.002 A 
ATOM      4  C6  UNL d   1       1.478  -6.000   5.364  0.00  0.00    -0.004 A 
ATOM      5  C7  UNL d   1       0.752  -4.995   6.000  0.00  0.00     0.002 A 
ATOM      6  C8  UNL d   1       0.894  -3.666   5.598  0.00  0.00     0.002 A 
ENDROOT
BRANCH   1   7
ATOM      7  C2  UNL d   1       1.895  -1.892   4.103  0.00  0.00     0.056 C 
BRANCH   7   8
ATOM      8  C1  UNL d   1       2.217  -1.732   2.614  0.00  0.00     0.007 C 
ATOM      9  C   UNL d   1       1.870  -0.352   2.069  0.00  0.00     0.009 C 
ENDBRANCH   7   8
ENDBRANCH   1   7
TORSDOF 2
ENDMDL
