MODEL 1
REMARK minimizedAffinity 3.82842231
REMARK minimizedRMSD -1
REMARK  2 active torsions:
REMARK  status: ('A' for Active; 'I' for Inactive)
REMARK    1  A    between atoms: C1_2  and  C2_3 
REMARK    2  A    between atoms: C2_3  and  C3_4 
ROOT
ATOM      1  C3  UNL d   1       1.959  -2.372   4.152  0.00  0.00    -0.075 A 
ATOM      2  C4  UNL d   1       2.022  -1.267   5.012  0.00  0.00     0.002 A 
ATOM      3  C5  UNL d   1       2.122   0.026   4.498  0.00  0.00     0.002 A 
ATOM      4  C6  UNL d   1       2.170   0.230   3.121  0.00  0.00    -0.004 A 
ATOM      5  C7  UNL d   1       2.125  -0.862   2.257  0.00  0.00     0.002 A 
ATOM      6  C8  UNL d   1       2.021  -2.157   2.768  0.00  0.00     0.002 A 
ENDROOT
BRANCH   1   7
ATOM      7  C2  UNL d   1       1.822  -3.772   4.701  0.00  0.00     0.056 C 
BRANCH   7   8
ATOM      8  C1  UNL d   1       0.448  -4.071   5.310  0.00  0.00     0.007 C 
ATOM      9  C   UNL d   1       0.248  -5.543   5.645  0.00  0.00     0.009 C 
ENDBRANCH   7   8
ENDBRANCH   1   7
TORSDOF 2
ENDMDL
