MODEL 1
REMARK minimizedAffinity 3.69336915
REMARK minimizedRMSD -1
REMARK  2 active torsions:
REMARK  status: ('A' for Active; 'I' for Inactive)
REMARK    1  A    between atoms: C1_2  and  C2_3 
REMARK    2  A    between atoms: C2_3  and  C3_4 
ROOT
ATOM      1  C3  UNL d   1       2.133  -3.857   4.432  0.00  0.00    -0.075 A 
ATOM      2  C4  UNL d   1       0.732  -3.912   4.471  0.00  0.00     0.002 A 
ATOM      3  C5  UNL d   1       0.082  -4.975   5.098  0.00  0.00     0.002 A 
ATOM      4  C6  UNL d   1       0.821  -6.000   5.684  0.00  0.00    -0.004 A 
ATOM      5  C7  UNL d   1       2.213  -5.964   5.637  0.00  0.00     0.002 A 
ATOM      6  C8  UNL d   1       2.867  -4.899   5.014  0.00  0.00     0.002 A 
ENDROOT
BRANCH   1   7
ATOM      7  C2  UNL d   1       2.844  -2.695   3.781  0.00  0.00     0.056 C 
BRANCH   7   8
ATOM      8  C1  UNL d   1       1.971  -1.446   3.612  0.00  0.00     0.007 C 
ATOM      9  C   UNL d   1       1.630  -1.144   2.159  0.00  0.00     0.009 C 
ENDBRANCH   7   8
ENDBRANCH   1   7
TORSDOF 2
ENDMDL
