MODEL 1
REMARK minimizedAffinity 8.30287933
REMARK minimizedRMSD -1
REMARK  2 active torsions:
REMARK  status: ('A' for Active; 'I' for Inactive)
REMARK    1  A    between atoms: C1_2  and  C2_3 
REMARK    2  A    between atoms: C2_3  and  C3_4 
ROOT
ATOM      1  C3  UNL d   1      -4.127  -2.086  -4.465  0.00  0.00    -0.075 A 
ATOM      2  C4  UNL d   1      -5.074  -2.487  -3.512  0.00  0.00     0.002 A 
ATOM      3  C5  UNL d   1      -5.976  -3.513  -3.797  0.00  0.00     0.002 A 
ATOM      4  C6  UNL d   1      -5.949  -4.142  -5.040  0.00  0.00    -0.004 A 
ATOM      5  C7  UNL d   1      -5.022  -3.741  -6.000  0.00  0.00     0.002 A 
ATOM      6  C8  UNL d   1      -4.116  -2.718  -5.715  0.00  0.00     0.002 A 
ENDROOT
BRANCH   1   7
ATOM      7  C2  UNL d   1      -3.129  -0.997  -4.151  0.00  0.00     0.056 C 
BRANCH   7   8
ATOM      8  C1  UNL d   1      -3.548  -0.080  -2.997  0.00  0.00     0.007 C 
ATOM      9  C   UNL d   1      -3.750   1.368  -3.423  0.00  0.00     0.009 C 
ENDBRANCH   7   8
ENDBRANCH   1   7
TORSDOF 2
ENDMDL
