MODEL 1
REMARK minimizedAffinity 7.02300262
REMARK minimizedRMSD -1
REMARK  2 active torsions:
REMARK  status: ('A' for Active; 'I' for Inactive)
REMARK    1  A    between atoms: C1_2  and  C2_3 
REMARK    2  A    between atoms: C2_3  and  C3_4 
ROOT
ATOM      1  C3  UNL d   1       2.750  -1.411   3.386  0.00  0.00    -0.075 A 
ATOM      2  C4  UNL d   1       1.930  -2.311   2.690  0.00  0.00     0.002 A 
ATOM      3  C5  UNL d   1       1.155  -1.877   1.615  0.00  0.00     0.002 A 
ATOM      4  C6  UNL d   1       1.181  -0.539   1.229  0.00  0.00    -0.004 A 
ATOM      5  C7  UNL d   1       1.979   0.368   1.924  0.00  0.00     0.002 A 
ATOM      6  C8  UNL d   1       2.759  -0.065   2.997  0.00  0.00     0.002 A 
ENDROOT
BRANCH   1   7
ATOM      7  C2  UNL d   1       3.614  -1.880   4.533  0.00  0.00     0.056 C 
BRANCH   7   8
ATOM      8  C1  UNL d   1       5.112  -1.907   4.214  0.00  0.00     0.007 C 
ATOM      9  C   UNL d   1       5.990  -1.941   5.458  0.00  0.00     0.009 C 
ENDBRANCH   7   8
ENDBRANCH   1   7
TORSDOF 2
ENDMDL
