MODEL 1
REMARK minimizedAffinity 1.99330676
REMARK minimizedRMSD -1
REMARK  2 active torsions:
REMARK  status: ('A' for Active; 'I' for Inactive)
REMARK    1  A    between atoms: C1_2  and  C2_3 
REMARK    2  A    between atoms: C2_3  and  C3_4 
ROOT
ATOM      1  C3  UNL d   1       2.913   0.112   2.271  0.00  0.00    -0.075 A 
ATOM      2  C4  UNL d   1       2.046   0.237   3.366  0.00  0.00     0.002 A 
ATOM      3  C5  UNL d   1       2.093  -0.682   4.415  0.00  0.00     0.002 A 
ATOM      4  C6  UNL d   1       2.998  -1.740   4.379  0.00  0.00    -0.004 A 
ATOM      5  C7  UNL d   1       3.853  -1.883   3.288  0.00  0.00     0.002 A 
ATOM      6  C8  UNL d   1       3.812  -0.963   2.239  0.00  0.00     0.002 A 
ENDROOT
BRANCH   1   7
ATOM      7  C2  UNL d   1       2.888   1.119   1.146  0.00  0.00     0.056 C 
BRANCH   7   8
ATOM      8  C1  UNL d   1       2.506   2.536   1.587  0.00  0.00     0.007 C 
ATOM      9  C   UNL d   1       2.164   3.455   0.422  0.00  0.00     0.009 C 
ENDBRANCH   7   8
ENDBRANCH   1   7
TORSDOF 2
ENDMDL
