MODEL 1
REMARK minimizedAffinity -4.70729065
REMARK minimizedRMSD -1
REMARK  0 active torsions:
REMARK  status: ('A' for Active; 'I' for Inactive)
ROOT
ATOM      1  C   UNL d   1       0.061  -0.756  -1.120  0.00  0.00     0.077 C 
ATOM      2  C1  UNL d   1       0.419  -0.317  -2.509  0.00  0.00    -0.074 A 
ATOM      3  C2  UNL d   1       1.628   0.338  -2.766  0.00  0.00    -0.005 A 
ATOM      4  C3  UNL d   1       1.952   0.731  -4.064  0.00  0.00     0.006 A 
ATOM      5  C4  UNL d   1       1.073   0.474  -5.117  0.00  0.00    -0.005 A 
ATOM      6  C5  UNL d   1      -0.140  -0.181  -4.879  0.00  0.00    -0.074 A 
ATOM      7  C6  UNL d   1      -1.092  -0.474  -6.000  0.00  0.00     0.077 C 
ATOM      8  C7  UNL d   1      -0.455  -0.579  -3.572  0.00  0.00    -0.001 A 
ENDROOT
TORSDOF 0
ENDMDL
