MODEL 1
REMARK minimizedAffinity 0.405058056
REMARK minimizedRMSD -1
REMARK  0 active torsions:
REMARK  status: ('A' for Active; 'I' for Inactive)
ROOT
ATOM      1  C   UNL d   1       0.439  -0.481  -0.958  0.00  0.00     0.077 C 
ATOM      2  C1  UNL d   1       0.581  -0.243  -2.432  0.00  0.00    -0.074 A 
ATOM      3  C2  UNL d   1       1.402   0.780  -2.919  0.00  0.00    -0.005 A 
ATOM      4  C3  UNL d   1       1.531   0.983  -4.293  0.00  0.00     0.006 A 
ATOM      5  C4  UNL d   1       0.842   0.167  -5.192  0.00  0.00    -0.005 A 
ATOM      6  C5  UNL d   1       0.018  -0.861  -4.723  0.00  0.00    -0.074 A 
ATOM      7  C6  UNL d   1      -0.721  -1.752  -5.675  0.00  0.00     0.077 C 
ATOM      8  C7  UNL d   1      -0.101  -1.063  -3.341  0.00  0.00    -0.001 A 
ENDROOT
TORSDOF 0
ENDMDL
