MODEL 1
REMARK minimizedAffinity -4.66481018
REMARK minimizedRMSD -1
REMARK  0 active torsions:
REMARK  status: ('A' for Active; 'I' for Inactive)
ROOT
ATOM      1  C   UNL d   1      -1.160   1.082   1.864  0.00  0.00     0.077 C 
ATOM      2  C1  UNL d   1      -0.858   0.007   0.863  0.00  0.00    -0.074 A 
ATOM      3  C2  UNL d   1       0.437  -0.165   0.361  0.00  0.00    -0.005 A 
ATOM      4  C3  UNL d   1       0.705  -1.175  -0.562  0.00  0.00     0.006 A 
ATOM      5  C4  UNL d   1      -0.317  -2.023  -0.993  0.00  0.00    -0.005 A 
ATOM      6  C5  UNL d   1      -1.617  -1.867  -0.501  0.00  0.00    -0.074 A 
ATOM      7  C6  UNL d   1      -2.724  -2.776  -0.946  0.00  0.00     0.077 C 
ATOM      8  C7  UNL d   1      -1.877  -0.854   0.431  0.00  0.00    -0.001 A 
ENDROOT
TORSDOF 0
ENDMDL
