MODEL 1
REMARK minimizedAffinity -3.79750443
REMARK minimizedRMSD -1
REMARK  0 active torsions:
REMARK  status: ('A' for Active; 'I' for Inactive)
ROOT
ATOM      1  C   UNL d   1      -2.551   0.817   2.653  0.00  0.00     0.077 C 
ATOM      2  C1  UNL d   1      -1.185   0.866   2.037  0.00  0.00    -0.074 A 
ATOM      3  C2  UNL d   1      -0.165   1.634   2.608  0.00  0.00    -0.005 A 
ATOM      4  C3  UNL d   1       1.103   1.661   2.028  0.00  0.00     0.006 A 
ATOM      5  C4  UNL d   1       1.364   0.922   0.873  0.00  0.00    -0.005 A 
ATOM      6  C5  UNL d   1       0.357   0.148   0.289  0.00  0.00    -0.074 A 
ATOM      7  C6  UNL d   1       0.624  -0.660  -0.947  0.00  0.00     0.077 C 
ATOM      8  C7  UNL d   1      -0.913   0.120   0.881  0.00  0.00    -0.001 A 
ENDROOT
TORSDOF 0
ENDMDL
