MODEL 1
REMARK minimizedAffinity -2.44093204
REMARK minimizedRMSD -1
REMARK  0 active torsions:
REMARK  status: ('A' for Active; 'I' for Inactive)
ROOT
ATOM      1  C   UNL d   1      -0.730  -0.955  -5.264  0.00  0.00     0.077 C 
ATOM      2  C1  UNL d   1       0.387  -0.040  -4.858  0.00  0.00    -0.074 A 
ATOM      3  C2  UNL d   1       0.225   1.349  -4.888  0.00  0.00    -0.005 A 
ATOM      4  C3  UNL d   1       1.269   2.187  -4.499  0.00  0.00     0.006 A 
ATOM      5  C4  UNL d   1       2.484   1.647  -4.077  0.00  0.00    -0.005 A 
ATOM      6  C5  UNL d   1       2.665   0.260  -4.040  0.00  0.00    -0.074 A 
ATOM      7  C6  UNL d   1       3.961  -0.337  -3.579  0.00  0.00     0.077 C 
ATOM      8  C7  UNL d   1       1.608  -0.576  -4.425  0.00  0.00    -0.001 A 
ENDROOT
TORSDOF 0
ENDMDL
