MODEL 1
REMARK minimizedAffinity 2.04928541
REMARK minimizedRMSD -1
REMARK  0 active torsions:
REMARK  status: ('A' for Active; 'I' for Inactive)
ROOT
ATOM      1  C   UNL d   1       2.607  -0.150   2.601  0.00  0.00     0.077 C 
ATOM      2  C1  UNL d   1       1.300  -0.058   1.871  0.00  0.00    -0.074 A 
ATOM      3  C2  UNL d   1       1.257  -0.043   0.473  0.00  0.00    -0.005 A 
ATOM      4  C3  UNL d   1       0.033   0.033  -0.192  0.00  0.00     0.006 A 
ATOM      5  C4  UNL d   1      -1.158   0.096   0.533  0.00  0.00    -0.005 A 
ATOM      6  C5  UNL d   1      -1.134   0.081   1.931  0.00  0.00    -0.074 A 
ATOM      7  C6  UNL d   1      -2.406   0.137   2.724  0.00  0.00     0.077 C 
ATOM      8  C7  UNL d   1       0.099  -0.003   2.592  0.00  0.00    -0.001 A 
ENDROOT
TORSDOF 0
ENDMDL
