MODEL 1
REMARK minimizedAffinity 0.743858457
REMARK minimizedRMSD -1
REMARK  0 active torsions:
REMARK  status: ('A' for Active; 'I' for Inactive)
ROOT
ATOM      1  C   UNL d   1       1.352   0.664   2.123  0.00  0.00     0.077 C 
ATOM      2  C1  UNL d   1       0.533   0.276   0.928  0.00  0.00    -0.074 A 
ATOM      3  C2  UNL d   1      -0.685  -0.394   1.079  0.00  0.00    -0.005 A 
ATOM      4  C3  UNL d   1      -1.441  -0.740  -0.041  0.00  0.00     0.006 A 
ATOM      5  C4  UNL d   1      -0.987  -0.419  -1.321  0.00  0.00    -0.005 A 
ATOM      6  C5  UNL d   1       0.228   0.252  -1.491  0.00  0.00    -0.074 A 
ATOM      7  C6  UNL d   1       0.726   0.612  -2.859  0.00  0.00     0.077 C 
ATOM      8  C7  UNL d   1       0.979   0.602  -0.360  0.00  0.00    -0.001 A 
ENDROOT
TORSDOF 0
ENDMDL
