MODEL 1
REMARK minimizedAffinity -1.16991818
REMARK minimizedRMSD -1
REMARK  0 active torsions:
REMARK  status: ('A' for Active; 'I' for Inactive)
ROOT
ATOM      1  C   UNL d   1      -0.348   2.155   2.489  0.00  0.00     0.077 C 
ATOM      2  C1  UNL d   1       0.233   1.030   1.685  0.00  0.00    -0.074 A 
ATOM      3  C2  UNL d   1       1.586   0.693   1.793  0.00  0.00    -0.005 A 
ATOM      4  C3  UNL d   1       2.110  -0.362   1.046  0.00  0.00     0.006 A 
ATOM      5  C4  UNL d   1       1.288  -1.090   0.186  0.00  0.00    -0.005 A 
ATOM      6  C5  UNL d   1      -0.068  -0.768   0.065  0.00  0.00    -0.074 A 
ATOM      7  C6  UNL d   1      -0.968  -1.547  -0.848  0.00  0.00     0.077 C 
ATOM      8  C7  UNL d   1      -0.589   0.289   0.824  0.00  0.00    -0.001 A 
ENDROOT
TORSDOF 0
ENDMDL
