MODEL 1
REMARK minimizedAffinity -5.97502947
REMARK minimizedRMSD -1
REMARK  0 active torsions:
REMARK  status: ('A' for Active; 'I' for Inactive)
ROOT
ATOM      1  C   UNL d   1       0.329  -0.540  -0.369  0.00  0.00     0.078 C 
ATOM      2  C1  UNL d   1      -0.381   0.708   0.064  0.00  0.00    -0.077 A 
ATOM      3  C2  UNL d   1      -0.256   1.898  -0.663  0.00  0.00    -0.001 A 
ATOM      4  C3  UNL d   1      -0.915   3.055  -0.242  0.00  0.00     0.003 A 
ATOM      5  C4  UNL d   1      -1.702   3.033   0.907  0.00  0.00    -0.005 A 
ATOM      6  C5  UNL d   1      -1.831   1.853   1.638  0.00  0.00     0.003 A 
ATOM      7  C6  UNL d   1      -1.173   0.696   1.219  0.00  0.00    -0.001 A 
ENDROOT
TORSDOF 0
ENDMDL
