MODEL 1
REMARK minimizedAffinity -4.78605318
REMARK minimizedRMSD -1
REMARK  0 active torsions:
REMARK  status: ('A' for Active; 'I' for Inactive)
ROOT
ATOM      1  C   UNL d   1       0.784  -1.068  -1.139  0.00  0.00     0.078 C 
ATOM      2  C1  UNL d   1      -0.093  -0.439  -0.098  0.00  0.00    -0.077 A 
ATOM      3  C2  UNL d   1      -0.005  -0.822   1.246  0.00  0.00    -0.001 A 
ATOM      4  C3  UNL d   1      -0.834  -0.235   2.203  0.00  0.00     0.003 A 
ATOM      5  C4  UNL d   1      -1.759   0.736   1.827  0.00  0.00    -0.005 A 
ATOM      6  C5  UNL d   1      -1.856   1.122   0.491  0.00  0.00     0.003 A 
ATOM      7  C6  UNL d   1      -1.028   0.536  -0.467  0.00  0.00    -0.001 A 
ENDROOT
TORSDOF 0
ENDMDL
