MODEL 1
REMARK minimizedAffinity -5.45076561
REMARK minimizedRMSD -1
REMARK  0 active torsions:
REMARK  status: ('A' for Active; 'I' for Inactive)
ROOT
ATOM      1  C   UNL d   1       1.054  -0.777  -1.051  0.00  0.00     0.078 C 
ATOM      2  C1  UNL d   1       0.188  -0.049  -0.067  0.00  0.00    -0.077 A 
ATOM      3  C2  UNL d   1      -0.001  -0.541   1.230  0.00  0.00    -0.001 A 
ATOM      4  C3  UNL d   1      -0.817   0.143   2.132  0.00  0.00     0.003 A 
ATOM      5  C4  UNL d   1      -1.453   1.321   1.747  0.00  0.00    -0.005 A 
ATOM      6  C5  UNL d   1      -1.273   1.817   0.457  0.00  0.00     0.003 A 
ATOM      7  C6  UNL d   1      -0.457   1.135  -0.447  0.00  0.00    -0.001 A 
ENDROOT
TORSDOF 0
ENDMDL
