MODEL 1
REMARK minimizedAffinity -4.89395237
REMARK minimizedRMSD -1
REMARK  0 active torsions:
REMARK  status: ('A' for Active; 'I' for Inactive)
ROOT
ATOM      1  C   UNL d   1       0.882  -0.764  -0.469  0.00  0.00     0.078 C 
ATOM      2  C1  UNL d   1      -0.143   0.064   0.247  0.00  0.00    -0.077 A 
ATOM      3  C2  UNL d   1      -0.636  -0.322   1.499  0.00  0.00    -0.001 A 
ATOM      4  C3  UNL d   1      -1.598   0.453   2.149  0.00  0.00     0.003 A 
ATOM      5  C4  UNL d   1      -2.075   1.620   1.554  0.00  0.00    -0.005 A 
ATOM      6  C5  UNL d   1      -1.591   2.011   0.308  0.00  0.00     0.003 A 
ATOM      7  C6  UNL d   1      -0.630   1.237  -0.344  0.00  0.00    -0.001 A 
ENDROOT
TORSDOF 0
ENDMDL
