MODEL 1
REMARK minimizedAffinity -4.64449263
REMARK minimizedRMSD -1
REMARK  0 active torsions:
REMARK  status: ('A' for Active; 'I' for Inactive)
ROOT
ATOM      1  C   UNL d   1      -2.285   1.936   1.470  0.00  0.00     0.078 C 
ATOM      2  C1  UNL d   1      -1.253   1.178   0.689  0.00  0.00    -0.077 A 
ATOM      3  C2  UNL d   1      -0.645   1.742  -0.440  0.00  0.00    -0.001 A 
ATOM      4  C3  UNL d   1       0.307   1.022  -1.163  0.00  0.00     0.003 A 
ATOM      5  C4  UNL d   1       0.659  -0.267  -0.766  0.00  0.00    -0.005 A 
ATOM      6  C5  UNL d   1       0.058  -0.837   0.354  0.00  0.00     0.003 A 
ATOM      7  C6  UNL d   1      -0.894  -0.118   1.078  0.00  0.00    -0.001 A 
ENDROOT
TORSDOF 0
ENDMDL
