MODEL 1
REMARK minimizedAffinity -2.12789607
REMARK minimizedRMSD -1
REMARK  0 active torsions:
REMARK  status: ('A' for Active; 'I' for Inactive)
ROOT
ATOM      1  C   UNL d   1      -1.880   1.887   1.280  0.00  0.00     0.078 C 
ATOM      2  C1  UNL d   1      -0.827   1.191   0.470  0.00  0.00    -0.077 A 
ATOM      3  C2  UNL d   1      -0.376   1.730  -0.741  0.00  0.00    -0.001 A 
ATOM      4  C3  UNL d   1       0.598   1.067  -1.490  0.00  0.00     0.003 A 
ATOM      5  C4  UNL d   1       1.128  -0.139  -1.037  0.00  0.00    -0.005 A 
ATOM      6  C5  UNL d   1       0.683  -0.685   0.166  0.00  0.00     0.003 A 
ATOM      7  C6  UNL d   1      -0.291  -0.023   0.916  0.00  0.00    -0.001 A 
ENDROOT
TORSDOF 0
ENDMDL
