MODEL 1
REMARK minimizedAffinity -1.71388042
REMARK minimizedRMSD -1
REMARK  0 active torsions:
REMARK  status: ('A' for Active; 'I' for Inactive)
ROOT
ATOM      1  C   UNL d   1       1.414  -2.680  -1.325  0.00  0.00     0.078 C 
ATOM      2  C1  UNL d   1       0.920  -1.337  -0.876  0.00  0.00    -0.077 A 
ATOM      3  C2  UNL d   1       0.415  -1.149   0.417  0.00  0.00    -0.001 A 
ATOM      4  C3  UNL d   1      -0.051   0.104   0.818  0.00  0.00     0.003 A 
ATOM      5  C4  UNL d   1      -0.019   1.179  -0.068  0.00  0.00    -0.005 A 
ATOM      6  C5  UNL d   1       0.479   1.001  -1.358  0.00  0.00     0.003 A 
ATOM      7  C6  UNL d   1       0.946  -0.251  -1.760  0.00  0.00    -0.001 A 
ENDROOT
TORSDOF 0
ENDMDL
