MODEL 1
REMARK minimizedAffinity -4.23260784
REMARK minimizedRMSD -1
REMARK  0 active torsions:
REMARK  status: ('A' for Active; 'I' for Inactive)
ROOT
ATOM      1  C   UNL d   1       0.777  -1.254  -0.730  0.00  0.00     0.078 C 
ATOM      2  C1  UNL d   1      -0.042  -0.270   0.051  0.00  0.00    -0.077 A 
ATOM      3  C2  UNL d   1      -0.814   0.702  -0.598  0.00  0.00    -0.001 A 
ATOM      4  C3  UNL d   1      -1.564   1.618   0.142  0.00  0.00     0.003 A 
ATOM      5  C4  UNL d   1      -1.548   1.572   1.535  0.00  0.00    -0.005 A 
ATOM      6  C5  UNL d   1      -0.781   0.610   2.189  0.00  0.00     0.003 A 
ATOM      7  C6  UNL d   1      -0.031  -0.307   1.451  0.00  0.00    -0.001 A 
ENDROOT
TORSDOF 0
ENDMDL
