MODEL 1
REMARK minimizedAffinity -5.36132097
REMARK minimizedRMSD -1
REMARK  0 active torsions:
REMARK  status: ('A' for Active; 'I' for Inactive)
ROOT
ATOM      1  C   UNL d   1       1.042  -0.592  -0.679  0.00  0.00     0.078 C 
ATOM      2  C1  UNL d   1       0.067   0.311   0.016  0.00  0.00    -0.077 A 
ATOM      3  C2  UNL d   1      -0.442  -0.012   1.280  0.00  0.00    -0.001 A 
ATOM      4  C3  UNL d   1      -1.356   0.834   1.910  0.00  0.00     0.003 A 
ATOM      5  C4  UNL d   1      -1.770   2.008   1.284  0.00  0.00    -0.005 A 
ATOM      6  C5  UNL d   1      -1.270   2.337   0.026  0.00  0.00     0.003 A 
ATOM      7  C6  UNL d   1      -0.356   1.492  -0.606  0.00  0.00    -0.001 A 
ENDROOT
TORSDOF 0
ENDMDL
