MODEL 1
REMARK minimizedAffinity -5.06153917
REMARK minimizedRMSD -1
REMARK  0 active torsions:
REMARK  status: ('A' for Active; 'I' for Inactive)
ROOT
ATOM      1  C   UNL d   1       1.384  -0.022  -0.792  0.00  0.00     0.078 C 
ATOM      2  C1  UNL d   1       0.216   0.430   0.033  0.00  0.00    -0.077 A 
ATOM      3  C2  UNL d   1      -0.510   1.577  -0.312  0.00  0.00    -0.001 A 
ATOM      4  C3  UNL d   1      -1.589   1.991   0.470  0.00  0.00     0.003 A 
ATOM      5  C4  UNL d   1      -1.951   1.266   1.603  0.00  0.00    -0.005 A 
ATOM      6  C5  UNL d   1      -1.233   0.125   1.956  0.00  0.00     0.003 A 
ATOM      7  C6  UNL d   1      -0.154  -0.291   1.175  0.00  0.00    -0.001 A 
ENDROOT
TORSDOF 0
ENDMDL
