MODEL 1
REMARK minimizedAffinity -5.94510746
REMARK minimizedRMSD -1
REMARK  0 active torsions:
REMARK  status: ('A' for Active; 'I' for Inactive)
ROOT
ATOM      1  C   UNL d   1       0.944  -0.291  -0.230  0.00  0.00     0.078 C 
ATOM      2  C1  UNL d   1      -0.031   0.789   0.132  0.00  0.00    -0.077 A 
ATOM      3  C2  UNL d   1       0.109   2.086  -0.375  0.00  0.00    -0.001 A 
ATOM      4  C3  UNL d   1      -0.800   3.085  -0.021  0.00  0.00     0.003 A 
ATOM      5  C4  UNL d   1      -1.855   2.796   0.843  0.00  0.00    -0.005 A 
ATOM      6  C5  UNL d   1      -2.001   1.508   1.354  0.00  0.00     0.003 A 
ATOM      7  C6  UNL d   1      -1.093   0.509   1.001  0.00  0.00    -0.001 A 
ENDROOT
TORSDOF 0
ENDMDL
