MODEL 1
REMARK minimizedAffinity -5.27509069
REMARK minimizedRMSD -1
REMARK  0 active torsions:
REMARK  status: ('A' for Active; 'I' for Inactive)
ROOT
ATOM      1  C   UNL d   1      -2.491   1.971   1.502  0.00  0.00     0.078 C 
ATOM      2  C1  UNL d   1      -1.391   1.129   0.928  0.00  0.00    -0.077 A 
ATOM      3  C2  UNL d   1      -0.844   1.416  -0.328  0.00  0.00    -0.001 A 
ATOM      4  C3  UNL d   1       0.173   0.617  -0.854  0.00  0.00     0.003 A 
ATOM      5  C4  UNL d   1       0.650  -0.474  -0.131  0.00  0.00    -0.005 A 
ATOM      6  C5  UNL d   1       0.110  -0.769   1.119  0.00  0.00     0.003 A 
ATOM      7  C6  UNL d   1      -0.907   0.029   1.647  0.00  0.00    -0.001 A 
ENDROOT
TORSDOF 0
ENDMDL
