MODEL 1
REMARK minimizedAffinity -5.30375051
REMARK minimizedRMSD -1
REMARK  0 active torsions:
REMARK  status: ('A' for Active; 'I' for Inactive)
ROOT
ATOM      1  C   UNL d   1      -1.147   4.656  -2.200  0.00  0.00     0.078 C 
ATOM      2  C1  UNL d   1      -1.702   3.674  -1.213  0.00  0.00    -0.077 A 
ATOM      3  C2  UNL d   1      -2.082   2.386  -1.611  0.00  0.00    -0.001 A 
ATOM      4  C3  UNL d   1      -2.606   1.486  -0.683  0.00  0.00     0.003 A 
ATOM      5  C4  UNL d   1      -2.758   1.863   0.650  0.00  0.00    -0.005 A 
ATOM      6  C5  UNL d   1      -2.385   3.143   1.055  0.00  0.00     0.003 A 
ATOM      7  C6  UNL d   1      -1.860   4.045   0.129  0.00  0.00    -0.001 A 
ENDROOT
TORSDOF 0
ENDMDL
