MODEL 1
REMARK minimizedAffinity -5.07322025
REMARK minimizedRMSD -1
REMARK  0 active torsions:
REMARK  status: ('A' for Active; 'I' for Inactive)
ROOT
ATOM      1  C   UNL d   1       3.446  -1.196   1.754  0.00  0.00     0.020 A 
ATOM      2  C1  UNL d   1       2.709  -2.306   2.166  0.00  0.00     0.020 A 
ATOM      3  C2  UNL d   1       1.314  -2.281   2.098  0.00  0.00     0.034 A 
ATOM      4  C3  UNL d   1       0.653  -1.146   1.618  0.00  0.00     0.017 A 
ATOM      5  C4  UNL d   1       1.394  -0.033   1.204  0.00  0.00     0.017 A 
ATOM      6  C5  UNL d   1       2.790  -0.062   1.274  0.00  0.00     0.034 A 
ATOM      7 Cl   UNL d   1       0.648   1.405   0.600  0.00  0.00    -0.070 Cl
ATOM      8 Cl1  UNL d   1      -1.074  -1.185   1.561  0.00  0.00    -0.070 Cl
ENDROOT
TORSDOF 0
ENDMDL
