MODEL 1
REMARK minimizedAffinity 0.221678257
REMARK minimizedRMSD -1
REMARK  0 active torsions:
REMARK  status: ('A' for Active; 'I' for Inactive)
ROOT
ATOM      1  C   UNL d   1      -0.200  -2.303  -0.375  0.00  0.00     0.020 A 
ATOM      2  C1  UNL d   1       1.114  -2.418   0.079  0.00  0.00     0.020 A 
ATOM      3  C2  UNL d   1       1.690  -1.385   0.821  0.00  0.00     0.034 A 
ATOM      4  C3  UNL d   1       0.952  -0.231   1.111  0.00  0.00     0.017 A 
ATOM      5  C4  UNL d   1      -0.366  -0.116   0.655  0.00  0.00     0.017 A 
ATOM      6  C5  UNL d   1      -0.938  -1.154  -0.087  0.00  0.00     0.034 A 
ATOM      7 Cl   UNL d   1      -1.339   1.276   0.974  0.00  0.00    -0.070 Cl
ATOM      8 Cl1  UNL d   1       1.727   1.007   2.034  0.00  0.00    -0.070 Cl
ENDROOT
TORSDOF 0
ENDMDL
