MODEL 1
REMARK minimizedAffinity 0.483407557
REMARK minimizedRMSD -1
REMARK  0 active torsions:
REMARK  status: ('A' for Active; 'I' for Inactive)
ROOT
ATOM      1  C   UNL d   1       0.002  -0.621   0.022  0.00  0.00     0.020 A 
ATOM      2  C1  UNL d   1      -0.798  -1.648   0.521  0.00  0.00     0.020 A 
ATOM      3  C2  UNL d   1      -1.935  -2.052  -0.183  0.00  0.00     0.034 A 
ATOM      4  C3  UNL d   1      -2.274  -1.429  -1.389  0.00  0.00     0.017 A 
ATOM      5  C4  UNL d   1      -1.470  -0.398  -1.889  0.00  0.00     0.017 A 
ATOM      6  C5  UNL d   1      -0.333   0.002  -1.181  0.00  0.00     0.034 A 
ATOM      7 Cl   UNL d   1      -1.825   0.418  -3.371  0.00  0.00    -0.070 Cl
ATOM      8 Cl1  UNL d   1      -3.694  -1.979  -2.206  0.00  0.00    -0.070 Cl
ENDROOT
TORSDOF 0
ENDMDL
