MODEL 1
REMARK minimizedAffinity -4.93536615
REMARK minimizedRMSD -1
REMARK  0 active torsions:
REMARK  status: ('A' for Active; 'I' for Inactive)
ROOT
ATOM      1  C   UNL d   1       2.658  -0.882   0.808  0.00  0.00     0.020 A 
ATOM      2  C1  UNL d   1       2.583   0.127  -0.151  0.00  0.00     0.020 A 
ATOM      3  C2  UNL d   1       1.339   0.545  -0.629  0.00  0.00     0.034 A 
ATOM      4  C3  UNL d   1       0.166  -0.047  -0.148  0.00  0.00     0.017 A 
ATOM      5  C4  UNL d   1       0.242  -1.060   0.815  0.00  0.00     0.017 A 
ATOM      6  C5  UNL d   1       1.490  -1.474   1.290  0.00  0.00     0.034 A 
ATOM      7 Cl   UNL d   1      -1.162  -1.837   1.455  0.00  0.00    -0.070 Cl
ATOM      8 Cl1  UNL d   1      -1.338   0.519  -0.784  0.00  0.00    -0.070 Cl
ENDROOT
TORSDOF 0
ENDMDL
