MODEL 1
REMARK minimizedAffinity -1.28906548
REMARK minimizedRMSD -1
REMARK  0 active torsions:
REMARK  status: ('A' for Active; 'I' for Inactive)
ROOT
ATOM      1  C   UNL d   1      -0.823   0.581  -0.004  0.00  0.00     0.020 A 
ATOM      2  C1  UNL d   1       0.245   1.470  -0.128  0.00  0.00     0.020 A 
ATOM      3  C2  UNL d   1       1.555   1.013   0.033  0.00  0.00     0.034 A 
ATOM      4  C3  UNL d   1       1.800  -0.335   0.320  0.00  0.00     0.017 A 
ATOM      5  C4  UNL d   1       0.728  -1.225   0.444  0.00  0.00     0.017 A 
ATOM      6  C5  UNL d   1      -0.582  -0.763   0.281  0.00  0.00     0.034 A 
ATOM      7 Cl   UNL d   1       0.952  -2.903   0.795  0.00  0.00    -0.070 Cl
ATOM      8 Cl1  UNL d   1       3.445  -0.830   0.506  0.00  0.00    -0.070 Cl
ENDROOT
TORSDOF 0
ENDMDL
