MODEL 1
REMARK minimizedAffinity -4.23823404
REMARK minimizedRMSD -1
REMARK  0 active torsions:
REMARK  status: ('A' for Active; 'I' for Inactive)
ROOT
ATOM      1  C   UNL d   1       2.850  -1.542   0.460  0.00  0.00     0.020 A 
ATOM      2  C1  UNL d   1       3.377  -0.499   1.220  0.00  0.00     0.020 A 
ATOM      3  C2  UNL d   1       2.646   0.679   1.390  0.00  0.00     0.034 A 
ATOM      4  C3  UNL d   1       1.385   0.816   0.800  0.00  0.00     0.017 A 
ATOM      5  C4  UNL d   1       0.856  -0.232   0.038  0.00  0.00     0.017 A 
ATOM      6  C5  UNL d   1       1.592  -1.409  -0.130  0.00  0.00     0.034 A 
ATOM      7 Cl   UNL d   1      -0.694  -0.136  -0.721  0.00  0.00    -0.070 Cl
ATOM      8 Cl1  UNL d   1       0.536   2.300   1.053  0.00  0.00    -0.070 Cl
ENDROOT
TORSDOF 0
ENDMDL
