MODEL 1
REMARK minimizedAffinity -4.45955753
REMARK minimizedRMSD -1
REMARK  0 active torsions:
REMARK  status: ('A' for Active; 'I' for Inactive)
ROOT
ATOM      1  C   UNL d   1       2.555  -0.666   0.223  0.00  0.00     0.020 A 
ATOM      2  C1  UNL d   1       2.934   0.381   1.062  0.00  0.00     0.020 A 
ATOM      3  C2  UNL d   1       2.065   1.454   1.275  0.00  0.00     0.034 A 
ATOM      4  C3  UNL d   1       0.813   1.481   0.649  0.00  0.00     0.017 A 
ATOM      5  C4  UNL d   1       0.434   0.430  -0.193  0.00  0.00     0.017 A 
ATOM      6  C5  UNL d   1       1.308  -0.642  -0.403  0.00  0.00     0.034 A 
ATOM      7 Cl   UNL d   1      -1.093   0.393  -1.000  0.00  0.00    -0.070 Cl
ATOM      8 Cl1  UNL d   1      -0.210   2.839   0.958  0.00  0.00    -0.070 Cl
ENDROOT
TORSDOF 0
ENDMDL
