MODEL 1
REMARK minimizedAffinity 0.15456678
REMARK minimizedRMSD -1
REMARK  0 active torsions:
REMARK  status: ('A' for Active; 'I' for Inactive)
ROOT
ATOM      1  C   UNL d   1       2.839   1.226   1.992  0.00  0.00     0.020 A 
ATOM      2  C1  UNL d   1       1.927   2.111   1.417  0.00  0.00     0.020 A 
ATOM      3  C2  UNL d   1       0.883   1.623   0.628  0.00  0.00     0.034 A 
ATOM      4  C3  UNL d   1       0.748   0.247   0.411  0.00  0.00     0.017 A 
ATOM      5  C4  UNL d   1       1.664  -0.640   0.988  0.00  0.00     0.017 A 
ATOM      6  C5  UNL d   1       2.707  -0.146   1.778  0.00  0.00     0.034 A 
ATOM      7 Cl   UNL d   1       1.563  -2.351   0.766  0.00  0.00    -0.070 Cl
ATOM      8 Cl1  UNL d   1      -0.566  -0.286  -0.575  0.00  0.00    -0.070 Cl
ENDROOT
TORSDOF 0
ENDMDL
