MODEL 1
REMARK minimizedAffinity -2.37081146
REMARK minimizedRMSD -1
REMARK  0 active torsions:
REMARK  status: ('A' for Active; 'I' for Inactive)
ROOT
ATOM      1  C   UNL d   1      -1.380   3.675   1.802  0.00  0.00     0.020 A 
ATOM      2  C1  UNL d   1      -2.495   2.864   1.590  0.00  0.00     0.020 A 
ATOM      3  C2  UNL d   1      -2.339   1.594   1.032  0.00  0.00     0.034 A 
ATOM      4  C3  UNL d   1      -1.065   1.130   0.684  0.00  0.00     0.017 A 
ATOM      5  C4  UNL d   1       0.053   1.944   0.896  0.00  0.00     0.017 A 
ATOM      6  C5  UNL d   1      -0.109   3.215   1.456  0.00  0.00     0.034 A 
ATOM      7 Cl   UNL d   1       1.656   1.440   0.492  0.00  0.00    -0.070 Cl
ATOM      8 Cl1  UNL d   1      -0.946  -0.452  -0.002  0.00  0.00    -0.070 Cl
ENDROOT
TORSDOF 0
ENDMDL
