MODEL 1
REMARK minimizedAffinity -3.42356777
REMARK minimizedRMSD -1
REMARK  0 active torsions:
REMARK  status: ('A' for Active; 'I' for Inactive)
ROOT
ATOM      1  C   UNL d   1      -0.715   0.641   0.136  0.00  0.00     0.020 A 
ATOM      2  C1  UNL d   1       0.408   1.467   0.099  0.00  0.00     0.020 A 
ATOM      3  C2  UNL d   1       1.677   0.931   0.326  0.00  0.00     0.034 A 
ATOM      4  C3  UNL d   1       1.827  -0.435   0.592  0.00  0.00     0.017 A 
ATOM      5  C4  UNL d   1       0.700  -1.263   0.629  0.00  0.00     0.017 A 
ATOM      6  C5  UNL d   1      -0.569  -0.721   0.401  0.00  0.00     0.034 A 
ATOM      7 Cl   UNL d   1       0.805  -2.958   0.950  0.00  0.00    -0.070 Cl
ATOM      8 Cl1  UNL d   1       3.426  -1.029   0.863  0.00  0.00    -0.070 Cl
ENDROOT
TORSDOF 0
ENDMDL
