MODEL 1
REMARK minimizedAffinity -4.43525553
REMARK minimizedRMSD -1
REMARK  0 active torsions:
REMARK  status: ('A' for Active; 'I' for Inactive)
ROOT
ATOM      1  C   UNL d   1       2.353   1.666   1.202  0.00  0.00     0.020 A 
ATOM      2  C1  UNL d   1       1.203   2.301   0.736  0.00  0.00     0.020 A 
ATOM      3  C2  UNL d   1       0.136   1.542   0.250  0.00  0.00     0.034 A 
ATOM      4  C3  UNL d   1       0.217   0.145   0.229  0.00  0.00     0.017 A 
ATOM      5  C4  UNL d   1       1.372  -0.491   0.698  0.00  0.00     0.017 A 
ATOM      6  C5  UNL d   1       2.438   0.274   1.184  0.00  0.00     0.034 A 
ATOM      7 Cl   UNL d   1       1.546  -2.210   0.704  0.00  0.00    -0.070 Cl
ATOM      8 Cl1  UNL d   1      -1.141  -0.730  -0.385  0.00  0.00    -0.070 Cl
ENDROOT
TORSDOF 0
ENDMDL
