MODEL 1
REMARK minimizedAffinity -2.21389461
REMARK minimizedRMSD -1
REMARK  0 active torsions:
REMARK  status: ('A' for Active; 'I' for Inactive)
ROOT
ATOM      1  C   UNL d   1       2.545  -0.102   0.741  0.00  0.00     0.020 A 
ATOM      2  C1  UNL d   1       2.179  -1.132  -0.125  0.00  0.00     0.020 A 
ATOM      3  C2  UNL d   1       0.909  -1.137  -0.706  0.00  0.00     0.034 A 
ATOM      4  C3  UNL d   1       0.001  -0.111  -0.422  0.00  0.00     0.017 A 
ATOM      5  C4  UNL d   1       0.369   0.922   0.447  0.00  0.00     0.017 A 
ATOM      6  C5  UNL d   1       1.642   0.923   1.026  0.00  0.00     0.034 A 
ATOM      7 Cl   UNL d   1      -0.698   2.223   0.846  0.00  0.00    -0.070 Cl
ATOM      8 Cl1  UNL d   1      -1.553  -0.182  -1.175  0.00  0.00    -0.070 Cl
ENDROOT
TORSDOF 0
ENDMDL
