MODEL 1
REMARK minimizedAffinity 10.4387083
REMARK minimizedRMSD -1
REMARK  0 active torsions:
REMARK  status: ('A' for Active; 'I' for Inactive)
ROOT
ATOM      1  C   UNL d   1      -0.639   2.231  -1.057  0.00  0.00    -0.002 A 
ATOM      2  C1  UNL d   1      -1.379   1.304  -1.777  0.00  0.00     0.010 A 
ATOM      3  C2  UNL d   1      -1.357  -0.048  -1.429  0.00  0.00     0.041 A 
ATOM      4  C3  UNL d   1      -0.572  -0.456  -0.334  0.00  0.00    -0.075 A 
ATOM      5  S   UNL d   1      -0.392  -2.059   0.276  0.00  0.00     0.015 SA
ATOM      6  C4  UNL d   1       0.671  -1.552   1.507  0.00  0.00     0.022 A 
ATOM      7  C5  UNL d   1       0.895  -0.196   1.469  0.00  0.00     0.026 A 
ATOM      8  C6  UNL d   1       0.182   0.458   0.408  0.00  0.00    -0.082 A 
ATOM      9  C7  UNL d   1       0.139   1.822   0.029  0.00  0.00     0.045 A 
ENDROOT
TORSDOF 0
ENDMDL
