MODEL 1
REMARK minimizedAffinity 0.628115535
REMARK minimizedRMSD -1
REMARK  0 active torsions:
REMARK  status: ('A' for Active; 'I' for Inactive)
ROOT
ATOM      1  C   UNL d   1       0.874  -4.198  -2.192  0.00  0.00    -0.002 A 
ATOM      2  C1  UNL d   1      -0.328  -3.735  -2.709  0.00  0.00     0.010 A 
ATOM      3  C2  UNL d   1      -0.796  -2.460  -2.385  0.00  0.00     0.041 A 
ATOM      4  C3  UNL d   1      -0.028  -1.650  -1.525  0.00  0.00    -0.075 A 
ATOM      5  S   UNL d   1      -0.402  -0.054  -0.991  0.00  0.00     0.015 SA
ATOM      6  C4  UNL d   1       1.025   0.051  -0.065  0.00  0.00     0.022 A 
ATOM      7  C5  UNL d   1       1.780  -1.095  -0.150  0.00  0.00     0.026 A 
ATOM      8  C6  UNL d   1       1.186  -2.094  -0.993  0.00  0.00    -0.082 A 
ATOM      9  C7  UNL d   1       1.633  -3.391  -1.340  0.00  0.00     0.045 A 
ENDROOT
TORSDOF 0
ENDMDL
