MODEL 1
REMARK minimizedAffinity -5.35242701
REMARK minimizedRMSD -1
REMARK  0 active torsions:
REMARK  status: ('A' for Active; 'I' for Inactive)
ROOT
ATOM      1  C   UNL d   1      -1.216   3.014   1.140  0.00  0.00    -0.002 A 
ATOM      2  C1  UNL d   1      -0.533   3.492   0.030  0.00  0.00     0.010 A 
ATOM      3  C2  UNL d   1       0.341   2.664  -0.677  0.00  0.00     0.041 A 
ATOM      4  C3  UNL d   1       0.518   1.334  -0.247  0.00  0.00    -0.075 A 
ATOM      5  S   UNL d   1       1.535   0.138  -0.959  0.00  0.00     0.015 SA
ATOM      6  C4  UNL d   1       1.087  -1.036   0.193  0.00  0.00     0.022 A 
ATOM      7  C5  UNL d   1       0.184  -0.544   1.105  0.00  0.00     0.026 A 
ATOM      8  C6  UNL d   1      -0.159   0.829   0.866  0.00  0.00    -0.082 A 
ATOM      9  C7  UNL d   1      -1.038   1.694   1.563  0.00  0.00     0.045 A 
ENDROOT
TORSDOF 0
ENDMDL
