MODEL 1
REMARK minimizedAffinity 0.775153637
REMARK minimizedRMSD -1
REMARK  0 active torsions:
REMARK  status: ('A' for Active; 'I' for Inactive)
ROOT
ATOM      1  C   UNL d   1      -1.240   1.759   1.559  0.00  0.00    -0.002 A 
ATOM      2  C1  UNL d   1      -0.516   1.120   2.556  0.00  0.00     0.010 A 
ATOM      3  C2  UNL d   1       0.345   0.066   2.245  0.00  0.00     0.041 A 
ATOM      4  C3  UNL d   1       0.469  -0.339   0.901  0.00  0.00    -0.075 A 
ATOM      5  S   UNL d   1       1.463  -1.605   0.284  0.00  0.00     0.015 SA
ATOM      6  C4  UNL d   1       0.951  -1.328  -1.318  0.00  0.00     0.022 A 
ATOM      7  C5  UNL d   1       0.043  -0.298  -1.398  0.00  0.00     0.026 A 
ATOM      8  C6  UNL d   1      -0.249   0.289  -0.121  0.00  0.00    -0.082 A 
ATOM      9  C7  UNL d   1      -1.114   1.354   0.227  0.00  0.00     0.045 A 
ENDROOT
TORSDOF 0
ENDMDL
