MODEL 1
REMARK minimizedAffinity 4.90546942
REMARK minimizedRMSD -1
REMARK  0 active torsions:
REMARK  status: ('A' for Active; 'I' for Inactive)
ROOT
ATOM      1  C   UNL d   1       1.618   0.386  -1.802  0.00  0.00    -0.002 A 
ATOM      2  C1  UNL d   1       0.982   1.619  -1.780  0.00  0.00     0.010 A 
ATOM      3  C2  UNL d   1       0.209   1.999  -0.682  0.00  0.00     0.041 A 
ATOM      4  C3  UNL d   1       0.085   1.112   0.405  0.00  0.00    -0.075 A 
ATOM      5  S   UNL d   1      -0.809   1.364   1.857  0.00  0.00     0.015 SA
ATOM      6  C4  UNL d   1      -0.368  -0.158   2.482  0.00  0.00     0.022 A 
ATOM      7  C5  UNL d   1       0.442  -0.856   1.618  0.00  0.00     0.026 A 
ATOM      8  C6  UNL d   1       0.717  -0.135   0.406  0.00  0.00    -0.082 A 
ATOM      9  C7  UNL d   1       1.494  -0.492  -0.722  0.00  0.00     0.045 A 
ENDROOT
TORSDOF 0
ENDMDL
