MODEL 1
REMARK minimizedAffinity -0.902817428
REMARK minimizedRMSD -1
REMARK  0 active torsions:
REMARK  status: ('A' for Active; 'I' for Inactive)
ROOT
ATOM      1  C   UNL d   1      -1.555   2.737   1.676  0.00  0.00    -0.002 A 
ATOM      2  C1  UNL d   1      -1.166   3.306   0.472  0.00  0.00     0.010 A 
ATOM      3  C2  UNL d   1      -0.533   2.536  -0.506  0.00  0.00     0.041 A 
ATOM      4  C3  UNL d   1      -0.298   1.171  -0.252  0.00  0.00    -0.075 A 
ATOM      5  S   UNL d   1       0.460   0.033  -1.303  0.00  0.00     0.015 SA
ATOM      6  C4  UNL d   1       0.283  -1.236  -0.178  0.00  0.00     0.022 A 
ATOM      7  C5  UNL d   1      -0.336  -0.819   0.976  0.00  0.00     0.026 A 
ATOM      8  C6  UNL d   1      -0.682   0.574   0.953  0.00  0.00    -0.082 A 
ATOM      9  C7  UNL d   1      -1.321   1.382   1.925  0.00  0.00     0.045 A 
ENDROOT
TORSDOF 0
ENDMDL
