MODEL 1
REMARK minimizedAffinity -0.0721613914
REMARK minimizedRMSD -1
REMARK  0 active torsions:
REMARK  status: ('A' for Active; 'I' for Inactive)
ROOT
ATOM      1  C   UNL d   1      -2.208   2.818   0.951  0.00  0.00    -0.002 A 
ATOM      2  C1  UNL d   1      -1.866   2.505   2.259  0.00  0.00     0.010 A 
ATOM      3  C2  UNL d   1      -1.088   1.380   2.540  0.00  0.00     0.041 A 
ATOM      4  C3  UNL d   1      -0.655   0.567   1.473  0.00  0.00    -0.075 A 
ATOM      5  S   UNL d   1       0.306  -0.860   1.578  0.00  0.00     0.015 SA
ATOM      6  C4  UNL d   1       0.285  -1.087  -0.111  0.00  0.00     0.022 A 
ATOM      7  C5  UNL d   1      -0.433  -0.108  -0.755  0.00  0.00     0.026 A 
ATOM      8  C6  UNL d   1      -0.987   0.862   0.148  0.00  0.00    -0.082 A 
ATOM      9  C7  UNL d   1      -1.777   2.010  -0.104  0.00  0.00     0.045 A 
ENDROOT
TORSDOF 0
ENDMDL
