MODEL 1
REMARK minimizedAffinity 2.95951581
REMARK minimizedRMSD -1
REMARK  1 active torsions:
REMARK  status: ('A' for Active; 'I' for Inactive)
REMARK    1  A    between atoms: C1_2  and  C2_3 
ROOT
ATOM      1  C2  UNL d   1      -1.503  -2.712  -2.263  0.00  0.00    -0.073 A 
ATOM      2  C3  UNL d   1      -2.484  -3.710  -2.265  0.00  0.00    -0.002 A 
ATOM      3  C4  UNL d   1      -2.974  -4.214  -3.470  0.00  0.00     0.004 A 
ATOM      4  C5  UNL d   1      -2.485  -3.732  -4.684  0.00  0.00    -0.004 A 
ATOM      5  C6  UNL d   1      -1.496  -2.743  -4.703  0.00  0.00    -0.075 A 
ATOM      6  C7  UNL d   1      -0.961  -2.212  -6.000  0.00  0.00     0.076 C 
ATOM      7  C8  UNL d   1      -1.011  -2.240  -3.488  0.00  0.00     0.001 A 
ENDROOT
BRANCH   1   8
ATOM      8  C1  UNL d   1      -0.966  -2.169  -0.964  0.00  0.00     0.053 C 
ATOM      9  C   UNL d   1      -2.054  -1.516  -0.126  0.00  0.00     0.018 C 
ENDBRANCH   1   8
TORSDOF 1
ENDMDL
