MODEL 1
REMARK minimizedAffinity -1.16776788
REMARK minimizedRMSD -1
REMARK  1 active torsions:
REMARK  status: ('A' for Active; 'I' for Inactive)
REMARK    1  A    between atoms: C1_2  and  C2_3 
ROOT
ATOM      1  C2  UNL d   1       3.212   3.474  -5.945  0.00  0.00    -0.073 A 
ATOM      2  C3  UNL d   1       4.045   4.597  -5.992  0.00  0.00    -0.002 A 
ATOM      3  C4  UNL d   1       5.433   4.447  -5.971  0.00  0.00     0.004 A 
ATOM      4  C5  UNL d   1       6.000   3.174  -5.909  0.00  0.00    -0.004 A 
ATOM      5  C6  UNL d   1       5.184   2.039  -5.873  0.00  0.00    -0.075 A 
ATOM      6  C7  UNL d   1       5.778   0.663  -5.804  0.00  0.00     0.076 C 
ATOM      7  C8  UNL d   1       3.792   2.198  -5.892  0.00  0.00     0.001 A 
ENDROOT
BRANCH   1   8
ATOM      8  C1  UNL d   1       1.714   3.631  -5.974  0.00  0.00     0.053 C 
ATOM      9  C   UNL d   1       1.293   5.091  -5.932  0.00  0.00     0.018 C 
ENDBRANCH   1   8
TORSDOF 1
ENDMDL
