MODEL 1
REMARK minimizedAffinity 0.752334237
REMARK minimizedRMSD -1
REMARK  1 active torsions:
REMARK  status: ('A' for Active; 'I' for Inactive)
REMARK    1  A    between atoms: C1_2  and  C2_3 
ROOT
ATOM      1  C2  UNL d   1      -3.762  -2.570  -1.513  0.00  0.00    -0.073 A 
ATOM      2  C3  UNL d   1      -4.427  -2.124  -0.366  0.00  0.00    -0.002 A 
ATOM      3  C4  UNL d   1      -5.391  -2.925   0.247  0.00  0.00     0.004 A 
ATOM      4  C5  UNL d   1      -5.694  -4.182  -0.276  0.00  0.00    -0.004 A 
ATOM      5  C6  UNL d   1      -5.032  -4.651  -1.415  0.00  0.00    -0.075 A 
ATOM      6  C7  UNL d   1      -5.349  -6.000  -1.991  0.00  0.00     0.076 C 
ATOM      7  C8  UNL d   1      -4.067  -3.839  -2.026  0.00  0.00     0.001 A 
ENDROOT
BRANCH   1   8
ATOM      8  C1  UNL d   1      -2.716  -1.711  -2.175  0.00  0.00     0.053 C 
ATOM      9  C   UNL d   1      -2.618  -1.980  -3.668  0.00  0.00     0.018 C 
ENDBRANCH   1   8
TORSDOF 1
ENDMDL
