MODEL 1
REMARK minimizedAffinity 12.2527428
REMARK minimizedRMSD -1
REMARK  1 active torsions:
REMARK  status: ('A' for Active; 'I' for Inactive)
REMARK    1  A    between atoms: C1_2  and  C2_3 
ROOT
ATOM      1  C2  UNL d   1      -1.663  -3.228  -2.444  0.00  0.00    -0.073 A 
ATOM      2  C3  UNL d   1      -1.943  -1.995  -1.846  0.00  0.00    -0.002 A 
ATOM      3  C4  UNL d   1      -1.365  -1.658  -0.621  0.00  0.00     0.004 A 
ATOM      4  C5  UNL d   1      -0.498  -2.547   0.014  0.00  0.00    -0.004 A 
ATOM      5  C6  UNL d   1      -0.196  -3.779  -0.574  0.00  0.00    -0.075 A 
ATOM      6  C7  UNL d   1       0.733  -4.747   0.097  0.00  0.00     0.076 C 
ATOM      7  C8  UNL d   1      -0.782  -4.111  -1.803  0.00  0.00     0.001 A 
ENDROOT
BRANCH   1   8
ATOM      8  C1  UNL d   1      -2.279  -3.593  -3.770  0.00  0.00     0.053 C 
ATOM      9  C   UNL d   1      -1.745  -2.732  -4.903  0.00  0.00     0.018 C 
ENDBRANCH   1   8
TORSDOF 1
ENDMDL
