MODEL 1
REMARK minimizedAffinity 8.1901083
REMARK minimizedRMSD -1
REMARK  1 active torsions:
REMARK  status: ('A' for Active; 'I' for Inactive)
REMARK    1  A    between atoms: C1_2  and  C2_3 
ROOT
ATOM      1  C2  UNL d   1      -1.148  -2.938   3.020  0.00  0.00    -0.073 A 
ATOM      2  C3  UNL d   1      -1.153  -4.302   3.334  0.00  0.00    -0.002 A 
ATOM      3  C4  UNL d   1      -0.564  -5.226   2.470  0.00  0.00     0.004 A 
ATOM      4  C5  UNL d   1       0.041  -4.797   1.289  0.00  0.00    -0.004 A 
ATOM      5  C6  UNL d   1       0.067  -3.437   0.963  0.00  0.00    -0.075 A 
ATOM      6  C7  UNL d   1       0.712  -2.959  -0.304  0.00  0.00     0.076 C 
ATOM      7  C8  UNL d   1      -0.529  -2.515   1.835  0.00  0.00     0.001 A 
ENDROOT
BRANCH   1   8
ATOM      8  C1  UNL d   1      -1.777  -1.935   3.952  0.00  0.00     0.053 C 
ATOM      9  C   UNL d   1      -0.761  -0.939   4.487  0.00  0.00     0.018 C 
ENDBRANCH   1   8
TORSDOF 1
ENDMDL
