MODEL 1
REMARK minimizedAffinity 3.71424794
REMARK minimizedRMSD -1
REMARK  1 active torsions:
REMARK  status: ('A' for Active; 'I' for Inactive)
REMARK    1  A    between atoms: C1_2  and  C2_3 
ROOT
ATOM      1  C2  UNL d   1       5.146  -0.954  -5.526  0.00  0.00    -0.073 A 
ATOM      2  C3  UNL d   1       5.676  -1.938  -4.683  0.00  0.00    -0.002 A 
ATOM      3  C4  UNL d   1       4.885  -3.008  -4.263  0.00  0.00     0.004 A 
ATOM      4  C5  UNL d   1       3.560  -3.109  -4.686  0.00  0.00    -0.004 A 
ATOM      5  C6  UNL d   1       3.015  -2.143  -5.537  0.00  0.00    -0.075 A 
ATOM      6  C7  UNL d   1       1.591  -2.237  -6.000  0.00  0.00     0.076 C 
ATOM      7  C8  UNL d   1       3.815  -1.070  -5.953  0.00  0.00     0.001 A 
ENDROOT
BRANCH   1   8
ATOM      8  C1  UNL d   1       5.998   0.200  -5.987  0.00  0.00     0.053 C 
ATOM      9  C   UNL d   1       5.986   1.350  -4.994  0.00  0.00     0.018 C 
ENDBRANCH   1   8
TORSDOF 1
ENDMDL
