MODEL 1
REMARK minimizedAffinity 0.660675049
REMARK minimizedRMSD -1
REMARK  1 active torsions:
REMARK  status: ('A' for Active; 'I' for Inactive)
REMARK    1  A    between atoms: N_2  and  C1_3 
ROOT
ATOM      1  C1  UNL d   1       0.115  -0.609   1.040  0.00  0.00     0.143 A 
ATOM      2  C2  UNL d   1      -0.808  -0.451   2.080  0.00  0.00    -0.057 A 
ATOM      3  C3  UNL d   1      -2.136  -0.088   1.823  0.00  0.00     0.033 A 
ATOM      4  C4  UNL d   1      -2.558   0.154   0.520  0.00  0.00    -0.042 A 
ATOM      5  C5  UNL d   1      -1.652   0.027  -0.527  0.00  0.00     0.033 A 
ATOM      6  C6  UNL d   1      -0.329  -0.342  -0.265  0.00  0.00    -0.057 A 
ENDROOT
BRANCH   1   7
ATOM      7  N   UNL d   1       1.472  -0.872   1.238  0.00  0.00    -0.732 N 
ATOM      8  C   UNL d   1       2.465   0.153   0.998  0.00  0.00     0.284 C 
ATOM      9  H3  UNL d   1       1.642  -1.428   2.073  0.00  0.00     0.395 HD
ENDBRANCH   1   7
TORSDOF 1
ENDMDL
