MODEL 1
REMARK minimizedAffinity -0.749765217
REMARK minimizedRMSD -1
REMARK  1 active torsions:
REMARK  status: ('A' for Active; 'I' for Inactive)
REMARK    1  A    between atoms: N_2  and  C1_3 
ROOT
ATOM      1  C1  UNL d   1      -0.064  -0.397   0.152  0.00  0.00     0.143 A 
ATOM      2  C2  UNL d   1      -0.656  -1.466  -0.528  0.00  0.00    -0.057 A 
ATOM      3  C3  UNL d   1      -2.039  -1.516  -0.739  0.00  0.00     0.033 A 
ATOM      4  C4  UNL d   1      -2.861  -0.508  -0.247  0.00  0.00    -0.042 A 
ATOM      5  C5  UNL d   1      -2.297   0.552   0.454  0.00  0.00     0.033 A 
ATOM      6  C6  UNL d   1      -0.914   0.600   0.656  0.00  0.00    -0.057 A 
ENDROOT
BRANCH   1   7
ATOM      7  N   UNL d   1       1.293  -0.338   0.479  0.00  0.00    -0.732 N 
ATOM      8  C   UNL d   1       2.090   0.814   0.117  0.00  0.00     0.284 C 
ATOM      9  H3  UNL d   1       1.483  -0.699   1.411  0.00  0.00     0.395 HD
ENDBRANCH   1   7
TORSDOF 1
ENDMDL
