MODEL 1
REMARK minimizedAffinity -0.374799103
REMARK minimizedRMSD -1
REMARK  1 active torsions:
REMARK  status: ('A' for Active; 'I' for Inactive)
REMARK    1  A    between atoms: N_2  and  C1_3 
ROOT
ATOM      1  C1  UNL d   1       0.166   0.515   0.645  0.00  0.00     0.143 A 
ATOM      2  C2  UNL d   1      -0.965   1.227   1.059  0.00  0.00    -0.057 A 
ATOM      3  C3  UNL d   1      -2.255   0.724   0.850  0.00  0.00     0.033 A 
ATOM      4  C4  UNL d   1      -2.438  -0.489   0.196  0.00  0.00    -0.042 A 
ATOM      5  C5  UNL d   1      -1.329  -1.202  -0.246  0.00  0.00     0.033 A 
ATOM      6  C6  UNL d   1      -0.043  -0.698  -0.029  0.00  0.00    -0.057 A 
ENDROOT
BRANCH   1   7
ATOM      7  N   UNL d   1       1.471   1.007   0.735  0.00  0.00    -0.732 N 
ATOM      8  C   UNL d   1       1.717   2.372   1.148  0.00  0.00     0.284 C 
ATOM      9  H3  UNL d   1       2.115   0.329   1.136  0.00  0.00     0.395 HD
ENDBRANCH   1   7
TORSDOF 1
ENDMDL
