MODEL 1
REMARK minimizedAffinity -2.38740873
REMARK minimizedRMSD -1
REMARK  1 active torsions:
REMARK  status: ('A' for Active; 'I' for Inactive)
REMARK    1  A    between atoms: N_2  and  C1_3 
ROOT
ATOM      1  C1  UNL d   1      -0.747  -0.138   2.843  0.00  0.00     0.143 A 
ATOM      2  C2  UNL d   1       0.189  -0.497   1.868  0.00  0.00    -0.057 A 
ATOM      3  C3  UNL d   1      -0.164  -0.573   0.515  0.00  0.00     0.033 A 
ATOM      4  C4  UNL d   1      -1.472  -0.320   0.116  0.00  0.00    -0.042 A 
ATOM      5  C5  UNL d   1      -2.426   0.014   1.071  0.00  0.00     0.033 A 
ATOM      6  C6  UNL d   1      -2.065   0.096   2.420  0.00  0.00    -0.057 A 
ENDROOT
BRANCH   1   7
ATOM      7  N   UNL d   1      -0.482  -0.140   4.215  0.00  0.00    -0.732 N 
ATOM      8  C   UNL d   1       0.296  -1.203   4.813  0.00  0.00     0.284 C 
ATOM      9  H3  UNL d   1      -0.260   0.787   4.569  0.00  0.00     0.395 HD
ENDBRANCH   1   7
TORSDOF 1
ENDMDL
