MODEL 1
REMARK minimizedAffinity 0.660211563
REMARK minimizedRMSD -1
REMARK  1 active torsions:
REMARK  status: ('A' for Active; 'I' for Inactive)
REMARK    1  A    between atoms: N_2  and  C1_3 
ROOT
ATOM      1  C1  UNL d   1       2.974   1.289  -2.743  0.00  0.00     0.143 A 
ATOM      2  C2  UNL d   1       4.070   2.124  -2.506  0.00  0.00    -0.057 A 
ATOM      3  C3  UNL d   1       4.696   2.164  -1.254  0.00  0.00     0.033 A 
ATOM      4  C4  UNL d   1       4.215   1.387  -0.205  0.00  0.00    -0.042 A 
ATOM      5  C5  UNL d   1       3.111   0.568  -0.411  0.00  0.00     0.033 A 
ATOM      6  C6  UNL d   1       2.495   0.528  -1.665  0.00  0.00    -0.057 A 
ENDROOT
BRANCH   1   7
ATOM      7  N   UNL d   1       2.248   1.278  -3.937  0.00  0.00    -0.732 N 
ATOM      8  C   UNL d   1       0.940   0.661  -3.999  0.00  0.00     0.284 C 
ATOM      9  H3  UNL d   1       2.316   2.159  -4.441  0.00  0.00     0.395 HD
ENDBRANCH   1   7
TORSDOF 1
ENDMDL
