MODEL 1
REMARK minimizedAffinity -2.93479919
REMARK minimizedRMSD -1
REMARK  0 active torsions:
REMARK  status: ('A' for Active; 'I' for Inactive)
ROOT
ATOM      1  C   UNL d   1       2.137   0.965  -0.238  0.00  0.00     0.124 A 
ATOM      2  C1  UNL d   1       1.446  -0.228  -0.400  0.00  0.00     0.062 A 
ATOM      3  C2  UNL d   1       0.223  -0.420   0.235  0.00  0.00     0.162 A 
ATOM      4  C3  UNL d   1      -0.318   0.584   1.039  0.00  0.00    -0.034 A 
ATOM      5  C4  UNL d   1       0.384   1.780   1.198  0.00  0.00     0.162 A 
ATOM      6  C5  UNL d   1       1.606   1.968   0.560  0.00  0.00     0.062 A 
ATOM      7  F   UNL d   1       2.272   3.121   0.718  0.00  0.00    -0.097 F 
ATOM      8  F1  UNL d   1      -0.107   2.766   1.963  0.00  0.00    -0.096 F 
ATOM      9  I   UNL d   1      -2.147   0.301   1.991  0.00  0.00    -0.060 I 
ATOM     10  F2  UNL d   1      -0.423  -1.582   0.061  0.00  0.00    -0.096 F 
ATOM     11  F3  UNL d   1       1.958  -1.198  -1.171  0.00  0.00    -0.097 F 
ATOM     12  F4  UNL d   1       3.315   1.147  -0.850  0.00  0.00    -0.092 F 
ENDROOT
TORSDOF 0
ENDMDL
