MODEL 1
REMARK minimizedAffinity 1.33363199
REMARK minimizedRMSD -1
REMARK  0 active torsions:
REMARK  status: ('A' for Active; 'I' for Inactive)
ROOT
ATOM      1  C   UNL d   1       1.678   1.734   0.389  0.00  0.00     0.124 A 
ATOM      2  C1  UNL d   1       2.034   0.466  -0.050  0.00  0.00     0.062 A 
ATOM      3  C2  UNL d   1       1.052  -0.449  -0.418  0.00  0.00     0.162 A 
ATOM      4  C3  UNL d   1      -0.297  -0.099  -0.348  0.00  0.00    -0.034 A 
ATOM      5  C4  UNL d   1      -0.647   1.177   0.096  0.00  0.00     0.162 A 
ATOM      6  C5  UNL d   1       0.338   2.088   0.461  0.00  0.00     0.062 A 
ATOM      7  F   UNL d   1      -0.008   3.312   0.886  0.00  0.00    -0.097 F 
ATOM      8  F1  UNL d   1      -1.934   1.546   0.175  0.00  0.00    -0.096 F 
ATOM      9  I   UNL d   1      -1.768  -1.465  -0.896  0.00  0.00    -0.060 I 
ATOM     10  F2  UNL d   1       1.425  -1.666  -0.839  0.00  0.00    -0.096 F 
ATOM     11  F3  UNL d   1       3.328   0.122  -0.121  0.00  0.00    -0.097 F 
ATOM     12  F4  UNL d   1       2.625   2.612   0.743  0.00  0.00    -0.092 F 
ENDROOT
TORSDOF 0
ENDMDL
