MODEL 1
REMARK minimizedAffinity -3.80493355
REMARK minimizedRMSD -1
REMARK  0 active torsions:
REMARK  status: ('A' for Active; 'I' for Inactive)
ROOT
ATOM      1  C   UNL d   1      -0.209   1.556   1.784  0.00  0.00     0.124 A 
ATOM      2  C1  UNL d   1       1.035   1.838   1.237  0.00  0.00     0.062 A 
ATOM      3  C2  UNL d   1       1.531   1.066   0.190  0.00  0.00     0.162 A 
ATOM      4  C3  UNL d   1       0.782   0.003  -0.316  0.00  0.00    -0.034 A 
ATOM      5  C4  UNL d   1      -0.467  -0.276   0.241  0.00  0.00     0.162 A 
ATOM      6  C5  UNL d   1      -0.959   0.500   1.286  0.00  0.00     0.062 A 
ATOM      7  F   UNL d   1      -2.160   0.225   1.814  0.00  0.00    -0.097 F 
ATOM      8  F1  UNL d   1      -1.213  -1.290  -0.222  0.00  0.00    -0.096 F 
ATOM      9  I   UNL d   1       1.520  -1.154  -1.880  0.00  0.00    -0.060 I 
ATOM     10  F2  UNL d   1       2.735   1.362  -0.320  0.00  0.00    -0.096 F 
ATOM     11  F3  UNL d   1       1.761   2.858   1.717  0.00  0.00    -0.097 F 
ATOM     12  F4  UNL d   1      -0.683   2.300   2.792  0.00  0.00    -0.092 F 
ENDROOT
TORSDOF 0
ENDMDL
