MODEL 1
REMARK minimizedAffinity 0.381809145
REMARK minimizedRMSD -1
REMARK  0 active torsions:
REMARK  status: ('A' for Active; 'I' for Inactive)
ROOT
ATOM      1  C   UNL d   1      -0.823  -1.218  -1.640  0.00  0.00     0.124 A 
ATOM      2  C1  UNL d   1      -1.721  -0.240  -1.236  0.00  0.00     0.062 A 
ATOM      3  C2  UNL d   1      -1.351   0.696  -0.275  0.00  0.00     0.162 A 
ATOM      4  C3  UNL d   1      -0.076   0.660   0.289  0.00  0.00    -0.034 A 
ATOM      5  C4  UNL d   1       0.822  -0.328  -0.121  0.00  0.00     0.162 A 
ATOM      6  C5  UNL d   1       0.447  -1.261  -1.082  0.00  0.00     0.062 A 
ATOM      7  F   UNL d   1       1.316  -2.206  -1.471  0.00  0.00    -0.097 F 
ATOM      8  F1  UNL d   1       2.055  -0.392   0.401  0.00  0.00    -0.096 F 
ATOM      9  I   UNL d   1       0.481   2.058   1.726  0.00  0.00    -0.060 I 
ATOM     10  F2  UNL d   1      -2.239   1.631   0.096  0.00  0.00    -0.096 F 
ATOM     11  F3  UNL d   1      -2.949  -0.197  -1.773  0.00  0.00    -0.097 F 
ATOM     12  F4  UNL d   1      -1.182  -2.118  -2.564  0.00  0.00    -0.092 F 
ENDROOT
TORSDOF 0
ENDMDL
