MODEL 1
REMARK minimizedAffinity -2.09261012
REMARK minimizedRMSD -1
REMARK  0 active torsions:
REMARK  status: ('A' for Active; 'I' for Inactive)
ROOT
ATOM      1  C   UNL d   1       1.101   1.527   0.952  0.00  0.00     0.124 A 
ATOM      2  C1  UNL d   1       1.536   0.771  -0.128  0.00  0.00     0.062 A 
ATOM      3  C2  UNL d   1       0.665  -0.110  -0.762  0.00  0.00     0.162 A 
ATOM      4  C3  UNL d   1      -0.651  -0.240  -0.318  0.00  0.00    -0.034 A 
ATOM      5  C4  UNL d   1      -1.081   0.523   0.770  0.00  0.00     0.162 A 
ATOM      6  C5  UNL d   1      -0.206   1.403   1.399  0.00  0.00     0.062 A 
ATOM      7  F   UNL d   1      -0.628   2.132   2.442  0.00  0.00    -0.097 F 
ATOM      8  F1  UNL d   1      -2.339   0.424   1.222  0.00  0.00    -0.096 F 
ATOM      9  I   UNL d   1      -1.957  -1.556  -1.262  0.00  0.00    -0.060 I 
ATOM     10  F2  UNL d   1       1.112  -0.828  -1.803  0.00  0.00    -0.096 F 
ATOM     11  F3  UNL d   1       2.799   0.889  -0.562  0.00  0.00    -0.097 F 
ATOM     12  F4  UNL d   1       1.942   2.374   1.560  0.00  0.00    -0.092 F 
ENDROOT
TORSDOF 0
ENDMDL
