MODEL 1
REMARK minimizedAffinity -0.791885555
REMARK minimizedRMSD -1
REMARK  0 active torsions:
REMARK  status: ('A' for Active; 'I' for Inactive)
ROOT
ATOM      1  C   UNL d   1       2.173   1.065  -0.332  0.00  0.00     0.124 A 
ATOM      2  C1  UNL d   1       1.570   2.127   0.328  0.00  0.00     0.062 A 
ATOM      3  C2  UNL d   1       0.320   1.965   0.919  0.00  0.00     0.162 A 
ATOM      4  C3  UNL d   1      -0.335   0.735   0.854  0.00  0.00    -0.034 A 
ATOM      5  C4  UNL d   1       0.277  -0.328   0.188  0.00  0.00     0.162 A 
ATOM      6  C5  UNL d   1       1.526  -0.161  -0.401  0.00  0.00     0.062 A 
ATOM      7  F   UNL d   1       2.107  -1.188  -1.038  0.00  0.00    -0.097 F 
ATOM      8  F1  UNL d   1      -0.325  -1.524   0.107  0.00  0.00    -0.096 F 
ATOM      9  I   UNL d   1      -2.204   0.489   1.737  0.00  0.00    -0.060 I 
ATOM     10  F2  UNL d   1      -0.239   3.008   1.550  0.00  0.00    -0.096 F 
ATOM     11  F3  UNL d   1       2.192   3.313   0.396  0.00  0.00    -0.097 F 
ATOM     12  F4  UNL d   1       3.375   1.224  -0.901  0.00  0.00    -0.092 F 
ENDROOT
TORSDOF 0
ENDMDL
