MODEL 1
REMARK minimizedAffinity -3.65606213
REMARK minimizedRMSD -1
REMARK  0 active torsions:
REMARK  status: ('A' for Active; 'I' for Inactive)
ROOT
ATOM      1  C   UNL d   1      -0.816  -1.132  -1.798  0.00  0.00     0.124 A 
ATOM      2  C1  UNL d   1      -1.650  -0.148  -1.285  0.00  0.00     0.062 A 
ATOM      3  C2  UNL d   1      -1.170   0.755  -0.341  0.00  0.00     0.162 A 
ATOM      4  C3  UNL d   1       0.153   0.678   0.097  0.00  0.00    -0.034 A 
ATOM      5  C4  UNL d   1       0.985  -0.315  -0.423  0.00  0.00     0.162 A 
ATOM      6  C5  UNL d   1       0.500  -1.214  -1.366  0.00  0.00     0.062 A 
ATOM      7  F   UNL d   1       1.307  -2.164  -1.860  0.00  0.00    -0.097 F 
ATOM      8  F1  UNL d   1       2.262  -0.417  -0.024  0.00  0.00    -0.096 F 
ATOM      9  I   UNL d   1       0.875   2.026   1.509  0.00  0.00    -0.060 I 
ATOM     10  F2  UNL d   1      -1.998   1.695   0.138  0.00  0.00    -0.096 F 
ATOM     11  F3  UNL d   1      -2.923  -0.067  -1.699  0.00  0.00    -0.097 F 
ATOM     12  F4  UNL d   1      -1.281  -2.000  -2.705  0.00  0.00    -0.092 F 
ENDROOT
TORSDOF 0
ENDMDL
