MODEL 1
REMARK minimizedAffinity 1.22629619
REMARK minimizedRMSD -1
REMARK  0 active torsions:
REMARK  status: ('A' for Active; 'I' for Inactive)
ROOT
ATOM      1  C   UNL d   1      -0.030   0.365   1.221  0.00  0.00     0.124 A 
ATOM      2  C1  UNL d   1       0.264   0.937  -0.010  0.00  0.00     0.062 A 
ATOM      3  C2  UNL d   1      -0.294   0.417  -1.174  0.00  0.00     0.162 A 
ATOM      4  C3  UNL d   1      -1.152  -0.681  -1.114  0.00  0.00    -0.034 A 
ATOM      5  C4  UNL d   1      -1.442  -1.251   0.127  0.00  0.00     0.162 A 
ATOM      6  C5  UNL d   1      -0.882  -0.728   1.288  0.00  0.00     0.062 A 
ATOM      7  F   UNL d   1      -1.167  -1.282   2.475  0.00  0.00    -0.097 F 
ATOM      8  F1  UNL d   1      -2.263  -2.308   0.220  0.00  0.00    -0.096 F 
ATOM      9  I   UNL d   1      -1.987  -1.462  -2.853  0.00  0.00    -0.060 I 
ATOM     10  F2  UNL d   1       0.008   0.989  -2.349  0.00  0.00    -0.096 F 
ATOM     11  F3  UNL d   1       1.088   1.992  -0.077  0.00  0.00    -0.097 F 
ATOM     12  F4  UNL d   1       0.508   0.867   2.339  0.00  0.00    -0.092 F 
ENDROOT
TORSDOF 0
ENDMDL
