MODEL 1
REMARK minimizedAffinity 3.34069562
REMARK minimizedRMSD -1
REMARK  0 active torsions:
REMARK  status: ('A' for Active; 'I' for Inactive)
ROOT
ATOM      1  C   UNL d   1       1.478   0.811   1.043  0.00  0.00     0.124 A 
ATOM      2  C1  UNL d   1       1.873  -0.033   0.015  0.00  0.00     0.062 A 
ATOM      3  C2  UNL d   1       0.927  -0.783  -0.678  0.00  0.00     0.162 A 
ATOM      4  C3  UNL d   1      -0.425  -0.691  -0.346  0.00  0.00    -0.034 A 
ATOM      5  C4  UNL d   1      -0.815   0.159   0.690  0.00  0.00     0.162 A 
ATOM      6  C5  UNL d   1       0.135   0.906   1.380  0.00  0.00     0.062 A 
ATOM      7  F   UNL d   1      -0.249   1.721   2.374  0.00  0.00    -0.097 F 
ATOM      8  F1  UNL d   1      -2.106   0.271   1.036  0.00  0.00    -0.096 F 
ATOM      9  I   UNL d   1      -1.842  -1.810  -1.380  0.00  0.00    -0.060 I 
ATOM     10  F2  UNL d   1       1.337  -1.590  -1.668  0.00  0.00    -0.096 F 
ATOM     11  F3  UNL d   1       3.170  -0.128  -0.312  0.00  0.00    -0.097 F 
ATOM     12  F4  UNL d   1       2.390   1.530   1.709  0.00  0.00    -0.092 F 
ENDROOT
TORSDOF 0
ENDMDL
