MODEL 1
REMARK minimizedAffinity -3.38054347
REMARK minimizedRMSD -1
REMARK  0 active torsions:
REMARK  status: ('A' for Active; 'I' for Inactive)
ROOT
ATOM      1  C   UNL d   1       1.965   2.153   1.006  0.00  0.00     0.124 A 
ATOM      2  C1  UNL d   1       2.607   1.367   0.058  0.00  0.00     0.062 A 
ATOM      3  C2  UNL d   1       1.922   0.331  -0.571  0.00  0.00     0.162 A 
ATOM      4  C3  UNL d   1       0.588   0.075  -0.255  0.00  0.00    -0.034 A 
ATOM      5  C4  UNL d   1      -0.050   0.869   0.700  0.00  0.00     0.162 A 
ATOM      6  C5  UNL d   1       0.638   1.903   1.326  0.00  0.00     0.062 A 
ATOM      7  F   UNL d   1       0.017   2.661   2.241  0.00  0.00    -0.097 F 
ATOM      8  F1  UNL d   1      -1.332   0.650   1.027  0.00  0.00    -0.096 F 
ATOM      9  I   UNL d   1      -0.438  -1.473  -1.194  0.00  0.00    -0.060 I 
ATOM     10  F2  UNL d   1       2.567  -0.412  -1.483  0.00  0.00    -0.096 F 
ATOM     11  F3  UNL d   1       3.889   1.606  -0.252  0.00  0.00    -0.097 F 
ATOM     12  F4  UNL d   1       2.626   3.148   1.611  0.00  0.00    -0.092 F 
ENDROOT
TORSDOF 0
ENDMDL
