MODEL 1
REMARK minimizedAffinity 0.750974894
REMARK minimizedRMSD -1
REMARK  0 active torsions:
REMARK  status: ('A' for Active; 'I' for Inactive)
ROOT
ATOM      1  C   UNL d   1      -0.882   1.671   1.985  0.00  0.00     0.124 A 
ATOM      2  C1  UNL d   1       0.295   1.758   1.254  0.00  0.00     0.062 A 
ATOM      3  C2  UNL d   1       0.546   0.859   0.222  0.00  0.00     0.162 A 
ATOM      4  C3  UNL d   1      -0.384  -0.134  -0.087  0.00  0.00    -0.034 A 
ATOM      5  C4  UNL d   1      -1.564  -0.216   0.653  0.00  0.00     0.162 A 
ATOM      6  C5  UNL d   1      -1.810   0.685   1.684  0.00  0.00     0.062 A 
ATOM      7  F   UNL d   1      -2.947   0.600   2.389  0.00  0.00    -0.097 F 
ATOM      8  F1  UNL d   1      -2.479  -1.159   0.382  0.00  0.00    -0.096 F 
ATOM      9  I   UNL d   1      -0.013  -1.480  -1.631  0.00  0.00    -0.060 I 
ATOM     10  F2  UNL d   1       1.691   0.966  -0.468  0.00  0.00    -0.096 F 
ATOM     11  F3  UNL d   1       1.194   2.710   1.544  0.00  0.00    -0.097 F 
ATOM     12  F4  UNL d   1      -1.119   2.537   2.979  0.00  0.00    -0.092 F 
ENDROOT
TORSDOF 0
ENDMDL
