MODEL 1
REMARK minimizedAffinity -2.42685246
REMARK minimizedRMSD -1
REMARK  0 active torsions:
REMARK  status: ('A' for Active; 'I' for Inactive)
ROOT
ATOM      1  C   UNL d   1       2.100   1.853   0.394  0.00  0.00     0.124 A 
ATOM      2  C1  UNL d   1       3.312   1.215   0.171  0.00  0.00     0.062 A 
ATOM      3  C2  UNL d   1       4.079   0.774   1.246  0.00  0.00     0.162 A 
ATOM      4  C3  UNL d   1       3.634   0.967   2.554  0.00  0.00    -0.034 A 
ATOM      5  C4  UNL d   1       2.413   1.609   2.770  0.00  0.00     0.162 A 
ATOM      6  C5  UNL d   1       1.651   2.049   1.692  0.00  0.00     0.062 A 
ATOM      7  F   UNL d   1       0.480   2.665   1.909  0.00  0.00    -0.097 F 
ATOM      8  F1  UNL d   1       1.956   1.811   4.014  0.00  0.00    -0.096 F 
ATOM      9  I   UNL d   1       4.776   0.308   4.164  0.00  0.00    -0.060 I 
ATOM     10  F2  UNL d   1       5.246   0.161   1.002  0.00  0.00    -0.096 F 
ATOM     11  F3  UNL d   1       3.748   1.025  -1.082  0.00  0.00    -0.097 F 
ATOM     12  F4  UNL d   1       1.365   2.278  -0.642  0.00  0.00    -0.092 F 
ENDROOT
TORSDOF 0
ENDMDL
