MODEL 1
REMARK minimizedAffinity -1.49035287
REMARK minimizedRMSD -1
REMARK  0 active torsions:
REMARK  status: ('A' for Active; 'I' for Inactive)
ROOT
ATOM      1  C   UNL d   1       1.122   1.945   1.161  0.00  0.00     0.124 A 
ATOM      2  C1  UNL d   1       1.569   1.343  -0.007  0.00  0.00     0.062 A 
ATOM      3  C2  UNL d   1       0.799   0.366  -0.630  0.00  0.00     0.162 A 
ATOM      4  C3  UNL d   1      -0.429  -0.015  -0.087  0.00  0.00    -0.034 A 
ATOM      5  C4  UNL d   1      -0.871   0.594   1.088  0.00  0.00     0.162 A 
ATOM      6  C5  UNL d   1      -0.097   1.571   1.707  0.00  0.00     0.062 A 
ATOM      7  F   UNL d   1      -0.531   2.151   2.836  0.00  0.00    -0.097 F 
ATOM      8  F1  UNL d   1      -2.046   0.252   1.637  0.00  0.00    -0.096 F 
ATOM      9  I   UNL d   1      -1.584  -1.476  -1.016  0.00  0.00    -0.060 I 
ATOM     10  F2  UNL d   1       1.256  -0.199  -1.757  0.00  0.00    -0.096 F 
ATOM     11  F3  UNL d   1       2.748   1.702  -0.536  0.00  0.00    -0.097 F 
ATOM     12  F4  UNL d   1       1.866   2.884   1.759  0.00  0.00    -0.092 F 
ENDROOT
TORSDOF 0
ENDMDL
