MODEL 1
REMARK minimizedAffinity 2.31001067
REMARK minimizedRMSD -1
REMARK  0 active torsions:
REMARK  status: ('A' for Active; 'I' for Inactive)
ROOT
ATOM      1  C   UNL d   1      -3.308  -2.087  -2.285  0.00  0.00     0.124 A 
ATOM      2  C1  UNL d   1      -2.563  -1.388  -3.224  0.00  0.00     0.062 A 
ATOM      3  C2  UNL d   1      -1.207  -1.158  -3.010  0.00  0.00     0.162 A 
ATOM      4  C3  UNL d   1      -0.586  -1.629  -1.853  0.00  0.00    -0.034 A 
ATOM      5  C4  UNL d   1      -1.343  -2.330  -0.913  0.00  0.00     0.162 A 
ATOM      6  C5  UNL d   1      -2.698  -2.558  -1.131  0.00  0.00     0.062 A 
ATOM      7  F   UNL d   1      -3.417  -3.233  -0.222  0.00  0.00    -0.097 F 
ATOM      8  F1  UNL d   1      -0.779  -2.797   0.211  0.00  0.00    -0.096 F 
ATOM      9  I   UNL d   1       1.441  -1.287  -1.530  0.00  0.00    -0.060 I 
ATOM     10  F2  UNL d   1      -0.510  -0.479  -3.935  0.00  0.00    -0.096 F 
ATOM     11  F3  UNL d   1      -3.150  -0.931  -4.339  0.00  0.00    -0.097 F 
ATOM     12  F4  UNL d   1      -4.613  -2.306  -2.492  0.00  0.00    -0.092 F 
ENDROOT
TORSDOF 0
ENDMDL
