MODEL 1
REMARK minimizedAffinity 11.3591805
REMARK minimizedRMSD -1
REMARK  0 active torsions:
REMARK  status: ('A' for Active; 'I' for Inactive)
ROOT
ATOM      1  C   UNL d   1       1.527   1.254   2.868  0.00  0.00     0.124 A 
ATOM      2  C1  UNL d   1       0.179   1.309   3.195  0.00  0.00     0.062 A 
ATOM      3  C2  UNL d   1      -0.777   0.830   2.305  0.00  0.00     0.162 A 
ATOM      4  C3  UNL d   1      -0.390   0.289   1.079  0.00  0.00    -0.034 A 
ATOM      5  C4  UNL d   1       0.968   0.238   0.756  0.00  0.00     0.162 A 
ATOM      6  C5  UNL d   1       1.920   0.719   1.649  0.00  0.00     0.062 A 
ATOM      7  F   UNL d   1       3.221   0.665   1.331  0.00  0.00    -0.097 F 
ATOM      8  F1  UNL d   1       1.375  -0.275  -0.414  0.00  0.00    -0.096 F 
ATOM      9  I   UNL d   1      -1.817  -0.429  -0.254  0.00  0.00    -0.060 I 
ATOM     10  F2  UNL d   1      -2.073   0.895   2.648  0.00  0.00    -0.096 F 
ATOM     11  F3  UNL d   1      -0.203   1.827   4.371  0.00  0.00    -0.097 F 
ATOM     12  F4  UNL d   1       2.445   1.718   3.725  0.00  0.00    -0.092 F 
ENDROOT
TORSDOF 0
ENDMDL
