MODEL 1
REMARK minimizedAffinity 5.25588608
REMARK minimizedRMSD -1
REMARK  1 active torsions:
REMARK  status: ('A' for Active; 'I' for Inactive)
REMARK    1  A    between atoms: C1_2  and  C2_3 
ROOT
ATOM      1  C2  UNL d   1       0.503   0.582   0.322  0.00  0.00    -0.073 A 
ATOM      2  C3  UNL d   1      -0.397  -0.479   0.173  0.00  0.00    -0.002 A 
ATOM      3  C4  UNL d   1      -1.711  -0.359   0.626  0.00  0.00     0.004 A 
ATOM      4  C5  UNL d   1      -2.141   0.825   1.226  0.00  0.00    -0.004 A 
ATOM      5  C6  UNL d   1      -1.260   1.902   1.373  0.00  0.00    -0.075 A 
ATOM      6  C7  UNL d   1      -1.706   3.181   2.017  0.00  0.00     0.076 C 
ATOM      7  C8  UNL d   1       0.059   1.772   0.917  0.00  0.00     0.001 A 
ENDROOT
BRANCH   1   8
ATOM      8  C1  UNL d   1       1.921   0.459  -0.172  0.00  0.00     0.053 C 
ATOM      9  C   UNL d   1       2.032   0.736  -1.663  0.00  0.00     0.018 C 
ENDBRANCH   1   8
TORSDOF 1
ENDMDL
