MODEL 1
REMARK minimizedAffinity 0.551887989
REMARK minimizedRMSD -1
REMARK  1 active torsions:
REMARK  status: ('A' for Active; 'I' for Inactive)
REMARK    1  A    between atoms: C1_2  and  C2_3 
ROOT
ATOM      1  C2  UNL d   1       1.420   2.530   1.474  0.00  0.00    -0.073 A 
ATOM      2  C3  UNL d   1       2.045   1.440   0.858  0.00  0.00    -0.002 A 
ATOM      3  C4  UNL d   1       1.287   0.482   0.183  0.00  0.00     0.004 A 
ATOM      4  C5  UNL d   1      -0.100   0.608   0.110  0.00  0.00    -0.004 A 
ATOM      5  C6  UNL d   1      -0.742   1.697   0.709  0.00  0.00    -0.075 A 
ATOM      6  C7  UNL d   1      -2.233   1.846   0.641  0.00  0.00     0.076 C 
ATOM      7  C8  UNL d   1       0.026   2.653   1.388  0.00  0.00     0.001 A 
ENDROOT
BRANCH   1   8
ATOM      8  C1  UNL d   1       2.234   3.570   2.199  0.00  0.00     0.053 C 
ATOM      9  C   UNL d   1       3.641   3.082   2.504  0.00  0.00     0.018 C 
ENDBRANCH   1   8
TORSDOF 1
ENDMDL
