MODEL 1
REMARK minimizedAffinity 7.20638704
REMARK minimizedRMSD -1
REMARK  1 active torsions:
REMARK  status: ('A' for Active; 'I' for Inactive)
REMARK    1  A    between atoms: C1_2  and  C2_3 
ROOT
ATOM      1  C2  UNL d   1      -1.223  -2.028  -0.297  0.00  0.00    -0.073 A 
ATOM      2  C3  UNL d   1      -0.473  -2.283  -1.451  0.00  0.00    -0.002 A 
ATOM      3  C4  UNL d   1      -0.647  -3.474  -2.157  0.00  0.00     0.004 A 
ATOM      4  C5  UNL d   1      -1.576  -4.419  -1.720  0.00  0.00    -0.004 A 
ATOM      5  C6  UNL d   1      -2.343  -4.178  -0.576  0.00  0.00    -0.075 A 
ATOM      6  C7  UNL d   1      -3.344  -5.185  -0.091  0.00  0.00     0.076 C 
ATOM      7  C8  UNL d   1      -2.160  -2.980   0.129  0.00  0.00     0.001 A 
ENDROOT
BRANCH   1   8
ATOM      8  C1  UNL d   1      -1.043  -0.740   0.464  0.00  0.00     0.053 C 
ATOM      9  C   UNL d   1      -2.364  -0.023   0.690  0.00  0.00     0.018 C 
ENDBRANCH   1   8
TORSDOF 1
ENDMDL
