MODEL 1
REMARK minimizedAffinity 3.79677367
REMARK minimizedRMSD -1
REMARK  1 active torsions:
REMARK  status: ('A' for Active; 'I' for Inactive)
REMARK    1  A    between atoms: C1_2  and  C2_3 
ROOT
ATOM      1  C2  UNL d   1      -1.760  -2.230  -0.900  0.00  0.00    -0.073 A 
ATOM      2  C3  UNL d   1      -0.662  -3.018  -1.266  0.00  0.00    -0.002 A 
ATOM      3  C4  UNL d   1      -0.757  -4.410  -1.249  0.00  0.00     0.004 A 
ATOM      4  C5  UNL d   1      -1.950  -5.028  -0.874  0.00  0.00    -0.004 A 
ATOM      5  C6  UNL d   1      -3.062  -4.258  -0.517  0.00  0.00    -0.075 A 
ATOM      6  C7  UNL d   1      -4.352  -4.907  -0.109  0.00  0.00     0.076 C 
ATOM      7  C8  UNL d   1      -2.958  -2.860  -0.534  0.00  0.00     0.001 A 
ENDROOT
BRANCH   1   8
ATOM      8  C1  UNL d   1      -1.664  -0.727  -0.923  0.00  0.00     0.053 C 
ATOM      9  C   UNL d   1      -1.108  -0.171   0.379  0.00  0.00     0.018 C 
ENDBRANCH   1   8
TORSDOF 1
ENDMDL
