MODEL 1
REMARK minimizedAffinity 5.8799715
REMARK minimizedRMSD -1
REMARK  1 active torsions:
REMARK  status: ('A' for Active; 'I' for Inactive)
REMARK    1  A    between atoms: C1_2  and  C2_3 
ROOT
ATOM      1  C2  UNL d   1      -0.710   2.339   0.402  0.00  0.00    -0.073 A 
ATOM      2  C3  UNL d   1       0.658   2.554   0.601  0.00  0.00    -0.002 A 
ATOM      3  C4  UNL d   1       1.113   3.161   1.773  0.00  0.00     0.004 A 
ATOM      4  C5  UNL d   1       0.207   3.551   2.758  0.00  0.00    -0.004 A 
ATOM      5  C6  UNL d   1      -1.163   3.334   2.583  0.00  0.00    -0.075 A 
ATOM      6  C7  UNL d   1      -2.151   3.751   3.633  0.00  0.00     0.076 C 
ATOM      7  C8  UNL d   1      -1.613   2.727   1.403  0.00  0.00     0.001 A 
ENDROOT
BRANCH   1   8
ATOM      8  C1  UNL d   1      -1.206   1.678  -0.858  0.00  0.00     0.053 C 
ATOM      9  C   UNL d   1      -2.372   0.740  -0.590  0.00  0.00     0.018 C 
ENDBRANCH   1   8
TORSDOF 1
ENDMDL
