MODEL 1
REMARK minimizedAffinity 7.7411356
REMARK minimizedRMSD -1
REMARK  1 active torsions:
REMARK  status: ('A' for Active; 'I' for Inactive)
REMARK    1  A    between atoms: C1_2  and  C2_3 
ROOT
ATOM      1  C2  UNL d   1       1.106   0.424  -0.232  0.00  0.00    -0.073 A 
ATOM      2  C3  UNL d   1       0.122  -0.559  -0.385  0.00  0.00    -0.002 A 
ATOM      3  C4  UNL d   1      -1.173  -0.340   0.087  0.00  0.00     0.004 A 
ATOM      4  C5  UNL d   1      -1.499   0.865   0.709  0.00  0.00    -0.004 A 
ATOM      5  C6  UNL d   1      -0.532   1.865   0.860  0.00  0.00    -0.075 A 
ATOM      6  C7  UNL d   1      -0.866   3.166   1.528  0.00  0.00     0.076 C 
ATOM      7  C8  UNL d   1       0.767   1.636   0.386  0.00  0.00     0.001 A 
ENDROOT
BRANCH   1   8
ATOM      8  C1  UNL d   1       2.504   0.194  -0.746  0.00  0.00     0.053 C 
ATOM      9  C   UNL d   1       2.543   0.079  -2.261  0.00  0.00     0.018 C 
ENDBRANCH   1   8
TORSDOF 1
ENDMDL
