MODEL 1
REMARK minimizedAffinity 11.8486958
REMARK minimizedRMSD -1
REMARK  1 active torsions:
REMARK  status: ('A' for Active; 'I' for Inactive)
REMARK    1  A    between atoms: C1_2  and  C2_3 
ROOT
ATOM      1  C2  UNL d   1       1.756   0.705   0.516  0.00  0.00    -0.073 A 
ATOM      2  C3  UNL d   1       1.492  -0.649   0.752  0.00  0.00    -0.002 A 
ATOM      3  C4  UNL d   1       1.536  -1.568  -0.297  0.00  0.00     0.004 A 
ATOM      4  C5  UNL d   1       1.851  -1.145  -1.589  0.00  0.00    -0.004 A 
ATOM      5  C6  UNL d   1       2.129   0.202  -1.842  0.00  0.00    -0.075 A 
ATOM      6  C7  UNL d   1       2.466   0.673  -3.226  0.00  0.00     0.076 C 
ATOM      7  C8  UNL d   1       2.080   1.119  -0.784  0.00  0.00     0.001 A 
ENDROOT
BRANCH   1   8
ATOM      8  C1  UNL d   1       1.716   1.701   1.647  0.00  0.00     0.053 C 
ATOM      9  C   UNL d   1       3.042   1.776   2.387  0.00  0.00     0.018 C 
ENDBRANCH   1   8
TORSDOF 1
ENDMDL
