MODEL 1
REMARK minimizedAffinity 6.80736685
REMARK minimizedRMSD -1
REMARK  2 active torsions:
REMARK  status: ('A' for Active; 'I' for Inactive)
REMARK    1  A    between atoms: C1_2  and  C2_3 
REMARK    2  A    between atoms: C2_3  and  C3_4 
ROOT
ATOM      1  C3  UNL d   1       2.263  -1.574  -4.160  0.00  0.00    -0.075 A 
ATOM      2  C4  UNL d   1       2.269  -0.195  -3.907  0.00  0.00     0.002 A 
ATOM      3  C5  UNL d   1       1.957   0.293  -2.637  0.00  0.00     0.002 A 
ATOM      4  C6  UNL d   1       1.627  -0.588  -1.611  0.00  0.00    -0.004 A 
ATOM      5  C7  UNL d   1       1.602  -1.959  -1.855  0.00  0.00     0.002 A 
ATOM      6  C8  UNL d   1       1.918  -2.451  -3.123  0.00  0.00     0.002 A 
ENDROOT
BRANCH   1   7
ATOM      7  C2  UNL d   1       2.628  -2.111  -5.524  0.00  0.00     0.056 C 
BRANCH   7   8
ATOM      8  C1  UNL d   1       4.028  -1.706  -5.999  0.00  0.00     0.007 C 
ATOM      9  C   UNL d   1       5.136  -2.558  -5.397  0.00  0.00     0.009 C 
ENDBRANCH   7   8
ENDBRANCH   1   7
TORSDOF 2
ENDMDL
