MODEL 1
REMARK minimizedAffinity 18.5924339
REMARK minimizedRMSD -1
REMARK  2 active torsions:
REMARK  status: ('A' for Active; 'I' for Inactive)
REMARK    1  A    between atoms: C1_2  and  C2_3 
REMARK    2  A    between atoms: C2_3  and  C3_4 
ROOT
ATOM      1  C3  UNL d   1       2.814   0.308  -1.000  0.00  0.00    -0.075 A 
ATOM      2  C4  UNL d   1       3.063   1.440  -1.790  0.00  0.00     0.002 A 
ATOM      3  C5  UNL d   1       3.891   2.462  -1.324  0.00  0.00     0.002 A 
ATOM      4  C6  UNL d   1       4.470   2.370  -0.060  0.00  0.00    -0.004 A 
ATOM      5  C7  UNL d   1       4.217   1.258   0.740  0.00  0.00     0.002 A 
ATOM      6  C8  UNL d   1       3.393   0.232   0.274  0.00  0.00     0.002 A 
ENDROOT
BRANCH   1   7
ATOM      7  C2  UNL d   1       1.943  -0.815  -1.512  0.00  0.00     0.056 C 
BRANCH   7   8
ATOM      8  C1  UNL d   1       1.549  -0.677  -2.986  0.00  0.00     0.007 C 
ATOM      9  C   UNL d   1       2.624  -1.174  -3.944  0.00  0.00     0.009 C 
ENDBRANCH   7   8
ENDBRANCH   1   7
TORSDOF 2
ENDMDL
