MODEL 1
REMARK minimizedAffinity 10.8521137
REMARK minimizedRMSD -1
REMARK  2 active torsions:
REMARK  status: ('A' for Active; 'I' for Inactive)
REMARK    1  A    between atoms: C1_2  and  C2_3 
REMARK    2  A    between atoms: C2_3  and  C3_4 
ROOT
ATOM      1  C3  UNL d   1       3.429  -1.922  -1.010  0.00  0.00    -0.075 A 
ATOM      2  C4  UNL d   1       4.023  -0.875  -0.291  0.00  0.00     0.002 A 
ATOM      3  C5  UNL d   1       3.654   0.449  -0.532  0.00  0.00     0.002 A 
ATOM      4  C6  UNL d   1       2.696   0.743  -1.499  0.00  0.00    -0.004 A 
ATOM      5  C7  UNL d   1       2.111  -0.288  -2.231  0.00  0.00     0.002 A 
ATOM      6  C8  UNL d   1       2.475  -1.614  -1.989  0.00  0.00     0.002 A 
ENDROOT
BRANCH   1   7
ATOM      7  C2  UNL d   1       3.802  -3.359  -0.733  0.00  0.00     0.056 C 
BRANCH   7   8
ATOM      8  C1  UNL d   1       2.603  -4.308  -0.639  0.00  0.00     0.007 C 
ATOM      9  C   UNL d   1       2.989  -5.725  -0.237  0.00  0.00     0.009 C 
ENDBRANCH   7   8
ENDBRANCH   1   7
TORSDOF 2
ENDMDL
