MODEL 1
REMARK minimizedAffinity 21.338316
REMARK minimizedRMSD -1
REMARK  2 active torsions:
REMARK  status: ('A' for Active; 'I' for Inactive)
REMARK    1  A    between atoms: C1_2  and  C2_3 
REMARK    2  A    between atoms: C2_3  and  C3_4 
ROOT
ATOM      1  C3  UNL d   1      -3.421   1.828   3.641  0.00  0.00    -0.075 A 
ATOM      2  C4  UNL d   1      -4.526   2.692   3.640  0.00  0.00     0.002 A 
ATOM      3  C5  UNL d   1      -4.901   3.363   4.805  0.00  0.00     0.002 A 
ATOM      4  C6  UNL d   1      -4.184   3.171   5.984  0.00  0.00    -0.004 A 
ATOM      5  C7  UNL d   1      -3.095   2.303   6.000  0.00  0.00     0.002 A 
ATOM      6  C8  UNL d   1      -2.715   1.634   4.835  0.00  0.00     0.002 A 
ENDROOT
BRANCH   1   7
ATOM      7  C2  UNL d   1      -2.992   1.122   2.377  0.00  0.00     0.056 C 
BRANCH   7   8
ATOM      8  C1  UNL d   1      -3.938  -0.001   1.937  0.00  0.00     0.007 C 
ATOM      9  C   UNL d   1      -4.094  -1.097   2.983  0.00  0.00     0.009 C 
ENDBRANCH   7   8
ENDBRANCH   1   7
TORSDOF 2
ENDMDL
