MODEL 1
REMARK minimizedAffinity 7.13631439
REMARK minimizedRMSD -1
REMARK  2 active torsions:
REMARK  status: ('A' for Active; 'I' for Inactive)
REMARK    1  A    between atoms: C1_2  and  C2_3 
REMARK    2  A    between atoms: C2_3  and  C3_4 
ROOT
ATOM      1  C3  UNL d   1       4.482   0.449  -1.049  0.00  0.00    -0.075 A 
ATOM      2  C4  UNL d   1       3.223   0.283  -1.645  0.00  0.00     0.002 A 
ATOM      3  C5  UNL d   1       2.537  -0.925  -1.524  0.00  0.00     0.002 A 
ATOM      4  C6  UNL d   1       3.103  -1.984  -0.818  0.00  0.00    -0.004 A 
ATOM      5  C7  UNL d   1       4.360  -1.836  -0.236  0.00  0.00     0.002 A 
ATOM      6  C8  UNL d   1       5.047  -0.626  -0.350  0.00  0.00     0.002 A 
ENDROOT
BRANCH   1   7
ATOM      7  C2  UNL d   1       5.217   1.765  -1.150  0.00  0.00     0.056 C 
BRANCH   7   8
ATOM      8  C1  UNL d   1       5.401   2.481   0.192  0.00  0.00     0.007 C 
ATOM      9  C   UNL d   1       4.172   2.401   1.089  0.00  0.00     0.009 C 
ENDBRANCH   7   8
ENDBRANCH   1   7
TORSDOF 2
ENDMDL
