MODEL 1
REMARK minimizedAffinity 9.47534657
REMARK minimizedRMSD -1
REMARK  2 active torsions:
REMARK  status: ('A' for Active; 'I' for Inactive)
REMARK    1  A    between atoms: C1_2  and  C2_3 
REMARK    2  A    between atoms: C2_3  and  C3_4 
ROOT
ATOM      1  C3  UNL d   1       1.451   1.168   0.726  0.00  0.00    -0.075 A 
ATOM      2  C4  UNL d   1       1.890   2.366   0.144  0.00  0.00     0.002 A 
ATOM      3  C5  UNL d   1       2.337   2.389  -1.178  0.00  0.00     0.002 A 
ATOM      4  C6  UNL d   1       2.361   1.217  -1.929  0.00  0.00    -0.004 A 
ATOM      5  C7  UNL d   1       1.943   0.018  -1.356  0.00  0.00     0.002 A 
ATOM      6  C8  UNL d   1       1.491  -0.008  -0.036  0.00  0.00     0.002 A 
ENDROOT
BRANCH   1   7
ATOM      7  C2  UNL d   1       0.938   1.141   2.146  0.00  0.00     0.056 C 
BRANCH   7   8
ATOM      8  C1  UNL d   1      -0.131   2.198   2.443  0.00  0.00     0.007 C 
ATOM      9  C   UNL d   1      -1.547   1.639   2.433  0.00  0.00     0.009 C 
ENDBRANCH   7   8
ENDBRANCH   1   7
TORSDOF 2
ENDMDL
