MODEL 1
REMARK minimizedAffinity 18.6709099
REMARK minimizedRMSD -1
REMARK  2 active torsions:
REMARK  status: ('A' for Active; 'I' for Inactive)
REMARK    1  A    between atoms: C1_2  and  C2_3 
REMARK    2  A    between atoms: C2_3  and  C3_4 
ROOT
ATOM      1  C3  UNL d   1      -4.105   1.492   3.811  0.00  0.00    -0.075 A 
ATOM      2  C4  UNL d   1      -3.274   1.414   4.937  0.00  0.00     0.002 A 
ATOM      3  C5  UNL d   1      -3.436   2.304   6.000  0.00  0.00     0.002 A 
ATOM      4  C6  UNL d   1      -4.422   3.286   5.946  0.00  0.00    -0.004 A 
ATOM      5  C7  UNL d   1      -5.243   3.383   4.824  0.00  0.00     0.002 A 
ATOM      6  C8  UNL d   1      -5.086   2.492   3.761  0.00  0.00     0.002 A 
ENDROOT
BRANCH   1   7
ATOM      7  C2  UNL d   1      -3.955   0.513   2.670  0.00  0.00     0.056 C 
BRANCH   7   8
ATOM      8  C1  UNL d   1      -4.227  -0.944   3.059  0.00  0.00     0.007 C 
ATOM      9  C   UNL d   1      -5.431  -1.541   2.344  0.00  0.00     0.009 C 
ENDBRANCH   7   8
ENDBRANCH   1   7
TORSDOF 2
ENDMDL
