MODEL 1
REMARK minimizedAffinity 14.4753838
REMARK minimizedRMSD -1
REMARK  2 active torsions:
REMARK  status: ('A' for Active; 'I' for Inactive)
REMARK    1  A    between atoms: C1_2  and  C2_3 
REMARK    2  A    between atoms: C2_3  and  C3_4 
ROOT
ATOM      1  C3  UNL d   1      -3.532   1.667   3.726  0.00  0.00    -0.075 A 
ATOM      2  C4  UNL d   1      -4.732   2.232   3.270  0.00  0.00     0.002 A 
ATOM      3  C5  UNL d   1      -5.633   2.802   4.169  0.00  0.00     0.002 A 
ATOM      4  C6  UNL d   1      -5.352   2.805   5.534  0.00  0.00    -0.004 A 
ATOM      5  C7  UNL d   1      -4.171   2.232   6.000  0.00  0.00     0.002 A 
ATOM      6  C8  UNL d   1      -3.266   1.665   5.102  0.00  0.00     0.002 A 
ENDROOT
BRANCH   1   7
ATOM      7  C2  UNL d   1      -2.539   1.074   2.755  0.00  0.00     0.056 C 
BRANCH   7   8
ATOM      8  C1  UNL d   1      -1.280   1.925   2.554  0.00  0.00     0.007 C 
ATOM      9  C   UNL d   1       0.002   1.201   2.944  0.00  0.00     0.009 C 
ENDBRANCH   7   8
ENDBRANCH   1   7
TORSDOF 2
ENDMDL
