MODEL 1
REMARK minimizedAffinity 14.928546
REMARK minimizedRMSD -1
REMARK  2 active torsions:
REMARK  status: ('A' for Active; 'I' for Inactive)
REMARK    1  A    between atoms: C1_2  and  C2_3 
REMARK    2  A    between atoms: C2_3  and  C3_4 
ROOT
ATOM      1  C3  UNL d   1       0.840   3.899   1.396  0.00  0.00    -0.075 A 
ATOM      2  C4  UNL d   1      -0.242   3.210   1.963  0.00  0.00     0.002 A 
ATOM      3  C5  UNL d   1      -0.036   2.019   2.659  0.00  0.00     0.002 A 
ATOM      4  C6  UNL d   1       1.249   1.496   2.788  0.00  0.00    -0.004 A 
ATOM      5  C7  UNL d   1       2.329   2.164   2.214  0.00  0.00     0.002 A 
ATOM      6  C8  UNL d   1       2.127   3.358   1.521  0.00  0.00     0.002 A 
ENDROOT
BRANCH   1   7
ATOM      7  C2  UNL d   1       0.628   5.204   0.666  0.00  0.00     0.056 C 
BRANCH   7   8
ATOM      8  C1  UNL d   1       1.854   5.688  -0.115  0.00  0.00     0.007 C 
ATOM      9  C   UNL d   1       1.789   5.355  -1.600  0.00  0.00     0.009 C 
ENDBRANCH   7   8
ENDBRANCH   1   7
TORSDOF 2
ENDMDL
