MODEL 1
REMARK minimizedAffinity 8.31666279
REMARK minimizedRMSD -1
REMARK  2 active torsions:
REMARK  status: ('A' for Active; 'I' for Inactive)
REMARK    1  A    between atoms: C1_2  and  C2_3 
REMARK    2  A    between atoms: C2_3  and  C3_4 
ROOT
ATOM      1  C3  UNL d   1       2.975   1.243   0.147  0.00  0.00    -0.075 A 
ATOM      2  C4  UNL d   1       3.959   1.257  -0.852  0.00  0.00     0.002 A 
ATOM      3  C5  UNL d   1       5.048   2.124  -0.761  0.00  0.00     0.002 A 
ATOM      4  C6  UNL d   1       5.161   2.994   0.321  0.00  0.00    -0.004 A 
ATOM      5  C7  UNL d   1       4.181   3.001   1.310  0.00  0.00     0.002 A 
ATOM      6  C8  UNL d   1       3.092   2.131   1.225  0.00  0.00     0.002 A 
ENDROOT
BRANCH   1   7
ATOM      7  C2  UNL d   1       1.809   0.287   0.070  0.00  0.00     0.056 C 
BRANCH   7   8
ATOM      8  C1  UNL d   1       1.684  -0.438  -1.275  0.00  0.00     0.007 C 
ATOM      9  C   UNL d   1       1.812  -1.951  -1.156  0.00  0.00     0.009 C 
ENDBRANCH   7   8
ENDBRANCH   1   7
TORSDOF 2
ENDMDL
