MODEL 1
REMARK minimizedAffinity 6.13101721
REMARK minimizedRMSD -1
REMARK  2 active torsions:
REMARK  status: ('A' for Active; 'I' for Inactive)
REMARK    1  A    between atoms: C1_2  and  C2_3 
REMARK    2  A    between atoms: C2_3  and  C3_4 
ROOT
ATOM      1  C3  UNL d   1       2.237  -1.227  -0.625  0.00  0.00    -0.075 A 
ATOM      2  C4  UNL d   1       2.872  -2.336  -0.049  0.00  0.00     0.002 A 
ATOM      3  C5  UNL d   1       2.920  -3.556  -0.725  0.00  0.00     0.002 A 
ATOM      4  C6  UNL d   1       2.327  -3.684  -1.979  0.00  0.00    -0.004 A 
ATOM      5  C7  UNL d   1       1.678  -2.593  -2.554  0.00  0.00     0.002 A 
ATOM      6  C8  UNL d   1       1.632  -1.371  -1.881  0.00  0.00     0.002 A 
ENDROOT
BRANCH   1   7
ATOM      7  C2  UNL d   1       2.207   0.103   0.088  0.00  0.00     0.056 C 
BRANCH   7   8
ATOM      8  C1  UNL d   1       3.357   1.042  -0.292  0.00  0.00     0.007 C 
ATOM      9  C   UNL d   1       4.052   1.659   0.914  0.00  0.00     0.009 C 
ENDBRANCH   7   8
ENDBRANCH   1   7
TORSDOF 2
ENDMDL
