MODEL 1
REMARK minimizedAffinity -0.0196423437
REMARK minimizedRMSD -1
REMARK  2 active torsions:
REMARK  status: ('A' for Active; 'I' for Inactive)
REMARK    1  A    between atoms: C1_2  and  C2_3 
REMARK    2  A    between atoms: C2_3  and  C3_4 
ROOT
ATOM      1  C3  UNL d   1      -3.080  -5.086  -5.719  0.00  0.00    -0.075 A 
ATOM      2  C4  UNL d   1      -2.940  -3.699  -5.563  0.00  0.00     0.002 A 
ATOM      3  C5  UNL d   1      -4.057  -2.864  -5.612  0.00  0.00     0.002 A 
ATOM      4  C6  UNL d   1      -5.324  -3.402  -5.827  0.00  0.00    -0.004 A 
ATOM      5  C7  UNL d   1      -5.473  -4.777  -5.999  0.00  0.00     0.002 A 
ATOM      6  C8  UNL d   1      -4.358  -5.615  -5.946  0.00  0.00     0.002 A 
ENDROOT
BRANCH   1   7
ATOM      7  C2  UNL d   1      -1.879  -5.998  -5.637  0.00  0.00     0.056 C 
BRANCH   7   8
ATOM      8  C1  UNL d   1      -1.190  -6.000  -4.268  0.00  0.00     0.007 C 
ATOM      9  C   UNL d   1      -1.851  -5.068  -3.262  0.00  0.00     0.009 C 
ENDBRANCH   7   8
ENDBRANCH   1   7
TORSDOF 2
ENDMDL
