MODEL 1
REMARK minimizedAffinity 10.2220087
REMARK minimizedRMSD -1
REMARK  2 active torsions:
REMARK  status: ('A' for Active; 'I' for Inactive)
REMARK    1  A    between atoms: C1_2  and  C2_3 
REMARK    2  A    between atoms: C2_3  and  C3_4 
ROOT
ATOM      1  C3  UNL d   1      -2.677  -4.579  -4.907  0.00  0.00    -0.075 A 
ATOM      2  C4  UNL d   1      -2.843  -3.206  -5.144  0.00  0.00     0.002 A 
ATOM      3  C5  UNL d   1      -2.501  -2.272  -4.165  0.00  0.00     0.002 A 
ATOM      4  C6  UNL d   1      -2.000  -2.697  -2.937  0.00  0.00    -0.004 A 
ATOM      5  C7  UNL d   1      -1.846  -4.059  -2.685  0.00  0.00     0.002 A 
ATOM      6  C8  UNL d   1      -2.183  -4.996  -3.664  0.00  0.00     0.002 A 
ENDROOT
BRANCH   1   7
ATOM      7  C2  UNL d   1      -3.017  -5.593  -5.973  0.00  0.00     0.056 C 
BRANCH   7   8
ATOM      8  C1  UNL d   1      -4.494  -5.998  -6.000  0.00  0.00     0.007 C 
ATOM      9  C   UNL d   1      -5.443  -4.806  -5.999  0.00  0.00     0.009 C 
ENDBRANCH   7   8
ENDBRANCH   1   7
TORSDOF 2
ENDMDL
