MODEL 1
REMARK minimizedAffinity 2.73668385
REMARK minimizedRMSD -1
REMARK  2 active torsions:
REMARK  status: ('A' for Active; 'I' for Inactive)
REMARK    1  A    between atoms: C1_2  and  C2_3 
REMARK    2  A    between atoms: C2_3  and  C3_4 
ROOT
ATOM      1  C3  UNL d   1      -3.058   3.557  -4.987  0.00  0.00    -0.075 A 
ATOM      2  C4  UNL d   1      -2.523   4.760  -4.505  0.00  0.00     0.002 A 
ATOM      3  C5  UNL d   1      -3.165   5.973  -4.757  0.00  0.00     0.002 A 
ATOM      4  C6  UNL d   1      -4.342   5.999  -5.502  0.00  0.00    -0.004 A 
ATOM      5  C7  UNL d   1      -4.874   4.811  -6.000  0.00  0.00     0.002 A 
ATOM      6  C8  UNL d   1      -4.235   3.596  -5.745  0.00  0.00     0.002 A 
ENDROOT
BRANCH   1   7
ATOM      7  C2  UNL d   1      -2.383   2.238  -4.693  0.00  0.00     0.056 C 
BRANCH   7   8
ATOM      8  C1  UNL d   1      -0.865   2.253  -4.906  0.00  0.00     0.007 C 
ATOM      9  C   UNL d   1      -0.422   3.217  -5.998  0.00  0.00     0.009 C 
ENDBRANCH   7   8
ENDBRANCH   1   7
TORSDOF 2
ENDMDL
