MODEL 1
REMARK minimizedAffinity 14.304307
REMARK minimizedRMSD -1
REMARK  0 active torsions:
REMARK  status: ('A' for Active; 'I' for Inactive)
ROOT
ATOM      1  C   UNL d   1       5.106   3.760  -4.144  0.00  0.00     0.077 C 
ATOM      2  C1  UNL d   1       3.799   3.197  -3.668  0.00  0.00    -0.074 A 
ATOM      3  C2  UNL d   1       3.760   2.071  -2.840  0.00  0.00    -0.005 A 
ATOM      4  C3  UNL d   1       2.538   1.565  -2.398  0.00  0.00     0.006 A 
ATOM      5  C4  UNL d   1       1.344   2.179  -2.779  0.00  0.00    -0.005 A 
ATOM      6  C5  UNL d   1       1.364   3.307  -3.606  0.00  0.00    -0.074 A 
ATOM      7  C6  UNL d   1       0.090   3.985  -4.016  0.00  0.00     0.077 C 
ATOM      8  C7  UNL d   1       2.596   3.813  -4.040  0.00  0.00    -0.001 A 
ENDROOT
TORSDOF 0
ENDMDL
