MODEL 1
REMARK minimizedAffinity 2.94054651
REMARK minimizedRMSD -1
REMARK  0 active torsions:
REMARK  status: ('A' for Active; 'I' for Inactive)
ROOT
ATOM      1  C   UNL d   1      -0.922   5.009  -4.859  0.00  0.00     0.077 C 
ATOM      2  C1  UNL d   1      -2.407   5.218  -4.886  0.00  0.00    -0.074 A 
ATOM      3  C2  UNL d   1      -3.028   5.821  -5.984  0.00  0.00    -0.005 A 
ATOM      4  C3  UNL d   1      -4.411   6.000  -5.999  0.00  0.00     0.006 A 
ATOM      5  C4  UNL d   1      -5.186   5.578  -4.918  0.00  0.00    -0.005 A 
ATOM      6  C5  UNL d   1      -4.582   4.972  -3.812  0.00  0.00    -0.074 A 
ATOM      7  C6  UNL d   1      -5.401   4.503  -2.646  0.00  0.00     0.077 C 
ATOM      8  C7  UNL d   1      -3.193   4.789  -3.807  0.00  0.00    -0.001 A 
ENDROOT
TORSDOF 0
ENDMDL
