MODEL 1
REMARK minimizedAffinity 9.4592886
REMARK minimizedRMSD -1
REMARK  0 active torsions:
REMARK  status: ('A' for Active; 'I' for Inactive)
ROOT
ATOM      1  C   UNL d   1      -4.664  -3.837   2.617  0.00  0.00     0.077 C 
ATOM      2  C1  UNL d   1      -3.482  -3.008   2.210  0.00  0.00    -0.074 A 
ATOM      3  C2  UNL d   1      -2.516  -3.514   1.334  0.00  0.00    -0.005 A 
ATOM      4  C3  UNL d   1      -1.427  -2.727   0.957  0.00  0.00     0.006 A 
ATOM      5  C4  UNL d   1      -1.293  -1.429   1.452  0.00  0.00    -0.005 A 
ATOM      6  C5  UNL d   1      -2.249  -0.906   2.328  0.00  0.00    -0.074 A 
ATOM      7  C6  UNL d   1      -2.126   0.490   2.861  0.00  0.00     0.077 C 
ATOM      8  C7  UNL d   1      -3.344  -1.700   2.697  0.00  0.00    -0.001 A 
ENDROOT
TORSDOF 0
ENDMDL
