MODEL 1
REMARK minimizedAffinity 6.43998337
REMARK minimizedRMSD -1
REMARK  0 active torsions:
REMARK  status: ('A' for Active; 'I' for Inactive)
ROOT
ATOM      1  C   UNL d   1      -2.236   0.028   5.474  0.00  0.00     0.077 C 
ATOM      2  C1  UNL d   1      -2.455  -0.130   3.999  0.00  0.00    -0.074 A 
ATOM      3  C2  UNL d   1      -1.465  -0.681   3.179  0.00  0.00    -0.005 A 
ATOM      4  C3  UNL d   1      -1.687  -0.830   1.810  0.00  0.00     0.006 A 
ATOM      5  C4  UNL d   1      -2.899  -0.430   1.248  0.00  0.00    -0.005 A 
ATOM      6  C5  UNL d   1      -3.901   0.123   2.051  0.00  0.00    -0.074 A 
ATOM      7  C6  UNL d   1      -5.214   0.550   1.464  0.00  0.00     0.077 C 
ATOM      8  C7  UNL d   1      -3.673   0.263   3.427  0.00  0.00    -0.001 A 
ENDROOT
TORSDOF 0
ENDMDL
