MODEL 1
REMARK minimizedAffinity -2.84584117
REMARK minimizedRMSD -1
REMARK  0 active torsions:
REMARK  status: ('A' for Active; 'I' for Inactive)
ROOT
ATOM      1  C   UNL d   1      -3.068   1.954   5.792  0.00  0.00     0.077 C 
ATOM      2  C1  UNL d   1      -3.761   0.760   5.205  0.00  0.00    -0.074 A 
ATOM      3  C2  UNL d   1      -4.553  -0.074   6.000  0.00  0.00    -0.005 A 
ATOM      4  C3  UNL d   1      -5.199  -1.175   5.437  0.00  0.00     0.006 A 
ATOM      5  C4  UNL d   1      -5.059  -1.453   4.077  0.00  0.00    -0.005 A 
ATOM      6  C5  UNL d   1      -4.272  -0.629   3.266  0.00  0.00    -0.074 A 
ATOM      7  C6  UNL d   1      -4.119  -0.907   1.800  0.00  0.00     0.077 C 
ATOM      8  C7  UNL d   1      -3.631   0.480   3.837  0.00  0.00    -0.001 A 
ENDROOT
TORSDOF 0
ENDMDL
