MODEL 1
REMARK minimizedAffinity 2.49193406
REMARK minimizedRMSD -1
REMARK  0 active torsions:
REMARK  status: ('A' for Active; 'I' for Inactive)
ROOT
ATOM      1  C   UNL d   1      -5.857  -0.592   3.953  0.00  0.00     0.077 C 
ATOM      2  C1  UNL d   1      -4.400  -0.366   3.682  0.00  0.00    -0.074 A 
ATOM      3  C2  UNL d   1      -3.646   0.502   4.479  0.00  0.00    -0.005 A 
ATOM      4  C3  UNL d   1      -2.289   0.695   4.221  0.00  0.00     0.006 A 
ATOM      5  C4  UNL d   1      -1.673   0.023   3.164  0.00  0.00    -0.005 A 
ATOM      6  C5  UNL d   1      -2.410  -0.849   2.357  0.00  0.00    -0.074 A 
ATOM      7  C6  UNL d   1      -1.760  -1.586   1.223  0.00  0.00     0.077 C 
ATOM      8  C7  UNL d   1      -3.771  -1.043   2.627  0.00  0.00    -0.001 A 
ENDROOT
TORSDOF 0
ENDMDL
