MODEL 1
REMARK minimizedAffinity -2.46610999
REMARK minimizedRMSD -1
REMARK  0 active torsions:
REMARK  status: ('A' for Active; 'I' for Inactive)
ROOT
ATOM      1  C   UNL d   1      -2.269   1.477   5.936  0.00  0.00     0.077 C 
ATOM      2  C1  UNL d   1      -2.745   0.531   4.873  0.00  0.00    -0.074 A 
ATOM      3  C2  UNL d   1      -2.006   0.336   3.702  0.00  0.00    -0.005 A 
ATOM      4  C3  UNL d   1      -2.455  -0.554   2.727  0.00  0.00     0.006 A 
ATOM      5  C4  UNL d   1      -3.647  -1.256   2.912  0.00  0.00    -0.005 A 
ATOM      6  C5  UNL d   1      -4.398  -1.075   4.077  0.00  0.00    -0.074 A 
ATOM      7  C6  UNL d   1      -5.676  -1.830   4.297  0.00  0.00     0.077 C 
ATOM      8  C7  UNL d   1      -3.936  -0.184   5.056  0.00  0.00    -0.001 A 
ENDROOT
TORSDOF 0
ENDMDL
