MODEL 1
REMARK minimizedAffinity 10.4668064
REMARK minimizedRMSD -1
REMARK  0 active torsions:
REMARK  status: ('A' for Active; 'I' for Inactive)
ROOT
ATOM      1  C   UNL d   1       4.209   1.072   1.335  0.00  0.00     0.077 C 
ATOM      2  C1  UNL d   1       3.397   1.432   0.126  0.00  0.00    -0.074 A 
ATOM      3  C2  UNL d   1       2.007   1.283   0.123  0.00  0.00    -0.005 A 
ATOM      4  C3  UNL d   1       1.265   1.631  -1.005  0.00  0.00     0.006 A 
ATOM      5  C4  UNL d   1       1.904   2.130  -2.141  0.00  0.00    -0.005 A 
ATOM      6  C5  UNL d   1       3.294   2.286  -2.156  0.00  0.00    -0.074 A 
ATOM      7  C6  UNL d   1       3.996   2.830  -3.364  0.00  0.00     0.077 C 
ATOM      8  C7  UNL d   1       4.032   1.941  -1.015  0.00  0.00    -0.001 A 
ENDROOT
TORSDOF 0
ENDMDL
