MODEL 1
REMARK minimizedAffinity 1.80327666
REMARK minimizedRMSD -1
REMARK  0 active torsions:
REMARK  status: ('A' for Active; 'I' for Inactive)
ROOT
ATOM      1  C   UNL d   1      -4.136  -0.749   1.899  0.00  0.00     0.077 C 
ATOM      2  C1  UNL d   1      -4.191  -0.293   3.327  0.00  0.00    -0.074 A 
ATOM      3  C2  UNL d   1      -5.367  -0.413   4.075  0.00  0.00    -0.005 A 
ATOM      4  C3  UNL d   1      -5.401   0.006   5.405  0.00  0.00     0.006 A 
ATOM      5  C4  UNL d   1      -4.261   0.548   6.000  0.00  0.00    -0.005 A 
ATOM      6  C5  UNL d   1      -3.076   0.675   5.268  0.00  0.00    -0.074 A 
ATOM      7  C6  UNL d   1      -1.839   1.247   5.894  0.00  0.00     0.077 C 
ATOM      8  C7  UNL d   1      -3.048   0.245   3.934  0.00  0.00    -0.001 A 
ENDROOT
TORSDOF 0
ENDMDL
