MODEL 1
REMARK minimizedAffinity 0.357087076
REMARK minimizedRMSD -1
REMARK  0 active torsions:
REMARK  status: ('A' for Active; 'I' for Inactive)
ROOT
ATOM      1  C   UNL d   1       5.766   3.640   1.563  0.00  0.00     0.077 C 
ATOM      2  C1  UNL d   1       4.596   2.950   0.927  0.00  0.00    -0.074 A 
ATOM      3  C2  UNL d   1       3.737   2.147   1.683  0.00  0.00    -0.005 A 
ATOM      4  C3  UNL d   1       2.647   1.520   1.080  0.00  0.00     0.006 A 
ATOM      5  C4  UNL d   1       2.405   1.689  -0.284  0.00  0.00    -0.005 A 
ATOM      6  C5  UNL d   1       3.253   2.489  -1.057  0.00  0.00    -0.074 A 
ATOM      7  C6  UNL d   1       3.002   2.690  -2.522  0.00  0.00     0.077 C 
ATOM      8  C7  UNL d   1       4.342   3.122  -0.442  0.00  0.00    -0.001 A 
ENDROOT
TORSDOF 0
ENDMDL
