MODEL 1
REMARK minimizedAffinity 11.3163719
REMARK minimizedRMSD -1
REMARK  0 active torsions:
REMARK  status: ('A' for Active; 'I' for Inactive)
ROOT
ATOM      1  C   UNL d   1       0.019   4.289  -2.681  0.00  0.00     0.077 C 
ATOM      2  C1  UNL d   1      -0.718   4.894  -3.839  0.00  0.00    -0.074 A 
ATOM      3  C2  UNL d   1      -0.026   5.441  -4.924  0.00  0.00    -0.005 A 
ATOM      4  C3  UNL d   1      -0.725   5.991  -5.999  0.00  0.00     0.006 A 
ATOM      5  C4  UNL d   1      -2.120   6.000  -5.999  0.00  0.00    -0.005 A 
ATOM      6  C5  UNL d   1      -2.829   5.456  -4.923  0.00  0.00    -0.074 A 
ATOM      7  C6  UNL d   1      -4.329   5.448  -4.911  0.00  0.00     0.077 C 
ATOM      8  C7  UNL d   1      -2.120   4.899  -3.850  0.00  0.00    -0.001 A 
ENDROOT
TORSDOF 0
ENDMDL
