MODEL 1
REMARK minimizedAffinity 7.11870766
REMARK minimizedRMSD -1
REMARK  0 active torsions:
REMARK  status: ('A' for Active; 'I' for Inactive)
ROOT
ATOM      1  C   UNL d   1      -2.449   0.937   5.684  0.00  0.00     0.077 C 
ATOM      2  C1  UNL d   1      -2.394   0.284   4.335  0.00  0.00    -0.074 A 
ATOM      3  C2  UNL d   1      -3.566  -0.097   3.674  0.00  0.00    -0.005 A 
ATOM      4  C3  UNL d   1      -3.501  -0.694   2.415  0.00  0.00     0.006 A 
ATOM      5  C4  UNL d   1      -2.265  -0.917   1.806  0.00  0.00    -0.005 A 
ATOM      6  C5  UNL d   1      -1.083  -0.542   2.452  0.00  0.00    -0.074 A 
ATOM      7  C6  UNL d   1       0.253  -0.764   1.808  0.00  0.00     0.077 C 
ATOM      8  C7  UNL d   1      -1.157   0.065   3.714  0.00  0.00    -0.001 A 
ENDROOT
TORSDOF 0
ENDMDL
