MODEL 1
REMARK minimizedAffinity 4.45985222
REMARK minimizedRMSD -1
REMARK  0 active torsions:
REMARK  status: ('A' for Active; 'I' for Inactive)
ROOT
ATOM      1  C   UNL d   1      -2.382  -3.028   1.457  0.00  0.00     0.077 C 
ATOM      2  C1  UNL d   1      -2.128  -1.654   2.002  0.00  0.00    -0.074 A 
ATOM      3  C2  UNL d   1      -1.648  -0.632   1.177  0.00  0.00    -0.005 A 
ATOM      4  C3  UNL d   1      -1.425   0.644   1.696  0.00  0.00     0.006 A 
ATOM      5  C4  UNL d   1      -1.681   0.910   3.042  0.00  0.00    -0.005 A 
ATOM      6  C5  UNL d   1      -2.162  -0.100   3.881  0.00  0.00    -0.074 A 
ATOM      7  C6  UNL d   1      -2.451   0.171   5.328  0.00  0.00     0.077 C 
ATOM      8  C7  UNL d   1      -2.390  -1.377   3.351  0.00  0.00    -0.001 A 
ENDROOT
TORSDOF 0
ENDMDL
