MODEL 1
REMARK minimizedAffinity 7.55267191
REMARK minimizedRMSD -1
REMARK  0 active torsions:
REMARK  status: ('A' for Active; 'I' for Inactive)
ROOT
ATOM      1  C   UNL d   1      -0.760   5.123  -3.910  0.00  0.00     0.077 C 
ATOM      2  C1  UNL d   1      -2.176   5.401  -4.317  0.00  0.00    -0.074 A 
ATOM      3  C2  UNL d   1      -2.490   5.753  -5.634  0.00  0.00    -0.005 A 
ATOM      4  C3  UNL d   1      -3.813   6.000  -6.000  0.00  0.00     0.006 A 
ATOM      5  C4  UNL d   1      -4.834   5.898  -5.054  0.00  0.00    -0.005 A 
ATOM      6  C5  UNL d   1      -4.540   5.547  -3.733  0.00  0.00    -0.074 A 
ATOM      7  C6  UNL d   1      -5.626   5.423  -2.707  0.00  0.00     0.077 C 
ATOM      8  C7  UNL d   1      -3.208   5.293  -3.375  0.00  0.00    -0.001 A 
ENDROOT
TORSDOF 0
ENDMDL
