MODEL 1
REMARK minimizedAffinity 6.38574648
REMARK minimizedRMSD -1
REMARK  0 active torsions:
REMARK  status: ('A' for Active; 'I' for Inactive)
ROOT
ATOM      1  C   UNL d   1       5.796   4.448  -0.491  0.00  0.00     0.077 C 
ATOM      2  C1  UNL d   1       5.173   3.980  -1.772  0.00  0.00    -0.074 A 
ATOM      3  C2  UNL d   1       5.881   4.033  -2.977  0.00  0.00    -0.005 A 
ATOM      4  C3  UNL d   1       5.292   3.585  -4.159  0.00  0.00     0.006 A 
ATOM      5  C4  UNL d   1       3.991   3.082  -4.149  0.00  0.00    -0.005 A 
ATOM      6  C5  UNL d   1       3.267   3.021  -2.954  0.00  0.00    -0.074 A 
ATOM      7  C6  UNL d   1       1.871   2.474  -2.924  0.00  0.00     0.077 C 
ATOM      8  C7  UNL d   1       3.869   3.466  -1.769  0.00  0.00    -0.001 A 
ENDROOT
TORSDOF 0
ENDMDL
