MODEL 1
REMARK minimizedAffinity 4.74743938
REMARK minimizedRMSD -1
REMARK  0 active torsions:
REMARK  status: ('A' for Active; 'I' for Inactive)
ROOT
ATOM      1  C   UNL d   1      -5.407  -1.854   2.678  0.00  0.00     0.077 C 
ATOM      2  C1  UNL d   1      -4.624  -0.701   3.233  0.00  0.00    -0.074 A 
ATOM      3  C2  UNL d   1      -5.225   0.547   3.430  0.00  0.00    -0.005 A 
ATOM      4  C3  UNL d   1      -4.486   1.607   3.956  0.00  0.00     0.006 A 
ATOM      5  C4  UNL d   1      -3.143   1.431   4.289  0.00  0.00    -0.005 A 
ATOM      6  C5  UNL d   1      -2.526   0.191   4.099  0.00  0.00    -0.074 A 
ATOM      7  C6  UNL d   1      -1.085  -0.018   4.460  0.00  0.00     0.077 C 
ATOM      8  C7  UNL d   1      -3.276  -0.872   3.577  0.00  0.00    -0.001 A 
ENDROOT
TORSDOF 0
ENDMDL
