MODEL 1
REMARK minimizedAffinity 11.6574211
REMARK minimizedRMSD -1
REMARK  0 active torsions:
REMARK  status: ('A' for Active; 'I' for Inactive)
ROOT
ATOM      1  N1  IND d   1       0.027   0.001  -6.000  0.00  0.00    -0.196 N 
ATOM      2  C2  IND d   1       0.444   0.872  -5.032  0.00  0.00     0.054 A 
ATOM      3  C3  IND d   1       0.168   0.378  -3.804  0.00  0.00    -0.031 A 
ATOM      4  C4  IND d   1      -0.871  -1.884  -3.148  0.00  0.00     0.051 A 
ATOM      5  C5  IND d   1      -1.447  -3.002  -3.684  0.00  0.00    -0.031 A 
ATOM      6  C6  IND d   1      -1.560  -3.180  -5.048  0.00  0.00     0.015 A 
ATOM      7  C7  IND d   1      -1.090  -2.248  -5.930  0.00  0.00    -0.016 A 
ATOM      8  C8  IND d   1      -0.511  -1.109  -5.388  0.00  0.00    -0.047 A 
ATOM      9  C9  IND d   1      -0.432  -0.903  -4.005  0.00  0.00    -0.096 A 
ATOM     10  HN1 IND d   1       0.091   0.126  -6.848  0.00  0.00     0.298 HD
ENDROOT
TORSDOF 0
ENDMDL
