MODEL 1
REMARK minimizedAffinity 5.8901577
REMARK minimizedRMSD -1
REMARK  0 active torsions:
REMARK  status: ('A' for Active; 'I' for Inactive)
ROOT
ATOM      1  N1  IND d   1       1.244  -2.018   2.870  0.00  0.00    -0.196 N 
ATOM      2  C2  IND d   1       2.137  -1.398   3.699  0.00  0.00     0.054 A 
ATOM      3  C3  IND d   1       1.783  -0.107   3.889  0.00  0.00    -0.031 A 
ATOM      4  C4  IND d   1      -0.276   1.170   3.020  0.00  0.00     0.051 A 
ATOM      5  C5  IND d   1      -1.358   1.036   2.196  0.00  0.00    -0.031 A 
ATOM      6  C6  IND d   1      -1.635  -0.148   1.543  0.00  0.00     0.015 A 
ATOM      7  C7  IND d   1      -0.843  -1.250   1.700  0.00  0.00    -0.016 A 
ATOM      8  C8  IND d   1       0.260  -1.115   2.531  0.00  0.00    -0.047 A 
ATOM      9  C9  IND d   1       0.570   0.096   3.162  0.00  0.00    -0.096 A 
ATOM     10  HN1 IND d   1       1.289  -2.835   2.605  0.00  0.00     0.298 HD
ENDROOT
TORSDOF 0
ENDMDL
