MODEL 1
REMARK minimizedAffinity 11.2433786
REMARK minimizedRMSD -1
REMARK  0 active torsions:
REMARK  status: ('A' for Active; 'I' for Inactive)
ROOT
ATOM      1  N1  IND d   1       4.084   5.860   2.736  0.00  0.00    -0.196 N 
ATOM      2  C2  IND d   1       3.573   5.994   1.476  0.00  0.00     0.054 A 
ATOM      3  C3  IND d   1       3.721   4.842   0.783  0.00  0.00    -0.031 A 
ATOM      4  C4  IND d   1       4.682   2.582   1.554  0.00  0.00     0.051 A 
ATOM      5  C5  IND d   1       5.307   1.981   2.610  0.00  0.00    -0.031 A 
ATOM      6  C6  IND d   1       5.559   2.656   3.788  0.00  0.00     0.015 A 
ATOM      7  C7  IND d   1       5.183   3.958   3.957  0.00  0.00    -0.016 A 
ATOM      8  C8  IND d   1       4.555   4.574   2.884  0.00  0.00    -0.047 A 
ATOM      9  C9  IND d   1       4.335   3.907   1.671  0.00  0.00    -0.096 A 
ATOM     10  HN1 IND d   1       4.108   6.475   3.336  0.00  0.00     0.298 HD
ENDROOT
TORSDOF 0
ENDMDL
