MODEL 1
REMARK minimizedAffinity 9.53859425
REMARK minimizedRMSD -1
REMARK  0 active torsions:
REMARK  status: ('A' for Active; 'I' for Inactive)
ROOT
ATOM      1  N1  IND d   1      -1.254  -3.320  -1.900  0.00  0.00    -0.196 N 
ATOM      2  C2  IND d   1      -0.917  -2.079  -2.365  0.00  0.00     0.054 A 
ATOM      3  C3  IND d   1      -0.950  -2.059  -3.716  0.00  0.00    -0.031 A 
ATOM      4  C4  IND d   1      -1.627  -3.916  -5.365  0.00  0.00     0.051 A 
ATOM      5  C5  IND d   1      -1.978  -5.236  -5.415  0.00  0.00    -0.031 A 
ATOM      6  C6  IND d   1      -2.111  -5.999  -4.274  0.00  0.00     0.015 A 
ATOM      7  C7  IND d   1      -1.908  -5.466  -3.032  0.00  0.00    -0.016 A 
ATOM      8  C8  IND d   1      -1.545  -4.128  -2.978  0.00  0.00    -0.047 A 
ATOM      9  C9  IND d   1      -1.367  -3.359  -4.135  0.00  0.00    -0.096 A 
ATOM     10  HN1 IND d   1      -1.280  -3.556  -1.074  0.00  0.00     0.298 HD
ENDROOT
TORSDOF 0
ENDMDL
