MODEL 1
REMARK minimizedAffinity 15.8285503
REMARK minimizedRMSD -1
REMARK  0 active torsions:
REMARK  status: ('A' for Active; 'I' for Inactive)
ROOT
ATOM      1  N1  IND d   1       1.137  -1.795   2.798  0.00  0.00    -0.196 N 
ATOM      2  C2  IND d   1       2.184  -1.050   3.264  0.00  0.00     0.054 A 
ATOM      3  C3  IND d   1       1.865   0.264   3.261  0.00  0.00    -0.031 A 
ATOM      4  C4  IND d   1      -0.353   1.407   2.627  0.00  0.00     0.051 A 
ATOM      5  C5  IND d   1      -1.590   1.145   2.108  0.00  0.00    -0.031 A 
ATOM      6  C6  IND d   1      -1.990  -0.136   1.788  0.00  0.00     0.015 A 
ATOM      7  C7  IND d   1      -1.169  -1.210   1.987  0.00  0.00    -0.016 A 
ATOM      8  C8  IND d   1       0.090  -0.947   2.508  0.00  0.00    -0.047 A 
ATOM      9  C9  IND d   1       0.517   0.356   2.794  0.00  0.00    -0.096 A 
ATOM     10  HN1 IND d   1       1.132  -2.649   2.701  0.00  0.00     0.298 HD
ENDROOT
TORSDOF 0
ENDMDL
