MODEL 1
REMARK minimizedAffinity 15.4321594
REMARK minimizedRMSD -1
REMARK  0 active torsions:
REMARK  status: ('A' for Active; 'I' for Inactive)
ROOT
ATOM      1  N1  IND d   1       3.772   4.073  -5.956  0.00  0.00    -0.196 N 
ATOM      2  C2  IND d   1       4.963   4.744  -5.990  0.00  0.00     0.054 A 
ATOM      3  C3  IND d   1       5.995   3.873  -5.930  0.00  0.00    -0.031 A 
ATOM      4  C4  IND d   1       5.963   1.300  -5.873  0.00  0.00     0.051 A 
ATOM      5  C5  IND d   1       5.111   0.235  -5.790  0.00  0.00    -0.031 A 
ATOM      6  C6  IND d   1       3.741   0.398  -5.760  0.00  0.00     0.015 A 
ATOM      7  C7  IND d   1       3.170   1.637  -5.824  0.00  0.00    -0.016 A 
ATOM      8  C8  IND d   1       4.032   2.721  -5.901  0.00  0.00    -0.047 A 
ATOM      9  C9  IND d   1       5.424   2.564  -5.889  0.00  0.00    -0.096 A 
ATOM     10  HN1 IND d   1       2.992   4.434  -5.966  0.00  0.00     0.298 HD
ENDROOT
TORSDOF 0
ENDMDL
