MODEL 1
REMARK minimizedAffinity 11.0464487
REMARK minimizedRMSD -1
REMARK  0 active torsions:
REMARK  status: ('A' for Active; 'I' for Inactive)
ROOT
ATOM      1  N1  IND d   1       0.184  -1.248   3.218  0.00  0.00    -0.196 N 
ATOM      2  C2  IND d   1       1.427  -0.681   3.203  0.00  0.00     0.054 A 
ATOM      3  C3  IND d   1       1.362   0.581   2.722  0.00  0.00    -0.031 A 
ATOM      4  C4  IND d   1      -0.694   1.952   1.999  0.00  0.00     0.051 A 
ATOM      5  C5  IND d   1      -2.042   1.849   1.802  0.00  0.00    -0.031 A 
ATOM      6  C6  IND d   1      -2.732   0.685   2.075  0.00  0.00     0.015 A 
ATOM      7  C7  IND d   1      -2.098  -0.420   2.568  0.00  0.00    -0.016 A 
ATOM      8  C8  IND d   1      -0.727  -0.321   2.763  0.00  0.00    -0.047 A 
ATOM      9  C9  IND d   1      -0.015   0.844   2.448  0.00  0.00    -0.096 A 
ATOM     10  HN1 IND d   1       0.001  -2.050   3.470  0.00  0.00     0.298 HD
ENDROOT
TORSDOF 0
ENDMDL
