MODEL 1
REMARK minimizedAffinity 11.2369423
REMARK minimizedRMSD -1
REMARK  0 active torsions:
REMARK  status: ('A' for Active; 'I' for Inactive)
ROOT
ATOM      1  N1  IND d   1       1.924   0.155  -4.262  0.00  0.00    -0.196 N 
ATOM      2  C2  IND d   1       3.023  -0.600  -4.565  0.00  0.00     0.054 A 
ATOM      3  C3  IND d   1       2.647  -1.814  -5.026  0.00  0.00    -0.031 A 
ATOM      4  C4  IND d   1       0.284  -2.739  -5.462  0.00  0.00     0.051 A 
ATOM      5  C5  IND d   1      -1.038  -2.432  -5.304  0.00  0.00    -0.031 A 
ATOM      6  C6  IND d   1      -1.450  -1.223  -4.783  0.00  0.00     0.015 A 
ATOM      7  C7  IND d   1      -0.549  -0.265  -4.409  0.00  0.00    -0.016 A 
ATOM      8  C8  IND d   1       0.795  -0.576  -4.561  0.00  0.00    -0.047 A 
ATOM      9  C9  IND d   1       1.219  -1.818  -5.050  0.00  0.00    -0.096 A 
ATOM     10  HN1 IND d   1       1.936   0.951  -3.939  0.00  0.00     0.298 HD
ENDROOT
TORSDOF 0
ENDMDL
