MODEL 1
REMARK minimizedAffinity 17.212759
REMARK minimizedRMSD -1
REMARK  0 active torsions:
REMARK  status: ('A' for Active; 'I' for Inactive)
ROOT
ATOM      1  N1  IND d   1       4.496  -5.700   5.243  0.00  0.00    -0.196 N 
ATOM      2  C2  IND d   1       5.777  -5.400   5.613  0.00  0.00     0.054 A 
ATOM      3  C3  IND d   1       5.999  -4.071   5.505  0.00  0.00    -0.031 A 
ATOM      4  C4  IND d   1       4.374  -2.190   4.837  0.00  0.00     0.051 A 
ATOM      5  C5  IND d   1       3.105  -1.975   4.377  0.00  0.00    -0.031 A 
ATOM      6  C6  IND d   1       2.215  -3.012   4.181  0.00  0.00     0.015 A 
ATOM      7  C7  IND d   1       2.560  -4.307   4.450  0.00  0.00    -0.016 A 
ATOM      8  C8  IND d   1       3.850  -4.529   4.910  0.00  0.00    -0.047 A 
ATOM      9  C9  IND d   1       4.771  -3.485   5.070  0.00  0.00    -0.096 A 
ATOM     10  HN1 IND d   1       4.151  -6.487   5.221  0.00  0.00     0.298 HD
ENDROOT
TORSDOF 0
ENDMDL
