MODEL 1
REMARK minimizedAffinity 22.220623
REMARK minimizedRMSD -1
REMARK  0 active torsions:
REMARK  status: ('A' for Active; 'I' for Inactive)
ROOT
ATOM      1  N1  IND d   1      -0.689  -0.855  -5.226  0.00  0.00    -0.196 N 
ATOM      2  C2  IND d   1       0.660  -0.660  -5.338  0.00  0.00     0.054 A 
ATOM      3  C3  IND d   1       1.274  -0.937  -4.166  0.00  0.00    -0.031 A 
ATOM      4  C4  IND d   1       0.274  -1.825  -1.966  0.00  0.00     0.051 A 
ATOM      5  C5  IND d   1      -0.918  -2.125  -1.368  0.00  0.00    -0.031 A 
ATOM      6  C6  IND d   1      -2.118  -2.017  -2.040  0.00  0.00     0.015 A 
ATOM      7  C7  IND d   1      -2.171  -1.615  -3.344  0.00  0.00    -0.016 A 
ATOM      8  C8  IND d   1      -0.963  -1.303  -3.953  0.00  0.00    -0.047 A 
ATOM      9  C9  IND d   1       0.254  -1.369  -3.263  0.00  0.00    -0.096 A 
ATOM     10  HN1 IND d   1      -1.268  -0.722  -5.848  0.00  0.00     0.298 HD
ENDROOT
TORSDOF 0
ENDMDL
