MODEL 1
REMARK minimizedAffinity 6.85919237
REMARK minimizedRMSD -1
REMARK  0 active torsions:
REMARK  status: ('A' for Active; 'I' for Inactive)
ROOT
ATOM      1  N1  IND d   1       0.980  -3.722   4.042  0.00  0.00    -0.196 N 
ATOM      2  C2  IND d   1       0.708  -2.754   3.115  0.00  0.00     0.054 A 
ATOM      3  C3  IND d   1       1.699  -1.836   3.089  0.00  0.00    -0.031 A 
ATOM      4  C4  IND d   1       3.910  -1.778   4.406  0.00  0.00     0.051 A 
ATOM      5  C5  IND d   1       4.591  -2.427   5.398  0.00  0.00    -0.031 A 
ATOM      6  C6  IND d   1       4.093  -3.565   5.999  0.00  0.00     0.015 A 
ATOM      7  C7  IND d   1       2.897  -4.106   5.621  0.00  0.00    -0.016 A 
ATOM      8  C8  IND d   1       2.200  -3.445   4.618  0.00  0.00    -0.047 A 
ATOM      9  C9  IND d   1       2.680  -2.266   4.035  0.00  0.00    -0.096 A 
ATOM     10  HN1 IND d   1       0.475  -4.391   4.232  0.00  0.00     0.298 HD
ENDROOT
TORSDOF 0
ENDMDL
