MODEL 1
REMARK minimizedAffinity -5.66310406
REMARK minimizedRMSD -1
REMARK  1 active torsions:
REMARK  status: ('A' for Active; 'I' for Inactive)
REMARK    1  A    between atoms: C1_2  and  C2_3 
ROOT
ATOM      1  C2  UNL d   1      -1.025   1.378   1.595  0.00  0.00    -0.073 A 
ATOM      2  C3  UNL d   1      -1.083   0.033   1.979  0.00  0.00    -0.002 A 
ATOM      3  C4  UNL d   1      -0.088  -0.859   1.577  0.00  0.00     0.004 A 
ATOM      4  C5  UNL d   1       0.977  -0.415   0.793  0.00  0.00    -0.004 A 
ATOM      5  C6  UNL d   1       1.059   0.927   0.409  0.00  0.00    -0.075 A 
ATOM      6  C7  UNL d   1       2.197   1.419  -0.436  0.00  0.00     0.076 C 
ATOM      7  C8  UNL d   1       0.055   1.816   0.815  0.00  0.00     0.001 A 
ENDROOT
BRANCH   1   8
ATOM      8  C1  UNL d   1      -2.093   2.346   2.032  0.00  0.00     0.053 C 
ATOM      9  C   UNL d   1      -3.000   1.751   3.098  0.00  0.00     0.018 C 
ENDBRANCH   1   8
TORSDOF 1
ENDMDL
