MODEL 1
REMARK minimizedAffinity -5.40677547
REMARK minimizedRMSD -1
REMARK  1 active torsions:
REMARK  status: ('A' for Active; 'I' for Inactive)
REMARK    1  A    between atoms: C1_2  and  C2_3 
ROOT
ATOM      1  C2  UNL d   1      -2.643   1.342   2.764  0.00  0.00    -0.073 A 
ATOM      2  C3  UNL d   1      -2.851  -0.030   2.583  0.00  0.00    -0.002 A 
ATOM      3  C4  UNL d   1      -1.895  -0.808   1.929  0.00  0.00     0.004 A 
ATOM      4  C5  UNL d   1      -0.718  -0.225   1.458  0.00  0.00    -0.004 A 
ATOM      5  C6  UNL d   1      -0.486   1.142   1.641  0.00  0.00    -0.075 A 
ATOM      6  C7  UNL d   1       0.773   1.785   1.138  0.00  0.00     0.076 C 
ATOM      7  C8  UNL d   1      -1.453   1.917   2.295  0.00  0.00     0.001 A 
ENDROOT
BRANCH   1   8
ATOM      8  C1  UNL d   1      -3.670   2.185   3.475  0.00  0.00     0.053 C 
ATOM      9  C   UNL d   1      -4.086   1.576   4.805  0.00  0.00     0.018 C 
ENDBRANCH   1   8
TORSDOF 1
ENDMDL
