MODEL 1
REMARK minimizedAffinity -1.19072986
REMARK minimizedRMSD -1
REMARK  1 active torsions:
REMARK  status: ('A' for Active; 'I' for Inactive)
REMARK    1  A    between atoms: C1_2  and  C2_3 
ROOT
ATOM      1  C2  UNL d   1      -1.101   1.278   1.451  0.00  0.00    -0.073 A 
ATOM      2  C3  UNL d   1      -1.214  -0.034   1.927  0.00  0.00    -0.002 A 
ATOM      3  C4  UNL d   1      -0.211  -0.968   1.664  0.00  0.00     0.004 A 
ATOM      4  C5  UNL d   1       0.916  -0.600   0.929  0.00  0.00    -0.004 A 
ATOM      5  C6  UNL d   1       1.052   0.709   0.455  0.00  0.00    -0.075 A 
ATOM      6  C7  UNL d   1       2.257   1.120  -0.339  0.00  0.00     0.076 C 
ATOM      7  C8  UNL d   1       0.040   1.641   0.721  0.00  0.00     0.001 A 
ENDROOT
BRANCH   1   8
ATOM      8  C1  UNL d   1      -2.178   2.292   1.739  0.00  0.00     0.053 C 
ATOM      9  C   UNL d   1      -2.935   1.972   3.018  0.00  0.00     0.018 C 
ENDBRANCH   1   8
TORSDOF 1
ENDMDL
