MODEL 1
REMARK minimizedAffinity 0.839015841
REMARK minimizedRMSD -1
REMARK  1 active torsions:
REMARK  status: ('A' for Active; 'I' for Inactive)
REMARK    1  A    between atoms: C1_2  and  C2_3 
ROOT
ATOM      1  C2  UNL d   1      -1.499   1.926   2.357  0.00  0.00    -0.073 A 
ATOM      2  C3  UNL d   1      -0.395   2.465   1.686  0.00  0.00    -0.002 A 
ATOM      3  C4  UNL d   1       0.485   1.632   0.993  0.00  0.00     0.004 A 
ATOM      4  C5  UNL d   1       0.267   0.255   0.958  0.00  0.00    -0.004 A 
ATOM      5  C6  UNL d   1      -0.837  -0.302   1.613  0.00  0.00    -0.075 A 
ATOM      6  C7  UNL d   1      -1.084  -1.782   1.587  0.00  0.00     0.076 C 
ATOM      7  C8  UNL d   1      -1.714   0.541   2.308  0.00  0.00     0.001 A 
ENDROOT
BRANCH   1   8
ATOM      8  C1  UNL d   1      -2.455   2.822   3.101  0.00  0.00     0.053 C 
ATOM      9  C   UNL d   1      -3.424   2.029   3.964  0.00  0.00     0.018 C 
ENDBRANCH   1   8
TORSDOF 1
ENDMDL
