MODEL 1
REMARK minimizedAffinity -1.06039572
REMARK minimizedRMSD -1
REMARK  1 active torsions:
REMARK  status: ('A' for Active; 'I' for Inactive)
REMARK    1  A    between atoms: C1_2  and  C2_3 
ROOT
ATOM      1  C2  UNL d   1      -1.714   1.519   2.247  0.00  0.00    -0.073 A 
ATOM      2  C3  UNL d   1      -1.823   0.140   2.039  0.00  0.00    -0.002 A 
ATOM      3  C4  UNL d   1      -2.837  -0.589   2.664  0.00  0.00     0.004 A 
ATOM      4  C5  UNL d   1      -3.754   0.055   3.494  0.00  0.00    -0.004 A 
ATOM      5  C6  UNL d   1      -3.668   1.435   3.704  0.00  0.00    -0.075 A 
ATOM      6  C7  UNL d   1      -4.646   2.142   4.597  0.00  0.00     0.076 C 
ATOM      7  C8  UNL d   1      -2.646   2.159   3.076  0.00  0.00     0.001 A 
ENDROOT
BRANCH   1   8
ATOM      8  C1  UNL d   1      -0.625   2.311   1.570  0.00  0.00     0.053 C 
ATOM      9  C   UNL d   1       0.404   1.411   0.903  0.00  0.00     0.018 C 
ENDBRANCH   1   8
TORSDOF 1
ENDMDL
