MODEL 1
REMARK minimizedAffinity 0.0235067327
REMARK minimizedRMSD -1
REMARK  1 active torsions:
REMARK  status: ('A' for Active; 'I' for Inactive)
REMARK    1  A    between atoms: C1_2  and  C2_3 
ROOT
ATOM      1  C2  UNL d   1      -3.777   1.155   3.805  0.00  0.00    -0.073 A 
ATOM      2  C3  UNL d   1      -3.757  -0.239   3.683  0.00  0.00    -0.002 A 
ATOM      3  C4  UNL d   1      -2.718  -0.872   3.000  0.00  0.00     0.004 A 
ATOM      4  C5  UNL d   1      -1.686  -0.119   2.439  0.00  0.00    -0.004 A 
ATOM      5  C6  UNL d   1      -1.682   1.274   2.561  0.00  0.00    -0.075 A 
ATOM      6  C7  UNL d   1      -0.580   2.097   1.961  0.00  0.00     0.076 C 
ATOM      7  C8  UNL d   1      -2.730   1.902   3.246  0.00  0.00     0.001 A 
ENDROOT
BRANCH   1   8
ATOM      8  C1  UNL d   1      -4.894   1.843   4.547  0.00  0.00     0.053 C 
ATOM      9  C   UNL d   1      -4.480   2.246   5.954  0.00  0.00     0.018 C 
ENDBRANCH   1   8
TORSDOF 1
ENDMDL
