MODEL 1
REMARK minimizedAffinity -1.55087149
REMARK minimizedRMSD -1
REMARK  1 active torsions:
REMARK  status: ('A' for Active; 'I' for Inactive)
REMARK    1  A    between atoms: C1_2  and  C2_3 
ROOT
ATOM      1  C2  UNL d   1      -1.877   0.583   2.513  0.00  0.00    -0.073 A 
ATOM      2  C3  UNL d   1      -1.196  -0.591   2.171  0.00  0.00    -0.002 A 
ATOM      3  C4  UNL d   1       0.068  -0.526   1.583  0.00  0.00     0.004 A 
ATOM      4  C5  UNL d   1       0.666   0.710   1.339  0.00  0.00    -0.004 A 
ATOM      5  C6  UNL d   1       0.007   1.894   1.685  0.00  0.00    -0.075 A 
ATOM      6  C7  UNL d   1       0.636   3.231   1.426  0.00  0.00     0.076 C 
ATOM      7  C8  UNL d   1      -1.264   1.821   2.272  0.00  0.00     0.001 A 
ENDROOT
BRANCH   1   8
ATOM      8  C1  UNL d   1      -3.239   0.518   3.154  0.00  0.00     0.053 C 
ATOM      9  C   UNL d   1      -3.576   1.795   3.909  0.00  0.00     0.018 C 
ENDBRANCH   1   8
TORSDOF 1
ENDMDL
