MODEL 1
REMARK minimizedAffinity -3.49517846
REMARK minimizedRMSD -1
REMARK  1 active torsions:
REMARK  status: ('A' for Active; 'I' for Inactive)
REMARK    1  A    between atoms: C1_2  and  C2_3 
ROOT
ATOM      1  C2  UNL d   1      -2.715   1.482   2.870  0.00  0.00    -0.073 A 
ATOM      2  C3  UNL d   1      -2.162   2.714   2.505  0.00  0.00    -0.002 A 
ATOM      3  C4  UNL d   1      -0.992   2.766   1.746  0.00  0.00     0.004 A 
ATOM      4  C5  UNL d   1      -0.367   1.587   1.340  0.00  0.00    -0.004 A 
ATOM      5  C6  UNL d   1      -0.910   0.345   1.685  0.00  0.00    -0.075 A 
ATOM      6  C7  UNL d   1      -0.248  -0.932   1.257  0.00  0.00     0.076 C 
ATOM      7  C8  UNL d   1      -2.084   0.302   2.449  0.00  0.00     0.001 A 
ENDROOT
BRANCH   1   8
ATOM      8  C1  UNL d   1      -3.982   1.421   3.683  0.00  0.00     0.053 C 
ATOM      9  C   UNL d   1      -4.024   2.501   4.753  0.00  0.00     0.018 C 
ENDBRANCH   1   8
TORSDOF 1
ENDMDL
