MODEL 1
REMARK minimizedAffinity 1.91720295
REMARK minimizedRMSD -1
REMARK  1 active torsions:
REMARK  status: ('A' for Active; 'I' for Inactive)
REMARK    1  A    between atoms: C1_2  and  C2_3 
ROOT
ATOM      1  C2  UNL d   1      -2.446   0.818   2.824  0.00  0.00    -0.073 A 
ATOM      2  C3  UNL d   1      -2.218   2.183   2.612  0.00  0.00    -0.002 A 
ATOM      3  C4  UNL d   1      -1.001   2.622   2.090  0.00  0.00     0.004 A 
ATOM      4  C5  UNL d   1      -0.002   1.702   1.769  0.00  0.00    -0.004 A 
ATOM      5  C6  UNL d   1      -0.215   0.334   1.963  0.00  0.00    -0.075 A 
ATOM      6  C7  UNL d   1       0.850  -0.668   1.626  0.00  0.00     0.076 C 
ATOM      7  C8  UNL d   1      -1.439  -0.099   2.490  0.00  0.00     0.001 A 
ENDROOT
BRANCH   1   8
ATOM      8  C1  UNL d   1      -3.761   0.339   3.381  0.00  0.00     0.053 C 
ATOM      9  C   UNL d   1      -4.496   1.437   4.133  0.00  0.00     0.018 C 
ENDBRANCH   1   8
TORSDOF 1
ENDMDL
