MODEL 1
REMARK minimizedAffinity -2.3547833
REMARK minimizedRMSD -1
REMARK  0 active torsions:
REMARK  status: ('A' for Active; 'I' for Inactive)
ROOT
ATOM      1  C   UNL d   1       1.015   0.399  -3.954  0.00  0.00     0.124 A 
ATOM      2  C1  UNL d   1       1.157   1.540  -3.176  0.00  0.00     0.062 A 
ATOM      3  C2  UNL d   1       1.012   1.467  -1.793  0.00  0.00     0.162 A 
ATOM      4  C3  UNL d   1       0.725   0.248  -1.179  0.00  0.00    -0.034 A 
ATOM      5  C4  UNL d   1       0.583  -0.895  -1.968  0.00  0.00     0.162 A 
ATOM      6  C5  UNL d   1       0.728  -0.817  -3.349  0.00  0.00     0.062 A 
ATOM      7  F   UNL d   1       0.590  -1.920  -4.099  0.00  0.00    -0.097 F 
ATOM      8  F1  UNL d   1       0.307  -2.083  -1.410  0.00  0.00    -0.096 F 
ATOM      9  I   UNL d   1       0.509   0.134   0.888  0.00  0.00    -0.060 I 
ATOM     10  F2  UNL d   1       1.155   2.585  -1.066  0.00  0.00    -0.096 F 
ATOM     11  F3  UNL d   1       1.433   2.716  -3.757  0.00  0.00    -0.097 F 
ATOM     12  F4  UNL d   1       1.153   0.472  -5.284  0.00  0.00    -0.092 F 
ENDROOT
TORSDOF 0
ENDMDL
