MODEL 1
REMARK minimizedAffinity -3.18701577
REMARK minimizedRMSD -1
REMARK  0 active torsions:
REMARK  status: ('A' for Active; 'I' for Inactive)
ROOT
ATOM      1  C   UNL d   1      -0.309  -0.901  -0.276  0.00  0.00     0.124 A 
ATOM      2  C1  UNL d   1      -1.536  -0.465   0.204  0.00  0.00     0.062 A 
ATOM      3  C2  UNL d   1      -1.598   0.348   1.332  0.00  0.00     0.162 A 
ATOM      4  C3  UNL d   1      -0.428   0.732   1.988  0.00  0.00    -0.034 A 
ATOM      5  C4  UNL d   1       0.803   0.288   1.500  0.00  0.00     0.162 A 
ATOM      6  C5  UNL d   1       0.859  -0.524   0.373  0.00  0.00     0.062 A 
ATOM      7  F   UNL d   1       2.045  -0.945  -0.089  0.00  0.00    -0.097 F 
ATOM      8  F1  UNL d   1       1.947   0.638   2.107  0.00  0.00    -0.096 F 
ATOM      9  I   UNL d   1      -0.516   1.947   3.675  0.00  0.00    -0.060 I 
ATOM     10  F2  UNL d   1      -2.797   0.755   1.773  0.00  0.00    -0.096 F 
ATOM     11  F3  UNL d   1      -2.666  -0.828  -0.420  0.00  0.00    -0.097 F 
ATOM     12  F4  UNL d   1      -0.252  -1.684  -1.361  0.00  0.00    -0.092 F 
ENDROOT
TORSDOF 0
ENDMDL
