MODEL 1
REMARK minimizedAffinity -1.62038016
REMARK minimizedRMSD -1
REMARK  0 active torsions:
REMARK  status: ('A' for Active; 'I' for Inactive)
ROOT
ATOM      1  C   UNL d   1      -0.379   0.131   2.140  0.00  0.00     0.124 A 
ATOM      2  C1  UNL d   1      -1.335   0.558   1.228  0.00  0.00     0.062 A 
ATOM      3  C2  UNL d   1      -1.089   0.465  -0.139  0.00  0.00     0.162 A 
ATOM      4  C3  UNL d   1       0.117  -0.059  -0.603  0.00  0.00    -0.034 A 
ATOM      5  C4  UNL d   1       1.074  -0.486   0.320  0.00  0.00     0.162 A 
ATOM      6  C5  UNL d   1       0.824  -0.391   1.685  0.00  0.00     0.062 A 
ATOM      7  F   UNL d   1       1.748  -0.804   2.564  0.00  0.00    -0.097 F 
ATOM      8  F1  UNL d   1       2.245  -0.994  -0.092  0.00  0.00    -0.096 F 
ATOM      9  I   UNL d   1       0.489  -0.199  -2.646  0.00  0.00    -0.060 I 
ATOM     10  F2  UNL d   1      -2.030   0.886  -0.997  0.00  0.00    -0.096 F 
ATOM     11  F3  UNL d   1      -2.498   1.063   1.665  0.00  0.00    -0.097 F 
ATOM     12  F4  UNL d   1      -0.618   0.222   3.454  0.00  0.00    -0.092 F 
ENDROOT
TORSDOF 0
ENDMDL
