MODEL 1
REMARK minimizedAffinity -5.04208612
REMARK minimizedRMSD -1
REMARK  0 active torsions:
REMARK  status: ('A' for Active; 'I' for Inactive)
ROOT
ATOM      1  N1  IND d   1      -1.195   0.325   1.564  0.00  0.00    -0.196 N 
ATOM      2  C2  IND d   1      -0.927   1.298   0.643  0.00  0.00     0.054 A 
ATOM      3  C3  IND d   1       0.139   0.950  -0.112  0.00  0.00    -0.031 A 
ATOM      4  C4  IND d   1       1.532  -1.215  -0.076  0.00  0.00     0.051 A 
ATOM      5  C5  IND d   1       1.690  -2.383   0.615  0.00  0.00    -0.031 A 
ATOM      6  C6  IND d   1       0.876  -2.716   1.679  0.00  0.00     0.015 A 
ATOM      7  C7  IND d   1      -0.138  -1.895   2.084  0.00  0.00    -0.016 A 
ATOM      8  C8  IND d   1      -0.297  -0.705   1.388  0.00  0.00    -0.047 A 
ATOM      9  C9  IND d   1       0.553  -0.342   0.336  0.00  0.00    -0.096 A 
ATOM     10  HN1 IND d   1      -1.820   0.351   2.154  0.00  0.00     0.298 HD
ENDROOT
TORSDOF 0
ENDMDL
