MODEL 1
REMARK minimizedAffinity -4.32680416
REMARK minimizedRMSD -1
REMARK  0 active torsions:
REMARK  status: ('A' for Active; 'I' for Inactive)
ROOT
ATOM      1  N1  IND d   1      -0.776   0.210   0.167  0.00  0.00    -0.196 N 
ATOM      2  C2  IND d   1       0.038   0.897  -0.690  0.00  0.00     0.054 A 
ATOM      3  C3  IND d   1       1.278   0.357  -0.696  0.00  0.00    -0.031 A 
ATOM      4  C4  IND d   1       2.164  -1.717   0.544  0.00  0.00     0.051 A 
ATOM      5  C5  IND d   1       1.803  -2.654   1.471  0.00  0.00    -0.031 A 
ATOM      6  C6  IND d   1       0.537  -2.687   2.020  0.00  0.00     0.015 A 
ATOM      7  C7  IND d   1      -0.422  -1.786   1.652  0.00  0.00    -0.016 A 
ATOM      8  C8  IND d   1      -0.057  -0.829   0.716  0.00  0.00    -0.047 A 
ATOM      9  C9  IND d   1       1.239  -0.765   0.187  0.00  0.00    -0.096 A 
ATOM     10  HN1 IND d   1      -1.598   0.395   0.335  0.00  0.00     0.298 HD
ENDROOT
TORSDOF 0
ENDMDL
