MODEL 1
REMARK minimizedAffinity -3.94995594
REMARK minimizedRMSD -1
REMARK  0 active torsions:
REMARK  status: ('A' for Active; 'I' for Inactive)
ROOT
ATOM      1  N1  IND d   1       0.178  -1.623   1.978  0.00  0.00    -0.196 N 
ATOM      2  C2  IND d   1       1.125  -2.533   1.598  0.00  0.00     0.054 A 
ATOM      3  C3  IND d   1       1.723  -2.139   0.452  0.00  0.00    -0.031 A 
ATOM      4  C4  IND d   1       1.377   0.013  -0.918  0.00  0.00     0.051 A 
ATOM      5  C5  IND d   1       0.594   1.131  -0.987  0.00  0.00    -0.031 A 
ATOM      6  C6  IND d   1      -0.385   1.395  -0.052  0.00  0.00     0.015 A 
ATOM      7  C7  IND d   1      -0.612   0.552   0.999  0.00  0.00    -0.016 A 
ATOM      8  C8  IND d   1       0.176  -0.588   1.069  0.00  0.00    -0.047 A 
ATOM      9  C9  IND d   1       1.143  -0.882   0.099  0.00  0.00    -0.096 A 
ATOM     10  HN1 IND d   1      -0.331  -1.687   2.668  0.00  0.00     0.298 HD
ENDROOT
TORSDOF 0
ENDMDL
