MODEL 1
REMARK minimizedAffinity -5.46986055
REMARK minimizedRMSD -1
REMARK  0 active torsions:
REMARK  status: ('A' for Active; 'I' for Inactive)
ROOT
ATOM      1  N1  IND d   1      -0.337   3.214  -5.431  0.00  0.00    -0.196 N 
ATOM      2  C2  IND d   1       0.373   4.268  -4.927  0.00  0.00     0.054 A 
ATOM      3  C3  IND d   1       0.201   4.354  -3.589  0.00  0.00    -0.031 A 
ATOM      4  C4  IND d   1      -1.119   2.812  -2.007  0.00  0.00     0.051 A 
ATOM      5  C5  IND d   1      -1.963   1.736  -2.007  0.00  0.00    -0.031 A 
ATOM      6  C6  IND d   1      -2.312   1.084  -3.171  0.00  0.00     0.015 A 
ATOM      7  C7  IND d   1      -1.820   1.477  -4.384  0.00  0.00    -0.016 A 
ATOM      8  C8  IND d   1      -0.969   2.573  -4.388  0.00  0.00    -0.047 A 
ATOM      9  C9  IND d   1      -0.644   3.265  -3.215  0.00  0.00    -0.096 A 
ATOM     10  HN1 IND d   1      -0.381   2.990  -6.260  0.00  0.00     0.298 HD
ENDROOT
TORSDOF 0
ENDMDL
