MODEL 1
REMARK minimizedAffinity -5.17094326
REMARK minimizedRMSD -1
REMARK  0 active torsions:
REMARK  status: ('A' for Active; 'I' for Inactive)
ROOT
ATOM      1  N1  IND d   1      -0.496   3.703  -5.170  0.00  0.00    -0.196 N 
ATOM      2  C2  IND d   1       0.200   4.727  -4.590  0.00  0.00     0.054 A 
ATOM      3  C3  IND d   1       0.188   4.600  -3.244  0.00  0.00    -0.031 A 
ATOM      4  C4  IND d   1      -0.825   2.737  -1.785  0.00  0.00     0.051 A 
ATOM      5  C5  IND d   1      -1.589   1.606  -1.859  0.00  0.00    -0.031 A 
ATOM      6  C6  IND d   1      -2.035   1.105  -3.065  0.00  0.00     0.015 A 
ATOM      7  C7  IND d   1      -1.722   1.712  -4.248  0.00  0.00    -0.016 A 
ATOM      8  C8  IND d   1      -0.952   2.864  -4.176  0.00  0.00    -0.047 A 
ATOM      9  C9  IND d   1      -0.532   3.401  -2.952  0.00  0.00    -0.096 A 
ATOM     10  HN1 IND d   1      -0.627   3.599  -6.013  0.00  0.00     0.298 HD
ENDROOT
TORSDOF 0
ENDMDL
