MODEL 1
REMARK minimizedAffinity -4.95374012
REMARK minimizedRMSD -1
REMARK  0 active torsions:
REMARK  status: ('A' for Active; 'I' for Inactive)
ROOT
ATOM      1  N1  IND d   1      -0.962   0.783   0.194  0.00  0.00    -0.196 N 
ATOM      2  C2  IND d   1      -0.072   1.243  -0.737  0.00  0.00     0.054 A 
ATOM      3  C3  IND d   1       1.031   0.461  -0.759  0.00  0.00    -0.031 A 
ATOM      4  C4  IND d   1       1.545  -1.681   0.573  0.00  0.00     0.051 A 
ATOM      5  C5  IND d   1       1.051  -2.473   1.571  0.00  0.00    -0.031 A 
ATOM      6  C6  IND d   1      -0.164  -2.217   2.172  0.00  0.00     0.015 A 
ATOM      7  C7  IND d   1      -0.941  -1.161   1.787  0.00  0.00    -0.016 A 
ATOM      8  C8  IND d   1      -0.439  -0.350   0.778  0.00  0.00    -0.047 A 
ATOM      9  C9  IND d   1       0.813  -0.580   0.194  0.00  0.00    -0.096 A 
ATOM     10  HN1 IND d   1      -1.721   1.141   0.383  0.00  0.00     0.298 HD
ENDROOT
TORSDOF 0
ENDMDL
