MODEL 1
REMARK minimizedAffinity -3.64468598
REMARK minimizedRMSD -1
REMARK  0 active torsions:
REMARK  status: ('A' for Active; 'I' for Inactive)
ROOT
ATOM      1  N1  IND d   1      -0.665   3.645  -5.458  0.00  0.00    -0.196 N 
ATOM      2  C2  IND d   1       0.102   4.713  -5.083  0.00  0.00     0.054 A 
ATOM      3  C3  IND d   1       0.227   4.753  -3.738  0.00  0.00    -0.031 A 
ATOM      4  C4  IND d   1      -0.658   3.111  -1.963  0.00  0.00     0.051 A 
ATOM      5  C5  IND d   1      -1.443   2.002  -1.818  0.00  0.00    -0.031 A 
ATOM      6  C6  IND d   1      -2.018   1.369  -2.901  0.00  0.00     0.015 A 
ATOM      7  C7  IND d   1      -1.820   1.818  -4.176  0.00  0.00    -0.016 A 
ATOM      8  C8  IND d   1      -1.029   2.948  -4.327  0.00  0.00    -0.047 A 
ATOM      9  C9  IND d   1      -0.477   3.619  -3.228  0.00  0.00    -0.096 A 
ATOM     10  HN1 IND d   1      -0.883   3.443  -6.264  0.00  0.00     0.298 HD
ENDROOT
TORSDOF 0
ENDMDL
