MODEL 1
REMARK minimizedAffinity -4.83868265
REMARK minimizedRMSD -1
REMARK  0 active torsions:
REMARK  status: ('A' for Active; 'I' for Inactive)
ROOT
ATOM      1  N1  IND d   1      -0.727   3.559  -5.241  0.00  0.00    -0.196 N 
ATOM      2  C2  IND d   1       0.333   4.269  -4.751  0.00  0.00     0.054 A 
ATOM      3  C3  IND d   1       0.444   4.089  -3.416  0.00  0.00    -0.031 A 
ATOM      4  C4  IND d   1      -0.943   2.591  -1.848  0.00  0.00     0.051 A 
ATOM      5  C5  IND d   1      -2.042   1.779  -1.827  0.00  0.00    -0.031 A 
ATOM      6  C6  IND d   1      -2.772   1.511  -2.967  0.00  0.00     0.015 A 
ATOM      7  C7  IND d   1      -2.422   2.038  -4.178  0.00  0.00    -0.016 A 
ATOM      8  C8  IND d   1      -1.311   2.869  -4.201  0.00  0.00    -0.047 A 
ATOM      9  C9  IND d   1      -0.591   3.179  -3.039  0.00  0.00    -0.096 A 
ATOM     10  HN1 IND d   1      -0.986   3.545  -6.061  0.00  0.00     0.298 HD
ENDROOT
TORSDOF 0
ENDMDL
