MODEL 1
REMARK minimizedAffinity -2.35063815
REMARK minimizedRMSD -1
REMARK  0 active torsions:
REMARK  status: ('A' for Active; 'I' for Inactive)
ROOT
ATOM      1  N1  IND d   1      -1.331   4.010  -4.867  0.00  0.00    -0.196 N 
ATOM      2  C2  IND d   1      -0.209   4.689  -4.480  0.00  0.00     0.054 A 
ATOM      3  C3  IND d   1       0.203   4.264  -3.265  0.00  0.00    -0.031 A 
ATOM      4  C4  IND d   1      -0.754   2.396  -1.775  0.00  0.00     0.051 A 
ATOM      5  C5  IND d   1      -1.797   1.516  -1.687  0.00  0.00    -0.031 A 
ATOM      6  C6  IND d   1      -2.755   1.419  -2.675  0.00  0.00     0.015 A 
ATOM      7  C7  IND d   1      -2.699   2.194  -3.799  0.00  0.00    -0.016 A 
ATOM      8  C8  IND d   1      -1.646   3.093  -3.889  0.00  0.00    -0.047 A 
ATOM      9  C9  IND d   1      -0.695   3.226  -2.869  0.00  0.00    -0.096 A 
ATOM     10  HN1 IND d   1      -1.766   4.136  -5.597  0.00  0.00     0.298 HD
ENDROOT
TORSDOF 0
ENDMDL
