MODEL 1
REMARK minimizedAffinity -5.13544846
REMARK minimizedRMSD -1
REMARK  0 active torsions:
REMARK  status: ('A' for Active; 'I' for Inactive)
ROOT
ATOM      1  N1  IND d   1      -0.546   3.120  -4.914  0.00  0.00    -0.196 N 
ATOM      2  C2  IND d   1       0.501   3.858  -4.437  0.00  0.00     0.054 A 
ATOM      3  C3  IND d   1       0.655   3.653  -3.109  0.00  0.00    -0.031 A 
ATOM      4  C4  IND d   1      -0.636   2.074  -1.538  0.00  0.00     0.051 A 
ATOM      5  C5  IND d   1      -1.704   1.222  -1.506  0.00  0.00    -0.031 A 
ATOM      6  C6  IND d   1      -2.455   0.952  -2.632  0.00  0.00     0.015 A 
ATOM      7  C7  IND d   1      -2.156   1.518  -3.840  0.00  0.00    -0.016 A 
ATOM      8  C8  IND d   1      -1.077   2.389  -3.874  0.00  0.00    -0.047 A 
ATOM      9  C9  IND d   1      -0.337   2.699  -2.725  0.00  0.00    -0.096 A 
ATOM     10  HN1 IND d   1      -0.827   3.115  -5.726  0.00  0.00     0.298 HD
ENDROOT
TORSDOF 0
ENDMDL
