MODEL 1
REMARK minimizedAffinity -4.62685013
REMARK minimizedRMSD -1
REMARK  0 active torsions:
REMARK  status: ('A' for Active; 'I' for Inactive)
ROOT
ATOM      1  N1  IND d   1      -0.770   3.409  -5.228  0.00  0.00    -0.196 N 
ATOM      2  C2  IND d   1       0.369   4.062  -4.847  0.00  0.00     0.054 A 
ATOM      3  C3  IND d   1       0.638   3.817  -3.545  0.00  0.00    -0.031 A 
ATOM      4  C4  IND d   1      -0.597   2.294  -1.877  0.00  0.00     0.051 A 
ATOM      5  C5  IND d   1      -1.714   1.516  -1.752  0.00  0.00    -0.031 A 
ATOM      6  C6  IND d   1      -2.589   1.323  -2.801  0.00  0.00     0.015 A 
ATOM      7  C7  IND d   1      -2.374   1.895  -4.023  0.00  0.00    -0.016 A 
ATOM      8  C8  IND d   1      -1.244   2.691  -4.152  0.00  0.00    -0.047 A 
ATOM      9  C9  IND d   1      -0.375   2.924  -3.079  0.00  0.00    -0.096 A 
ATOM     10  HN1 IND d   1      -1.129   3.441  -6.008  0.00  0.00     0.298 HD
ENDROOT
TORSDOF 0
ENDMDL
