MODEL 1
REMARK minimizedAffinity -4.48928833
REMARK minimizedRMSD -1
REMARK  0 active torsions:
REMARK  status: ('A' for Active; 'I' for Inactive)
ROOT
ATOM      1  N1  IND d   1      -0.665   3.113  -5.102  0.00  0.00    -0.196 N 
ATOM      2  C2  IND d   1       0.468   3.708  -4.622  0.00  0.00     0.054 A 
ATOM      3  C3  IND d   1       0.498   3.642  -3.272  0.00  0.00    -0.031 A 
ATOM      4  C4  IND d   1      -1.155   2.514  -1.653  0.00  0.00     0.051 A 
ATOM      5  C5  IND d   1      -2.361   1.872  -1.619  0.00  0.00    -0.031 A 
ATOM      6  C6  IND d   1      -3.077   1.603  -2.768  0.00  0.00     0.015 A 
ATOM      7  C7  IND d   1      -2.605   1.958  -4.000  0.00  0.00    -0.016 A 
ATOM      8  C8  IND d   1      -1.384   2.616  -4.038  0.00  0.00    -0.047 A 
ATOM      9  C9  IND d   1      -0.673   2.929  -2.872  0.00  0.00    -0.096 A 
ATOM     10  HN1 IND d   1      -0.890   3.058  -5.930  0.00  0.00     0.298 HD
ENDROOT
TORSDOF 0
ENDMDL
