MODEL 1
REMARK minimizedAffinity -3.68428683
REMARK minimizedRMSD -1
REMARK  0 active torsions:
REMARK  status: ('A' for Active; 'I' for Inactive)
ROOT
ATOM      1  N1  IND d   1      -0.729   2.926  -4.615  0.00  0.00    -0.196 N 
ATOM      2  C2  IND d   1       0.414   3.464  -4.092  0.00  0.00     0.054 A 
ATOM      3  C3  IND d   1       0.489   3.211  -2.766  0.00  0.00    -0.031 A 
ATOM      4  C4  IND d   1      -1.100   1.847  -1.269  0.00  0.00     0.051 A 
ATOM      5  C5  IND d   1      -2.299   1.191  -1.287  0.00  0.00    -0.031 A 
ATOM      6  C6  IND d   1      -3.049   1.075  -2.439  0.00  0.00     0.015 A 
ATOM      7  C7  IND d   1      -2.621   1.604  -3.624  0.00  0.00    -0.016 A 
ATOM      8  C8  IND d   1      -1.408   2.277  -3.608  0.00  0.00    -0.047 A 
ATOM      9  C9  IND d   1      -0.662   2.434  -2.432  0.00  0.00    -0.096 A 
ATOM     10  HN1 IND d   1      -0.981   2.984  -5.435  0.00  0.00     0.298 HD
ENDROOT
TORSDOF 0
ENDMDL
