MODEL 1
REMARK minimizedAffinity -6.36126375
REMARK minimizedRMSD -1
REMARK  0 active torsions:
REMARK  status: ('A' for Active; 'I' for Inactive)
ROOT
ATOM      1  N1  IND d   1      -0.956   3.927  -4.901  0.00  0.00    -0.196 N 
ATOM      2  C2  IND d   1       0.066   4.691  -4.408  0.00  0.00     0.054 A 
ATOM      3  C3  IND d   1       0.310   4.372  -3.118  0.00  0.00    -0.031 A 
ATOM      4  C4  IND d   1      -0.775   2.560  -1.646  0.00  0.00     0.051 A 
ATOM      5  C5  IND d   1      -1.779   1.633  -1.644  0.00  0.00    -0.031 A 
ATOM      6  C6  IND d   1      -2.575   1.417  -2.750  0.00  0.00     0.015 A 
ATOM      7  C7  IND d   1      -2.387   2.116  -3.910  0.00  0.00    -0.016 A 
ATOM      8  C8  IND d   1      -1.373   3.063  -3.913  0.00  0.00    -0.047 A 
ATOM      9  C9  IND d   1      -0.590   3.316  -2.780  0.00  0.00    -0.096 A 
ATOM     10  HN1 IND d   1      -1.283   3.979  -5.695  0.00  0.00     0.298 HD
ENDROOT
TORSDOF 0
ENDMDL
