MODEL 1
REMARK minimizedAffinity -1.76761711
REMARK minimizedRMSD -1
REMARK  0 active torsions:
REMARK  status: ('A' for Active; 'I' for Inactive)
ROOT
ATOM      1  N1  IND d   1      -0.752  -0.902   2.552  0.00  0.00    -0.196 N 
ATOM      2  C2  IND d   1      -1.707  -0.023   2.124  0.00  0.00     0.054 A 
ATOM      3  C3  IND d   1      -1.277   0.644   1.029  0.00  0.00    -0.031 A 
ATOM      4  C4  IND d   1       0.918   0.378  -0.289  0.00  0.00     0.051 A 
ATOM      5  C5  IND d   1       2.118  -0.274  -0.262  0.00  0.00    -0.031 A 
ATOM      6  C6  IND d   1       2.429  -1.190   0.722  0.00  0.00     0.015 A 
ATOM      7  C7  IND d   1       1.541  -1.497   1.715  0.00  0.00    -0.016 A 
ATOM      8  C8  IND d   1       0.324  -0.831   1.694  0.00  0.00    -0.047 A 
ATOM      9  C9  IND d   1       0.020   0.130   0.722  0.00  0.00    -0.096 A 
ATOM     10  HN1 IND d   1      -0.813  -1.414   3.240  0.00  0.00     0.298 HD
ENDROOT
TORSDOF 0
ENDMDL
