MODEL 1
REMARK minimizedAffinity -1.58353436
REMARK minimizedRMSD -1
REMARK  0 active torsions:
REMARK  status: ('A' for Active; 'I' for Inactive)
ROOT
ATOM      1  N1  IND d   1      -0.997  -0.526   2.196  0.00  0.00    -0.196 N 
ATOM      2  C2  IND d   1      -1.695   0.442   1.528  0.00  0.00     0.054 A 
ATOM      3  C3  IND d   1      -1.002   0.858   0.444  0.00  0.00    -0.031 A 
ATOM      4  C4  IND d   1       1.248   0.017  -0.481  0.00  0.00     0.051 A 
ATOM      5  C5  IND d   1       2.281  -0.830  -0.195  0.00  0.00    -0.031 A 
ATOM      6  C6  IND d   1       2.273  -1.638   0.924  0.00  0.00     0.015 A 
ATOM      7  C7  IND d   1       1.221  -1.636   1.796  0.00  0.00    -0.016 A 
ATOM      8  C8  IND d   1       0.174  -0.772   1.513  0.00  0.00    -0.047 A 
ATOM      9  C9  IND d   1       0.196   0.081   0.402  0.00  0.00    -0.096 A 
ATOM     10  HN1 IND d   1      -1.247  -0.915   2.921  0.00  0.00     0.298 HD
ENDROOT
TORSDOF 0
ENDMDL
