MODEL 1
REMARK minimizedAffinity -2.47686172
REMARK minimizedRMSD -1
REMARK  0 active torsions:
REMARK  status: ('A' for Active; 'I' for Inactive)
ROOT
ATOM      1  N1  IND d   1      -0.991  -0.310   2.565  0.00  0.00    -0.196 N 
ATOM      2  C2  IND d   1      -0.711  -1.171   3.590  0.00  0.00     0.054 A 
ATOM      3  C3  IND d   1       0.407  -1.880   3.316  0.00  0.00    -0.031 A 
ATOM      4  C4  IND d   1       1.992  -1.719   1.295  0.00  0.00     0.051 A 
ATOM      5  C5  IND d   1       2.133  -1.103   0.083  0.00  0.00    -0.031 A 
ATOM      6  C6  IND d   1       1.224  -0.170  -0.371  0.00  0.00     0.015 A 
ATOM      7  C7  IND d   1       0.140   0.191   0.378  0.00  0.00    -0.016 A 
ATOM      8  C8  IND d   1      -0.011  -0.437   1.606  0.00  0.00    -0.047 A 
ATOM      9  C9  IND d   1       0.887  -1.416   2.054  0.00  0.00    -0.096 A 
ATOM     10  HN1 IND d   1      -1.665   0.222   2.527  0.00  0.00     0.298 HD
ENDROOT
TORSDOF 0
ENDMDL
