MODEL 1
REMARK minimizedAffinity -4.48943567
REMARK minimizedRMSD -1
REMARK  0 active torsions:
REMARK  status: ('A' for Active; 'I' for Inactive)
ROOT
ATOM      1  C1  BNZ d   1       0.514   0.815   0.106  0.00  0.00     0.000 A 
ATOM      2  C2  BNZ d   1       0.073   1.594   1.142  0.00  0.00     0.000 A 
ATOM      3  C3  BNZ d   1       0.940   2.389   1.838  0.00  0.00     0.000 A 
ATOM      4  C4  BNZ d   1       2.251   2.374   1.524  0.00  0.00     0.000 A 
ATOM      5  C5  BNZ d   1       2.713   1.586   0.488  0.00  0.00     0.000 A 
ATOM      6  C6  BNZ d   1       1.831   0.817  -0.236  0.00  0.00     0.000 A 
ENDROOT
TORSDOF 0
ENDMDL
