MODEL 1
REMARK minimizedAffinity -4.42835665
REMARK minimizedRMSD -1
REMARK  0 active torsions:
REMARK  status: ('A' for Active; 'I' for Inactive)
ROOT
ATOM      1  C1  BNZ d   1       0.526   0.891   0.836  0.00  0.00     0.000 A 
ATOM      2  C2  BNZ d   1       1.474   0.331   0.022  0.00  0.00     0.000 A 
ATOM      3  C3  BNZ d   1       2.653   0.977  -0.227  0.00  0.00     0.000 A 
ATOM      4  C4  BNZ d   1       2.865   2.197   0.305  0.00  0.00     0.000 A 
ATOM      5  C5  BNZ d   1       1.915   2.779   1.121  0.00  0.00     0.000 A 
ATOM      6  C6  BNZ d   1       0.746   2.109   1.400  0.00  0.00     0.000 A 
ENDROOT
TORSDOF 0
ENDMDL
