MODEL 1
REMARK minimizedAffinity -2.00106263
REMARK minimizedRMSD -1
REMARK  0 active torsions:
REMARK  status: ('A' for Active; 'I' for Inactive)
ROOT
ATOM      1  C1  BNZ d   1       0.150   0.465  -0.426  0.00  0.00     0.000 A 
ATOM      2  C2  BNZ d   1       0.892   1.471   0.132  0.00  0.00     0.000 A 
ATOM      3  C3  BNZ d   1       0.643   1.903   1.404  0.00  0.00     0.000 A 
ATOM      4  C4  BNZ d   1      -0.373   1.357   2.103  0.00  0.00     0.000 A 
ATOM      5  C5  BNZ d   1      -1.137   0.348   1.551  0.00  0.00     0.000 A 
ATOM      6  C6  BNZ d   1      -0.858  -0.111   0.284  0.00  0.00     0.000 A 
ENDROOT
TORSDOF 0
ENDMDL
