MODEL 1
REMARK minimizedAffinity -4.59078884
REMARK minimizedRMSD -1
REMARK  0 active torsions:
REMARK  status: ('A' for Active; 'I' for Inactive)
ROOT
ATOM      1  C1  BNZ d   1       1.844   2.456   1.351  0.00  0.00     0.000 A 
ATOM      2  C2  BNZ d   1       0.479   2.363   1.391  0.00  0.00     0.000 A 
ATOM      3  C3  BNZ d   1      -0.170   1.325   0.784  0.00  0.00     0.000 A 
ATOM      4  C4  BNZ d   1       0.543   0.403   0.105  0.00  0.00     0.000 A 
ATOM      5  C5  BNZ d   1       1.920   0.488   0.047  0.00  0.00     0.000 A 
ATOM      6  C6  BNZ d   1       2.572   1.514   0.692  0.00  0.00     0.000 A 
ENDROOT
TORSDOF 0
ENDMDL
