MODEL 1
REMARK minimizedAffinity -3.58827972
REMARK minimizedRMSD -1
REMARK  0 active torsions:
REMARK  status: ('A' for Active; 'I' for Inactive)
ROOT
ATOM      1  C1  BNZ d   1       2.993   0.578  -0.614  0.00  0.00     0.000 A 
ATOM      2  C2  BNZ d   1       3.796   1.398   0.134  0.00  0.00     0.000 A 
ATOM      3  C3  BNZ d   1       3.262   2.423   0.865  0.00  0.00     0.000 A 
ATOM      4  C4  BNZ d   1       1.934   2.651   0.815  0.00  0.00     0.000 A 
ATOM      5  C5  BNZ d   1       1.113   1.839   0.059  0.00  0.00     0.000 A 
ATOM      6  C6  BNZ d   1       1.648   0.785  -0.645  0.00  0.00     0.000 A 
ENDROOT
TORSDOF 0
ENDMDL
