MODEL 1
REMARK minimizedAffinity -4.84498167
REMARK minimizedRMSD -1
REMARK  0 active torsions:
REMARK  status: ('A' for Active; 'I' for Inactive)
ROOT
ATOM      1  C1  BNZ d   1       1.860   2.701   1.342  0.00  0.00     0.000 A 
ATOM      2  C2  BNZ d   1       0.493   2.620   1.309  0.00  0.00     0.000 A 
ATOM      3  C3  BNZ d   1      -0.131   1.579   0.682  0.00  0.00     0.000 A 
ATOM      4  C4  BNZ d   1       0.610   0.642   0.055  0.00  0.00     0.000 A 
ATOM      5  C5  BNZ d   1       1.988   0.715   0.072  0.00  0.00     0.000 A 
ATOM      6  C6  BNZ d   1       2.614   1.744   0.737  0.00  0.00     0.000 A 
ENDROOT
TORSDOF 0
ENDMDL
