MODEL 1
REMARK minimizedAffinity -3.66745734
REMARK minimizedRMSD -1
REMARK  0 active torsions:
REMARK  status: ('A' for Active; 'I' for Inactive)
ROOT
ATOM      1  C1  BNZ d   1       1.679   2.493   1.530  0.00  0.00     0.000 A 
ATOM      2  C2  BNZ d   1       2.974   2.311   1.126  0.00  0.00     0.000 A 
ATOM      3  C3  BNZ d   1       3.288   1.372   0.183  0.00  0.00     0.000 A 
ATOM      4  C4  BNZ d   1       2.313   0.590  -0.323  0.00  0.00     0.000 A 
ATOM      5  C5  BNZ d   1       1.003   0.755   0.081  0.00  0.00     0.000 A 
ATOM      6  C6  BNZ d   1       0.686   1.728   1.001  0.00  0.00     0.000 A 
ENDROOT
TORSDOF 0
ENDMDL
