MODEL 1
REMARK minimizedAffinity -3.86807609
REMARK minimizedRMSD -1
REMARK  0 active torsions:
REMARK  status: ('A' for Active; 'I' for Inactive)
ROOT
ATOM      1  C1  BNZ d   1       1.169   1.829   0.264  0.00  0.00     0.000 A 
ATOM      2  C2  BNZ d   1       0.303   0.883  -0.216  0.00  0.00     0.000 A 
ATOM      3  C3  BNZ d   1      -0.515   0.188   0.630  0.00  0.00     0.000 A 
ATOM      4  C4  BNZ d   1      -0.438   0.411   1.958  0.00  0.00     0.000 A 
ATOM      5  C5  BNZ d   1       0.437   1.354   2.459  0.00  0.00     0.000 A 
ATOM      6  C6  BNZ d   1       1.231   2.080   1.600  0.00  0.00     0.000 A 
ENDROOT
TORSDOF 0
ENDMDL
