MODEL 1
REMARK minimizedAffinity -2.74129963
REMARK minimizedRMSD -1
REMARK  0 active torsions:
REMARK  status: ('A' for Active; 'I' for Inactive)
ROOT
ATOM      1  C1  BNZ d   1      -1.568  -0.339   0.875  0.00  0.00     0.000 A 
ATOM      2  C2  BNZ d   1      -1.288   0.904   1.377  0.00  0.00     0.000 A 
ATOM      3  C3  BNZ d   1      -0.182   1.594   0.963  0.00  0.00     0.000 A 
ATOM      4  C4  BNZ d   1       0.662   1.024   0.079  0.00  0.00     0.000 A 
ATOM      5  C5  BNZ d   1       0.398  -0.232  -0.429  0.00  0.00     0.000 A 
ATOM      6  C6  BNZ d   1      -0.736  -0.907  -0.040  0.00  0.00     0.000 A 
ENDROOT
TORSDOF 0
ENDMDL
