MODEL 1
REMARK minimizedAffinity -3.58363295
REMARK minimizedRMSD -1
REMARK  0 active torsions:
REMARK  status: ('A' for Active; 'I' for Inactive)
ROOT
ATOM      1  C1  BNZ d   1       0.982   0.664   0.051  0.00  0.00     0.000 A 
ATOM      2  C2  BNZ d   1       0.208   1.513   0.795  0.00  0.00     0.000 A 
ATOM      3  C3  BNZ d   1       0.778   2.509   1.539  0.00  0.00     0.000 A 
ATOM      4  C4  BNZ d   1       2.121   2.628   1.570  0.00  0.00     0.000 A 
ATOM      5  C5  BNZ d   1       2.915   1.773   0.832  0.00  0.00     0.000 A 
ATOM      6  C6  BNZ d   1       2.337   0.797   0.054  0.00  0.00     0.000 A 
ENDROOT
TORSDOF 0
ENDMDL
