MODEL 1
REMARK minimizedAffinity -3.91990423
REMARK minimizedRMSD -1
REMARK  0 active torsions:
REMARK  status: ('A' for Active; 'I' for Inactive)
ROOT
ATOM      1  C1  BNZ d   1      -0.819   0.451   1.654  0.00  0.00     0.000 A 
ATOM      2  C2  BNZ d   1      -0.088   1.551   2.017  0.00  0.00     0.000 A 
ATOM      3  C3  BNZ d   1       0.927   2.009   1.223  0.00  0.00     0.000 A 
ATOM      4  C4  BNZ d   1       1.235   1.345   0.091  0.00  0.00     0.000 A 
ATOM      5  C5  BNZ d   1       0.513   0.229  -0.283  0.00  0.00     0.000 A 
ATOM      6  C6  BNZ d   1      -0.533  -0.206   0.498  0.00  0.00     0.000 A 
ENDROOT
TORSDOF 0
ENDMDL
