MODEL 1
REMARK minimizedAffinity -5.06491613
REMARK minimizedRMSD -1
REMARK  0 active torsions:
REMARK  status: ('A' for Active; 'I' for Inactive)
ROOT
ATOM      1  C1  BNZ d   1       1.534   2.951   1.145  0.00  0.00     0.000 A 
ATOM      2  C2  BNZ d   1       2.875   2.684   1.082  0.00  0.00     0.000 A 
ATOM      3  C3  BNZ d   1       3.337   1.563   0.450  0.00  0.00     0.000 A 
ATOM      4  C4  BNZ d   1       2.456   0.692  -0.082  0.00  0.00     0.000 A 
ATOM      5  C5  BNZ d   1       1.100   0.943  -0.020  0.00  0.00     0.000 A 
ATOM      6  C6  BNZ d   1       0.641   2.092   0.583  0.00  0.00     0.000 A 
ENDROOT
TORSDOF 0
ENDMDL
