MODEL 1
REMARK minimizedAffinity -4.04567194
REMARK minimizedRMSD -1
REMARK  0 active torsions:
REMARK  status: ('A' for Active; 'I' for Inactive)
ROOT
ATOM      1  C1  BNZ d   1       0.325  -0.156  -0.024  0.00  0.00     0.000 A 
ATOM      2  C2  BNZ d   1       1.233   0.869   0.007  0.00  0.00     0.000 A 
ATOM      3  C3  BNZ d   1       1.075   1.918   0.869  0.00  0.00     0.000 A 
ATOM      4  C4  BNZ d   1      -0.009   1.961   1.670  0.00  0.00     0.000 A 
ATOM      5  C5  BNZ d   1      -0.938   0.939   1.644  0.00  0.00     0.000 A 
ATOM      6  C6  BNZ d   1      -0.756  -0.134   0.803  0.00  0.00     0.000 A 
ENDROOT
TORSDOF 0
ENDMDL
