MODEL 1
REMARK minimizedAffinity -4.63333607
REMARK minimizedRMSD -1
REMARK  0 active torsions:
REMARK  status: ('A' for Active; 'I' for Inactive)
ROOT
ATOM      1  C1  BNZ d   1      -1.279   0.158   1.705  0.00  0.00     0.000 A 
ATOM      2  C2  BNZ d   1      -0.711   1.385   1.918  0.00  0.00     0.000 A 
ATOM      3  C3  BNZ d   1       0.342   1.811   1.156  0.00  0.00     0.000 A 
ATOM      4  C4  BNZ d   1       0.850   0.993   0.212  0.00  0.00     0.000 A 
ATOM      5  C5  BNZ d   1       0.294  -0.251  -0.008  0.00  0.00     0.000 A 
ATOM      6  C6  BNZ d   1      -0.790  -0.660   0.734  0.00  0.00     0.000 A 
ENDROOT
TORSDOF 0
ENDMDL
