MODEL 1
REMARK minimizedAffinity -3.9715538
REMARK minimizedRMSD -1
REMARK  0 active torsions:
REMARK  status: ('A' for Active; 'I' for Inactive)
ROOT
ATOM      1  C1  BNZ d   1       1.949   2.034   0.352  0.00  0.00     0.000 A 
ATOM      2  C2  BNZ d   1       1.316   1.047  -0.355  0.00  0.00     0.000 A 
ATOM      3  C3  BNZ d   1       0.169   0.473   0.118  0.00  0.00     0.000 A 
ATOM      4  C4  BNZ d   1      -0.321   0.858   1.314  0.00  0.00     0.000 A 
ATOM      5  C5  BNZ d   1       0.311   1.846   2.043  0.00  0.00     0.000 A 
ATOM      6  C6  BNZ d   1       1.444   2.449   1.546  0.00  0.00     0.000 A 
ENDROOT
TORSDOF 0
ENDMDL
