MODEL 1
REMARK minimizedAffinity -1.8061918
REMARK minimizedRMSD -1
REMARK  0 active torsions:
REMARK  status: ('A' for Active; 'I' for Inactive)
ROOT
ATOM      1  C1  BNZ d   1      -1.175  -1.820  -1.230  0.00  0.00     0.000 A 
ATOM      2  C2  BNZ d   1      -2.359  -2.503  -1.313  0.00  0.00     0.000 A 
ATOM      3  C3  BNZ d   1      -3.106  -2.473  -2.458  0.00  0.00     0.000 A 
ATOM      4  C4  BNZ d   1      -2.688  -1.728  -3.502  0.00  0.00     0.000 A 
ATOM      5  C5  BNZ d   1      -1.501  -1.026  -3.430  0.00  0.00     0.000 A 
ATOM      6  C6  BNZ d   1      -0.733  -1.091  -2.290  0.00  0.00     0.000 A 
ENDROOT
TORSDOF 0
ENDMDL
