MODEL 1
REMARK minimizedAffinity -4.88772106
REMARK minimizedRMSD -1
REMARK  0 active torsions:
REMARK  status: ('A' for Active; 'I' for Inactive)
ROOT
ATOM      1  C1  BNZ d   1      -0.611   1.133   1.041  0.00  0.00     0.000 A 
ATOM      2  C2  BNZ d   1       0.122   2.145   1.602  0.00  0.00     0.000 A 
ATOM      3  C3  BNZ d   1       1.413   2.371   1.214  0.00  0.00     0.000 A 
ATOM      4  C4  BNZ d   1       1.982   1.562   0.298  0.00  0.00     0.000 A 
ATOM      5  C5  BNZ d   1       1.259   0.532  -0.270  0.00  0.00     0.000 A 
ATOM      6  C6  BNZ d   1      -0.053   0.331   0.093  0.00  0.00     0.000 A 
ENDROOT
TORSDOF 0
ENDMDL
