MODEL 1
REMARK minimizedAffinity -4.90201807
REMARK minimizedRMSD -1
REMARK  0 active torsions:
REMARK  status: ('A' for Active; 'I' for Inactive)
ROOT
ATOM      1  C1  BNZ d   1       0.056   1.088   1.606  0.00  0.00     0.000 A 
ATOM      2  C2  BNZ d   1       0.627   2.281   1.965  0.00  0.00     0.000 A 
ATOM      3  C3  BNZ d   1       1.780   2.712   1.371  0.00  0.00     0.000 A 
ATOM      4  C4  BNZ d   1       2.383   1.932   0.450  0.00  0.00     0.000 A 
ATOM      5  C5  BNZ d   1       1.825   0.723   0.084  0.00  0.00     0.000 A 
ATOM      6  C6  BNZ d   1       0.643   0.311   0.656  0.00  0.00     0.000 A 
ENDROOT
TORSDOF 0
ENDMDL
