MODEL 1
REMARK minimizedAffinity 5.98357582
REMARK minimizedRMSD -1
REMARK  2 active torsions:
REMARK  status: ('A' for Active; 'I' for Inactive)
REMARK    1  A    between atoms: C1_2  and  C2_3 
REMARK    2  A    between atoms: C2_3  and  C3_4 
ROOT
ATOM      1  C3  UNL d   1      -0.566   3.101   0.978  0.00  0.00    -0.075 A 
ATOM      2  C4  UNL d   1       0.627   2.555   1.473  0.00  0.00     0.002 A 
ATOM      3  C5  UNL d   1       0.648   1.897   2.703  0.00  0.00     0.002 A 
ATOM      4  C6  UNL d   1      -0.517   1.786   3.458  0.00  0.00    -0.004 A 
ATOM      5  C7  UNL d   1      -1.705   2.340   2.984  0.00  0.00     0.002 A 
ATOM      6  C8  UNL d   1      -1.730   2.995   1.751  0.00  0.00     0.002 A 
ENDROOT
BRANCH   1   7
ATOM      7  C2  UNL d   1      -0.603   3.788  -0.366  0.00  0.00     0.056 C 
BRANCH   7   8
ATOM      8  C1  UNL d   1      -1.107   2.899  -1.507  0.00  0.00     0.007 C 
ATOM      9  C   UNL d   1      -0.294   1.623  -1.678  0.00  0.00     0.009 C 
ENDBRANCH   7   8
ENDBRANCH   1   7
TORSDOF 2
ENDMDL
