MODEL 1
REMARK minimizedAffinity 5.30127907
REMARK minimizedRMSD -1
REMARK  2 active torsions:
REMARK  status: ('A' for Active; 'I' for Inactive)
REMARK    1  A    between atoms: C1_2  and  C2_3 
REMARK    2  A    between atoms: C2_3  and  C3_4 
ROOT
ATOM      1  C3  UNL d   1      -2.825   4.250  -3.689  0.00  0.00    -0.075 A 
ATOM      2  C4  UNL d   1      -3.872   4.260  -2.756  0.00  0.00     0.002 A 
ATOM      3  C5  UNL d   1      -5.105   4.827  -3.081  0.00  0.00     0.002 A 
ATOM      4  C6  UNL d   1      -5.303   5.398  -4.336  0.00  0.00    -0.004 A 
ATOM      5  C7  UNL d   1      -4.265   5.408  -5.264  0.00  0.00     0.002 A 
ATOM      6  C8  UNL d   1      -3.032   4.838  -4.944  0.00  0.00     0.002 A 
ENDROOT
BRANCH   1   7
ATOM      7  C2  UNL d   1      -1.498   3.612  -3.354  0.00  0.00     0.056 C 
BRANCH   7   8
ATOM      8  C1  UNL d   1      -1.520   2.759  -2.081  0.00  0.00     0.007 C 
ATOM      9  C   UNL d   1      -0.612   1.538  -2.162  0.00  0.00     0.009 C 
ENDBRANCH   7   8
ENDBRANCH   1   7
TORSDOF 2
ENDMDL
