MODEL 1
REMARK minimizedAffinity -0.426574022
REMARK minimizedRMSD -1
REMARK  2 active torsions:
REMARK  status: ('A' for Active; 'I' for Inactive)
REMARK    1  A    between atoms: C1_2  and  C2_3 
REMARK    2  A    between atoms: C2_3  and  C3_4 
ROOT
ATOM      1  C3  UNL d   1      -0.382   2.293   1.184  0.00  0.00    -0.075 A 
ATOM      2  C4  UNL d   1      -0.425   1.420   0.088  0.00  0.00     0.002 A 
ATOM      3  C5  UNL d   1      -0.426   1.918  -1.215  0.00  0.00     0.002 A 
ATOM      4  C6  UNL d   1      -0.395   3.293  -1.438  0.00  0.00    -0.004 A 
ATOM      5  C7  UNL d   1      -0.369   4.170  -0.356  0.00  0.00     0.002 A 
ATOM      6  C8  UNL d   1      -0.363   3.674   0.948  0.00  0.00     0.002 A 
ENDROOT
BRANCH   1   7
ATOM      7  C2  UNL d   1      -0.350   1.759   2.596  0.00  0.00     0.056 C 
BRANCH   7   8
ATOM      8  C1  UNL d   1       0.403   0.433   2.745  0.00  0.00     0.007 C 
ATOM      9  C   UNL d   1       0.020  -0.337   4.002  0.00  0.00     0.009 C 
ENDBRANCH   7   8
ENDBRANCH   1   7
TORSDOF 2
ENDMDL
