MODEL 1
REMARK minimizedAffinity -1.59354103
REMARK minimizedRMSD -1
REMARK  2 active torsions:
REMARK  status: ('A' for Active; 'I' for Inactive)
REMARK    1  A    between atoms: C1_2  and  C2_3 
REMARK    2  A    between atoms: C2_3  and  C3_4 
ROOT
ATOM      1  C3  UNL d   1      -0.005   1.332   0.987  0.00  0.00    -0.075 A 
ATOM      2  C4  UNL d   1      -0.635   2.504   0.548  0.00  0.00     0.002 A 
ATOM      3  C5  UNL d   1      -1.519   3.189   1.383  0.00  0.00     0.002 A 
ATOM      4  C6  UNL d   1      -1.790   2.707   2.661  0.00  0.00    -0.004 A 
ATOM      5  C7  UNL d   1      -1.182   1.533   3.102  0.00  0.00     0.002 A 
ATOM      6  C8  UNL d   1      -0.294   0.848   2.270  0.00  0.00     0.002 A 
ENDROOT
BRANCH   1   7
ATOM      7  C2  UNL d   1       0.975   0.602   0.100  0.00  0.00     0.056 C 
BRANCH   7   8
ATOM      8  C1  UNL d   1       0.362   0.070  -1.200  0.00  0.00     0.007 C 
ATOM      9  C   UNL d   1       0.291   1.117  -2.303  0.00  0.00     0.009 C 
ENDBRANCH   7   8
ENDBRANCH   1   7
TORSDOF 2
ENDMDL
