MODEL 1
REMARK minimizedAffinity 1.05248976
REMARK minimizedRMSD -1
REMARK  2 active torsions:
REMARK  status: ('A' for Active; 'I' for Inactive)
REMARK    1  A    between atoms: C1_2  and  C2_3 
REMARK    2  A    between atoms: C2_3  and  C3_4 
ROOT
ATOM      1  C3  UNL d   1      -1.261   1.427   2.841  0.00  0.00    -0.075 A 
ATOM      2  C4  UNL d   1      -2.044   2.552   3.137  0.00  0.00     0.002 A 
ATOM      3  C5  UNL d   1      -2.164   3.594   2.218  0.00  0.00     0.002 A 
ATOM      4  C6  UNL d   1      -1.496   3.531   0.997  0.00  0.00    -0.004 A 
ATOM      5  C7  UNL d   1      -0.702   2.426   0.699  0.00  0.00     0.002 A 
ATOM      6  C8  UNL d   1      -0.583   1.379   1.615  0.00  0.00     0.002 A 
ENDROOT
BRANCH   1   7
ATOM      7  C2  UNL d   1      -1.151   0.282   3.819  0.00  0.00     0.056 C 
BRANCH   7   8
ATOM      8  C1  UNL d   1       0.034  -0.652   3.555  0.00  0.00     0.007 C 
ATOM      9  C   UNL d   1       0.333  -1.588   4.719  0.00  0.00     0.009 C 
ENDBRANCH   7   8
ENDBRANCH   1   7
TORSDOF 2
ENDMDL
