MODEL 1
REMARK minimizedAffinity 0.73016119
REMARK minimizedRMSD -1
REMARK  2 active torsions:
REMARK  status: ('A' for Active; 'I' for Inactive)
REMARK    1  A    between atoms: C1_2  and  C2_3 
REMARK    2  A    between atoms: C2_3  and  C3_4 
ROOT
ATOM      1  C3  UNL d   1      -0.031   0.076   2.817  0.00  0.00    -0.075 A 
ATOM      2  C4  UNL d   1       0.343   0.239   1.476  0.00  0.00     0.002 A 
ATOM      3  C5  UNL d   1       0.398   1.511   0.906  0.00  0.00     0.002 A 
ATOM      4  C6  UNL d   1       0.070   2.633   1.664  0.00  0.00    -0.004 A 
ATOM      5  C7  UNL d   1      -0.320   2.481   2.993  0.00  0.00     0.002 A 
ATOM      6  C8  UNL d   1      -0.371   1.210   3.568  0.00  0.00     0.002 A 
ENDROOT
BRANCH   1   7
ATOM      7  C2  UNL d   1      -0.064  -1.295   3.449  0.00  0.00     0.056 C 
BRANCH   7   8
ATOM      8  C1  UNL d   1       0.429  -1.326   4.899  0.00  0.00     0.007 C 
ATOM      9  C   UNL d   1       1.124  -2.629   5.270  0.00  0.00     0.009 C 
ENDBRANCH   7   8
ENDBRANCH   1   7
TORSDOF 2
ENDMDL
