MODEL 1
REMARK minimizedAffinity 6.67372084
REMARK minimizedRMSD -1
REMARK  2 active torsions:
REMARK  status: ('A' for Active; 'I' for Inactive)
REMARK    1  A    between atoms: C1_2  and  C2_3 
REMARK    2  A    between atoms: C2_3  and  C3_4 
ROOT
ATOM      1  C3  UNL d   1      -1.677   1.398  -0.349  0.00  0.00    -0.075 A 
ATOM      2  C4  UNL d   1      -2.758   0.516  -0.489  0.00  0.00     0.002 A 
ATOM      3  C5  UNL d   1      -2.571  -0.753  -1.038  0.00  0.00     0.002 A 
ATOM      4  C6  UNL d   1      -1.305  -1.151  -1.462  0.00  0.00    -0.004 A 
ATOM      5  C7  UNL d   1      -0.227  -0.277  -1.343  0.00  0.00     0.002 A 
ATOM      6  C8  UNL d   1      -0.411   0.992  -0.790  0.00  0.00     0.002 A 
ENDROOT
BRANCH   1   7
ATOM      7  C2  UNL d   1      -1.868   2.762   0.271  0.00  0.00     0.056 C 
BRANCH   7   8
ATOM      8  C1  UNL d   1      -1.759   2.772   1.800  0.00  0.00     0.007 C 
ATOM      9  C   UNL d   1      -0.327   2.644   2.301  0.00  0.00     0.009 C 
ENDBRANCH   7   8
ENDBRANCH   1   7
TORSDOF 2
ENDMDL
