MODEL 1
REMARK minimizedAffinity -0.946445048
REMARK minimizedRMSD -1
REMARK  2 active torsions:
REMARK  status: ('A' for Active; 'I' for Inactive)
REMARK    1  A    between atoms: C1_2  and  C2_3 
REMARK    2  A    between atoms: C2_3  and  C3_4 
ROOT
ATOM      1  C3  UNL d   1      -0.036   2.627   1.664  0.00  0.00    -0.075 A 
ATOM      2  C4  UNL d   1      -1.416   2.870   1.610  0.00  0.00     0.002 A 
ATOM      3  C5  UNL d   1      -1.949   3.711   0.632  0.00  0.00     0.002 A 
ATOM      4  C6  UNL d   1      -1.111   4.325  -0.295  0.00  0.00    -0.004 A 
ATOM      5  C7  UNL d   1       0.264   4.104  -0.241  0.00  0.00     0.002 A 
ATOM      6  C8  UNL d   1       0.800   3.260   0.734  0.00  0.00     0.002 A 
ENDROOT
BRANCH   1   7
ATOM      7  C2  UNL d   1       0.545   1.696   2.701  0.00  0.00     0.056 C 
BRANCH   7   8
ATOM      8  C1  UNL d   1      -0.436   0.628   3.199  0.00  0.00     0.007 C 
ATOM      9  C   UNL d   1       0.256  -0.589   3.798  0.00  0.00     0.009 C 
ENDBRANCH   7   8
ENDBRANCH   1   7
TORSDOF 2
ENDMDL
