MODEL 1
REMARK minimizedAffinity 5.7848649
REMARK minimizedRMSD -1
REMARK  0 active torsions:
REMARK  status: ('A' for Active; 'I' for Inactive)
ROOT
ATOM      1  C   UNL d   1       5.310   0.921  -3.780  0.00  0.00     0.077 C 
ATOM      2  C1  UNL d   1       4.577   0.889  -2.471  0.00  0.00    -0.074 A 
ATOM      3  C2  UNL d   1       3.400   0.148  -2.324  0.00  0.00    -0.005 A 
ATOM      4  C3  UNL d   1       2.735   0.120  -1.099  0.00  0.00     0.006 A 
ATOM      5  C4  UNL d   1       3.239   0.832  -0.009  0.00  0.00    -0.005 A 
ATOM      6  C5  UNL d   1       4.415   1.577  -0.137  0.00  0.00    -0.074 A 
ATOM      7  C6  UNL d   1       4.976   2.340   1.027  0.00  0.00     0.077 C 
ATOM      8  C7  UNL d   1       5.082   1.595  -1.370  0.00  0.00    -0.001 A 
ENDROOT
TORSDOF 0
ENDMDL
