MODEL 1
REMARK minimizedAffinity 5.39960384
REMARK minimizedRMSD -1
REMARK  0 active torsions:
REMARK  status: ('A' for Active; 'I' for Inactive)
ROOT
ATOM      1  C   UNL d   1      -3.433   2.948   2.007  0.00  0.00     0.077 C 
ATOM      2  C1  UNL d   1      -3.739   1.856   1.026  0.00  0.00    -0.074 A 
ATOM      3  C2  UNL d   1      -5.040   1.363   0.881  0.00  0.00    -0.005 A 
ATOM      4  C3  UNL d   1      -5.310   0.353  -0.043  0.00  0.00     0.006 A 
ATOM      5  C4  UNL d   1      -4.285  -0.173  -0.829  0.00  0.00    -0.005 A 
ATOM      6  C5  UNL d   1      -2.978   0.307  -0.698  0.00  0.00    -0.074 A 
ATOM      7  C6  UNL d   1      -1.866  -0.241  -1.542  0.00  0.00     0.077 C 
ATOM      8  C7  UNL d   1      -2.715   1.327   0.227  0.00  0.00    -0.001 A 
ENDROOT
TORSDOF 0
ENDMDL
