MODEL 1
REMARK minimizedAffinity 4.79687023
REMARK minimizedRMSD -1
REMARK  0 active torsions:
REMARK  status: ('A' for Active; 'I' for Inactive)
ROOT
ATOM      1  C   UNL d   1       3.078   1.455   5.997  0.00  0.00     0.077 C 
ATOM      2  C1  UNL d   1       2.575   2.811   5.600  0.00  0.00    -0.074 A 
ATOM      3  C2  UNL d   1       1.311   3.255   6.000  0.00  0.00    -0.005 A 
ATOM      4  C3  UNL d   1       0.861   4.522   5.630  0.00  0.00     0.006 A 
ATOM      5  C4  UNL d   1       1.669   5.358   4.858  0.00  0.00    -0.005 A 
ATOM      6  C5  UNL d   1       2.936   4.931   4.449  0.00  0.00    -0.074 A 
ATOM      7  C6  UNL d   1       3.822   5.820   3.627  0.00  0.00     0.077 C 
ATOM      8  C7  UNL d   1       3.384   3.659   4.830  0.00  0.00    -0.001 A 
ENDROOT
TORSDOF 0
ENDMDL
