MODEL 1
REMARK minimizedAffinity 2.07971287
REMARK minimizedRMSD -1
REMARK  0 active torsions:
REMARK  status: ('A' for Active; 'I' for Inactive)
ROOT
ATOM      1  C   UNL d   1       6.000   2.231   1.493  0.00  0.00     0.077 C 
ATOM      2  C1  UNL d   1       4.842   1.826   0.630  0.00  0.00    -0.074 A 
ATOM      3  C2  UNL d   1       3.985   2.785   0.081  0.00  0.00    -0.005 A 
ATOM      4  C3  UNL d   1       2.918   2.394  -0.728  0.00  0.00     0.006 A 
ATOM      5  C4  UNL d   1       2.698   1.042  -0.996  0.00  0.00    -0.005 A 
ATOM      6  C5  UNL d   1       3.546   0.069  -0.457  0.00  0.00    -0.074 A 
ATOM      7  C6  UNL d   1       3.329  -1.387  -0.743  0.00  0.00     0.077 C 
ATOM      8  C7  UNL d   1       4.620   0.471   0.349  0.00  0.00    -0.001 A 
ENDROOT
TORSDOF 0
ENDMDL
