MODEL 1
REMARK minimizedAffinity 5.6548543
REMARK minimizedRMSD -1
REMARK  0 active torsions:
REMARK  status: ('A' for Active; 'I' for Inactive)
ROOT
ATOM      1  C   UNL d   1       2.714   0.002  -0.768  0.00  0.00     0.077 C 
ATOM      2  C1  UNL d   1       3.861   0.870  -0.341  0.00  0.00    -0.074 A 
ATOM      3  C2  UNL d   1       4.936   0.337   0.377  0.00  0.00    -0.005 A 
ATOM      4  C3  UNL d   1       6.000   1.154   0.759  0.00  0.00     0.006 A 
ATOM      5  C4  UNL d   1       6.000   2.510   0.427  0.00  0.00    -0.005 A 
ATOM      6  C5  UNL d   1       4.933   3.059  -0.292  0.00  0.00    -0.074 A 
ATOM      7  C6  UNL d   1       4.922   4.512  -0.666  0.00  0.00     0.077 C 
ATOM      8  C7  UNL d   1       3.871   2.230  -0.678  0.00  0.00    -0.001 A 
ENDROOT
TORSDOF 0
ENDMDL
