MODEL 1
REMARK minimizedAffinity 7.34546185
REMARK minimizedRMSD -1
REMARK  0 active torsions:
REMARK  status: ('A' for Active; 'I' for Inactive)
ROOT
ATOM      1  C   UNL d   1      -4.721   0.582  -5.497  0.00  0.00     0.077 C 
ATOM      2  C1  UNL d   1      -4.049   0.203  -4.210  0.00  0.00    -0.074 A 
ATOM      3  C2  UNL d   1      -2.680  -0.078  -4.170  0.00  0.00    -0.005 A 
ATOM      4  C3  UNL d   1      -2.067  -0.420  -2.965  0.00  0.00     0.006 A 
ATOM      5  C4  UNL d   1      -2.816  -0.485  -1.790  0.00  0.00    -0.005 A 
ATOM      6  C5  UNL d   1      -4.186  -0.207  -1.810  0.00  0.00    -0.074 A 
ATOM      7  C6  UNL d   1      -5.004  -0.263  -0.554  0.00  0.00     0.077 C 
ATOM      8  C7  UNL d   1      -4.794   0.143  -3.024  0.00  0.00    -0.001 A 
ENDROOT
TORSDOF 0
ENDMDL
