MODEL 1
REMARK minimizedAffinity -0.379473329
REMARK minimizedRMSD -1
REMARK  0 active torsions:
REMARK  status: ('A' for Active; 'I' for Inactive)
ROOT
ATOM      1  C   UNL d   1       6.000   4.211  -1.135  0.00  0.00     0.077 C 
ATOM      2  C1  UNL d   1       5.227   2.980  -0.764  0.00  0.00    -0.074 A 
ATOM      3  C2  UNL d   1       4.836   2.747   0.558  0.00  0.00    -0.005 A 
ATOM      4  C3  UNL d   1       4.110   1.603   0.886  0.00  0.00     0.006 A 
ATOM      5  C4  UNL d   1       3.768   0.680  -0.104  0.00  0.00    -0.005 A 
ATOM      6  C5  UNL d   1       4.150   0.896  -1.432  0.00  0.00    -0.074 A 
ATOM      7  C6  UNL d   1       3.783  -0.081  -2.509  0.00  0.00     0.077 C 
ATOM      8  C7  UNL d   1       4.874   2.052  -1.754  0.00  0.00    -0.001 A 
ENDROOT
TORSDOF 0
ENDMDL
