MODEL 1
REMARK minimizedAffinity -2.03601575
REMARK minimizedRMSD -1
REMARK  0 active torsions:
REMARK  status: ('A' for Active; 'I' for Inactive)
ROOT
ATOM      1  C   UNL d   1       2.962  -1.962   0.451  0.00  0.00     0.077 C 
ATOM      2  C1  UNL d   1       3.463  -0.665  -0.111  0.00  0.00    -0.074 A 
ATOM      3  C2  UNL d   1       3.135  -0.272  -1.413  0.00  0.00    -0.005 A 
ATOM      4  C3  UNL d   1       3.602   0.942  -1.919  0.00  0.00     0.006 A 
ATOM      5  C4  UNL d   1       4.399   1.772  -1.130  0.00  0.00    -0.005 A 
ATOM      6  C5  UNL d   1       4.737   1.395   0.173  0.00  0.00    -0.074 A 
ATOM      7  C6  UNL d   1       5.585   2.280   1.038  0.00  0.00     0.077 C 
ATOM      8  C7  UNL d   1       4.259   0.178   0.677  0.00  0.00    -0.001 A 
ENDROOT
TORSDOF 0
ENDMDL
