MODEL 1
REMARK minimizedAffinity 2.56427455
REMARK minimizedRMSD -1
REMARK  0 active torsions:
REMARK  status: ('A' for Active; 'I' for Inactive)
ROOT
ATOM      1  C   UNL d   1       2.527  -3.349  -1.500  0.00  0.00     0.077 C 
ATOM      2  C1  UNL d   1       3.113  -1.969  -1.554  0.00  0.00    -0.074 A 
ATOM      3  C2  UNL d   1       3.534  -1.414  -2.767  0.00  0.00    -0.005 A 
ATOM      4  C3  UNL d   1       4.068  -0.126  -2.803  0.00  0.00     0.006 A 
ATOM      5  C4  UNL d   1       4.187   0.618  -1.628  0.00  0.00    -0.005 A 
ATOM      6  C5  UNL d   1       3.771   0.080  -0.406  0.00  0.00    -0.074 A 
ATOM      7  C6  UNL d   1       3.883   0.870   0.864  0.00  0.00     0.077 C 
ATOM      8  C7  UNL d   1       3.229  -1.212  -0.379  0.00  0.00    -0.001 A 
ENDROOT
TORSDOF 0
ENDMDL
