MODEL 1
REMARK minimizedAffinity -2.37070727
REMARK minimizedRMSD -1
REMARK  2 active torsions:
REMARK  status: ('A' for Active; 'I' for Inactive)
REMARK    1  A    between atoms: C2'_3  and  C1'_4 
REMARK    2  A    between atoms: C1'_4  and  C1_5 
ROOT
ATOM      1  C1  I4B d   1       5.725  -4.218   3.556  0.00  0.00    -0.075 A 
ATOM      2  C2  I4B d   1       6.000  -2.882   3.706  0.00  0.00     0.003 A 
ATOM      3  C3  I4B d   1       5.784  -2.245   4.952  0.00  0.00     0.002 A 
ATOM      4  C4  I4B d   1       5.249  -2.966   6.000  0.00  0.00    -0.004 A 
ATOM      5  C5  I4B d   1       4.992  -4.326   5.853  0.00  0.00     0.002 A 
ATOM      6  C6  I4B d   1       5.243  -4.959   4.627  0.00  0.00     0.003 A 
ENDROOT
BRANCH   1   7
ATOM      7  C1' I4B d   1       5.933  -4.851   2.217  0.00  0.00     0.060 C 
BRANCH   7   8
ATOM      8  C2' I4B d   1       5.789  -3.772   1.163  0.00  0.00    -0.013 C 
ATOM      9  C4' I4B d   1       5.999  -4.330  -0.220  0.00  0.00     0.013 C 
ATOM     10  C3' I4B d   1       4.422  -3.170   1.302  0.00  0.00     0.013 C 
ENDBRANCH   7   8
ENDBRANCH   1   7
TORSDOF 2
ENDMDL
