MODEL 1
REMARK minimizedAffinity -2.234303
REMARK minimizedRMSD -1
REMARK  2 active torsions:
REMARK  status: ('A' for Active; 'I' for Inactive)
REMARK    1  A    between atoms: C2'_3  and  C1'_4 
REMARK    2  A    between atoms: C1'_4  and  C1_5 
ROOT
ATOM      1  C1  I4B d   1       4.966  -4.678   3.973  0.00  0.00    -0.075 A 
ATOM      2  C2  I4B d   1       5.570  -5.395   4.975  0.00  0.00     0.003 A 
ATOM      3  C3  I4B d   1       4.790  -5.994   5.994  0.00  0.00     0.002 A 
ATOM      4  C4  I4B d   1       3.422  -5.809   5.999  0.00  0.00    -0.004 A 
ATOM      5  C5  I4B d   1       2.809  -5.100   4.969  0.00  0.00     0.002 A 
ATOM      6  C6  I4B d   1       3.585  -4.542   3.943  0.00  0.00     0.003 A 
ENDROOT
BRANCH   1   7
ATOM      7  C1' I4B d   1       5.824  -4.032   2.932  0.00  0.00     0.060 C 
BRANCH   7   8
ATOM      8  C2' I4B d   1       5.371  -2.594   2.781  0.00  0.00    -0.013 C 
ATOM      9  C4' I4B d   1       5.742  -1.776   3.989  0.00  0.00     0.013 C 
ATOM     10  C3' I4B d   1       6.000  -2.039   1.537  0.00  0.00     0.013 C 
ENDBRANCH   7   8
ENDBRANCH   1   7
TORSDOF 2
ENDMDL
