MODEL 1
REMARK minimizedAffinity -1.50925469
REMARK minimizedRMSD -1
REMARK  2 active torsions:
REMARK  status: ('A' for Active; 'I' for Inactive)
REMARK    1  A    between atoms: C2'_3  and  C1'_4 
REMARK    2  A    between atoms: C1'_4  and  C1_5 
ROOT
ATOM      1  C1  I4B d   1       5.878  -4.040   3.525  0.00  0.00    -0.075 A 
ATOM      2  C2  I4B d   1       5.931  -2.670   3.569  0.00  0.00     0.003 A 
ATOM      3  C3  I4B d   1       5.999  -1.999   4.815  0.00  0.00     0.002 A 
ATOM      4  C4  I4B d   1       5.961  -2.731   5.984  0.00  0.00    -0.004 A 
ATOM      5  C5  I4B d   1       5.930  -4.121   5.936  0.00  0.00     0.002 A 
ATOM      6  C6  I4B d   1       5.901  -4.781   4.699  0.00  0.00     0.003 A 
ENDROOT
BRANCH   1   7
ATOM      7  C1' I4B d   1       5.774  -4.715   2.194  0.00  0.00     0.060 C 
BRANCH   7   8
ATOM      8  C2' I4B d   1       5.560  -3.644   1.144  0.00  0.00    -0.013 C 
ATOM      9  C4' I4B d   1       5.767  -4.192  -0.244  0.00  0.00     0.013 C 
ATOM     10  C3' I4B d   1       4.172  -3.102   1.310  0.00  0.00     0.013 C 
ENDBRANCH   7   8
ENDBRANCH   1   7
TORSDOF 2
ENDMDL
