MODEL 1
REMARK minimizedAffinity -2.3997438
REMARK minimizedRMSD -1
REMARK  2 active torsions:
REMARK  status: ('A' for Active; 'I' for Inactive)
REMARK    1  A    between atoms: C2'_3  and  C1'_4 
REMARK    2  A    between atoms: C1'_4  and  C1_5 
ROOT
ATOM      1  C1  I4B d   1       5.795  -3.659   3.583  0.00  0.00    -0.075 A 
ATOM      2  C2  I4B d   1       5.635  -2.980   4.765  0.00  0.00     0.003 A 
ATOM      3  C3  I4B d   1       5.666  -3.678   5.997  0.00  0.00     0.002 A 
ATOM      4  C4  I4B d   1       5.809  -5.050   5.998  0.00  0.00    -0.004 A 
ATOM      5  C5  I4B d   1       5.994  -5.734   4.800  0.00  0.00     0.002 A 
ATOM      6  C6  I4B d   1       6.000  -5.033   3.585  0.00  0.00     0.003 A 
ENDROOT
BRANCH   1   7
ATOM      7  C1' I4B d   1       5.723  -2.896   2.299  0.00  0.00     0.060 C 
BRANCH   7   8
ATOM      8  C2' I4B d   1       4.962  -3.740   1.296  0.00  0.00    -0.013 C 
ATOM      9  C4' I4B d   1       4.115  -2.882   0.393  0.00  0.00     0.013 C 
ATOM     10  C3' I4B d   1       5.960  -4.535   0.508  0.00  0.00     0.013 C 
ENDBRANCH   7   8
ENDBRANCH   1   7
TORSDOF 2
ENDMDL
