MODEL 1
REMARK minimizedAffinity -1.19444573
REMARK minimizedRMSD -1
REMARK  2 active torsions:
REMARK  status: ('A' for Active; 'I' for Inactive)
REMARK    1  A    between atoms: C2'_3  and  C1'_4 
REMARK    2  A    between atoms: C1'_4  and  C1_5 
ROOT
ATOM      1  C1  I4B d   1       5.925  -4.062   2.722  0.00  0.00    -0.075 A 
ATOM      2  C2  I4B d   1       5.931  -2.879   3.418  0.00  0.00     0.003 A 
ATOM      3  C3  I4B d   1       5.896  -1.645   2.725  0.00  0.00     0.002 A 
ATOM      4  C4  I4B d   1       5.906  -1.639   1.345  0.00  0.00    -0.004 A 
ATOM      5  C5  I4B d   1       5.876  -2.840   0.642  0.00  0.00     0.002 A 
ATOM      6  C6  I4B d   1       5.874  -4.060   1.334  0.00  0.00     0.003 A 
ENDROOT
BRANCH   1   7
ATOM      7  C1' I4B d   1       5.996  -5.347   3.485  0.00  0.00     0.060 C 
BRANCH   7   8
ATOM      8  C2' I4B d   1       5.155  -5.195   4.736  0.00  0.00    -0.013 C 
ATOM      9  C4' I4B d   1       3.757  -5.713   4.519  0.00  0.00     0.013 C 
ATOM     10  C3' I4B d   1       5.840  -5.933   5.847  0.00  0.00     0.013 C 
ENDBRANCH   7   8
ENDBRANCH   1   7
TORSDOF 2
ENDMDL
