MODEL 1
REMARK minimizedAffinity 0.802563488
REMARK minimizedRMSD -1
REMARK  2 active torsions:
REMARK  status: ('A' for Active; 'I' for Inactive)
REMARK    1  A    between atoms: C2'_3  and  C1'_4 
REMARK    2  A    between atoms: C1'_4  and  C1_5 
ROOT
ATOM      1  C1  I4B d   1       4.024  -3.279   3.933  0.00  0.00    -0.075 A 
ATOM      2  C2  I4B d   1       5.062  -2.407   4.151  0.00  0.00     0.003 A 
ATOM      3  C3  I4B d   1       5.999  -2.657   5.183  0.00  0.00     0.002 A 
ATOM      4  C4  I4B d   1       5.833  -3.757   6.000  0.00  0.00    -0.004 A 
ATOM      5  C5  I4B d   1       4.793  -4.652   5.763  0.00  0.00     0.002 A 
ATOM      6  C6  I4B d   1       3.890  -4.418   4.716  0.00  0.00     0.003 A 
ENDROOT
BRANCH   1   7
ATOM      7  C1' I4B d   1       3.034  -2.966   2.857  0.00  0.00     0.060 C 
BRANCH   7   8
ATOM      8  C2' I4B d   1       3.655  -3.345   1.527  0.00  0.00    -0.013 C 
ATOM      9  C4' I4B d   1       2.655  -3.236   0.407  0.00  0.00     0.013 C 
ATOM     10  C3' I4B d   1       4.831  -2.444   1.292  0.00  0.00     0.013 C 
ENDBRANCH   7   8
ENDBRANCH   1   7
TORSDOF 2
ENDMDL
