MODEL 1
REMARK minimizedAffinity 2.3726263
REMARK minimizedRMSD -1
REMARK  2 active torsions:
REMARK  status: ('A' for Active; 'I' for Inactive)
REMARK    1  A    between atoms: C2'_3  and  C1'_4 
REMARK    2  A    between atoms: C1'_4  and  C1_5 
ROOT
ATOM      1  C1  I4B d   1       5.931  -3.430   3.504  0.00  0.00    -0.075 A 
ATOM      2  C2  I4B d   1       5.864  -2.146   3.023  0.00  0.00     0.003 A 
ATOM      3  C3  I4B d   1       5.835  -1.909   1.627  0.00  0.00     0.002 A 
ATOM      4  C4  I4B d   1       5.925  -2.974   0.754  0.00  0.00    -0.004 A 
ATOM      5  C5  I4B d   1       5.969  -4.276   1.244  0.00  0.00     0.002 A 
ATOM      6  C6  I4B d   1       5.960  -4.507   2.627  0.00  0.00     0.003 A 
ENDROOT
BRANCH   1   7
ATOM      7  C1' I4B d   1       5.994  -3.643   4.983  0.00  0.00     0.060 C 
BRANCH   7   8
ATOM      8  C2' I4B d   1       5.096  -4.815   5.325  0.00  0.00    -0.013 C 
ATOM      9  C4' I4B d   1       4.132  -5.107   4.205  0.00  0.00     0.013 C 
ATOM     10  C3' I4B d   1       5.970  -5.999   5.611  0.00  0.00     0.013 C 
ENDBRANCH   7   8
ENDBRANCH   1   7
TORSDOF 2
ENDMDL
