MODEL 1
REMARK minimizedAffinity 0.494087338
REMARK minimizedRMSD -1
REMARK  2 active torsions:
REMARK  status: ('A' for Active; 'I' for Inactive)
REMARK    1  A    between atoms: C2'_3  and  C1'_4 
REMARK    2  A    between atoms: C1'_4  and  C1_5 
ROOT
ATOM      1  C1  I4B d   1       5.956  -3.462   3.121  0.00  0.00    -0.075 A 
ATOM      2  C2  I4B d   1       5.967  -4.691   3.733  0.00  0.00     0.003 A 
ATOM      3  C3  I4B d   1       6.000  -5.874   2.956  0.00  0.00     0.002 A 
ATOM      4  C4  I4B d   1       5.971  -5.784   1.579  0.00  0.00    -0.004 A 
ATOM      5  C5  I4B d   1       5.984  -4.537   0.960  0.00  0.00     0.002 A 
ATOM      6  C6  I4B d   1       5.989  -3.368   1.736  0.00  0.00     0.003 A 
ENDROOT
BRANCH   1   7
ATOM      7  C1' I4B d   1       5.888  -2.234   3.972  0.00  0.00     0.060 C 
BRANCH   7   8
ATOM      8  C2' I4B d   1       5.045  -2.556   5.189  0.00  0.00    -0.013 C 
ATOM      9  C4' I4B d   1       3.653  -2.973   4.793  0.00  0.00     0.013 C 
ATOM     10  C3' I4B d   1       5.737  -3.641   5.958  0.00  0.00     0.013 C 
ENDBRANCH   7   8
ENDBRANCH   1   7
TORSDOF 2
ENDMDL
