MODEL 1
REMARK minimizedAffinity -1.32049525
REMARK minimizedRMSD -1
REMARK  2 active torsions:
REMARK  status: ('A' for Active; 'I' for Inactive)
REMARK    1  A    between atoms: C2'_3  and  C1'_4 
REMARK    2  A    between atoms: C1'_4  and  C1_5 
ROOT
ATOM      1  C1  I4B d   1       5.485  -4.427   3.682  0.00  0.00    -0.075 A 
ATOM      2  C2  I4B d   1       5.896  -3.139   3.916  0.00  0.00     0.003 A 
ATOM      3  C3  I4B d   1       5.509  -2.472   5.104  0.00  0.00     0.002 A 
ATOM      4  C4  I4B d   1       4.674  -3.109   6.000  0.00  0.00    -0.004 A 
ATOM      5  C5  I4B d   1       4.277  -4.423   5.771  0.00  0.00     0.002 A 
ATOM      6  C6  I4B d   1       4.694  -5.091   4.611  0.00  0.00     0.003 A 
ENDROOT
BRANCH   1   7
ATOM      7  C1' I4B d   1       5.885  -5.090   2.402  0.00  0.00     0.060 C 
BRANCH   7   8
ATOM      8  C2' I4B d   1       6.000  -4.017   1.337  0.00  0.00    -0.013 C 
ATOM      9  C4' I4B d   1       5.981  -4.617  -0.044  0.00  0.00     0.013 C 
ATOM     10  C3' I4B d   1       4.865  -3.055   1.525  0.00  0.00     0.013 C 
ENDBRANCH   7   8
ENDBRANCH   1   7
TORSDOF 2
ENDMDL
