MODEL 1
REMARK minimizedAffinity -1.46471083
REMARK minimizedRMSD -1
REMARK  2 active torsions:
REMARK  status: ('A' for Active; 'I' for Inactive)
REMARK    1  A    between atoms: C2'_3  and  C1'_4 
REMARK    2  A    between atoms: C1'_4  and  C1_5 
ROOT
ATOM      1  C1  I4B d   1       4.224  -3.289   4.695  0.00  0.00    -0.075 A 
ATOM      2  C2  I4B d   1       3.126  -3.059   3.905  0.00  0.00     0.003 A 
ATOM      3  C3  I4B d   1       1.908  -3.733   4.164  0.00  0.00     0.002 A 
ATOM      4  C4  I4B d   1       1.847  -4.660   5.184  0.00  0.00    -0.004 A 
ATOM      5  C5  I4B d   1       2.955  -4.875   5.998  0.00  0.00     0.002 A 
ATOM      6  C6  I4B d   1       4.148  -4.177   5.761  0.00  0.00     0.003 A 
ENDROOT
BRANCH   1   7
ATOM      7  C1' I4B d   1       5.504  -2.585   4.373  0.00  0.00     0.060 C 
BRANCH   7   8
ATOM      8  C2' I4B d   1       5.996  -3.099   3.036  0.00  0.00    -0.013 C 
ATOM      9  C4' I4B d   1       5.136  -4.229   2.536  0.00  0.00     0.013 C 
ATOM     10  C3' I4B d   1       5.997  -1.951   2.071  0.00  0.00     0.013 C 
ENDBRANCH   7   8
ENDBRANCH   1   7
TORSDOF 2
ENDMDL
