MODEL 1
REMARK minimizedAffinity -0.643940628
REMARK minimizedRMSD -1
REMARK  2 active torsions:
REMARK  status: ('A' for Active; 'I' for Inactive)
REMARK    1  A    between atoms: C2'_3  and  C1'_4 
REMARK    2  A    between atoms: C1'_4  and  C1_5 
ROOT
ATOM      1  C1  I4B d   1       5.592  -3.395   4.321  0.00  0.00    -0.075 A 
ATOM      2  C2  I4B d   1       4.837  -3.445   5.465  0.00  0.00     0.003 A 
ATOM      3  C3  I4B d   1       4.433  -4.693   6.000  0.00  0.00     0.002 A 
ATOM      4  C4  I4B d   1       4.762  -5.855   5.334  0.00  0.00    -0.004 A 
ATOM      5  C5  I4B d   1       5.548  -5.804   4.186  0.00  0.00     0.002 A 
ATOM      6  C6  I4B d   1       5.976  -4.568   3.682  0.00  0.00     0.003 A 
ENDROOT
BRANCH   1   7
ATOM      7  C1' I4B d   1       5.973  -2.059   3.766  0.00  0.00     0.060 C 
BRANCH   7   8
ATOM      8  C2' I4B d   1       5.187  -1.843   2.489  0.00  0.00    -0.013 C 
ATOM      9  C4' I4B d   1       5.970  -2.294   1.283  0.00  0.00     0.013 C 
ATOM     10  C3' I4B d   1       3.895  -2.595   2.607  0.00  0.00     0.013 C 
ENDBRANCH   7   8
ENDBRANCH   1   7
TORSDOF 2
ENDMDL
