MODEL 1
REMARK minimizedAffinity 13.5979681
REMARK minimizedRMSD -1
REMARK  0 active torsions:
REMARK  status: ('A' for Active; 'I' for Inactive)
ROOT
ATOM      1  C   UNL d   1       3.490  -2.297  -3.375  0.00  0.00     0.124 A 
ATOM      2  C1  UNL d   1       4.402  -1.992  -4.376  0.00  0.00     0.062 A 
ATOM      3  C2  UNL d   1       5.083  -3.010  -5.036  0.00  0.00     0.162 A 
ATOM      4  C3  UNL d   1       4.854  -4.344  -4.698  0.00  0.00    -0.034 A 
ATOM      5  C4  UNL d   1       3.936  -4.643  -3.689  0.00  0.00     0.162 A 
ATOM      6  C5  UNL d   1       3.258  -3.621  -3.033  0.00  0.00     0.062 A 
ATOM      7  F   UNL d   1       2.377  -3.918  -2.066  0.00  0.00    -0.097 F 
ATOM      8  F1  UNL d   1       3.691  -5.915  -3.340  0.00  0.00    -0.096 F 
ATOM      9  I   UNL d   1       5.870  -5.870  -5.683  0.00  0.00    -0.060 I 
ATOM     10  F2  UNL d   1       5.958  -2.687  -5.999  0.00  0.00    -0.096 F 
ATOM     11  F3  UNL d   1       4.628  -0.713  -4.707  0.00  0.00    -0.097 F 
ATOM     12  F4  UNL d   1       2.837  -1.314  -2.740  0.00  0.00    -0.092 F 
ENDROOT
TORSDOF 0
ENDMDL
