MODEL 1
REMARK minimizedAffinity 8.04228497
REMARK minimizedRMSD -1
REMARK  0 active torsions:
REMARK  status: ('A' for Active; 'I' for Inactive)
ROOT
ATOM      1  C   UNL d   1       2.534  -2.505  -5.240  0.00  0.00     0.124 A 
ATOM      2  C1  UNL d   1       3.806  -2.031  -4.951  0.00  0.00     0.062 A 
ATOM      3  C2  UNL d   1       4.779  -2.894  -4.454  0.00  0.00     0.162 A 
ATOM      4  C3  UNL d   1       4.484  -4.241  -4.245  0.00  0.00    -0.034 A 
ATOM      5  C4  UNL d   1       3.202  -4.710  -4.537  0.00  0.00     0.162 A 
ATOM      6  C5  UNL d   1       2.233  -3.844  -5.033  0.00  0.00     0.062 A 
ATOM      7  F   UNL d   1       1.005  -4.303  -5.312  0.00  0.00    -0.097 F 
ATOM      8  F1  UNL d   1       2.884  -5.999  -4.348  0.00  0.00    -0.096 F 
ATOM      9  I   UNL d   1       5.935  -5.535  -3.503  0.00  0.00    -0.060 I 
ATOM     10  F2  UNL d   1       5.999  -2.408  -4.184  0.00  0.00    -0.096 F 
ATOM     11  F3  UNL d   1       4.099  -0.737  -5.149  0.00  0.00    -0.097 F 
ATOM     12  F4  UNL d   1       1.600  -1.672  -5.717  0.00  0.00    -0.092 F 
ENDROOT
TORSDOF 0
ENDMDL
