MODEL 1
REMARK minimizedAffinity 6.19275522
REMARK minimizedRMSD -1
REMARK  0 active torsions:
REMARK  status: ('A' for Active; 'I' for Inactive)
ROOT
ATOM      1  C   UNL d   1       2.380  -4.378  -4.476  0.00  0.00     0.124 A 
ATOM      2  C1  UNL d   1       2.094  -3.138  -5.031  0.00  0.00     0.062 A 
ATOM      3  C2  UNL d   1       3.126  -2.311  -5.465  0.00  0.00     0.162 A 
ATOM      4  C3  UNL d   1       4.454  -2.721  -5.347  0.00  0.00    -0.034 A 
ATOM      5  C4  UNL d   1       4.734  -3.968  -4.786  0.00  0.00     0.162 A 
ATOM      6  C5  UNL d   1       3.699  -4.792  -4.353  0.00  0.00     0.062 A 
ATOM      7  F   UNL d   1       3.977  -5.989  -3.817  0.00  0.00    -0.097 F 
ATOM      8  F1  UNL d   1       5.999  -4.394  -4.657  0.00  0.00    -0.096 F 
ATOM      9  I   UNL d   1       6.000  -1.487  -5.995  0.00  0.00    -0.060 I 
ATOM     10  F2  UNL d   1       2.821  -1.119  -5.998  0.00  0.00    -0.096 F 
ATOM     11  F3  UNL d   1       0.821  -2.736  -5.150  0.00  0.00    -0.097 F 
ATOM     12  F4  UNL d   1       1.385  -5.171  -4.058  0.00  0.00    -0.092 F 
ENDROOT
TORSDOF 0
ENDMDL
