MODEL 1
REMARK minimizedAffinity 12.2366724
REMARK minimizedRMSD -1
REMARK  0 active torsions:
REMARK  status: ('A' for Active; 'I' for Inactive)
ROOT
ATOM      1  C   UNL d   1       5.079  -3.444  -4.972  0.00  0.00     0.124 A 
ATOM      2  C1  UNL d   1       5.100  -2.510  -3.945  0.00  0.00     0.062 A 
ATOM      3  C2  UNL d   1       4.216  -2.625  -2.876  0.00  0.00     0.162 A 
ATOM      4  C3  UNL d   1       3.304  -3.679  -2.828  0.00  0.00    -0.034 A 
ATOM      5  C4  UNL d   1       3.288  -4.614  -3.864  0.00  0.00     0.162 A 
ATOM      6  C5  UNL d   1       4.173  -4.495  -4.931  0.00  0.00     0.062 A 
ATOM      7  F   UNL d   1       4.151  -5.398  -5.922  0.00  0.00    -0.097 F 
ATOM      8  F1  UNL d   1       2.423  -5.639  -3.849  0.00  0.00    -0.096 F 
ATOM      9  I   UNL d   1       1.980  -3.854  -1.231  0.00  0.00    -0.060 I 
ATOM     10  F2  UNL d   1       4.259  -1.708  -1.898  0.00  0.00    -0.096 F 
ATOM     11  F3  UNL d   1       5.974  -1.494  -3.983  0.00  0.00    -0.097 F 
ATOM     12  F4  UNL d   1       5.930  -3.331  -6.000  0.00  0.00    -0.092 F 
ENDROOT
TORSDOF 0
ENDMDL
