MODEL 1
REMARK minimizedAffinity 10.3346119
REMARK minimizedRMSD -1
REMARK  0 active torsions:
REMARK  status: ('A' for Active; 'I' for Inactive)
ROOT
ATOM      1  C   UNL d   1       3.051  -2.384  -3.876  0.00  0.00     0.124 A 
ATOM      2  C1  UNL d   1       2.815  -3.741  -3.706  0.00  0.00     0.062 A 
ATOM      3  C2  UNL d   1       3.649  -4.677  -4.310  0.00  0.00     0.162 A 
ATOM      4  C3  UNL d   1       4.728  -4.260  -5.089  0.00  0.00    -0.034 A 
ATOM      5  C4  UNL d   1       4.958  -2.893  -5.256  0.00  0.00     0.162 A 
ATOM      6  C5  UNL d   1       4.122  -1.961  -4.651  0.00  0.00     0.062 A 
ATOM      7  F   UNL d   1       4.352  -0.650  -4.816  0.00  0.00    -0.097 F 
ATOM      8  F1  UNL d   1       5.987  -2.458  -5.999  0.00  0.00    -0.096 F 
ATOM      9  I   UNL d   1       5.977  -5.658  -5.994  0.00  0.00    -0.060 I 
ATOM     10  F2  UNL d   1       3.396  -5.982  -4.129  0.00  0.00    -0.096 F 
ATOM     11  F3  UNL d   1       1.780  -4.151  -2.959  0.00  0.00    -0.097 F 
ATOM     12  F4  UNL d   1       2.247  -1.484  -3.294  0.00  0.00    -0.092 F 
ENDROOT
TORSDOF 0
ENDMDL
