MODEL 1
REMARK minimizedAffinity 7.87885332
REMARK minimizedRMSD -1
REMARK  0 active torsions:
REMARK  status: ('A' for Active; 'I' for Inactive)
ROOT
ATOM      1  C   UNL d   1       2.460  -2.069  -5.256  0.00  0.00     0.124 A 
ATOM      2  C1  UNL d   1       2.179  -3.383  -4.908  0.00  0.00     0.062 A 
ATOM      3  C2  UNL d   1       3.188  -4.342  -4.925  0.00  0.00     0.162 A 
ATOM      4  C3  UNL d   1       4.487  -3.991  -5.291  0.00  0.00    -0.034 A 
ATOM      5  C4  UNL d   1       4.762  -2.667  -5.640  0.00  0.00     0.162 A 
ATOM      6  C5  UNL d   1       3.750  -1.713  -5.622  0.00  0.00     0.062 A 
ATOM      7  F   UNL d   1       4.023  -0.444  -5.959  0.00  0.00    -0.097 F 
ATOM      8  F1  UNL d   1       6.000  -2.295  -5.997  0.00  0.00    -0.096 F 
ATOM      9  I   UNL d   1       5.998  -5.422  -5.317  0.00  0.00    -0.060 I 
ATOM     10  F2  UNL d   1       2.888  -5.604  -4.584  0.00  0.00    -0.096 F 
ATOM     11  F3  UNL d   1       0.933  -3.730  -4.555  0.00  0.00    -0.097 F 
ATOM     12  F4  UNL d   1       1.487  -1.148  -5.240  0.00  0.00    -0.092 F 
ENDROOT
TORSDOF 0
ENDMDL
