MODEL 1
REMARK minimizedAffinity 13.211256
REMARK minimizedRMSD -1
REMARK  0 active torsions:
REMARK  status: ('A' for Active; 'I' for Inactive)
ROOT
ATOM      1  C   UNL d   1       3.503  -2.410  -3.229  0.00  0.00     0.124 A 
ATOM      2  C1  UNL d   1       3.378  -3.775  -3.012  0.00  0.00     0.062 A 
ATOM      3  C2  UNL d   1       4.090  -4.676  -3.799  0.00  0.00     0.162 A 
ATOM      4  C3  UNL d   1       4.933  -4.215  -4.809  0.00  0.00    -0.034 A 
ATOM      5  C4  UNL d   1       5.052  -2.840  -5.022  0.00  0.00     0.162 A 
ATOM      6  C5  UNL d   1       4.339  -1.944  -4.233  0.00  0.00     0.062 A 
ATOM      7  F   UNL d   1       4.461  -0.625  -4.444  0.00  0.00    -0.097 F 
ATOM      8  F1  UNL d   1       5.854  -2.363  -5.985  0.00  0.00    -0.096 F 
ATOM      9  I   UNL d   1       5.999  -5.559  -5.988  0.00  0.00    -0.060 I 
ATOM     10  F2  UNL d   1       3.950  -5.990  -3.567  0.00  0.00    -0.096 F 
ATOM     11  F3  UNL d   1       2.570  -4.228  -2.043  0.00  0.00    -0.097 F 
ATOM     12  F4  UNL d   1       2.816  -1.545  -2.471  0.00  0.00    -0.092 F 
ENDROOT
TORSDOF 0
ENDMDL
