MODEL 1
REMARK minimizedAffinity 5.39424515
REMARK minimizedRMSD -1
REMARK  0 active torsions:
REMARK  status: ('A' for Active; 'I' for Inactive)
ROOT
ATOM      1  C   UNL d   1       2.901  -2.400  -5.293  0.00  0.00     0.124 A 
ATOM      2  C1  UNL d   1       4.030  -1.923  -4.642  0.00  0.00     0.062 A 
ATOM      3  C2  UNL d   1       4.915  -2.810  -4.036  0.00  0.00     0.162 A 
ATOM      4  C3  UNL d   1       4.676  -4.184  -4.080  0.00  0.00    -0.034 A 
ATOM      5  C4  UNL d   1       3.538  -4.656  -4.736  0.00  0.00     0.162 A 
ATOM      6  C5  UNL d   1       2.656  -3.766  -5.340  0.00  0.00     0.062 A 
ATOM      7  F   UNL d   1       1.566  -4.228  -5.969  0.00  0.00    -0.097 F 
ATOM      8  F1  UNL d   1       3.278  -5.970  -4.797  0.00  0.00    -0.096 F 
ATOM      9  I   UNL d   1       5.998  -5.513  -3.175  0.00  0.00    -0.060 I 
ATOM     10  F2  UNL d   1       5.998  -2.321  -3.413  0.00  0.00    -0.096 F 
ATOM     11  F3  UNL d   1       4.268  -0.605  -4.594  0.00  0.00    -0.097 F 
ATOM     12  F4  UNL d   1       2.050  -1.545  -5.875  0.00  0.00    -0.092 F 
ENDROOT
TORSDOF 0
ENDMDL
