MODEL 1
REMARK minimizedAffinity 15.7522688
REMARK minimizedRMSD -1
REMARK  0 active torsions:
REMARK  status: ('A' for Active; 'I' for Inactive)
ROOT
ATOM      1  C   UNL d   1       3.916  -1.536  -3.481  0.00  0.00     0.124 A 
ATOM      2  C1  UNL d   1       4.723  -1.713  -4.596  0.00  0.00     0.062 A 
ATOM      3  C2  UNL d   1       5.208  -2.978  -4.916  0.00  0.00     0.162 A 
ATOM      4  C3  UNL d   1       4.886  -4.077  -4.119  0.00  0.00    -0.034 A 
ATOM      5  C4  UNL d   1       4.075  -3.891  -2.998  0.00  0.00     0.162 A 
ATOM      6  C5  UNL d   1       3.593  -2.625  -2.683  0.00  0.00     0.062 A 
ATOM      7  F   UNL d   1       2.814  -2.456  -1.605  0.00  0.00    -0.097 F 
ATOM      8  F1  UNL d   1       3.747  -4.926  -2.211  0.00  0.00    -0.096 F 
ATOM      9  I   UNL d   1       5.610  -5.969  -4.594  0.00  0.00    -0.060 I 
ATOM     10  F2  UNL d   1       5.985  -3.119  -6.000  0.00  0.00    -0.096 F 
ATOM     11  F3  UNL d   1       5.037  -0.662  -5.368  0.00  0.00    -0.097 F 
ATOM     12  F4  UNL d   1       3.451  -0.318  -3.175  0.00  0.00    -0.092 F 
ENDROOT
TORSDOF 0
ENDMDL
