MODEL 1
REMARK minimizedAffinity 6.07878256
REMARK minimizedRMSD -1
REMARK  0 active torsions:
REMARK  status: ('A' for Active; 'I' for Inactive)
ROOT
ATOM      1  C   UNL d   1       3.279  -2.162  -3.603  0.00  0.00     0.124 A 
ATOM      2  C1  UNL d   1       3.047  -3.512  -3.379  0.00  0.00     0.062 A 
ATOM      3  C2  UNL d   1       3.811  -4.472  -4.036  0.00  0.00     0.162 A 
ATOM      4  C3  UNL d   1       4.816  -4.086  -4.924  0.00  0.00    -0.034 A 
ATOM      5  C4  UNL d   1       5.042  -2.726  -5.145  0.00  0.00     0.162 A 
ATOM      6  C5  UNL d   1       4.276  -1.771  -4.486  0.00  0.00     0.062 A 
ATOM      7  F   UNL d   1       4.501  -0.467  -4.704  0.00  0.00    -0.097 F 
ATOM      8  F1  UNL d   1       6.000  -2.320  -5.992  0.00  0.00    -0.096 F 
ATOM      9  I   UNL d   1       5.960  -5.518  -5.908  0.00  0.00    -0.060 I 
ATOM     10  F2  UNL d   1       3.566  -5.770  -3.800  0.00  0.00    -0.096 F 
ATOM     11  F3  UNL d   1       2.084  -3.893  -2.527  0.00  0.00    -0.097 F 
ATOM     12  F4  UNL d   1       2.542  -1.241  -2.971  0.00  0.00    -0.092 F 
ENDROOT
TORSDOF 0
ENDMDL
