MODEL 1
REMARK minimizedAffinity 9.1856451
REMARK minimizedRMSD -1
REMARK  0 active torsions:
REMARK  status: ('A' for Active; 'I' for Inactive)
ROOT
ATOM      1  C   UNL d   1       3.720  -4.355  -4.697  0.00  0.00     0.124 A 
ATOM      2  C1  UNL d   1       2.784  -3.563  -5.348  0.00  0.00     0.062 A 
ATOM      3  C2  UNL d   1       2.926  -2.178  -5.360  0.00  0.00     0.162 A 
ATOM      4  C3  UNL d   1       4.009  -1.577  -4.720  0.00  0.00    -0.034 A 
ATOM      5  C4  UNL d   1       4.946  -2.380  -4.067  0.00  0.00     0.162 A 
ATOM      6  C5  UNL d   1       4.799  -3.763  -4.058  0.00  0.00     0.062 A 
ATOM      7  F   UNL d   1       5.705  -4.527  -3.429  0.00  0.00    -0.097 F 
ATOM      8  F1  UNL d   1       6.000  -1.834  -3.442  0.00  0.00    -0.096 F 
ATOM      9  I   UNL d   1       4.225   0.493  -4.736  0.00  0.00    -0.060 I 
ATOM     10  F2  UNL d   1       2.006  -1.438  -5.996  0.00  0.00    -0.096 F 
ATOM     11  F3  UNL d   1       1.739  -4.132  -5.966  0.00  0.00    -0.097 F 
ATOM     12  F4  UNL d   1       3.580  -5.687  -4.687  0.00  0.00    -0.092 F 
ENDROOT
TORSDOF 0
ENDMDL
