MODEL 1
REMARK minimizedAffinity -2.5008657
REMARK minimizedRMSD -1
REMARK  0 active torsions:
REMARK  status: ('A' for Active; 'I' for Inactive)
ROOT
ATOM      1  C2' OXE d   1      -0.093   0.043  -2.271  0.00  0.00     0.078 C 
ATOM      2  C1' OXE d   1       0.861   0.144   0.367  0.00  0.00     0.078 C 
ATOM      3  C1  OXE d   1      -0.556  -0.326   0.149  0.00  0.00    -0.078 A 
ATOM      4  C2  OXE d   1      -1.029  -0.327  -1.141  0.00  0.00    -0.078 A 
ATOM      5  C3  OXE d   1      -2.311  -0.803  -1.404  0.00  0.00     0.003 A 
ATOM      6  C4  OXE d   1      -3.173  -1.135  -0.353  0.00  0.00    -0.002 A 
ATOM      7  C5  OXE d   1      -2.724  -1.102   0.972  0.00  0.00    -0.002 A 
ATOM      8  C6  OXE d   1      -1.407  -0.742   1.235  0.00  0.00     0.003 A 
ENDROOT
TORSDOF 0
ENDMDL
