MODEL 1
REMARK minimizedAffinity -1.86447883
REMARK minimizedRMSD -1
REMARK  0 active torsions:
REMARK  status: ('A' for Active; 'I' for Inactive)
ROOT
ATOM      1  C2' OXE d   1      -1.694  -1.818   3.042  0.00  0.00     0.078 C 
ATOM      2  C1' OXE d   1      -2.598   0.199   1.312  0.00  0.00     0.078 C 
ATOM      3  C1  OXE d   1      -1.208  -0.342   1.095  0.00  0.00    -0.078 A 
ATOM      4  C2  OXE d   1      -0.756  -1.296   1.975  0.00  0.00    -0.078 A 
ATOM      5  C3  OXE d   1       0.499  -1.868   1.787  0.00  0.00     0.003 A 
ATOM      6  C4  OXE d   1       1.364  -1.373   0.804  0.00  0.00    -0.002 A 
ATOM      7  C5  OXE d   1       0.938  -0.374  -0.078  0.00  0.00    -0.002 A 
ATOM      8  C6  OXE d   1      -0.357   0.121   0.027  0.00  0.00     0.003 A 
ENDROOT
TORSDOF 0
ENDMDL
