MODEL 1
REMARK minimizedAffinity -1.25551164
REMARK minimizedRMSD -1
REMARK  0 active torsions:
REMARK  status: ('A' for Active; 'I' for Inactive)
ROOT
ATOM      1  C2' OXE d   1      -1.464  -2.046   2.111  0.00  0.00     0.078 C 
ATOM      2  C1' OXE d   1      -3.225  -0.941   0.225  0.00  0.00     0.078 C 
ATOM      3  C1  OXE d   1      -1.778  -0.517   0.170  0.00  0.00    -0.078 A 
ATOM      4  C2  OXE d   1      -0.933  -1.027   1.126  0.00  0.00    -0.078 A 
ATOM      5  C3  OXE d   1       0.422  -0.712   1.087  0.00  0.00     0.003 A 
ATOM      6  C4  OXE d   1       0.903   0.238   0.179  0.00  0.00    -0.002 A 
ATOM      7  C5  OXE d   1       0.051   0.800  -0.779  0.00  0.00    -0.002 A 
ATOM      8  C6  OXE d   1      -1.280   0.402  -0.824  0.00  0.00     0.003 A 
ENDROOT
TORSDOF 0
ENDMDL
