MODEL 1
REMARK minimizedAffinity -2.99602556
REMARK minimizedRMSD -1
REMARK  0 active torsions:
REMARK  status: ('A' for Active; 'I' for Inactive)
ROOT
ATOM      1  C2' OXE d   1       1.072   3.034   1.345  0.00  0.00     0.078 C 
ATOM      2  C1' OXE d   1       3.006   1.065   1.855  0.00  0.00     0.078 C 
ATOM      3  C1  OXE d   1       1.656   0.613   1.355  0.00  0.00    -0.078 A 
ATOM      4  C2  OXE d   1       0.701   1.580   1.153  0.00  0.00    -0.078 A 
ATOM      5  C3  OXE d   1      -0.543   1.223   0.640  0.00  0.00     0.003 A 
ATOM      6  C4  OXE d   1      -0.881  -0.126   0.474  0.00  0.00    -0.002 A 
ATOM      7  C5  OXE d   1       0.064  -1.129   0.713  0.00  0.00    -0.002 A 
ATOM      8  C6  OXE d   1       1.348  -0.775   1.112  0.00  0.00     0.003 A 
ENDROOT
TORSDOF 0
ENDMDL
