MODEL 1
REMARK minimizedAffinity -3.3702476
REMARK minimizedRMSD -1
REMARK  0 active torsions:
REMARK  status: ('A' for Active; 'I' for Inactive)
ROOT
ATOM      1  C2' OXE d   1       0.481  -1.928   1.918  0.00  0.00     0.078 C 
ATOM      2  C1' OXE d   1       0.882   0.259   0.205  0.00  0.00     0.078 C 
ATOM      3  C1  OXE d   1      -0.508  -0.318   0.295  0.00  0.00    -0.078 A 
ATOM      4  C2  OXE d   1      -0.685  -1.418   1.100  0.00  0.00    -0.078 A 
ATOM      5  C3  OXE d   1      -1.959  -1.956   1.262  0.00  0.00     0.003 A 
ATOM      6  C4  OXE d   1      -3.031  -1.484   0.494  0.00  0.00    -0.002 A 
ATOM      7  C5  OXE d   1      -2.863  -0.391  -0.362  0.00  0.00    -0.002 A 
ATOM      8  C6  OXE d   1      -1.621   0.229  -0.441  0.00  0.00     0.003 A 
ENDROOT
TORSDOF 0
ENDMDL
