MODEL 1
REMARK minimizedAffinity -0.722810328
REMARK minimizedRMSD -1
REMARK  0 active torsions:
REMARK  status: ('A' for Active; 'I' for Inactive)
ROOT
ATOM      1  C2' OXE d   1      -3.328  -0.609  -0.249  0.00  0.00     0.078 C 
ATOM      2  C1' OXE d   1      -1.719   0.628  -2.189  0.00  0.00     0.078 C 
ATOM      3  C1  OXE d   1      -1.036   0.039  -0.980  0.00  0.00    -0.078 A 
ATOM      4  C2  OXE d   1      -1.835  -0.523  -0.013  0.00  0.00    -0.078 A 
ATOM      5  C3  OXE d   1      -1.253  -1.129   1.096  0.00  0.00     0.003 A 
ATOM      6  C4  OXE d   1       0.128  -1.037   1.311  0.00  0.00    -0.002 A 
ATOM      7  C5  OXE d   1       0.956  -0.434   0.358  0.00  0.00    -0.002 A 
ATOM      8  C6  OXE d   1       0.395   0.070  -0.810  0.00  0.00     0.003 A 
ENDROOT
TORSDOF 0
ENDMDL
