MODEL 1
REMARK minimizedAffinity -4.91980267
REMARK minimizedRMSD -1
REMARK  0 active torsions:
REMARK  status: ('A' for Active; 'I' for Inactive)
ROOT
ATOM      1  C2' OXE d   1       0.538   0.189  -2.439  0.00  0.00     0.078 C 
ATOM      2  C1' OXE d   1       1.481   0.267   0.204  0.00  0.00     0.078 C 
ATOM      3  C1  OXE d   1       0.031  -0.086  -0.016  0.00  0.00    -0.078 A 
ATOM      4  C2  OXE d   1      -0.433  -0.076  -1.309  0.00  0.00    -0.078 A 
ATOM      5  C3  OXE d   1      -1.749  -0.447  -1.573  0.00  0.00     0.003 A 
ATOM      6  C4  OXE d   1      -2.643  -0.681  -0.521  0.00  0.00    -0.002 A 
ATOM      7  C5  OXE d   1      -2.201  -0.657   0.806  0.00  0.00    -0.002 A 
ATOM      8  C6  OXE d   1      -0.860  -0.403   1.073  0.00  0.00     0.003 A 
ENDROOT
TORSDOF 0
ENDMDL
