MODEL 1
REMARK minimizedAffinity -5.85475969
REMARK minimizedRMSD -1
REMARK  0 active torsions:
REMARK  status: ('A' for Active; 'I' for Inactive)
ROOT
ATOM      1  C2' OXE d   1       2.379  -1.143  -3.070  0.00  0.00     0.078 C 
ATOM      2  C1' OXE d   1       0.322   0.138  -1.654  0.00  0.00     0.078 C 
ATOM      3  C1  OXE d   1       0.412   0.385  -3.139  0.00  0.00    -0.078 A 
ATOM      4  C2  OXE d   1       1.450  -0.209  -3.816  0.00  0.00    -0.078 A 
ATOM      5  C3  OXE d   1       1.549  -0.058  -5.197  0.00  0.00     0.003 A 
ATOM      6  C4  OXE d   1       0.692   0.815  -5.877  0.00  0.00    -0.002 A 
ATOM      7  C5  OXE d   1      -0.348   1.461  -5.200  0.00  0.00    -0.002 A 
ATOM      8  C6  OXE d   1      -0.527   1.224  -3.841  0.00  0.00     0.003 A 
ENDROOT
TORSDOF 0
ENDMDL
