MODEL 1
REMARK minimizedAffinity -2.95517635
REMARK minimizedRMSD -1
REMARK  0 active torsions:
REMARK  status: ('A' for Active; 'I' for Inactive)
ROOT
ATOM      1  C2' OXE d   1      -2.966  -0.612  -0.687  0.00  0.00     0.078 C 
ATOM      2  C1' OXE d   1      -1.085   0.642  -2.351  0.00  0.00     0.078 C 
ATOM      3  C1  OXE d   1      -0.598   0.078  -1.040  0.00  0.00    -0.078 A 
ATOM      4  C2  OXE d   1      -1.534  -0.493  -0.211  0.00  0.00    -0.078 A 
ATOM      5  C3  OXE d   1      -1.129  -1.078   0.985  0.00  0.00     0.003 A 
ATOM      6  C4  OXE d   1       0.195  -0.954   1.422  0.00  0.00    -0.002 A 
ATOM      7  C5  OXE d   1       1.156  -0.342   0.611  0.00  0.00    -0.002 A 
ATOM      8  C6  OXE d   1       0.785   0.141  -0.639  0.00  0.00     0.003 A 
ENDROOT
TORSDOF 0
ENDMDL
