MODEL 1
REMARK minimizedAffinity -4.53305006
REMARK minimizedRMSD -1
REMARK  0 active torsions:
REMARK  status: ('A' for Active; 'I' for Inactive)
ROOT
ATOM      1  C2' OXE d   1       0.767   0.280   0.288  0.00  0.00     0.078 C 
ATOM      2  C1' OXE d   1       0.503  -0.369  -2.430  0.00  0.00     0.078 C 
ATOM      3  C1  OXE d   1      -0.729  -0.452  -1.564  0.00  0.00    -0.078 A 
ATOM      4  C2  OXE d   1      -0.581  -0.178  -0.225  0.00  0.00    -0.078 A 
ATOM      5  C3  OXE d   1      -1.696  -0.187   0.608  0.00  0.00     0.003 A 
ATOM      6  C4  OXE d   1      -2.937  -0.621   0.127  0.00  0.00    -0.002 A 
ATOM      7  C5  OXE d   1      -3.101  -0.944  -1.225  0.00  0.00    -0.002 A 
ATOM      8  C6  OXE d   1      -2.020  -0.824  -2.090  0.00  0.00     0.003 A 
ENDROOT
TORSDOF 0
ENDMDL
