MODEL 1
REMARK minimizedAffinity -4.32507324
REMARK minimizedRMSD -1
REMARK  0 active torsions:
REMARK  status: ('A' for Active; 'I' for Inactive)
ROOT
ATOM      1  C2' OXE d   1      -1.473  -1.461   2.024  0.00  0.00     0.078 C 
ATOM      2  C1' OXE d   1      -3.282  -0.900  -0.048  0.00  0.00     0.078 C 
ATOM      3  C1  OXE d   1      -1.818  -0.649  -0.306  0.00  0.00    -0.078 A 
ATOM      4  C2  OXE d   1      -0.944  -0.882   0.729  0.00  0.00    -0.078 A 
ATOM      5  C3  OXE d   1       0.423  -0.719   0.527  0.00  0.00     0.003 A 
ATOM      6  C4  OXE d   1       0.903  -0.173  -0.670  0.00  0.00    -0.002 A 
ATOM      7  C5  OXE d   1       0.026   0.109  -1.723  0.00  0.00    -0.002 A 
ATOM      8  C6  OXE d   1      -1.329  -0.163  -1.573  0.00  0.00     0.003 A 
ENDROOT
TORSDOF 0
ENDMDL
