MODEL 1
REMARK minimizedAffinity -2.11975694
REMARK minimizedRMSD -1
REMARK  0 active torsions:
REMARK  status: ('A' for Active; 'I' for Inactive)
ROOT
ATOM      1  C2' OXE d   1      -2.638  -0.722   0.230  0.00  0.00     0.078 C 
ATOM      2  C1' OXE d   1      -0.776  -1.729   2.074  0.00  0.00     0.078 C 
ATOM      3  C1  OXE d   1      -0.246  -0.978   0.878  0.00  0.00    -0.078 A 
ATOM      4  C2  OXE d   1      -1.161  -0.530  -0.043  0.00  0.00    -0.078 A 
ATOM      5  C3  OXE d   1      -0.730   0.215  -1.137  0.00  0.00     0.003 A 
ATOM      6  C4  OXE d   1       0.637   0.380  -1.388  0.00  0.00    -0.002 A 
ATOM      7  C5  OXE d   1       1.588  -0.103  -0.482  0.00  0.00    -0.002 A 
ATOM      8  C6  OXE d   1       1.163  -0.746   0.675  0.00  0.00     0.003 A 
ENDROOT
TORSDOF 0
ENDMDL
