MODEL 1
REMARK minimizedAffinity -2.68043423
REMARK minimizedRMSD -1
REMARK  0 active torsions:
REMARK  status: ('A' for Active; 'I' for Inactive)
ROOT
ATOM      1  C2' OXE d   1       1.425  -0.454   0.640  0.00  0.00     0.078 C 
ATOM      2  C1' OXE d   1       2.955  -0.138  -1.692  0.00  0.00     0.078 C 
ATOM      3  C1  OXE d   1       2.951   0.993  -0.694  0.00  0.00    -0.078 A 
ATOM      4  C2  OXE d   1       2.163   0.850   0.422  0.00  0.00    -0.078 A 
ATOM      5  C3  OXE d   1       2.165   1.840   1.400  0.00  0.00     0.003 A 
ATOM      6  C4  OXE d   1       2.843   3.046   1.185  0.00  0.00    -0.002 A 
ATOM      7  C5  OXE d   1       3.620   3.229   0.037  0.00  0.00    -0.002 A 
ATOM      8  C6  OXE d   1       3.719   2.198  -0.891  0.00  0.00     0.003 A 
ENDROOT
TORSDOF 0
ENDMDL
