MODEL 1
REMARK minimizedAffinity -0.412246317
REMARK minimizedRMSD -1
REMARK  0 active torsions:
REMARK  status: ('A' for Active; 'I' for Inactive)
ROOT
ATOM      1  C2' OXE d   1      -1.349  -1.933   2.397  0.00  0.00     0.078 C 
ATOM      2  C1' OXE d   1      -2.900  -0.936   0.279  0.00  0.00     0.078 C 
ATOM      3  C1  OXE d   1      -1.434  -0.581   0.306  0.00  0.00    -0.078 A 
ATOM      4  C2  OXE d   1      -0.693  -1.034   1.371  0.00  0.00    -0.078 A 
ATOM      5  C3  OXE d   1       0.675  -0.781   1.416  0.00  0.00     0.003 A 
ATOM      6  C4  OXE d   1       1.272   0.059   0.468  0.00  0.00    -0.002 A 
ATOM      7  C5  OXE d   1       0.527   0.564  -0.603  0.00  0.00    -0.002 A 
ATOM      8  C6  OXE d   1      -0.815   0.219  -0.722  0.00  0.00     0.003 A 
ENDROOT
TORSDOF 0
ENDMDL
