MODEL 1
REMARK minimizedAffinity -5.8944664
REMARK minimizedRMSD -1
REMARK  0 active torsions:
REMARK  status: ('A' for Active; 'I' for Inactive)
ROOT
ATOM      1  C2' OXE d   1       0.863  -0.361  -0.020  0.00  0.00     0.078 C 
ATOM      2  C1' OXE d   1      -0.997   0.296  -2.018  0.00  0.00     0.078 C 
ATOM      3  C1  OXE d   1      -1.514  -0.370  -0.767  0.00  0.00    -0.078 A 
ATOM      4  C2  OXE d   1      -0.591  -0.730   0.186  0.00  0.00    -0.078 A 
ATOM      5  C3  OXE d   1      -1.020  -1.297   1.382  0.00  0.00     0.003 A 
ATOM      6  C4  OXE d   1      -2.365  -1.644   1.560  0.00  0.00    -0.002 A 
ATOM      7  C5  OXE d   1      -3.316  -1.322   0.585  0.00  0.00    -0.002 A 
ATOM      8  C6  OXE d   1      -2.914  -0.648  -0.563  0.00  0.00     0.003 A 
ENDROOT
TORSDOF 0
ENDMDL
