MODEL 1
REMARK minimizedAffinity -4.47780752
REMARK minimizedRMSD -1
REMARK  0 active torsions:
REMARK  status: ('A' for Active; 'I' for Inactive)
ROOT
ATOM      1  C2' OXE d   1       0.095   0.037  -2.368  0.00  0.00     0.078 C 
ATOM      2  C1' OXE d   1       0.966   0.413   0.274  0.00  0.00     0.078 C 
ATOM      3  C1  OXE d   1      -0.414  -0.158   0.063  0.00  0.00    -0.078 A 
ATOM      4  C2  OXE d   1      -0.850  -0.295  -1.233  0.00  0.00    -0.078 A 
ATOM      5  C3  OXE d   1      -2.093  -0.868  -1.484  0.00  0.00     0.003 A 
ATOM      6  C4  OXE d   1      -2.964  -1.163  -0.429  0.00  0.00    -0.002 A 
ATOM      7  C5  OXE d   1      -2.555  -0.994   0.898  0.00  0.00    -0.002 A 
ATOM      8  C6  OXE d   1      -1.270  -0.533   1.161  0.00  0.00     0.003 A 
ENDROOT
TORSDOF 0
ENDMDL
