MODEL 1
REMARK minimizedAffinity -3.1195817
REMARK minimizedRMSD -1
REMARK  0 active torsions:
REMARK  status: ('A' for Active; 'I' for Inactive)
ROOT
ATOM      1  C2' OXE d   1       0.584   0.443   0.042  0.00  0.00     0.078 C 
ATOM      2  C1' OXE d   1       0.844  -1.558   1.994  0.00  0.00     0.078 C 
ATOM      3  C1  OXE d   1      -0.478  -1.442   1.278  0.00  0.00    -0.078 A 
ATOM      4  C2  OXE d   1      -0.611  -0.430   0.357  0.00  0.00    -0.078 A 
ATOM      5  C3  OXE d   1      -1.791  -0.312  -0.372  0.00  0.00     0.003 A 
ATOM      6  C4  OXE d   1      -2.896  -1.117  -0.067  0.00  0.00    -0.002 A 
ATOM      7  C5  OXE d   1      -2.794  -2.128   0.895  0.00  0.00    -0.002 A 
ATOM      8  C6  OXE d   1      -1.581  -2.331   1.545  0.00  0.00     0.003 A 
ENDROOT
TORSDOF 0
ENDMDL
