MODEL 1
REMARK minimizedAffinity -2.64171958
REMARK minimizedRMSD -1
REMARK  0 active torsions:
REMARK  status: ('A' for Active; 'I' for Inactive)
ROOT
ATOM      1  C2' OXE d   1       0.666   1.165   0.752  0.00  0.00     0.078 C 
ATOM      2  C1' OXE d   1       0.815  -0.244  -1.672  0.00  0.00     0.078 C 
ATOM      3  C1  OXE d   1      -0.507  -0.230  -0.946  0.00  0.00    -0.078 A 
ATOM      4  C2  OXE d   1      -0.559   0.422   0.262  0.00  0.00    -0.078 A 
ATOM      5  C3  OXE d   1      -1.768   0.511   0.946  0.00  0.00     0.003 A 
ATOM      6  C4  OXE d   1      -2.893  -0.187   0.491  0.00  0.00    -0.002 A 
ATOM      7  C5  OXE d   1      -2.851  -0.890  -0.717  0.00  0.00    -0.002 A 
ATOM      8  C6  OXE d   1      -1.681  -0.887  -1.468  0.00  0.00     0.003 A 
ENDROOT
TORSDOF 0
ENDMDL
