MODEL 1
REMARK minimizedAffinity -4.51125908
REMARK minimizedRMSD -1
REMARK  0 active torsions:
REMARK  status: ('A' for Active; 'I' for Inactive)
ROOT
ATOM      1  C2' OXE d   1       0.010   0.091  -2.504  0.00  0.00     0.078 C 
ATOM      2  C1' OXE d   1       0.852   0.261   0.168  0.00  0.00     0.078 C 
ATOM      3  C1  OXE d   1      -0.536  -0.263  -0.100  0.00  0.00    -0.078 A 
ATOM      4  C2  OXE d   1      -0.957  -0.299  -1.408  0.00  0.00    -0.078 A 
ATOM      5  C3  OXE d   1      -2.208  -0.825  -1.715  0.00  0.00     0.003 A 
ATOM      6  C4  OXE d   1      -3.101  -1.175  -0.694  0.00  0.00    -0.002 A 
ATOM      7  C5  OXE d   1      -2.707  -1.108   0.647  0.00  0.00    -0.002 A 
ATOM      8  C6  OXE d   1      -1.416  -0.696   0.958  0.00  0.00     0.003 A 
ENDROOT
TORSDOF 0
ENDMDL
