MODEL 1
REMARK minimizedAffinity -6.69620609
REMARK minimizedRMSD -1
REMARK  3 active torsions:
REMARK  status: ('A' for Active; 'I' for Inactive)
REMARK    1  A    between atoms: C3'_2  and  C2'_3 
REMARK    2  A    between atoms: C2'_3  and  C1'_4 
REMARK    3  A    between atoms: C1'_4  and  C1_5 
ROOT
ATOM      1  C1  N4B d   1       0.281  -0.069   0.589  0.00  0.00    -0.075 A 
ATOM      2  C2  N4B d   1       1.395   0.788   0.453  0.00  0.00     0.002 A 
ATOM      3  C3  N4B d   1       2.649   0.343   0.794  0.00  0.00     0.002 A 
ATOM      4  C4  N4B d   1       2.809  -0.943   1.288  0.00  0.00    -0.004 A 
ATOM      5  C5  N4B d   1       1.732  -1.773   1.392  0.00  0.00     0.002 A 
ATOM      6  C6  N4B d   1       0.466  -1.340   1.049  0.00  0.00     0.002 A 
ENDROOT
BRANCH   1   7
ATOM      7  C1' N4B d   1      -1.121   0.401   0.310  0.00  0.00     0.057 C 
BRANCH   7   8
ATOM      8  C2' N4B d   1      -1.744  -0.488  -0.761  0.00  0.00     0.009 C 
BRANCH   8   9
ATOM      9  C3' N4B d   1      -2.686   0.287  -1.666  0.00  0.00     0.004 C 
ATOM     10  C4' N4B d   1      -2.760  -0.281  -3.052  0.00  0.00     0.003 C 
ENDBRANCH   8   9
ENDBRANCH   7   8
ENDBRANCH   1   7
TORSDOF 3
ENDMDL
