MODEL 1
REMARK minimizedAffinity -5.32639933
REMARK minimizedRMSD -1
REMARK  3 active torsions:
REMARK  status: ('A' for Active; 'I' for Inactive)
REMARK    1  A    between atoms: C3'_2  and  C2'_3 
REMARK    2  A    between atoms: C2'_3  and  C1'_4 
REMARK    3  A    between atoms: C1'_4  and  C1_5 
ROOT
ATOM      1  C1  N4B d   1      -0.094   0.419   0.189  0.00  0.00    -0.075 A 
ATOM      2  C2  N4B d   1       0.869  -0.567   0.496  0.00  0.00     0.002 A 
ATOM      3  C3  N4B d   1       2.178  -0.207   0.704  0.00  0.00     0.002 A 
ATOM      4  C4  N4B d   1       2.549   1.125   0.593  0.00  0.00    -0.004 A 
ATOM      5  C5  N4B d   1       1.608   2.074   0.321  0.00  0.00     0.002 A 
ATOM      6  C6  N4B d   1       0.288   1.727   0.113  0.00  0.00     0.002 A 
ENDROOT
BRANCH   1   7
ATOM      7  C1' N4B d   1      -1.520   0.063  -0.131  0.00  0.00     0.057 C 
BRANCH   7   8
ATOM      8  C2' N4B d   1      -2.075   1.072  -1.132  0.00  0.00     0.009 C 
BRANCH   8   9
ATOM      9  C3' N4B d   1      -2.940   0.407  -2.189  0.00  0.00     0.004 C 
ATOM     10  C4' N4B d   1      -2.175  -0.560  -3.042  0.00  0.00     0.003 C 
ENDBRANCH   8   9
ENDBRANCH   7   8
ENDBRANCH   1   7
TORSDOF 3
ENDMDL
