MODEL 1
REMARK minimizedAffinity -3.44899559
REMARK minimizedRMSD -1
REMARK  3 active torsions:
REMARK  status: ('A' for Active; 'I' for Inactive)
REMARK    1  A    between atoms: C3'_2  and  C2'_3 
REMARK    2  A    between atoms: C2'_3  and  C1'_4 
REMARK    3  A    between atoms: C1'_4  and  C1_5 
ROOT
ATOM      1  C1  N4B d   1      -1.990  -0.294  -0.877  0.00  0.00    -0.075 A 
ATOM      2  C2  N4B d   1      -2.641   0.857  -1.374  0.00  0.00     0.002 A 
ATOM      3  C3  N4B d   1      -3.143   0.865  -2.652  0.00  0.00     0.002 A 
ATOM      4  C4  N4B d   1      -2.992  -0.256  -3.455  0.00  0.00    -0.004 A 
ATOM      5  C5  N4B d   1      -2.385  -1.373  -2.959  0.00  0.00     0.002 A 
ATOM      6  C6  N4B d   1      -1.878  -1.395  -1.675  0.00  0.00     0.002 A 
ENDROOT
BRANCH   1   7
ATOM      7  C1' N4B d   1      -1.349  -0.319   0.483  0.00  0.00     0.057 C 
BRANCH   7   8
ATOM      8  C2' N4B d   1       0.097   0.153   0.364  0.00  0.00     0.009 C 
BRANCH   8   9
ATOM      9  C3' N4B d   1       1.078  -1.006   0.400  0.00  0.00     0.004 C 
ATOM     10  C4' N4B d   1       2.466  -0.580   0.777  0.00  0.00     0.003 C 
ENDBRANCH   8   9
ENDBRANCH   7   8
ENDBRANCH   1   7
TORSDOF 3
ENDMDL
