MODEL 1
REMARK minimizedAffinity 0.0652242154
REMARK minimizedRMSD -1
REMARK  3 active torsions:
REMARK  status: ('A' for Active; 'I' for Inactive)
REMARK    1  A    between atoms: C3'_2  and  C2'_3 
REMARK    2  A    between atoms: C2'_3  and  C1'_4 
REMARK    3  A    between atoms: C1'_4  and  C1_5 
ROOT
ATOM      1  C1  N4B d   1      -0.306   0.479   0.176  0.00  0.00    -0.075 A 
ATOM      2  C2  N4B d   1      -0.198  -0.010  -1.144  0.00  0.00     0.002 A 
ATOM      3  C3  N4B d   1      -0.200  -1.364  -1.377  0.00  0.00     0.002 A 
ATOM      4  C4  N4B d   1      -0.289  -2.243  -0.308  0.00  0.00    -0.004 A 
ATOM      5  C5  N4B d   1      -0.418  -1.762   0.962  0.00  0.00     0.002 A 
ATOM      6  C6  N4B d   1      -0.422  -0.404   1.210  0.00  0.00     0.002 A 
ENDROOT
BRANCH   1   7
ATOM      7  C1' N4B d   1      -0.222   1.949   0.487  0.00  0.00     0.057 C 
BRANCH   7   8
ATOM      8  C2' N4B d   1       1.134   2.481   0.032  0.00  0.00     0.009 C 
BRANCH   8   9
ATOM      9  C3' N4B d   1       2.283   1.671   0.607  0.00  0.00     0.004 C 
ATOM     10  C4' N4B d   1       2.423   1.832   2.091  0.00  0.00     0.003 C 
ENDBRANCH   8   9
ENDBRANCH   7   8
ENDBRANCH   1   7
TORSDOF 3
ENDMDL
