MODEL 1
REMARK minimizedAffinity 10.8221827
REMARK minimizedRMSD -1
REMARK  1 active torsions:
REMARK  status: ('A' for Active; 'I' for Inactive)
REMARK    1  A    between atoms: C3_4  and  O_7 
ROOT
ATOM      1  C   UNL d   1      -5.236   0.811  -2.598  0.00  0.00    -0.033 A 
ATOM      2  C1  UNL d   1      -6.000   0.479  -3.719  0.00  0.00     0.039 A 
ATOM      3  C2  UNL d   1      -5.957  -0.817  -4.236  0.00  0.00    -0.080 A 
ATOM      4  C3  UNL d   1      -5.148  -1.771  -3.624  0.00  0.00     0.150 A 
ATOM      5  C4  UNL d   1      -4.388  -1.448  -2.504  0.00  0.00    -0.007 A 
ATOM      6  C5  UNL d   1      -4.431  -0.153  -1.990  0.00  0.00     0.039 A 
ENDROOT
BRANCH   4   7
ATOM      7  O   UNL d   1      -5.070  -3.048  -4.095  0.00  0.00    -0.526 OA
ATOM      8  H5  UNL d   1      -5.626  -3.117  -4.889  0.00  0.00     0.418 HD
ENDBRANCH   4   7
TORSDOF 1
ENDMDL
