MODEL 1
REMARK minimizedAffinity 2.993788
REMARK minimizedRMSD -1
REMARK  1 active torsions:
REMARK  status: ('A' for Active; 'I' for Inactive)
REMARK    1  A    between atoms: C3_4  and  O_7 
ROOT
ATOM      1  C   UNL d   1       3.823   1.191  -0.905  0.00  0.00    -0.033 A 
ATOM      2  C1  UNL d   1       4.869   0.316  -0.605  0.00  0.00     0.039 A 
ATOM      3  C2  UNL d   1       4.610  -1.043  -0.415  0.00  0.00    -0.080 A 
ATOM      4  C3  UNL d   1       3.305  -1.513  -0.530  0.00  0.00     0.150 A 
ATOM      5  C4  UNL d   1       2.260  -0.647  -0.833  0.00  0.00    -0.007 A 
ATOM      6  C5  UNL d   1       2.519   0.710  -1.020  0.00  0.00     0.039 A 
ENDROOT
BRANCH   4   7
ATOM      7  O   UNL d   1       3.003  -2.830  -0.349  0.00  0.00    -0.526 OA
ATOM      8  H5  UNL d   1       3.820  -3.304  -0.118  0.00  0.00     0.418 HD
ENDBRANCH   4   7
TORSDOF 1
ENDMDL
