MODEL 1
REMARK minimizedAffinity -1.74138057
REMARK minimizedRMSD -1
REMARK  1 active torsions:
REMARK  status: ('A' for Active; 'I' for Inactive)
REMARK    1  A    between atoms: C3_4  and  O_7 
ROOT
ATOM      1  C   UNL d   1       2.412  -3.777   2.246  0.00  0.00    -0.033 A 
ATOM      2  C1  UNL d   1       1.571  -2.682   2.456  0.00  0.00     0.039 A 
ATOM      3  C2  UNL d   1       1.414  -1.720   1.457  0.00  0.00    -0.080 A 
ATOM      4  C3  UNL d   1       2.101  -1.864   0.254  0.00  0.00     0.150 A 
ATOM      5  C4  UNL d   1       2.937  -2.954   0.038  0.00  0.00    -0.007 A 
ATOM      6  C5  UNL d   1       3.093  -3.914   1.037  0.00  0.00     0.039 A 
ENDROOT
BRANCH   4   7
ATOM      7  O   UNL d   1       1.983  -0.948  -0.748  0.00  0.00    -0.526 OA
ATOM      8  H5  UNL d   1       1.396  -0.235  -0.446  0.00  0.00     0.418 HD
ENDBRANCH   4   7
TORSDOF 1
ENDMDL
