MODEL 1
REMARK minimizedAffinity 2.94697857
REMARK minimizedRMSD -1
REMARK  1 active torsions:
REMARK  status: ('A' for Active; 'I' for Inactive)
REMARK    1  A    between atoms: C3_4  and  O_7 
ROOT
ATOM      1  C   UNL d   1       4.453  -5.121   3.835  0.00  0.00    -0.033 A 
ATOM      2  C1  UNL d   1       4.505  -5.204   5.228  0.00  0.00     0.039 A 
ATOM      3  C2  UNL d   1       5.022  -4.142   5.973  0.00  0.00    -0.080 A 
ATOM      4  C3  UNL d   1       5.482  -3.005   5.315  0.00  0.00     0.150 A 
ATOM      5  C4  UNL d   1       5.430  -2.914   3.928  0.00  0.00    -0.007 A 
ATOM      6  C5  UNL d   1       4.914  -3.975   3.185  0.00  0.00     0.039 A 
ENDROOT
BRANCH   4   7
ATOM      7  O   UNL d   1       5.999  -1.946   6.000  0.00  0.00    -0.526 OA
ATOM      8  H5  UNL d   1       5.999  -2.162   6.947  0.00  0.00     0.418 HD
ENDBRANCH   4   7
TORSDOF 1
ENDMDL
