MODEL 1
REMARK minimizedAffinity -1.09909499
REMARK minimizedRMSD -1
REMARK  1 active torsions:
REMARK  status: ('A' for Active; 'I' for Inactive)
REMARK    1  A    between atoms: C3_4  and  O_7 
ROOT
ATOM      1  C   UNL d   1       4.700  -5.440   2.281  0.00  0.00    -0.033 A 
ATOM      2  C1  UNL d   1       3.951  -4.664   3.168  0.00  0.00     0.039 A 
ATOM      3  C2  UNL d   1       3.036  -3.729   2.680  0.00  0.00    -0.080 A 
ATOM      4  C3  UNL d   1       2.880  -3.580   1.304  0.00  0.00     0.150 A 
ATOM      5  C4  UNL d   1       3.619  -4.352   0.415  0.00  0.00    -0.007 A 
ATOM      6  C5  UNL d   1       4.533  -5.285   0.904  0.00  0.00     0.039 A 
ENDROOT
BRANCH   4   7
ATOM      7  O   UNL d   1       2.003  -2.677   0.781  0.00  0.00    -0.526 OA
ATOM      8  H5  UNL d   1       1.583  -2.195   1.513  0.00  0.00     0.418 HD
ENDBRANCH   4   7
TORSDOF 1
ENDMDL
