MODEL 1
REMARK minimizedAffinity -1.39006543
REMARK minimizedRMSD -1
REMARK  1 active torsions:
REMARK  status: ('A' for Active; 'I' for Inactive)
REMARK    1  A    between atoms: C3_4  and  O_7 
ROOT
ATOM      1  C   UNL d   1      -0.344  -2.830   3.373  0.00  0.00    -0.033 A 
ATOM      2  C1  UNL d   1      -0.011  -1.795   2.496  0.00  0.00     0.039 A 
ATOM      3  C2  UNL d   1       0.899  -2.021   1.461  0.00  0.00    -0.080 A 
ATOM      4  C3  UNL d   1       1.466  -3.284   1.313  0.00  0.00     0.150 A 
ATOM      5  C4  UNL d   1       1.135  -4.320   2.180  0.00  0.00    -0.007 A 
ATOM      6  C5  UNL d   1       0.227  -4.093   3.214  0.00  0.00     0.039 A 
ENDROOT
BRANCH   4   7
ATOM      7  O   UNL d   1       2.362  -3.551   0.321  0.00  0.00    -0.526 OA
ATOM      8  H5  UNL d   1       2.516  -2.734  -0.182  0.00  0.00     0.418 HD
ENDBRANCH   4   7
TORSDOF 1
ENDMDL
