MODEL 1
REMARK minimizedAffinity 1.89294899
REMARK minimizedRMSD -1
REMARK  1 active torsions:
REMARK  status: ('A' for Active; 'I' for Inactive)
REMARK    1  A    between atoms: C3_4  and  O_7 
ROOT
ATOM      1  C   UNL d   1       3.738   5.999   4.288  0.00  0.00    -0.033 A 
ATOM      2  C1  UNL d   1       3.218   6.000   5.584  0.00  0.00     0.039 A 
ATOM      3  C2  UNL d   1       1.836   5.998   5.783  0.00  0.00    -0.080 A 
ATOM      4  C3  UNL d   1       0.986   5.994   4.681  0.00  0.00     0.150 A 
ATOM      5  C4  UNL d   1       1.497   5.989   3.387  0.00  0.00    -0.007 A 
ATOM      6  C5  UNL d   1       2.878   5.992   3.190  0.00  0.00     0.039 A 
ENDROOT
BRANCH   4   7
ATOM      7  O   UNL d   1      -0.369   5.996   4.825  0.00  0.00    -0.526 OA
ATOM      8  H5  UNL d   1      -0.578   6.029   5.774  0.00  0.00     0.418 HD
ENDBRANCH   4   7
TORSDOF 1
ENDMDL
