MODEL 1
REMARK minimizedAffinity 0.0189356692
REMARK minimizedRMSD -1
REMARK  1 active torsions:
REMARK  status: ('A' for Active; 'I' for Inactive)
REMARK    1  A    between atoms: C3_4  and  O_7 
ROOT
ATOM      1  C   UNL d   1      -2.020  -0.645   0.515  0.00  0.00    -0.033 A 
ATOM      2  C1  UNL d   1      -2.684   0.288   1.315  0.00  0.00     0.039 A 
ATOM      3  C2  UNL d   1      -2.081   1.513   1.609  0.00  0.00    -0.080 A 
ATOM      4  C3  UNL d   1      -0.818   1.793   1.095  0.00  0.00     0.150 A 
ATOM      5  C4  UNL d   1      -0.153   0.871   0.294  0.00  0.00    -0.007 A 
ATOM      6  C5  UNL d   1      -0.756  -0.352   0.004  0.00  0.00     0.039 A 
ENDROOT
BRANCH   4   7
ATOM      7  O   UNL d   1      -0.188   2.973   1.358  0.00  0.00    -0.526 OA
ATOM      8  H5  UNL d   1      -0.754   3.500   1.947  0.00  0.00     0.418 HD
ENDBRANCH   4   7
TORSDOF 1
ENDMDL
