MODEL 1
REMARK minimizedAffinity 7.19956398
REMARK minimizedRMSD -1
REMARK  1 active torsions:
REMARK  status: ('A' for Active; 'I' for Inactive)
REMARK    1  A    between atoms: C3_4  and  O_7 
ROOT
ATOM      1  C   UNL d   1       1.218   3.543   2.333  0.00  0.00    -0.033 A 
ATOM      2  C1  UNL d   1       2.514   3.141   2.003  0.00  0.00     0.039 A 
ATOM      3  C2  UNL d   1       2.716   2.146   1.045  0.00  0.00    -0.080 A 
ATOM      4  C3  UNL d   1       1.615   1.562   0.424  0.00  0.00     0.150 A 
ATOM      5  C4  UNL d   1       0.321   1.960   0.744  0.00  0.00    -0.007 A 
ATOM      6  C5  UNL d   1       0.122   2.954   1.702  0.00  0.00     0.039 A 
ENDROOT
BRANCH   4   7
ATOM      7  O   UNL d   1       1.762   0.584  -0.514  0.00  0.00    -0.526 OA
ATOM      8  H5  UNL d   1       2.710   0.392  -0.613  0.00  0.00     0.418 HD
ENDBRANCH   4   7
TORSDOF 1
ENDMDL
