MODEL 1
REMARK minimizedAffinity 7.43879795
REMARK minimizedRMSD -1
REMARK  1 active torsions:
REMARK  status: ('A' for Active; 'I' for Inactive)
REMARK    1  A    between atoms: C3_4  and  O_7 
ROOT
ATOM      1  C   UNL d   1       0.075   0.607   0.715  0.00  0.00    -0.033 A 
ATOM      2  C1  UNL d   1      -0.605  -0.359  -0.030  0.00  0.00     0.039 A 
ATOM      3  C2  UNL d   1       0.060  -1.064  -1.035  0.00  0.00    -0.080 A 
ATOM      4  C3  UNL d   1       1.403  -0.794  -1.285  0.00  0.00     0.150 A 
ATOM      5  C4  UNL d   1       2.087   0.164  -0.544  0.00  0.00    -0.007 A 
ATOM      6  C5  UNL d   1       1.421   0.868   0.459  0.00  0.00     0.039 A 
ENDROOT
BRANCH   4   7
ATOM      7  O   UNL d   1       2.093  -1.452  -2.259  0.00  0.00    -0.526 OA
ATOM      8  H5  UNL d   1       1.485  -2.064  -2.707  0.00  0.00     0.418 HD
ENDBRANCH   4   7
TORSDOF 1
ENDMDL
