MODEL 1
REMARK minimizedAffinity -1.6164273
REMARK minimizedRMSD -1
REMARK  1 active torsions:
REMARK  status: ('A' for Active; 'I' for Inactive)
REMARK    1  A    between atoms: C3_4  and  O_7 
ROOT
ATOM      1  C   UNL d   1      -2.767   1.222   1.086  0.00  0.00    -0.033 A 
ATOM      2  C1  UNL d   1      -1.814   2.214   0.847  0.00  0.00     0.039 A 
ATOM      3  C2  UNL d   1      -0.464   1.877   0.742  0.00  0.00    -0.080 A 
ATOM      4  C3  UNL d   1      -0.079   0.546   0.876  0.00  0.00     0.150 A 
ATOM      5  C4  UNL d   1      -1.023  -0.449   1.110  0.00  0.00    -0.007 A 
ATOM      6  C5  UNL d   1      -2.372  -0.110   1.216  0.00  0.00     0.039 A 
ENDROOT
BRANCH   4   7
ATOM      7  O   UNL d   1       1.228   0.169   0.786  0.00  0.00    -0.526 OA
ATOM      8  H5  UNL d   1       1.769   0.965   0.652  0.00  0.00     0.418 HD
ENDBRANCH   4   7
TORSDOF 1
ENDMDL
