MODEL 1
REMARK minimizedAffinity 0.532583177
REMARK minimizedRMSD -1
REMARK  1 active torsions:
REMARK  status: ('A' for Active; 'I' for Inactive)
REMARK    1  A    between atoms: C3_4  and  O_7 
ROOT
ATOM      1  C   UNL d   1      -2.146   1.014   0.584  0.00  0.00    -0.033 A 
ATOM      2  C1  UNL d   1      -1.422  -0.150   0.851  0.00  0.00     0.039 A 
ATOM      3  C2  UNL d   1      -0.054  -0.078   1.117  0.00  0.00    -0.080 A 
ATOM      4  C3  UNL d   1       0.579   1.162   1.114  0.00  0.00     0.150 A 
ATOM      5  C4  UNL d   1      -0.137   2.326   0.852  0.00  0.00    -0.007 A 
ATOM      6  C5  UNL d   1      -1.503   2.252   0.586  0.00  0.00     0.039 A 
ENDROOT
BRANCH   4   7
ATOM      7  O   UNL d   1       1.914   1.282   1.364  0.00  0.00    -0.526 OA
ATOM      8  H5  UNL d   1       2.282   0.393   1.499  0.00  0.00     0.418 HD
ENDBRANCH   4   7
TORSDOF 1
ENDMDL
