MODEL 1
REMARK minimizedAffinity 2.35949278
REMARK minimizedRMSD -1
REMARK  1 active torsions:
REMARK  status: ('A' for Active; 'I' for Inactive)
REMARK    1  A    between atoms: C3_4  and  O_7 
ROOT
ATOM      1  C   UNL d   1       0.179   1.697   0.415  0.00  0.00    -0.033 A 
ATOM      2  C1  UNL d   1      -0.354   2.652   1.282  0.00  0.00     0.039 A 
ATOM      3  C2  UNL d   1       0.456   3.246   2.252  0.00  0.00    -0.080 A 
ATOM      4  C3  UNL d   1       1.795   2.877   2.344  0.00  0.00     0.150 A 
ATOM      5  C4  UNL d   1       2.333   1.928   1.480  0.00  0.00    -0.007 A 
ATOM      6  C5  UNL d   1       1.523   1.336   0.513  0.00  0.00     0.039 A 
ENDROOT
BRANCH   4   7
ATOM      7  O   UNL d   1       2.623   3.425   3.278  0.00  0.00    -0.526 OA
ATOM      8  H5  UNL d   1       2.107   4.042   3.822  0.00  0.00     0.418 HD
ENDBRANCH   4   7
TORSDOF 1
ENDMDL
