MODEL 1
REMARK minimizedAffinity 1.96755588
REMARK minimizedRMSD -1
REMARK  1 active torsions:
REMARK  status: ('A' for Active; 'I' for Inactive)
REMARK    1  A    between atoms: C3_4  and  O_7 
ROOT
ATOM      1  C   UNL d   1      -1.737  -2.958  -1.122  0.00  0.00    -0.033 A 
ATOM      2  C1  UNL d   1      -1.309  -4.283  -1.232  0.00  0.00     0.039 A 
ATOM      3  C2  UNL d   1      -2.117  -5.320  -0.762  0.00  0.00    -0.080 A 
ATOM      4  C3  UNL d   1      -3.349  -5.020  -0.186  0.00  0.00     0.150 A 
ATOM      5  C4  UNL d   1      -3.783  -3.703  -0.077  0.00  0.00    -0.007 A 
ATOM      6  C5  UNL d   1      -2.974  -2.668  -0.546  0.00  0.00     0.039 A 
ENDROOT
BRANCH   4   7
ATOM      7  O   UNL d   1      -4.170  -5.998   0.291  0.00  0.00    -0.526 OA
ATOM      8  H5  UNL d   1      -3.727  -6.855   0.174  0.00  0.00     0.418 HD
ENDBRANCH   4   7
TORSDOF 1
ENDMDL
