MODEL 1
REMARK minimizedAffinity 3.01400304
REMARK minimizedRMSD -1
REMARK  1 active torsions:
REMARK  status: ('A' for Active; 'I' for Inactive)
REMARK    1  A    between atoms: C3_4  and  O_7 
ROOT
ATOM      1  C   UNL d   1      -2.048   5.744  -4.515  0.00  0.00    -0.033 A 
ATOM      2  C1  UNL d   1      -1.860   4.456  -4.009  0.00  0.00     0.039 A 
ATOM      3  C2  UNL d   1      -2.625   3.394  -4.496  0.00  0.00    -0.080 A 
ATOM      4  C3  UNL d   1      -3.572   3.633  -5.488  0.00  0.00     0.150 A 
ATOM      5  C4  UNL d   1      -3.761   4.912  -6.000  0.00  0.00    -0.007 A 
ATOM      6  C5  UNL d   1      -2.997   5.972  -5.512  0.00  0.00     0.039 A 
ENDROOT
BRANCH   4   7
ATOM      7  O   UNL d   1      -4.346   2.629  -5.991  0.00  0.00    -0.526 OA
ATOM      8  H5  UNL d   1      -4.125   1.807  -5.523  0.00  0.00     0.418 HD
ENDBRANCH   4   7
TORSDOF 1
ENDMDL
