MODEL 1
REMARK minimizedAffinity 4.05059433
REMARK minimizedRMSD -1
REMARK  1 active torsions:
REMARK  status: ('A' for Active; 'I' for Inactive)
REMARK    1  A    between atoms: C3_4  and  O_7 
ROOT
ATOM      1  C   UNL d   1      -2.178   0.446   2.554  0.00  0.00    -0.033 A 
ATOM      2  C1  UNL d   1      -2.036   1.783   2.930  0.00  0.00     0.039 A 
ATOM      3  C2  UNL d   1      -1.710   2.747   1.975  0.00  0.00    -0.080 A 
ATOM      4  C3  UNL d   1      -1.530   2.363   0.649  0.00  0.00     0.150 A 
ATOM      5  C4  UNL d   1      -1.674   1.033   0.267  0.00  0.00    -0.007 A 
ATOM      6  C5  UNL d   1      -1.998   0.071   1.223  0.00  0.00     0.039 A 
ENDROOT
BRANCH   4   7
ATOM      7  O   UNL d   1      -1.206   3.267  -0.318  0.00  0.00    -0.526 OA
ATOM      8  H5  UNL d   1      -1.112   4.141   0.097  0.00  0.00     0.418 HD
ENDBRANCH   4   7
TORSDOF 1
ENDMDL
