MODEL 1
REMARK minimizedAffinity -0.983300149
REMARK minimizedRMSD -1
REMARK  1 active torsions:
REMARK  status: ('A' for Active; 'I' for Inactive)
REMARK    1  A    between atoms: C3_4  and  O_7 
ROOT
ATOM      1  C   UNL d   1      -1.322   1.314   0.539  0.00  0.00    -0.033 A 
ATOM      2  C1  UNL d   1      -0.944   2.528   1.116  0.00  0.00     0.039 A 
ATOM      3  C2  UNL d   1       0.368   2.714   1.557  0.00  0.00    -0.080 A 
ATOM      4  C3  UNL d   1       1.290   1.681   1.415  0.00  0.00     0.150 A 
ATOM      5  C4  UNL d   1       0.920   0.470   0.838  0.00  0.00    -0.007 A 
ATOM      6  C5  UNL d   1      -0.390   0.286   0.399  0.00  0.00     0.039 A 
ENDROOT
BRANCH   4   7
ATOM      7  O   UNL d   1       2.580   1.814   1.835  0.00  0.00    -0.526 OA
ATOM      8  H5  UNL d   1       2.683   2.692   2.239  0.00  0.00     0.418 HD
ENDBRANCH   4   7
TORSDOF 1
ENDMDL
