MODEL 1
REMARK minimizedAffinity -3.5853107
REMARK minimizedRMSD -1
REMARK  1 active torsions:
REMARK  status: ('A' for Active; 'I' for Inactive)
REMARK    1  A    between atoms: C3_4  and  O_7 
ROOT
ATOM      1  C   UNL d   1      -1.334   0.959   0.640  0.00  0.00    -0.033 A 
ATOM      2  C1  UNL d   1      -0.142   0.230   0.648  0.00  0.00     0.039 A 
ATOM      3  C2  UNL d   1       1.041   0.829   1.085  0.00  0.00    -0.080 A 
ATOM      4  C3  UNL d   1       1.020   2.155   1.510  0.00  0.00     0.150 A 
ATOM      5  C4  UNL d   1      -0.164   2.885   1.507  0.00  0.00    -0.007 A 
ATOM      6  C5  UNL d   1      -1.345   2.286   1.071  0.00  0.00     0.039 A 
ENDROOT
BRANCH   4   7
ATOM      7  O   UNL d   1       2.150   2.783   1.940  0.00  0.00    -0.526 OA
ATOM      8  H5  UNL d   1       2.896   2.165   1.859  0.00  0.00     0.418 HD
ENDBRANCH   4   7
TORSDOF 1
ENDMDL
