MODEL 1
REMARK minimizedAffinity 2.16525006
REMARK minimizedRMSD -1
REMARK  1 active torsions:
REMARK  status: ('A' for Active; 'I' for Inactive)
REMARK    1  A    between atoms: C3_4  and  O_7 
ROOT
ATOM      1  C   UNL d   1       3.921   3.564   2.665  0.00  0.00    -0.033 A 
ATOM      2  C1  UNL d   1       5.006   3.116   1.910  0.00  0.00     0.039 A 
ATOM      3  C2  UNL d   1       4.801   2.246   0.837  0.00  0.00    -0.080 A 
ATOM      4  C3  UNL d   1       3.507   1.834   0.529  0.00  0.00     0.150 A 
ATOM      5  C4  UNL d   1       2.421   2.280   1.275  0.00  0.00    -0.007 A 
ATOM      6  C5  UNL d   1       2.628   3.147   2.346  0.00  0.00     0.039 A 
ENDROOT
BRANCH   4   7
ATOM      7  O   UNL d   1       3.258   0.982  -0.506  0.00  0.00    -0.526 OA
ATOM      8  H5  UNL d   1       4.105   0.735  -0.912  0.00  0.00     0.418 HD
ENDBRANCH   4   7
TORSDOF 1
ENDMDL
