MODEL 1
REMARK minimizedAffinity -0.507813334
REMARK minimizedRMSD -1
REMARK  1 active torsions:
REMARK  status: ('A' for Active; 'I' for Inactive)
REMARK    1  A    between atoms: C3_4  and  O_7 
ROOT
ATOM      1  C   UNL d   1       6.000   4.262   5.811  0.00  0.00    -0.033 A 
ATOM      2  C1  UNL d   1       4.872   3.460   5.997  0.00  0.00     0.039 A 
ATOM      3  C2  UNL d   1       3.611   3.928   5.624  0.00  0.00    -0.080 A 
ATOM      4  C3  UNL d   1       3.491   5.197   5.065  0.00  0.00     0.150 A 
ATOM      5  C4  UNL d   1       4.610   6.000   4.872  0.00  0.00    -0.007 A 
ATOM      6  C5  UNL d   1       5.869   5.531   5.247  0.00  0.00     0.039 A 
ENDROOT
BRANCH   4   7
ATOM      7  O   UNL d   1       2.280   5.699   4.689  0.00  0.00    -0.526 OA
ATOM      8  H5  UNL d   1       1.595   5.045   4.908  0.00  0.00     0.418 HD
ENDBRANCH   4   7
TORSDOF 1
ENDMDL
