MODEL 1
REMARK minimizedAffinity -1.0032419
REMARK minimizedRMSD -1
REMARK  1 active torsions:
REMARK  status: ('A' for Active; 'I' for Inactive)
REMARK    1  A    between atoms: C3_4  and  O_7 
ROOT
ATOM      1  C   UNL d   1       5.974   4.427   5.816  0.00  0.00    -0.033 A 
ATOM      2  C1  UNL d   1       5.054   3.393   5.999  0.00  0.00     0.039 A 
ATOM      3  C2  UNL d   1       3.684   3.662   5.965  0.00  0.00    -0.080 A 
ATOM      4  C3  UNL d   1       3.249   4.966   5.747  0.00  0.00     0.150 A 
ATOM      5  C4  UNL d   1       4.161   6.000   5.559  0.00  0.00    -0.007 A 
ATOM      6  C5  UNL d   1       5.528   5.730   5.594  0.00  0.00     0.039 A 
ENDROOT
BRANCH   4   7
ATOM      7  O   UNL d   1       1.922   5.278   5.710  0.00  0.00    -0.526 OA
ATOM      8  H5  UNL d   1       1.411   4.470   5.883  0.00  0.00     0.418 HD
ENDBRANCH   4   7
TORSDOF 1
ENDMDL
