MODEL 1
REMARK minimizedAffinity 5.87979603
REMARK minimizedRMSD -1
REMARK  1 active torsions:
REMARK  status: ('A' for Active; 'I' for Inactive)
REMARK    1  A    between atoms: C3_4  and  O_7 
ROOT
ATOM      1  C   UNL d   1       3.622   5.936   5.170  0.00  0.00    -0.033 A 
ATOM      2  C1  UNL d   1       3.060   4.816   5.785  0.00  0.00     0.039 A 
ATOM      3  C2  UNL d   1       3.831   3.671   5.992  0.00  0.00    -0.080 A 
ATOM      4  C3  UNL d   1       5.161   3.659   5.581  0.00  0.00     0.150 A 
ATOM      5  C4  UNL d   1       5.728   4.773   4.972  0.00  0.00    -0.007 A 
ATOM      6  C5  UNL d   1       4.956   5.916   4.765  0.00  0.00     0.039 A 
ENDROOT
BRANCH   4   7
ATOM      7  O   UNL d   1       5.952   2.563   5.757  0.00  0.00    -0.526 OA
ATOM      8  H5  UNL d   1       5.417   1.860   6.164  0.00  0.00     0.418 HD
ENDBRANCH   4   7
TORSDOF 1
ENDMDL
