MODEL 1
REMARK minimizedAffinity 3.43291783
REMARK minimizedRMSD -1
REMARK  1 active torsions:
REMARK  status: ('A' for Active; 'I' for Inactive)
REMARK    1  A    between atoms: C3_4  and  O_7 
ROOT
ATOM      1  C   UNL d   1       1.708  -1.224   1.970  0.00  0.00    -0.033 A 
ATOM      2  C1  UNL d   1       2.106  -1.269   3.307  0.00  0.00     0.039 A 
ATOM      3  C2  UNL d   1       1.191  -0.976   4.320  0.00  0.00    -0.080 A 
ATOM      4  C3  UNL d   1      -0.117  -0.641   3.983  0.00  0.00     0.150 A 
ATOM      5  C4  UNL d   1      -0.522  -0.599   2.653  0.00  0.00    -0.007 A 
ATOM      6  C5  UNL d   1       0.393  -0.891   1.643  0.00  0.00     0.039 A 
ENDROOT
BRANCH   4   7
ATOM      7  O   UNL d   1      -1.045  -0.343   4.937  0.00  0.00    -0.526 OA
ATOM      8  H5  UNL d   1      -0.615  -0.384   5.807  0.00  0.00     0.418 HD
ENDBRANCH   4   7
TORSDOF 1
ENDMDL
