MODEL 1
REMARK minimizedAffinity 0.386218578
REMARK minimizedRMSD -1
REMARK  1 active torsions:
REMARK  status: ('A' for Active; 'I' for Inactive)
REMARK    1  A    between atoms: C3_4  and  O_7 
ROOT
ATOM      1  C   UNL d   1       4.661   5.946   5.998  0.00  0.00    -0.033 A 
ATOM      2  C1  UNL d   1       5.755   6.000   5.133  0.00  0.00     0.039 A 
ATOM      3  C2  UNL d   1       5.999   4.948   4.248  0.00  0.00    -0.080 A 
ATOM      4  C3  UNL d   1       5.142   3.850   4.238  0.00  0.00     0.150 A 
ATOM      5  C4  UNL d   1       4.048   3.793   5.095  0.00  0.00    -0.007 A 
ATOM      6  C5  UNL d   1       3.806   4.844   5.978  0.00  0.00     0.039 A 
ENDROOT
BRANCH   4   7
ATOM      7  O   UNL d   1       5.342   2.798   3.395  0.00  0.00    -0.526 OA
ATOM      8  H5  UNL d   1       6.151   2.963   2.883  0.00  0.00     0.418 HD
ENDBRANCH   4   7
TORSDOF 1
ENDMDL
