MODEL 1
REMARK minimizedAffinity 2.61092949
REMARK minimizedRMSD -1
REMARK  1 active torsions:
REMARK  status: ('A' for Active; 'I' for Inactive)
REMARK    1  A    between atoms: C3_4  and  O_7 
ROOT
ATOM      1  C   UNL d   1       5.984   4.446   5.451  0.00  0.00    -0.033 A 
ATOM      2  C1  UNL d   1       5.045   3.531   5.933  0.00  0.00     0.039 A 
ATOM      3  C2  UNL d   1       3.686   3.851   5.920  0.00  0.00    -0.080 A 
ATOM      4  C3  UNL d   1       3.279   5.086   5.422  0.00  0.00     0.150 A 
ATOM      5  C4  UNL d   1       4.208   6.000   4.937  0.00  0.00    -0.007 A 
ATOM      6  C5  UNL d   1       5.565   5.680   4.952  0.00  0.00     0.039 A 
ENDROOT
BRANCH   4   7
ATOM      7  O   UNL d   1       1.964   5.444   5.394  0.00  0.00    -0.526 OA
ATOM      8  H5  UNL d   1       1.441   4.726   5.787  0.00  0.00     0.418 HD
ENDBRANCH   4   7
TORSDOF 1
ENDMDL
