MODEL 1
REMARK minimizedAffinity -5.21098471
REMARK minimizedRMSD -1
REMARK  1 active torsions:
REMARK  status: ('A' for Active; 'I' for Inactive)
REMARK    1  A    between atoms: C3_4  and  O_7 
ROOT
ATOM      1  C   UNL d   1       0.259  -0.230   0.243  0.00  0.00    -0.033 A 
ATOM      2  C1  UNL d   1      -0.396   0.342  -0.849  0.00  0.00     0.039 A 
ATOM      3  C2  UNL d   1      -1.777   0.193  -0.994  0.00  0.00    -0.080 A 
ATOM      4  C3  UNL d   1      -2.490  -0.528  -0.040  0.00  0.00     0.150 A 
ATOM      5  C4  UNL d   1      -1.845  -1.097   1.053  0.00  0.00    -0.007 A 
ATOM      6  C5  UNL d   1      -0.466  -0.948   1.195  0.00  0.00     0.039 A 
ENDROOT
BRANCH   4   7
ATOM      7  O   UNL d   1      -3.838  -0.704  -0.142  0.00  0.00    -0.526 OA
ATOM      8  H5  UNL d   1      -4.143  -0.281  -0.961  0.00  0.00     0.418 HD
ENDBRANCH   4   7
TORSDOF 1
ENDMDL
