MODEL 1
REMARK minimizedAffinity -3.2727201
REMARK minimizedRMSD -1
REMARK  1 active torsions:
REMARK  status: ('A' for Active; 'I' for Inactive)
REMARK    1  A    between atoms: C3_4  and  O_7 
ROOT
ATOM      1  C   UNL d   1       1.268  -0.419   0.171  0.00  0.00    -0.033 A 
ATOM      2  C1  UNL d   1       0.874   0.191  -1.022  0.00  0.00     0.039 A 
ATOM      3  C2  UNL d   1      -0.443   0.069  -1.469  0.00  0.00    -0.080 A 
ATOM      4  C3  UNL d   1      -1.356  -0.663  -0.715  0.00  0.00     0.150 A 
ATOM      5  C4  UNL d   1      -0.972  -1.270   0.476  0.00  0.00    -0.007 A 
ATOM      6  C5  UNL d   1       0.344  -1.148   0.921  0.00  0.00     0.039 A 
ENDROOT
BRANCH   4   7
ATOM      7  O   UNL d   1      -2.651  -0.813  -1.113  0.00  0.00    -0.526 OA
ATOM      8  H5  UNL d   1      -2.764  -0.364  -1.968  0.00  0.00     0.418 HD
ENDBRANCH   4   7
TORSDOF 1
ENDMDL
