MODEL 1
REMARK minimizedAffinity -1.72324193
REMARK minimizedRMSD -1
REMARK  1 active torsions:
REMARK  status: ('A' for Active; 'I' for Inactive)
REMARK    1  A    between atoms: C3_4  and  O_7 
ROOT
ATOM      1  C   UNL d   1       5.152  -0.552  -2.739  0.00  0.00    -0.033 A 
ATOM      2  C1  UNL d   1       5.715   0.724  -2.811  0.00  0.00     0.039 A 
ATOM      3  C2  UNL d   1       6.000   1.430  -1.641  0.00  0.00    -0.080 A 
ATOM      4  C3  UNL d   1       5.718   0.850  -0.407  0.00  0.00     0.150 A 
ATOM      5  C4  UNL d   1       5.161  -0.422  -0.328  0.00  0.00    -0.007 A 
ATOM      6  C5  UNL d   1       4.876  -1.125  -1.497  0.00  0.00     0.039 A 
ENDROOT
BRANCH   4   7
ATOM      7  O   UNL d   1       5.974   1.503   0.762  0.00  0.00    -0.526 OA
ATOM      8  H5  UNL d   1       6.332   2.382   0.552  0.00  0.00     0.418 HD
ENDBRANCH   4   7
TORSDOF 1
ENDMDL
