MODEL 1
REMARK minimizedAffinity -3.39772224
REMARK minimizedRMSD -1
REMARK  1 active torsions:
REMARK  status: ('A' for Active; 'I' for Inactive)
REMARK    1  A    between atoms: C3_4  and  O_7 
ROOT
ATOM      1  C   UNL d   1      -2.245  -1.574   1.487  0.00  0.00    -0.033 A 
ATOM      2  C1  UNL d   1      -3.245  -2.294   0.830  0.00  0.00     0.039 A 
ATOM      3  C2  UNL d   1      -3.403  -2.172  -0.552  0.00  0.00    -0.080 A 
ATOM      4  C3  UNL d   1      -2.555  -1.329  -1.264  0.00  0.00     0.150 A 
ATOM      5  C4  UNL d   1      -1.554  -0.612  -0.617  0.00  0.00    -0.007 A 
ATOM      6  C5  UNL d   1      -1.399  -0.734   0.763  0.00  0.00     0.039 A 
ENDROOT
BRANCH   4   7
ATOM      7  O   UNL d   1      -2.673  -1.174  -2.614  0.00  0.00    -0.526 OA
ATOM      8  H5  UNL d   1      -3.425  -1.708  -2.920  0.00  0.00     0.418 HD
ENDBRANCH   4   7
TORSDOF 1
ENDMDL
