MODEL 1
REMARK minimizedAffinity -3.54925656
REMARK minimizedRMSD -1
REMARK  1 active torsions:
REMARK  status: ('A' for Active; 'I' for Inactive)
REMARK    1  A    between atoms: C3_4  and  O_7 
ROOT
ATOM      1  C   UNL d   1       0.819   0.337  -0.704  0.00  0.00    -0.033 A 
ATOM      2  C1  UNL d   1       0.586  -0.226   0.552  0.00  0.00     0.039 A 
ATOM      3  C2  UNL d   1      -0.636  -0.845   0.826  0.00  0.00    -0.080 A 
ATOM      4  C3  UNL d   1      -1.613  -0.895  -0.164  0.00  0.00     0.150 A 
ATOM      5  C4  UNL d   1      -1.386  -0.340  -1.419  0.00  0.00    -0.007 A 
ATOM      6  C5  UNL d   1      -0.166   0.278  -1.690  0.00  0.00     0.039 A 
ENDROOT
BRANCH   4   7
ATOM      7  O   UNL d   1      -2.823  -1.484   0.058  0.00  0.00    -0.526 OA
ATOM      8  H5  UNL d   1      -2.848  -1.798   0.977  0.00  0.00     0.418 HD
ENDBRANCH   4   7
TORSDOF 1
ENDMDL
