MODEL 1
REMARK minimizedAffinity -2.89044642
REMARK minimizedRMSD -1
REMARK  1 active torsions:
REMARK  status: ('A' for Active; 'I' for Inactive)
REMARK    1  A    between atoms: C3_4  and  O_7 
ROOT
ATOM      1  C   UNL d   1      -3.251  -1.114  -0.395  0.00  0.00    -0.033 A 
ATOM      2  C1  UNL d   1      -2.948  -0.665   0.891  0.00  0.00     0.039 A 
ATOM      3  C2  UNL d   1      -1.819  -1.150   1.554  0.00  0.00    -0.080 A 
ATOM      4  C3  UNL d   1      -1.001  -2.081   0.919  0.00  0.00     0.150 A 
ATOM      5  C4  UNL d   1      -1.295  -2.530  -0.364  0.00  0.00    -0.007 A 
ATOM      6  C5  UNL d   1      -2.424  -2.046  -1.024  0.00  0.00     0.039 A 
ENDROOT
BRANCH   4   7
ATOM      7  O   UNL d   1       0.109  -2.586   1.527  0.00  0.00    -0.526 OA
ATOM      8  H5  UNL d   1       0.171  -2.207   2.420  0.00  0.00     0.418 HD
ENDBRANCH   4   7
TORSDOF 1
ENDMDL
