MODEL 1
REMARK minimizedAffinity -3.30218887
REMARK minimizedRMSD -1
REMARK  1 active torsions:
REMARK  status: ('A' for Active; 'I' for Inactive)
REMARK    1  A    between atoms: C3_4  and  O_7 
ROOT
ATOM      1  C   UNL d   1      -0.070   0.223  -0.838  0.00  0.00    -0.033 A 
ATOM      2  C1  UNL d   1      -0.492   0.195   0.493  0.00  0.00     0.039 A 
ATOM      3  C2  UNL d   1      -1.825  -0.084   0.800  0.00  0.00    -0.080 A 
ATOM      4  C3  UNL d   1      -2.726  -0.333  -0.233  0.00  0.00     0.150 A 
ATOM      5  C4  UNL d   1      -2.312  -0.311  -1.560  0.00  0.00    -0.007 A 
ATOM      6  C5  UNL d   1      -0.980  -0.032  -1.864  0.00  0.00     0.039 A 
ENDROOT
BRANCH   4   7
ATOM      7  O   UNL d   1      -4.038  -0.605   0.017  0.00  0.00    -0.526 OA
ATOM      8  H5  UNL d   1      -4.185  -0.558   0.976  0.00  0.00     0.418 HD
ENDBRANCH   4   7
TORSDOF 1
ENDMDL
