MODEL 1
REMARK minimizedAffinity -2.22593236
REMARK minimizedRMSD -1
REMARK  1 active torsions:
REMARK  status: ('A' for Active; 'I' for Inactive)
REMARK    1  A    between atoms: C3_4  and  O_7 
ROOT
ATOM      1  C   UNL d   1       0.870  -0.143  -0.397  0.00  0.00    -0.033 A 
ATOM      2  C1  UNL d   1       0.356  -0.499   0.851  0.00  0.00     0.039 A 
ATOM      3  C2  UNL d   1      -1.002  -0.790   0.992  0.00  0.00    -0.080 A 
ATOM      4  C3  UNL d   1      -1.835  -0.721  -0.122  0.00  0.00     0.150 A 
ATOM      5  C4  UNL d   1      -1.329  -0.371  -1.369  0.00  0.00    -0.007 A 
ATOM      6  C5  UNL d   1       0.027  -0.080  -1.508  0.00  0.00     0.039 A 
ENDROOT
BRANCH   4   7
ATOM      7  O   UNL d   1      -3.168  -0.991  -0.032  0.00  0.00    -0.526 OA
ATOM      8  H5  UNL d   1      -3.380  -1.190   0.895  0.00  0.00     0.418 HD
ENDBRANCH   4   7
TORSDOF 1
ENDMDL
