MODEL 1
REMARK minimizedAffinity -3.79270482
REMARK minimizedRMSD -1
REMARK  1 active torsions:
REMARK  status: ('A' for Active; 'I' for Inactive)
REMARK    1  A    between atoms: C3_4  and  O_7 
ROOT
ATOM      1  C   UNL d   1       0.263  -0.953   1.266  0.00  0.00    -0.033 A 
ATOM      2  C1  UNL d   1      -0.725  -1.880   1.603  0.00  0.00     0.039 A 
ATOM      3  C2  UNL d   1      -1.930  -1.906   0.898  0.00  0.00    -0.080 A 
ATOM      4  C3  UNL d   1      -2.133  -1.002  -0.141  0.00  0.00     0.150 A 
ATOM      5  C4  UNL d   1      -1.152  -0.079  -0.485  0.00  0.00    -0.007 A 
ATOM      6  C5  UNL d   1       0.050  -0.053   0.221  0.00  0.00     0.039 A 
ENDROOT
BRANCH   4   7
ATOM      7  O   UNL d   1      -3.295  -0.987  -0.854  0.00  0.00    -0.526 OA
ATOM      8  H5  UNL d   1      -3.891  -1.660  -0.486  0.00  0.00     0.418 HD
ENDBRANCH   4   7
TORSDOF 1
ENDMDL
