MODEL 1
REMARK minimizedAffinity 1.34039259
REMARK minimizedRMSD -1
REMARK  0 active torsions:
REMARK  status: ('A' for Active; 'I' for Inactive)
ROOT
ATOM      1  C2' OXE d   1       3.502  -2.766  -1.795  0.00  0.00     0.078 C 
ATOM      2  C1' OXE d   1       1.195  -2.515  -0.216  0.00  0.00     0.078 C 
ATOM      3  C1  OXE d   1       2.086  -1.306  -0.357  0.00  0.00    -0.078 A 
ATOM      4  C2  OXE d   1       3.237  -1.452  -1.093  0.00  0.00    -0.078 A 
ATOM      5  C3  OXE d   1       4.067  -0.354  -1.299  0.00  0.00     0.003 A 
ATOM      6  C4  OXE d   1       3.819   0.856  -0.638  0.00  0.00    -0.002 A 
ATOM      7  C5  OXE d   1       2.673   1.013   0.148  0.00  0.00    -0.002 A 
ATOM      8  C6  OXE d   1       1.776  -0.042   0.265  0.00  0.00     0.003 A 
ENDROOT
TORSDOF 0
ENDMDL
