MODEL 1
REMARK minimizedAffinity 7.19486761
REMARK minimizedRMSD -1
REMARK  0 active torsions:
REMARK  status: ('A' for Active; 'I' for Inactive)
ROOT
ATOM      1  C2' OXE d   1       2.376   0.635   0.553  0.00  0.00     0.078 C 
ATOM      2  C1' OXE d   1       1.306   0.877   3.137  0.00  0.00     0.078 C 
ATOM      3  C1  OXE d   1       0.395   1.163   1.969  0.00  0.00    -0.078 A 
ATOM      4  C2  OXE d   1       0.940   1.087   0.709  0.00  0.00    -0.078 A 
ATOM      5  C3  OXE d   1       0.131   1.287  -0.405  0.00  0.00     0.003 A 
ATOM      6  C4  OXE d   1      -1.194   1.715  -0.251  0.00  0.00    -0.002 A 
ATOM      7  C5  OXE d   1      -1.757   1.837   1.023  0.00  0.00    -0.002 A 
ATOM      8  C6  OXE d   1      -0.990   1.524   2.140  0.00  0.00     0.003 A 
ENDROOT
TORSDOF 0
ENDMDL
