MODEL 1
REMARK minimizedAffinity 1.53930509
REMARK minimizedRMSD -1
REMARK  0 active torsions:
REMARK  status: ('A' for Active; 'I' for Inactive)
ROOT
ATOM      1  C2' OXE d   1       1.951   0.152   0.161  0.00  0.00     0.078 C 
ATOM      2  C1' OXE d   1      -0.458   1.562  -0.136  0.00  0.00     0.078 C 
ATOM      3  C1  OXE d   1      -0.154   0.966   1.215  0.00  0.00    -0.078 A 
ATOM      4  C2  OXE d   1       1.004   0.238   1.339  0.00  0.00    -0.078 A 
ATOM      5  C3  OXE d   1       1.359  -0.287   2.579  0.00  0.00     0.003 A 
ATOM      6  C4  OXE d   1       0.474  -0.212   3.660  0.00  0.00    -0.002 A 
ATOM      7  C5  OXE d   1      -0.730   0.491   3.545  0.00  0.00    -0.002 A 
ATOM      8  C6  OXE d   1      -1.039   1.121   2.344  0.00  0.00     0.003 A 
ENDROOT
TORSDOF 0
ENDMDL
