MODEL 1
REMARK minimizedAffinity 5.91075897
REMARK minimizedRMSD -1
REMARK  0 active torsions:
REMARK  status: ('A' for Active; 'I' for Inactive)
ROOT
ATOM      1  C2' OXE d   1      -1.087  -0.049  -2.270  0.00  0.00     0.078 C 
ATOM      2  C1' OXE d   1      -3.727  -0.770  -1.645  0.00  0.00     0.078 C 
ATOM      3  C1  OXE d   1      -3.490  -0.013  -2.928  0.00  0.00    -0.078 A 
ATOM      4  C2  OXE d   1      -2.201   0.377  -3.203  0.00  0.00    -0.078 A 
ATOM      5  C3  OXE d   1      -1.918   1.029  -4.399  0.00  0.00     0.003 A 
ATOM      6  C4  OXE d   1      -2.955   1.428  -5.251  0.00  0.00    -0.002 A 
ATOM      7  C5  OXE d   1      -4.280   1.076  -4.971  0.00  0.00    -0.002 A 
ATOM      8  C6  OXE d   1      -4.558   0.321  -3.837  0.00  0.00     0.003 A 
ENDROOT
TORSDOF 0
ENDMDL
