MODEL 1
REMARK minimizedAffinity 4.3843689
REMARK minimizedRMSD -1
REMARK  0 active torsions:
REMARK  status: ('A' for Active; 'I' for Inactive)
ROOT
ATOM      1  C2' OXE d   1       2.300  -2.053   0.143  0.00  0.00     0.078 C 
ATOM      2  C1' OXE d   1       1.090   0.461   0.457  0.00  0.00     0.078 C 
ATOM      3  C1  OXE d   1       2.588   0.418   0.283  0.00  0.00    -0.078 A 
ATOM      4  C2  OXE d   1       3.177  -0.819   0.177  0.00  0.00    -0.078 A 
ATOM      5  C3  OXE d   1       4.548  -0.913  -0.040  0.00  0.00     0.003 A 
ATOM      6  C4  OXE d   1       5.353   0.232   0.003  0.00  0.00    -0.002 A 
ATOM      7  C5  OXE d   1       4.778   1.499   0.150  0.00  0.00    -0.002 A 
ATOM      8  C6  OXE d   1       3.395   1.612   0.248  0.00  0.00     0.003 A 
ENDROOT
TORSDOF 0
ENDMDL
