MODEL 1
REMARK minimizedAffinity 1.7235167
REMARK minimizedRMSD -1
REMARK  0 active torsions:
REMARK  status: ('A' for Active; 'I' for Inactive)
ROOT
ATOM      1  C2' OXE d   1       1.947   1.182   0.057  0.00  0.00     0.078 C 
ATOM      2  C1' OXE d   1      -0.807   1.307  -0.474  0.00  0.00     0.078 C 
ATOM      3  C1  OXE d   1      -0.367   1.320   0.969  0.00  0.00    -0.078 A 
ATOM      4  C2  OXE d   1       0.979   1.212   1.221  0.00  0.00    -0.078 A 
ATOM      5  C3  OXE d   1       1.443   1.274   2.532  0.00  0.00     0.003 A 
ATOM      6  C4  OXE d   1       0.541   1.291   3.602  0.00  0.00    -0.002 A 
ATOM      7  C5  OXE d   1      -0.837   1.362   3.369  0.00  0.00    -0.002 A 
ATOM      8  C6  OXE d   1      -1.304   1.420   2.061  0.00  0.00     0.003 A 
ENDROOT
TORSDOF 0
ENDMDL
