MODEL 1
REMARK minimizedAffinity 2.86097169
REMARK minimizedRMSD -1
REMARK  0 active torsions:
REMARK  status: ('A' for Active; 'I' for Inactive)
ROOT
ATOM      1  C2' OXE d   1       1.502  -0.203   2.958  0.00  0.00     0.078 C 
ATOM      2  C1' OXE d   1       2.351   0.189   0.311  0.00  0.00     0.078 C 
ATOM      3  C1  OXE d   1       0.906   0.475   0.636  0.00  0.00    -0.078 A 
ATOM      4  C2  OXE d   1       0.488   0.235   1.923  0.00  0.00    -0.078 A 
ATOM      5  C3  OXE d   1      -0.821   0.534   2.290  0.00  0.00     0.003 A 
ATOM      6  C4  OXE d   1      -1.755   0.929   1.324  0.00  0.00    -0.002 A 
ATOM      7  C5  OXE d   1      -1.360   1.140  -0.001  0.00  0.00    -0.002 A 
ATOM      8  C6  OXE d   1      -0.027   0.959  -0.352  0.00  0.00     0.003 A 
ENDROOT
TORSDOF 0
ENDMDL
