MODEL 1
REMARK minimizedAffinity -4.95090055
REMARK minimizedRMSD -1
REMARK  0 active torsions:
REMARK  status: ('A' for Active; 'I' for Inactive)
ROOT
ATOM      1  C   UNL d   1       0.715   0.279   3.334  0.00  0.00     0.078 C 
ATOM      2  C1  UNL d   1      -0.255   0.320   2.191  0.00  0.00    -0.077 A 
ATOM      3  C2  UNL d   1      -1.419   1.095   2.260  0.00  0.00    -0.001 A 
ATOM      4  C3  UNL d   1      -2.318   1.116   1.193  0.00  0.00     0.003 A 
ATOM      5  C4  UNL d   1      -2.063   0.363   0.048  0.00  0.00    -0.005 A 
ATOM      6  C5  UNL d   1      -0.908  -0.413  -0.029  0.00  0.00     0.003 A 
ATOM      7  C6  UNL d   1      -0.008  -0.435   1.037  0.00  0.00    -0.001 A 
ENDROOT
TORSDOF 0
ENDMDL
