MODEL 1
REMARK minimizedAffinity -2.57279491
REMARK minimizedRMSD -1
REMARK  0 active torsions:
REMARK  status: ('A' for Active; 'I' for Inactive)
ROOT
ATOM      1  C   UNL d   1      -0.100  -0.198   3.696  0.00  0.00     0.078 C 
ATOM      2  C1  UNL d   1      -0.008  -0.414   2.215  0.00  0.00    -0.077 A 
ATOM      3  C2  UNL d   1       1.214  -0.724   1.606  0.00  0.00    -0.001 A 
ATOM      4  C3  UNL d   1       1.286  -0.914   0.225  0.00  0.00     0.003 A 
ATOM      5  C4  UNL d   1       0.140  -0.794  -0.559  0.00  0.00    -0.005 A 
ATOM      6  C5  UNL d   1      -1.080  -0.484   0.039  0.00  0.00     0.003 A 
ATOM      7  C6  UNL d   1      -1.154  -0.294   1.419  0.00  0.00    -0.001 A 
ENDROOT
TORSDOF 0
ENDMDL
