MODEL 1
REMARK minimizedAffinity -3.56275344
REMARK minimizedRMSD -1
REMARK  0 active torsions:
REMARK  status: ('A' for Active; 'I' for Inactive)
ROOT
ATOM      1  C   UNL d   1      -1.099   1.054   3.299  0.00  0.00     0.078 C 
ATOM      2  C1  UNL d   1      -0.055   0.463   2.401  0.00  0.00    -0.077 A 
ATOM      3  C2  UNL d   1       1.182   0.047   2.909  0.00  0.00    -0.001 A 
ATOM      4  C3  UNL d   1       2.149  -0.493   2.059  0.00  0.00     0.003 A 
ATOM      5  C4  UNL d   1       1.890  -0.621   0.696  0.00  0.00    -0.005 A 
ATOM      6  C5  UNL d   1       0.663  -0.208   0.181  0.00  0.00     0.003 A 
ATOM      7  C6  UNL d   1      -0.305   0.332   1.029  0.00  0.00    -0.001 A 
ENDROOT
TORSDOF 0
ENDMDL
