MODEL 1
REMARK minimizedAffinity -3.13911247
REMARK minimizedRMSD -1
REMARK  0 active torsions:
REMARK  status: ('A' for Active; 'I' for Inactive)
ROOT
ATOM      1  C   UNL d   1      -1.025   0.626   2.906  0.00  0.00     0.078 C 
ATOM      2  C1  UNL d   1      -0.685   0.287   1.485  0.00  0.00    -0.077 A 
ATOM      3  C2  UNL d   1      -1.663   0.313   0.484  0.00  0.00    -0.001 A 
ATOM      4  C3  UNL d   1      -1.334  -0.014  -0.833  0.00  0.00     0.003 A 
ATOM      5  C4  UNL d   1      -0.028  -0.371  -1.160  0.00  0.00    -0.005 A 
ATOM      6  C5  UNL d   1       0.952  -0.402  -0.169  0.00  0.00     0.003 A 
ATOM      7  C6  UNL d   1       0.625  -0.075   1.148  0.00  0.00    -0.001 A 
ENDROOT
TORSDOF 0
ENDMDL
