MODEL 1
REMARK minimizedAffinity -6.35555887
REMARK minimizedRMSD -1
REMARK  0 active torsions:
REMARK  status: ('A' for Active; 'I' for Inactive)
ROOT
ATOM      1  C   UNL d   1       0.673  -0.351  -0.743  0.00  0.00     0.078 C 
ATOM      2  C1  UNL d   1       0.413   0.111   0.660  0.00  0.00    -0.077 A 
ATOM      3  C2  UNL d   1       1.378  -0.050   1.662  0.00  0.00    -0.001 A 
ATOM      4  C3  UNL d   1       1.119   0.375   2.966  0.00  0.00     0.003 A 
ATOM      5  C4  UNL d   1      -0.105   0.963   3.280  0.00  0.00    -0.005 A 
ATOM      6  C5  UNL d   1      -1.072   1.124   2.290  0.00  0.00     0.003 A 
ATOM      7  C6  UNL d   1      -0.815   0.700   0.986  0.00  0.00    -0.001 A 
ENDROOT
TORSDOF 0
ENDMDL
