MODEL 1
REMARK minimizedAffinity -5.91863728
REMARK minimizedRMSD -1
REMARK  0 active torsions:
REMARK  status: ('A' for Active; 'I' for Inactive)
ROOT
ATOM      1  C   UNL d   1       1.783   0.385   2.876  0.00  0.00     0.078 C 
ATOM      2  C1  UNL d   1       0.557   0.323   2.016  0.00  0.00    -0.077 A 
ATOM      3  C2  UNL d   1      -0.699   0.676   2.525  0.00  0.00    -0.001 A 
ATOM      4  C3  UNL d   1      -1.834   0.604   1.716  0.00  0.00     0.003 A 
ATOM      5  C4  UNL d   1      -1.725   0.177   0.394  0.00  0.00    -0.005 A 
ATOM      6  C5  UNL d   1      -0.480  -0.178  -0.121  0.00  0.00     0.003 A 
ATOM      7  C6  UNL d   1       0.656  -0.107   0.687  0.00  0.00    -0.001 A 
ENDROOT
TORSDOF 0
ENDMDL
