MODEL 1
REMARK minimizedAffinity -1.4398216
REMARK minimizedRMSD -1
REMARK  0 active torsions:
REMARK  status: ('A' for Active; 'I' for Inactive)
ROOT
ATOM      1  C   UNL d   1       2.265  -0.754   2.248  0.00  0.00     0.078 C 
ATOM      2  C1  UNL d   1       0.998  -0.514   1.481  0.00  0.00    -0.077 A 
ATOM      3  C2  UNL d   1      -0.186  -0.161   2.138  0.00  0.00    -0.001 A 
ATOM      4  C3  UNL d   1      -1.360   0.051   1.413  0.00  0.00     0.003 A 
ATOM      5  C4  UNL d   1      -1.361  -0.091   0.027  0.00  0.00    -0.005 A 
ATOM      6  C5  UNL d   1      -0.187  -0.445  -0.636  0.00  0.00     0.003 A 
ATOM      7  C6  UNL d   1       0.987  -0.656   0.088  0.00  0.00    -0.001 A 
ENDROOT
TORSDOF 0
ENDMDL
