MODEL 1
REMARK minimizedAffinity 3.67687225
REMARK minimizedRMSD -1
REMARK  0 active torsions:
REMARK  status: ('A' for Active; 'I' for Inactive)
ROOT
ATOM      1  C   UNL d   1      -0.775  -2.062   1.714  0.00  0.00     0.078 C 
ATOM      2  C1  UNL d   1      -1.360  -3.431   1.534  0.00  0.00    -0.077 A 
ATOM      3  C2  UNL d   1      -2.640  -3.602   0.992  0.00  0.00    -0.001 A 
ATOM      4  C3  UNL d   1      -3.176  -4.882   0.840  0.00  0.00     0.003 A 
ATOM      5  C4  UNL d   1      -2.440  -6.000   1.229  0.00  0.00    -0.005 A 
ATOM      6  C5  UNL d   1      -1.167  -5.839   1.771  0.00  0.00     0.003 A 
ATOM      7  C6  UNL d   1      -0.629  -4.560   1.924  0.00  0.00    -0.001 A 
ENDROOT
TORSDOF 0
ENDMDL
