MODEL 1
REMARK minimizedAffinity 0.762076139
REMARK minimizedRMSD -1
REMARK  0 active torsions:
REMARK  status: ('A' for Active; 'I' for Inactive)
ROOT
ATOM      1  C   UNL d   1      -5.455   4.284   5.944  0.00  0.00     0.078 C 
ATOM      2  C1  UNL d   1      -5.449   2.919   5.325  0.00  0.00    -0.077 A 
ATOM      3  C2  UNL d   1      -5.999   1.820   5.996  0.00  0.00    -0.001 A 
ATOM      4  C3  UNL d   1      -5.978   0.553   5.412  0.00  0.00     0.003 A 
ATOM      5  C4  UNL d   1      -5.407   0.372   4.154  0.00  0.00    -0.005 A 
ATOM      6  C5  UNL d   1      -4.854   1.458   3.479  0.00  0.00     0.003 A 
ATOM      7  C6  UNL d   1      -4.875   2.727   4.062  0.00  0.00    -0.001 A 
ENDROOT
TORSDOF 0
ENDMDL
