MODEL 1
REMARK minimizedAffinity 10.3896894
REMARK minimizedRMSD -1
REMARK  0 active torsions:
REMARK  status: ('A' for Active; 'I' for Inactive)
ROOT
ATOM      1  C   UNL d   1      -4.415   0.503   2.938  0.00  0.00     0.078 C 
ATOM      2  C1  UNL d   1      -4.762   1.496   4.006  0.00  0.00    -0.077 A 
ATOM      3  C2  UNL d   1      -5.679   1.179   5.016  0.00  0.00    -0.001 A 
ATOM      4  C3  UNL d   1      -6.000   2.117   5.998  0.00  0.00     0.003 A 
ATOM      5  C4  UNL d   1      -5.410   3.379   5.980  0.00  0.00    -0.005 A 
ATOM      6  C5  UNL d   1      -4.499   3.705   4.977  0.00  0.00     0.003 A 
ATOM      7  C6  UNL d   1      -4.176   2.768   3.994  0.00  0.00    -0.001 A 
ENDROOT
TORSDOF 0
ENDMDL
