MODEL 1
REMARK minimizedAffinity 15.3657312
REMARK minimizedRMSD -1
REMARK  0 active torsions:
REMARK  status: ('A' for Active; 'I' for Inactive)
ROOT
ATOM      1  C   UNL d   1       0.018   0.069   3.795  0.00  0.00     0.078 C 
ATOM      2  C1  UNL d   1      -1.269   0.836   3.724  0.00  0.00    -0.077 A 
ATOM      3  C2  UNL d   1      -1.282   2.233   3.817  0.00  0.00    -0.001 A 
ATOM      4  C3  UNL d   1      -2.488   2.933   3.760  0.00  0.00     0.003 A 
ATOM      5  C4  UNL d   1      -3.690   2.244   3.611  0.00  0.00    -0.005 A 
ATOM      6  C5  UNL d   1      -3.687   0.854   3.520  0.00  0.00     0.003 A 
ATOM      7  C6  UNL d   1      -2.482   0.152   3.577  0.00  0.00    -0.001 A 
ENDROOT
TORSDOF 0
ENDMDL
