MODEL 1
REMARK minimizedAffinity 10.6711493
REMARK minimizedRMSD -1
REMARK  0 active torsions:
REMARK  status: ('A' for Active; 'I' for Inactive)
ROOT
ATOM      1  C   UNL d   1      -2.782  -1.714  -2.196  0.00  0.00     0.078 C 
ATOM      2  C1  UNL d   1      -3.608  -2.964  -2.260  0.00  0.00    -0.077 A 
ATOM      3  C2  UNL d   1      -4.890  -2.954  -2.823  0.00  0.00    -0.001 A 
ATOM      4  C3  UNL d   1      -5.651  -4.123  -2.867  0.00  0.00     0.003 A 
ATOM      5  C4  UNL d   1      -5.139  -5.311  -2.349  0.00  0.00    -0.005 A 
ATOM      6  C5  UNL d   1      -3.865  -5.331  -1.786  0.00  0.00     0.003 A 
ATOM      7  C6  UNL d   1      -3.102  -4.163  -1.741  0.00  0.00    -0.001 A 
ENDROOT
TORSDOF 0
ENDMDL
