MODEL 1
REMARK minimizedAffinity 14.589035
REMARK minimizedRMSD -1
REMARK  0 active torsions:
REMARK  status: ('A' for Active; 'I' for Inactive)
ROOT
ATOM      1  C   UNL d   1      -6.000  -5.999  -2.668  0.00  0.00     0.078 C 
ATOM      2  C1  UNL d   1      -4.965  -4.914  -2.699  0.00  0.00    -0.077 A 
ATOM      3  C2  UNL d   1      -3.778  -5.028  -1.966  0.00  0.00    -0.001 A 
ATOM      4  C3  UNL d   1      -2.828  -4.005  -1.997  0.00  0.00     0.003 A 
ATOM      5  C4  UNL d   1      -3.057  -2.861  -2.759  0.00  0.00    -0.005 A 
ATOM      6  C5  UNL d   1      -4.237  -2.738  -3.490  0.00  0.00     0.003 A 
ATOM      7  C6  UNL d   1      -5.187  -3.759  -3.460  0.00  0.00    -0.001 A 
ENDROOT
TORSDOF 0
ENDMDL
