MODEL 1
REMARK minimizedAffinity 1.79735649
REMARK minimizedRMSD -1
REMARK  0 active torsions:
REMARK  status: ('A' for Active; 'I' for Inactive)
ROOT
ATOM      1  C   UNL d   1       4.112   2.236  -1.765  0.00  0.00     0.078 C 
ATOM      2  C1  UNL d   1       3.783   1.453  -0.528  0.00  0.00    -0.077 A 
ATOM      3  C2  UNL d   1       4.494   0.293  -0.199  0.00  0.00    -0.001 A 
ATOM      4  C3  UNL d   1       4.171  -0.430   0.950  0.00  0.00     0.003 A 
ATOM      5  C4  UNL d   1       3.135  -0.003   1.778  0.00  0.00    -0.005 A 
ATOM      6  C5  UNL d   1       2.420   1.149   1.457  0.00  0.00     0.003 A 
ATOM      7  C6  UNL d   1       2.742   1.874   0.309  0.00  0.00    -0.001 A 
ENDROOT
TORSDOF 0
ENDMDL
