MODEL 1
REMARK minimizedAffinity 8.99195766
REMARK minimizedRMSD -1
REMARK  0 active torsions:
REMARK  status: ('A' for Active; 'I' for Inactive)
ROOT
ATOM      1  C   UNL d   1       0.369   0.477   2.284  0.00  0.00     0.078 C 
ATOM      2  C1  UNL d   1      -0.413  -0.796   2.154  0.00  0.00    -0.077 A 
ATOM      3  C2  UNL d   1      -0.729  -1.566   3.280  0.00  0.00    -0.001 A 
ATOM      4  C3  UNL d   1      -1.448  -2.754   3.143  0.00  0.00     0.003 A 
ATOM      5  C4  UNL d   1      -1.856  -3.184   1.882  0.00  0.00    -0.005 A 
ATOM      6  C5  UNL d   1      -1.544  -2.425   0.755  0.00  0.00     0.003 A 
ATOM      7  C6  UNL d   1      -0.825  -1.237   0.890  0.00  0.00    -0.001 A 
ENDROOT
TORSDOF 0
ENDMDL
