MODEL 1
REMARK minimizedAffinity 10.3688049
REMARK minimizedRMSD -1
REMARK  0 active torsions:
REMARK  status: ('A' for Active; 'I' for Inactive)
ROOT
ATOM      1  C   UNL d   1      -5.999  -0.513   5.920  0.00  0.00     0.078 C 
ATOM      2  C1  UNL d   1      -5.338   0.687   5.310  0.00  0.00    -0.077 A 
ATOM      3  C2  UNL d   1      -4.713   0.609   4.060  0.00  0.00    -0.001 A 
ATOM      4  C3  UNL d   1      -4.093   1.732   3.509  0.00  0.00     0.003 A 
ATOM      5  C4  UNL d   1      -4.092   2.941   4.202  0.00  0.00    -0.005 A 
ATOM      6  C5  UNL d   1      -4.710   3.028   5.447  0.00  0.00     0.003 A 
ATOM      7  C6  UNL d   1      -5.330   1.906   6.000  0.00  0.00    -0.001 A 
ENDROOT
TORSDOF 0
ENDMDL
