MODEL 1
REMARK minimizedAffinity 4.24891329
REMARK minimizedRMSD -1
REMARK  0 active torsions:
REMARK  status: ('A' for Active; 'I' for Inactive)
ROOT
ATOM      1  C   UNL d   1      -5.999  -3.365  -3.430  0.00  0.00     0.078 C 
ATOM      2  C1  UNL d   1      -4.632  -3.860  -3.060  0.00  0.00    -0.077 A 
ATOM      3  C2  UNL d   1      -4.447  -5.149  -2.546  0.00  0.00    -0.001 A 
ATOM      4  C3  UNL d   1      -3.171  -5.593  -2.197  0.00  0.00     0.003 A 
ATOM      5  C4  UNL d   1      -2.070  -4.754  -2.357  0.00  0.00    -0.005 A 
ATOM      6  C5  UNL d   1      -2.245  -3.468  -2.866  0.00  0.00     0.003 A 
ATOM      7  C6  UNL d   1      -3.520  -3.023  -3.216  0.00  0.00    -0.001 A 
ENDROOT
TORSDOF 0
ENDMDL
