MODEL 1
REMARK minimizedAffinity 3.41885877
REMARK minimizedRMSD -1
REMARK  0 active torsions:
REMARK  status: ('A' for Active; 'I' for Inactive)
ROOT
ATOM      1  C   UNL d   1      -0.179   0.026   2.919  0.00  0.00     0.078 C 
ATOM      2  C1  UNL d   1       0.259   1.300   2.260  0.00  0.00    -0.077 A 
ATOM      3  C2  UNL d   1      -0.367   2.517   2.556  0.00  0.00    -0.001 A 
ATOM      4  C3  UNL d   1       0.045   3.693   1.927  0.00  0.00     0.003 A 
ATOM      5  C4  UNL d   1       1.083   3.664   0.998  0.00  0.00    -0.005 A 
ATOM      6  C5  UNL d   1       1.710   2.457   0.696  0.00  0.00     0.003 A 
ATOM      7  C6  UNL d   1       1.300   1.280   1.323  0.00  0.00    -0.001 A 
ENDROOT
TORSDOF 0
ENDMDL
