MODEL 1
REMARK minimizedAffinity 11.8329935
REMARK minimizedRMSD -1
REMARK  0 active torsions:
REMARK  status: ('A' for Active; 'I' for Inactive)
ROOT
ATOM      1  C   UNL d   1      -5.999  -6.000  -2.486  0.00  0.00     0.078 C 
ATOM      2  C1  UNL d   1      -4.783  -5.138  -2.648  0.00  0.00    -0.077 A 
ATOM      3  C2  UNL d   1      -4.898  -3.787  -2.996  0.00  0.00    -0.001 A 
ATOM      4  C3  UNL d   1      -3.756  -2.999  -3.154  0.00  0.00     0.003 A 
ATOM      5  C4  UNL d   1      -2.492  -3.554  -2.967  0.00  0.00    -0.005 A 
ATOM      6  C5  UNL d   1      -2.368  -4.899  -2.623  0.00  0.00     0.003 A 
ATOM      7  C6  UNL d   1      -3.508  -5.688  -2.465  0.00  0.00    -0.001 A 
ENDROOT
TORSDOF 0
ENDMDL
