MODEL 1
REMARK minimizedAffinity 5.96160078
REMARK minimizedRMSD -1
REMARK  0 active torsions:
REMARK  status: ('A' for Active; 'I' for Inactive)
ROOT
ATOM      1  C   UNL d   1       1.497   4.400  -4.980  0.00  0.00     0.078 C 
ATOM      2  C1  UNL d   1       2.769   3.749  -4.525  0.00  0.00    -0.077 A 
ATOM      3  C2  UNL d   1       4.004   4.389  -4.687  0.00  0.00    -0.001 A 
ATOM      4  C3  UNL d   1       5.182   3.767  -4.268  0.00  0.00     0.003 A 
ATOM      5  C4  UNL d   1       5.135   2.501  -3.686  0.00  0.00    -0.005 A 
ATOM      6  C5  UNL d   1       3.911   1.856  -3.523  0.00  0.00     0.003 A 
ATOM      7  C6  UNL d   1       2.733   2.477  -3.941  0.00  0.00    -0.001 A 
ENDROOT
TORSDOF 0
ENDMDL
