MODEL 1
REMARK minimizedAffinity 4.97663403
REMARK minimizedRMSD -1
REMARK  0 active torsions:
REMARK  status: ('A' for Active; 'I' for Inactive)
ROOT
ATOM      1  C   UNL d   1       3.018  -0.204  -0.268  0.00  0.00     0.078 C 
ATOM      2  C1  UNL d   1       2.145   0.645   0.608  0.00  0.00    -0.077 A 
ATOM      3  C2  UNL d   1       1.345   0.069   1.603  0.00  0.00    -0.001 A 
ATOM      4  C3  UNL d   1       0.531   0.871   2.405  0.00  0.00     0.003 A 
ATOM      5  C4  UNL d   1       0.507   2.251   2.219  0.00  0.00    -0.005 A 
ATOM      6  C5  UNL d   1       1.298   2.833   1.230  0.00  0.00     0.003 A 
ATOM      7  C6  UNL d   1       2.113   2.033   0.427  0.00  0.00    -0.001 A 
ENDROOT
TORSDOF 0
ENDMDL
