MODEL 1
REMARK minimizedAffinity 0.345124751
REMARK minimizedRMSD -1
REMARK  0 active torsions:
REMARK  status: ('A' for Active; 'I' for Inactive)
ROOT
ATOM      1  C   UNL d   1       5.999   2.218  -4.442  0.00  0.00     0.078 C 
ATOM      2  C1  UNL d   1       5.123   3.311  -4.977  0.00  0.00    -0.077 A 
ATOM      3  C2  UNL d   1       3.739   3.136  -5.091  0.00  0.00    -0.001 A 
ATOM      4  C3  UNL d   1       2.937   4.159  -5.600  0.00  0.00     0.003 A 
ATOM      5  C4  UNL d   1       3.511   5.364  -5.999  0.00  0.00    -0.005 A 
ATOM      6  C5  UNL d   1       4.888   5.548  -5.892  0.00  0.00     0.003 A 
ATOM      7  C6  UNL d   1       5.691   4.526  -5.383  0.00  0.00    -0.001 A 
ENDROOT
TORSDOF 0
ENDMDL
