MODEL 1
REMARK minimizedAffinity -3.36151624
REMARK minimizedRMSD -1
REMARK  2 active torsions:
REMARK  status: ('A' for Active; 'I' for Inactive)
REMARK    1  A    between atoms: C1_2  and  C2_3 
REMARK    2  A    between atoms: C2_3  and  C3_4 
ROOT
ATOM      1  C3  UNL d   1       0.410  -0.003  -1.435  0.00  0.00    -0.075 A 
ATOM      2  C4  UNL d   1       1.488   0.839  -1.743  0.00  0.00     0.002 A 
ATOM      3  C5  UNL d   1       1.749   1.202  -3.065  0.00  0.00     0.002 A 
ATOM      4  C6  UNL d   1       0.944   0.720  -4.094  0.00  0.00    -0.004 A 
ATOM      5  C7  UNL d   1      -0.119  -0.131  -3.802  0.00  0.00     0.002 A 
ATOM      6  C8  UNL d   1      -0.386  -0.492  -2.480  0.00  0.00     0.002 A 
ENDROOT
BRANCH   1   7
ATOM      7  C2  UNL d   1       0.105  -0.376  -0.004  0.00  0.00     0.056 C 
BRANCH   7   8
ATOM      8  C1  UNL d   1      -1.164   0.279   0.553  0.00  0.00     0.007 C 
ATOM      9  C   UNL d   1      -0.919   1.069   1.832  0.00  0.00     0.009 C 
ENDBRANCH   7   8
ENDBRANCH   1   7
TORSDOF 2
ENDMDL
