MODEL 1
REMARK minimizedAffinity -5.72191334
REMARK minimizedRMSD -1
REMARK  2 active torsions:
REMARK  status: ('A' for Active; 'I' for Inactive)
REMARK    1  A    between atoms: C1_2  and  C2_3 
REMARK    2  A    between atoms: C2_3  and  C3_4 
ROOT
ATOM      1  C3  UNL d   1       0.024  -0.061   0.009  0.00  0.00    -0.075 A 
ATOM      2  C4  UNL d   1       0.767   0.513   1.050  0.00  0.00     0.002 A 
ATOM      3  C5  UNL d   1       0.125   1.166   2.103  0.00  0.00     0.002 A 
ATOM      4  C6  UNL d   1      -1.265   1.261   2.123  0.00  0.00    -0.004 A 
ATOM      5  C7  UNL d   1      -2.012   0.708   1.086  0.00  0.00     0.002 A 
ATOM      6  C8  UNL d   1      -1.373   0.051   0.033  0.00  0.00     0.002 A 
ENDROOT
BRANCH   1   7
ATOM      7  C2  UNL d   1       0.712  -0.794  -1.118  0.00  0.00     0.056 C 
BRANCH   7   8
ATOM      8  C1  UNL d   1       0.330  -0.290  -2.514  0.00  0.00     0.007 C 
ATOM      9  C   UNL d   1       1.419   0.551  -3.167  0.00  0.00     0.009 C 
ENDBRANCH   7   8
ENDBRANCH   1   7
TORSDOF 2
ENDMDL
