MODEL 1
REMARK minimizedAffinity -4.61771631
REMARK minimizedRMSD -1
REMARK  2 active torsions:
REMARK  status: ('A' for Active; 'I' for Inactive)
REMARK    1  A    between atoms: C1_2  and  C2_3 
REMARK    2  A    between atoms: C2_3  and  C3_4 
ROOT
ATOM      1  C3  UNL d   1       0.801   0.112   0.899  0.00  0.00    -0.075 A 
ATOM      2  C4  UNL d   1       1.547   0.236   2.080  0.00  0.00     0.002 A 
ATOM      3  C5  UNL d   1       0.967   0.769   3.231  0.00  0.00     0.002 A 
ATOM      4  C6  UNL d   1      -0.359   1.194   3.214  0.00  0.00    -0.004 A 
ATOM      5  C7  UNL d   1      -1.105   1.092   2.042  0.00  0.00     0.002 A 
ATOM      6  C8  UNL d   1      -0.529   0.554   0.889  0.00  0.00     0.002 A 
ENDROOT
BRANCH   1   7
ATOM      7  C2  UNL d   1       1.413  -0.492  -0.343  0.00  0.00     0.056 C 
BRANCH   7   8
ATOM      8  C1  UNL d   1       0.435  -0.637  -1.513  0.00  0.00     0.007 C 
ATOM      9  C   UNL d   1       0.928   0.025  -2.793  0.00  0.00     0.009 C 
ENDBRANCH   7   8
ENDBRANCH   1   7
TORSDOF 2
ENDMDL
