MODEL 1
REMARK minimizedAffinity -4.99426031
REMARK minimizedRMSD -1
REMARK  2 active torsions:
REMARK  status: ('A' for Active; 'I' for Inactive)
REMARK    1  A    between atoms: C1_2  and  C2_3 
REMARK    2  A    between atoms: C2_3  and  C3_4 
ROOT
ATOM      1  C3  UNL d   1      -0.074  -0.105   0.097  0.00  0.00    -0.075 A 
ATOM      2  C4  UNL d   1      -1.419   0.254   0.276  0.00  0.00     0.002 A 
ATOM      3  C5  UNL d   1      -1.832   0.891   1.446  0.00  0.00     0.002 A 
ATOM      4  C6  UNL d   1      -0.912   1.169   2.454  0.00  0.00    -0.004 A 
ATOM      5  C7  UNL d   1       0.422   0.802   2.295  0.00  0.00     0.002 A 
ATOM      6  C8  UNL d   1       0.840   0.168   1.123  0.00  0.00     0.002 A 
ENDROOT
BRANCH   1   7
ATOM      7  C2  UNL d   1       0.385  -0.768  -1.179  0.00  0.00     0.056 C 
BRANCH   7   8
ATOM      8  C1  UNL d   1       1.119   0.172  -2.141  0.00  0.00     0.007 C 
ATOM      9  C   UNL d   1       0.805  -0.104  -3.606  0.00  0.00     0.009 C 
ENDBRANCH   7   8
ENDBRANCH   1   7
TORSDOF 2
ENDMDL
