MODEL 1
REMARK minimizedAffinity -1.60682857
REMARK minimizedRMSD -1
REMARK  2 active torsions:
REMARK  status: ('A' for Active; 'I' for Inactive)
REMARK    1  A    between atoms: C1_2  and  C2_3 
REMARK    2  A    between atoms: C2_3  and  C3_4 
ROOT
ATOM      1  C3  UNL d   1      -0.314   0.590  -0.136  0.00  0.00    -0.075 A 
ATOM      2  C4  UNL d   1       0.373   1.605   0.547  0.00  0.00     0.002 A 
ATOM      3  C5  UNL d   1       0.033   1.931   1.860  0.00  0.00     0.002 A 
ATOM      4  C6  UNL d   1      -1.002   1.255   2.503  0.00  0.00    -0.004 A 
ATOM      5  C7  UNL d   1      -1.702   0.257   1.829  0.00  0.00     0.002 A 
ATOM      6  C8  UNL d   1      -1.361  -0.074   0.516  0.00  0.00     0.002 A 
ENDROOT
BRANCH   1   7
ATOM      7  C2  UNL d   1       0.069   0.212  -1.547  0.00  0.00     0.056 C 
BRANCH   7   8
ATOM      8  C1  UNL d   1      -0.428   1.195  -2.612  0.00  0.00     0.007 C 
ATOM      9  C   UNL d   1       0.103   0.889  -4.006  0.00  0.00     0.009 C 
ENDBRANCH   7   8
ENDBRANCH   1   7
TORSDOF 2
ENDMDL
