MODEL 1
REMARK minimizedAffinity -3.5910089
REMARK minimizedRMSD -1
REMARK  2 active torsions:
REMARK  status: ('A' for Active; 'I' for Inactive)
REMARK    1  A    between atoms: C1_2  and  C2_3 
REMARK    2  A    between atoms: C2_3  and  C3_4 
ROOT
ATOM      1  C3  UNL d   1      -0.077  -0.017  -0.176  0.00  0.00    -0.075 A 
ATOM      2  C4  UNL d   1      -1.431   0.226   0.096  0.00  0.00     0.002 A 
ATOM      3  C5  UNL d   1      -1.811   0.888   1.264  0.00  0.00     0.002 A 
ATOM      4  C6  UNL d   1      -0.845   1.305   2.178  0.00  0.00    -0.004 A 
ATOM      5  C7  UNL d   1       0.502   1.054   1.925  0.00  0.00     0.002 A 
ATOM      6  C8  UNL d   1       0.885   0.395   0.755  0.00  0.00     0.002 A 
ENDROOT
BRANCH   1   7
ATOM      7  C2  UNL d   1       0.342  -0.707  -1.453  0.00  0.00     0.056 C 
BRANCH   7   8
ATOM      8  C1  UNL d   1       1.262   0.135  -2.343  0.00  0.00     0.007 C 
ATOM      9  C   UNL d   1       0.783   0.226  -3.785  0.00  0.00     0.009 C 
ENDBRANCH   7   8
ENDBRANCH   1   7
TORSDOF 2
ENDMDL
