MODEL 1
REMARK minimizedAffinity -5.84516621
REMARK minimizedRMSD -1
REMARK  2 active torsions:
REMARK  status: ('A' for Active; 'I' for Inactive)
REMARK    1  A    between atoms: C1_2  and  C2_3 
REMARK    2  A    between atoms: C2_3  and  C3_4 
ROOT
ATOM      1  C3  UNL d   1       0.023   0.017  -0.021  0.00  0.00    -0.075 A 
ATOM      2  C4  UNL d   1       0.815   0.852   0.781  0.00  0.00     0.002 A 
ATOM      3  C5  UNL d   1       0.255   1.534   1.862  0.00  0.00     0.002 A 
ATOM      4  C6  UNL d   1      -1.102   1.399   2.148  0.00  0.00    -0.004 A 
ATOM      5  C7  UNL d   1      -1.901   0.586   1.348  0.00  0.00     0.002 A 
ATOM      6  C8  UNL d   1      -1.343  -0.101   0.268  0.00  0.00     0.002 A 
ENDROOT
BRANCH   1   7
ATOM      7  C2  UNL d   1       0.628  -0.747  -1.174  0.00  0.00     0.056 C 
BRANCH   7   8
ATOM      8  C1  UNL d   1       0.400  -0.095  -2.542  0.00  0.00     0.007 C 
ATOM      9  C   UNL d   1       1.683   0.410  -3.188  0.00  0.00     0.009 C 
ENDBRANCH   7   8
ENDBRANCH   1   7
TORSDOF 2
ENDMDL
