MODEL 1
REMARK minimizedAffinity -4.60222197
REMARK minimizedRMSD -1
REMARK  2 active torsions:
REMARK  status: ('A' for Active; 'I' for Inactive)
REMARK    1  A    between atoms: C1_2  and  C2_3 
REMARK    2  A    between atoms: C2_3  and  C3_4 
ROOT
ATOM      1  C3  UNL d   1      -0.593  -0.129   0.808  0.00  0.00    -0.075 A 
ATOM      2  C4  UNL d   1       0.583   0.517   1.213  0.00  0.00     0.002 A 
ATOM      3  C5  UNL d   1       0.647   1.166   2.446  0.00  0.00     0.002 A 
ATOM      4  C6  UNL d   1      -0.466   1.186   3.284  0.00  0.00    -0.004 A 
ATOM      5  C7  UNL d   1      -1.646   0.561   2.885  0.00  0.00     0.002 A 
ATOM      6  C8  UNL d   1      -1.710  -0.093   1.653  0.00  0.00     0.002 A 
ENDROOT
BRANCH   1   7
ATOM      7  C2  UNL d   1      -0.659  -0.859  -0.513  0.00  0.00     0.056 C 
BRANCH   7   8
ATOM      8  C1  UNL d   1       0.706  -1.307  -1.046  0.00  0.00     0.007 C 
ATOM      9  C   UNL d   1       0.914  -0.975  -2.517  0.00  0.00     0.009 C 
ENDBRANCH   7   8
ENDBRANCH   1   7
TORSDOF 2
ENDMDL
