MODEL 1
REMARK minimizedAffinity -5.02080107
REMARK minimizedRMSD -1
REMARK  2 active torsions:
REMARK  status: ('A' for Active; 'I' for Inactive)
REMARK    1  A    between atoms: C1_2  and  C2_3 
REMARK    2  A    between atoms: C2_3  and  C3_4 
ROOT
ATOM      1  C3  UNL d   1       0.322  -0.303  -0.197  0.00  0.00    -0.075 A 
ATOM      2  C4  UNL d   1      -1.024  -0.001   0.056  0.00  0.00     0.002 A 
ATOM      3  C5  UNL d   1      -1.394   0.656   1.230  0.00  0.00     0.002 A 
ATOM      4  C6  UNL d   1      -0.427   1.009   2.168  0.00  0.00    -0.004 A 
ATOM      5  C7  UNL d   1       0.911   0.698   1.935  0.00  0.00     0.002 A 
ATOM      6  C8  UNL d   1       1.284   0.045   0.760  0.00  0.00     0.002 A 
ENDROOT
BRANCH   1   7
ATOM      7  C2  UNL d   1       0.732  -0.988  -1.479  0.00  0.00     0.056 C 
BRANCH   7   8
ATOM      8  C1  UNL d   1       0.639  -0.094  -2.721  0.00  0.00     0.007 C 
ATOM      9  C   UNL d   1       1.979   0.495  -3.139  0.00  0.00     0.009 C 
ENDBRANCH   7   8
ENDBRANCH   1   7
TORSDOF 2
ENDMDL
