MODEL 1
REMARK minimizedAffinity -4.54110336
REMARK minimizedRMSD -1
REMARK  2 active torsions:
REMARK  status: ('A' for Active; 'I' for Inactive)
REMARK    1  A    between atoms: C1_2  and  C2_3 
REMARK    2  A    between atoms: C2_3  and  C3_4 
ROOT
ATOM      1  C3  UNL d   1       0.151  -0.397  -0.538  0.00  0.00    -0.075 A 
ATOM      2  C4  UNL d   1       0.893   0.160   0.515  0.00  0.00     0.002 A 
ATOM      3  C5  UNL d   1       0.251   0.829   1.557  0.00  0.00     0.002 A 
ATOM      4  C6  UNL d   1      -1.136   0.959   1.556  0.00  0.00    -0.004 A 
ATOM      5  C7  UNL d   1      -1.882   0.425   0.508  0.00  0.00     0.002 A 
ATOM      6  C8  UNL d   1      -1.242  -0.249  -0.535  0.00  0.00     0.002 A 
ENDROOT
BRANCH   1   7
ATOM      7  C2  UNL d   1       0.837  -1.147  -1.654  0.00  0.00     0.056 C 
BRANCH   7   8
ATOM      8  C1  UNL d   1       0.451  -0.668  -3.057  0.00  0.00     0.007 C 
ATOM      9  C   UNL d   1       1.499   0.237  -3.692  0.00  0.00     0.009 C 
ENDBRANCH   7   8
ENDBRANCH   1   7
TORSDOF 2
ENDMDL
