MODEL 1
REMARK minimizedAffinity 1.54468489
REMARK minimizedRMSD -1
REMARK  2 active torsions:
REMARK  status: ('A' for Active; 'I' for Inactive)
REMARK    1  A    between atoms: C1_2  and  C2_3 
REMARK    2  A    between atoms: C2_3  and  C3_4 
ROOT
ATOM      1  C3  UNL d   1      -5.677  -4.096  -3.420  0.00  0.00    -0.075 A 
ATOM      2  C4  UNL d   1      -5.843  -5.475  -3.610  0.00  0.00     0.002 A 
ATOM      3  C5  UNL d   1      -5.998  -6.000  -4.893  0.00  0.00     0.002 A 
ATOM      4  C6  UNL d   1      -6.000  -5.154  -6.000  0.00  0.00    -0.004 A 
ATOM      5  C7  UNL d   1      -5.852  -3.780  -5.822  0.00  0.00     0.002 A 
ATOM      6  C8  UNL d   1      -5.692  -3.252  -4.539  0.00  0.00     0.002 A 
ENDROOT
BRANCH   1   7
ATOM      7  C2  UNL d   1      -5.480  -3.524  -2.036  0.00  0.00     0.056 C 
BRANCH   7   8
ATOM      8  C1  UNL d   1      -4.500  -4.320  -1.167  0.00  0.00     0.007 C 
ATOM      9  C   UNL d   1      -4.004  -5.595  -1.836  0.00  0.00     0.009 C 
ENDBRANCH   7   8
ENDBRANCH   1   7
TORSDOF 2
ENDMDL
