MODEL 1
REMARK minimizedAffinity 1.03369439
REMARK minimizedRMSD -1
REMARK  2 active torsions:
REMARK  status: ('A' for Active; 'I' for Inactive)
REMARK    1  A    between atoms: C1_2  and  C2_3 
REMARK    2  A    between atoms: C2_3  and  C3_4 
ROOT
ATOM      1  C3  UNL d   1       3.655  -2.322  -2.230  0.00  0.00    -0.075 A 
ATOM      2  C4  UNL d   1       3.460  -1.820  -0.935  0.00  0.00     0.002 A 
ATOM      3  C5  UNL d   1       2.464  -2.348  -0.113  0.00  0.00     0.002 A 
ATOM      4  C6  UNL d   1       1.646  -3.375  -0.577  0.00  0.00    -0.004 A 
ATOM      5  C7  UNL d   1       1.820  -3.871  -1.868  0.00  0.00     0.002 A 
ATOM      6  C8  UNL d   1       2.818  -3.347  -2.691  0.00  0.00     0.002 A 
ENDROOT
BRANCH   1   7
ATOM      7  C2  UNL d   1       4.751  -1.775  -3.114  0.00  0.00     0.056 C 
BRANCH   7   8
ATOM      8  C1  UNL d   1       4.241  -1.075  -4.378  0.00  0.00     0.007 C 
ATOM      9  C   UNL d   1       5.295  -0.966  -5.471  0.00  0.00     0.009 C 
ENDBRANCH   7   8
ENDBRANCH   1   7
TORSDOF 2
ENDMDL
