MODEL 1
REMARK minimizedAffinity 0.642710268
REMARK minimizedRMSD -1
REMARK  2 active torsions:
REMARK  status: ('A' for Active; 'I' for Inactive)
REMARK    1  A    between atoms: C1_2  and  C2_3 
REMARK    2  A    between atoms: C2_3  and  C3_4 
ROOT
ATOM      1  C3  UNL d   1       4.011  -1.815  -3.680  0.00  0.00    -0.075 A 
ATOM      2  C4  UNL d   1       3.258  -0.869  -4.392  0.00  0.00     0.002 A 
ATOM      3  C5  UNL d   1       3.869  -0.042  -5.335  0.00  0.00     0.002 A 
ATOM      4  C6  UNL d   1       5.238  -0.142  -5.571  0.00  0.00    -0.004 A 
ATOM      5  C7  UNL d   1       5.999  -1.067  -4.858  0.00  0.00     0.002 A 
ATOM      6  C8  UNL d   1       5.389  -1.899  -3.917  0.00  0.00     0.002 A 
ENDROOT
BRANCH   1   7
ATOM      7  C2  UNL d   1       3.350  -2.733  -2.680  0.00  0.00     0.056 C 
BRANCH   7   8
ATOM      8  C1  UNL d   1       1.889  -3.061  -3.003  0.00  0.00     0.007 C 
ATOM      9  C   UNL d   1       1.193  -3.850  -1.903  0.00  0.00     0.009 C 
ENDBRANCH   7   8
ENDBRANCH   1   7
TORSDOF 2
ENDMDL
