MODEL 1
REMARK minimizedAffinity 3.56123376
REMARK minimizedRMSD -1
REMARK  2 active torsions:
REMARK  status: ('A' for Active; 'I' for Inactive)
REMARK    1  A    between atoms: C1_2  and  C2_3 
REMARK    2  A    between atoms: C2_3  and  C3_4 
ROOT
ATOM      1  C3  UNL d   1       4.070  -1.427  -3.783  0.00  0.00    -0.075 A 
ATOM      2  C4  UNL d   1       4.755  -2.026  -4.850  0.00  0.00     0.002 A 
ATOM      3  C5  UNL d   1       5.167  -1.264  -5.944  0.00  0.00     0.002 A 
ATOM      4  C6  UNL d   1       4.890   0.100  -5.990  0.00  0.00    -0.004 A 
ATOM      5  C7  UNL d   1       4.195   0.703  -4.944  0.00  0.00     0.002 A 
ATOM      6  C8  UNL d   1       3.786  -0.056  -3.846  0.00  0.00     0.002 A 
ENDROOT
BRANCH   1   7
ATOM      7  C2  UNL d   1       3.647  -2.240  -2.583  0.00  0.00     0.056 C 
BRANCH   7   8
ATOM      8  C1  UNL d   1       2.418  -3.121  -2.827  0.00  0.00     0.007 C 
ATOM      9  C   UNL d   1       2.044  -3.977  -1.625  0.00  0.00     0.009 C 
ENDBRANCH   7   8
ENDBRANCH   1   7
TORSDOF 2
ENDMDL
