MODEL 1
REMARK minimizedAffinity 3.38649106
REMARK minimizedRMSD -1
REMARK  2 active torsions:
REMARK  status: ('A' for Active; 'I' for Inactive)
REMARK    1  A    between atoms: C1_2  and  C2_3 
REMARK    2  A    between atoms: C2_3  and  C3_4 
ROOT
ATOM      1  C3  UNL d   1       4.834   0.052  -3.400  0.00  0.00    -0.075 A 
ATOM      2  C4  UNL d   1       5.588  -0.839  -4.176  0.00  0.00     0.002 A 
ATOM      3  C5  UNL d   1       6.000  -0.486  -5.462  0.00  0.00     0.002 A 
ATOM      4  C6  UNL d   1       5.654   0.756  -5.990  0.00  0.00    -0.004 A 
ATOM      5  C7  UNL d   1       4.891   1.643  -5.234  0.00  0.00     0.002 A 
ATOM      6  C8  UNL d   1       4.481   1.293  -3.946  0.00  0.00     0.002 A 
ENDROOT
BRANCH   1   7
ATOM      7  C2  UNL d   1       4.410  -0.313  -1.997  0.00  0.00     0.056 C 
BRANCH   7   8
ATOM      8  C1  UNL d   1       3.514  -1.553  -1.918  0.00  0.00     0.007 C 
ATOM      9  C   UNL d   1       2.051  -1.257  -2.216  0.00  0.00     0.009 C 
ENDBRANCH   7   8
ENDBRANCH   1   7
TORSDOF 2
ENDMDL
