MODEL 1
REMARK minimizedAffinity 23.301878
REMARK minimizedRMSD -1
REMARK  0 active torsions:
REMARK  status: ('A' for Active; 'I' for Inactive)
ROOT
ATOM      1  C   UNL d   1      -2.989   1.423  -1.310  0.00  0.00     0.124 A 
ATOM      2  C1  UNL d   1      -4.086   1.949  -1.978  0.00  0.00     0.062 A 
ATOM      3  C2  UNL d   1      -4.947   2.827  -1.325  0.00  0.00     0.162 A 
ATOM      4  C3  UNL d   1      -4.714   3.184   0.003  0.00  0.00    -0.034 A 
ATOM      5  C4  UNL d   1      -3.609   2.650   0.667  0.00  0.00     0.162 A 
ATOM      6  C5  UNL d   1      -2.751   1.774   0.011  0.00  0.00     0.062 A 
ATOM      7  F   UNL d   1      -1.691   1.266   0.657  0.00  0.00    -0.097 F 
ATOM      8  F1  UNL d   1      -3.356   2.973   1.944  0.00  0.00    -0.096 F 
ATOM      9  I   UNL d   1      -6.000   4.496   0.982  0.00  0.00    -0.060 I 
ATOM     10  F2  UNL d   1      -6.000   3.320  -1.995  0.00  0.00    -0.096 F 
ATOM     11  F3  UNL d   1      -4.318   1.611  -3.254  0.00  0.00    -0.097 F 
ATOM     12  F4  UNL d   1      -2.162   0.578  -1.940  0.00  0.00    -0.092 F 
ENDROOT
TORSDOF 0
ENDMDL
