MODEL 1
REMARK minimizedAffinity 19.9594536
REMARK minimizedRMSD -1
REMARK  0 active torsions:
REMARK  status: ('A' for Active; 'I' for Inactive)
ROOT
ATOM      1  C   UNL d   1       1.089  -2.380   2.699  0.00  0.00     0.124 A 
ATOM      2  C1  UNL d   1       1.640  -1.547   1.736  0.00  0.00     0.062 A 
ATOM      3  C2  UNL d   1       1.829  -0.195   2.004  0.00  0.00     0.162 A 
ATOM      4  C3  UNL d   1       1.466   0.334   3.244  0.00  0.00    -0.034 A 
ATOM      5  C4  UNL d   1       0.912  -0.510   4.207  0.00  0.00     0.162 A 
ATOM      6  C5  UNL d   1       0.725  -1.861   3.934  0.00  0.00     0.062 A 
ATOM      7  F   UNL d   1       0.193  -2.665   4.866  0.00  0.00    -0.097 F 
ATOM      8  F1  UNL d   1       0.552  -0.035   5.409  0.00  0.00    -0.096 F 
ATOM      9  I   UNL d   1       1.746   2.356   3.650  0.00  0.00    -0.060 I 
ATOM     10  F2  UNL d   1       2.363   0.587   1.055  0.00  0.00    -0.096 F 
ATOM     11  F3  UNL d   1       1.991  -2.046   0.542  0.00  0.00    -0.097 F 
ATOM     12  F4  UNL d   1       0.908  -3.681   2.437  0.00  0.00    -0.092 F 
ENDROOT
TORSDOF 0
ENDMDL
