MODEL 1
REMARK minimizedAffinity 23.8449516
REMARK minimizedRMSD -1
REMARK  0 active torsions:
REMARK  status: ('A' for Active; 'I' for Inactive)
ROOT
ATOM      1  C   UNL d   1      -2.766   1.217  -1.469  0.00  0.00     0.124 A 
ATOM      2  C1  UNL d   1      -2.498   1.710  -0.200  0.00  0.00     0.062 A 
ATOM      3  C2  UNL d   1      -3.365   2.621   0.395  0.00  0.00     0.162 A 
ATOM      4  C3  UNL d   1      -4.511   3.045  -0.278  0.00  0.00    -0.034 A 
ATOM      5  C4  UNL d   1      -4.774   2.546  -1.555  0.00  0.00     0.162 A 
ATOM      6  C5  UNL d   1      -3.903   1.635  -2.146  0.00  0.00     0.062 A 
ATOM      7  F   UNL d   1      -4.164   1.161  -3.372  0.00  0.00    -0.097 F 
ATOM      8  F1  UNL d   1      -5.866   2.932  -2.231  0.00  0.00    -0.096 F 
ATOM      9  I   UNL d   1      -5.811   4.407   0.608  0.00  0.00    -0.060 I 
ATOM     10  F2  UNL d   1      -3.081   3.080   1.623  0.00  0.00    -0.096 F 
ATOM     11  F3  UNL d   1      -1.399   1.308   0.455  0.00  0.00    -0.097 F 
ATOM     12  F4  UNL d   1      -1.928   0.342  -2.040  0.00  0.00    -0.092 F 
ENDROOT
TORSDOF 0
ENDMDL
