MODEL 1
REMARK minimizedAffinity 21.365099
REMARK minimizedRMSD -1
REMARK  0 active torsions:
REMARK  status: ('A' for Active; 'I' for Inactive)
ROOT
ATOM      1  C   UNL d   1      -5.773   2.921  -2.962  0.00  0.00     0.124 A 
ATOM      2  C1  UNL d   1      -5.594   2.614  -4.304  0.00  0.00     0.062 A 
ATOM      3  C2  UNL d   1      -5.357   1.300  -4.696  0.00  0.00     0.162 A 
ATOM      4  C3  UNL d   1      -5.297   0.281  -3.745  0.00  0.00    -0.034 A 
ATOM      5  C4  UNL d   1      -5.477   0.598  -2.397  0.00  0.00     0.162 A 
ATOM      6  C5  UNL d   1      -5.714   1.913  -2.010  0.00  0.00     0.062 A 
ATOM      7  F   UNL d   1      -5.886   2.207  -0.713  0.00  0.00    -0.097 F 
ATOM      8  F1  UNL d   1      -5.426  -0.357  -1.456  0.00  0.00    -0.096 F 
ATOM      9  I   UNL d   1      -4.943  -1.685  -4.327  0.00  0.00    -0.060 I 
ATOM     10  F2  UNL d   1      -5.188   1.032  -6.000  0.00  0.00    -0.096 F 
ATOM     11  F3  UNL d   1      -5.649   3.586  -5.226  0.00  0.00    -0.097 F 
ATOM     12  F4  UNL d   1      -6.000   4.186  -2.588  0.00  0.00    -0.092 F 
ENDROOT
TORSDOF 0
ENDMDL
