MODEL 1
REMARK minimizedAffinity 29.0561695
REMARK minimizedRMSD -1
REMARK  0 active torsions:
REMARK  status: ('A' for Active; 'I' for Inactive)
ROOT
ATOM      1  C   UNL d   1      -5.173   0.049  -4.005  0.00  0.00     0.124 A 
ATOM      2  C1  UNL d   1      -5.345   1.262  -4.659  0.00  0.00     0.062 A 
ATOM      3  C2  UNL d   1      -5.581   2.423  -3.930  0.00  0.00     0.162 A 
ATOM      4  C3  UNL d   1      -5.647   2.379  -2.538  0.00  0.00    -0.034 A 
ATOM      5  C4  UNL d   1      -5.474   1.156  -1.887  0.00  0.00     0.162 A 
ATOM      6  C5  UNL d   1      -5.238  -0.002  -2.620  0.00  0.00     0.062 A 
ATOM      7  F   UNL d   1      -5.073  -1.172  -1.986  0.00  0.00    -0.097 F 
ATOM      8  F1  UNL d   1      -5.531   1.078  -0.549  0.00  0.00    -0.096 F 
ATOM      9  I   UNL d   1      -6.000   4.114  -1.444  0.00  0.00    -0.060 I 
ATOM     10  F2  UNL d   1      -5.743   3.581  -4.589  0.00  0.00    -0.096 F 
ATOM     11  F3  UNL d   1      -5.283   1.314  -5.998  0.00  0.00    -0.097 F 
ATOM     12  F4  UNL d   1      -4.947  -1.067  -4.709  0.00  0.00    -0.092 F 
ENDROOT
TORSDOF 0
ENDMDL
