MODEL 1
REMARK minimizedAffinity 24.5188198
REMARK minimizedRMSD -1
REMARK  0 active torsions:
REMARK  status: ('A' for Active; 'I' for Inactive)
ROOT
ATOM      1  C   UNL d   1       0.744  -1.125   4.397  0.00  0.00     0.124 A 
ATOM      2  C1  UNL d   1       1.014  -1.563   3.107  0.00  0.00     0.062 A 
ATOM      3  C2  UNL d   1       1.572  -0.693   2.175  0.00  0.00     0.162 A 
ATOM      4  C3  UNL d   1       1.865   0.624   2.529  0.00  0.00    -0.034 A 
ATOM      5  C4  UNL d   1       1.590   1.058   3.827  0.00  0.00     0.162 A 
ATOM      6  C5  UNL d   1       1.032   0.184   4.755  0.00  0.00     0.062 A 
ATOM      7  F   UNL d   1       0.772   0.609   6.000  0.00  0.00    -0.097 F 
ATOM      8  F1  UNL d   1       1.859   2.317   4.200  0.00  0.00    -0.096 F 
ATOM      9  I   UNL d   1       2.699   1.928   1.137  0.00  0.00    -0.060 I 
ATOM     10  F2  UNL d   1       1.822  -1.143   0.937  0.00  0.00    -0.096 F 
ATOM     11  F3  UNL d   1       0.735  -2.827   2.758  0.00  0.00    -0.097 F 
ATOM     12  F4  UNL d   1       0.206  -1.964   5.291  0.00  0.00    -0.092 F 
ENDROOT
TORSDOF 0
ENDMDL
