MODEL 1
REMARK minimizedAffinity 20.5286999
REMARK minimizedRMSD -1
REMARK  0 active torsions:
REMARK  status: ('A' for Active; 'I' for Inactive)
ROOT
ATOM      1  C   UNL d   1      -1.188   3.040   0.286  0.00  0.00     0.124 A 
ATOM      2  C1  UNL d   1      -1.638   2.944   1.595  0.00  0.00     0.062 A 
ATOM      3  C2  UNL d   1      -2.985   3.135   1.889  0.00  0.00     0.162 A 
ATOM      4  C3  UNL d   1      -3.893   3.424   0.870  0.00  0.00    -0.034 A 
ATOM      5  C4  UNL d   1      -3.433   3.521  -0.444  0.00  0.00     0.162 A 
ATOM      6  C5  UNL d   1      -2.086   3.328  -0.733  0.00  0.00     0.062 A 
ATOM      7  F   UNL d   1      -1.653   3.422  -1.998  0.00  0.00    -0.097 F 
ATOM      8  F1  UNL d   1      -4.279   3.797  -1.448  0.00  0.00    -0.096 F 
ATOM      9  I   UNL d   1      -5.908   3.711   1.305  0.00  0.00    -0.060 I 
ATOM     10  F2  UNL d   1      -3.392   3.036   3.163  0.00  0.00    -0.096 F 
ATOM     11  F3  UNL d   1      -0.773   2.666   2.581  0.00  0.00    -0.097 F 
ATOM     12  F4  UNL d   1       0.108   2.856   0.006  0.00  0.00    -0.092 F 
ENDROOT
TORSDOF 0
ENDMDL
