MODEL 1
REMARK minimizedAffinity 2.032022
REMARK minimizedRMSD -1
REMARK  3 active torsions:
REMARK  status: ('A' for Active; 'I' for Inactive)
REMARK    1  A    between atoms: C3'_2  and  C2'_3 
REMARK    2  A    between atoms: C2'_3  and  C1'_4 
REMARK    3  A    between atoms: C1'_4  and  C1_5 
ROOT
ATOM      1  C1  N4B d   1      -5.034  -0.661   2.686  0.00  0.00    -0.075 A 
ATOM      2  C2  N4B d   1      -5.949  -0.559   3.757  0.00  0.00     0.002 A 
ATOM      3  C3  N4B d   1      -5.988  -1.535   4.722  0.00  0.00     0.002 A 
ATOM      4  C4  N4B d   1      -5.138  -2.627   4.628  0.00  0.00    -0.004 A 
ATOM      5  C5  N4B d   1      -4.240  -2.705   3.604  0.00  0.00     0.002 A 
ATOM      6  C6  N4B d   1      -4.187  -1.729   2.629  0.00  0.00     0.002 A 
ENDROOT
BRANCH   1   7
ATOM      7  C1' N4B d   1      -5.014   0.338   1.561  0.00  0.00     0.057 C 
BRANCH   7   8
ATOM      8  C2' N4B d   1      -3.694   0.214   0.805  0.00  0.00     0.009 C 
BRANCH   8   9
ATOM      9  C3' N4B d   1      -3.775   0.822  -0.584  0.00  0.00     0.004 C 
ATOM     10  C4' N4B d   1      -4.837   0.191  -1.434  0.00  0.00     0.003 C 
ENDBRANCH   8   9
ENDBRANCH   7   8
ENDBRANCH   1   7
TORSDOF 3
ENDMDL
