MODEL 1
REMARK minimizedAffinity 5.21813965
REMARK minimizedRMSD -1
REMARK  3 active torsions:
REMARK  status: ('A' for Active; 'I' for Inactive)
REMARK    1  A    between atoms: C3'_2  and  C2'_3 
REMARK    2  A    between atoms: C2'_3  and  C1'_4 
REMARK    3  A    between atoms: C1'_4  and  C1_5 
ROOT
ATOM      1  C1  N4B d   1      -5.244  -0.402   3.668  0.00  0.00    -0.075 A 
ATOM      2  C2  N4B d   1      -5.998  -0.375   4.862  0.00  0.00     0.002 A 
ATOM      3  C3  N4B d   1      -5.994  -1.461   5.701  0.00  0.00     0.002 A 
ATOM      4  C4  N4B d   1      -5.262  -2.589   5.361  0.00  0.00    -0.004 A 
ATOM      5  C5  N4B d   1      -4.517  -2.598   4.218  0.00  0.00     0.002 A 
ATOM      6  C6  N4B d   1      -4.508  -1.512   3.367  0.00  0.00     0.002 A 
ENDROOT
BRANCH   1   7
ATOM      7  C1' N4B d   1      -5.285   0.728   2.676  0.00  0.00     0.057 C 
BRANCH   7   8
ATOM      8  C2' N4B d   1      -4.469   0.344   1.445  0.00  0.00     0.009 C 
BRANCH   8   9
ATOM      9  C3' N4B d   1      -5.125   0.817   0.159  0.00  0.00     0.004 C 
ATOM     10  C4' N4B d   1      -4.225   0.686  -1.034  0.00  0.00     0.003 C 
ENDBRANCH   8   9
ENDBRANCH   7   8
ENDBRANCH   1   7
TORSDOF 3
ENDMDL
