MODEL 1
REMARK minimizedAffinity -4.47552681
REMARK minimizedRMSD -1
REMARK  0 active torsions:
REMARK  status: ('A' for Active; 'I' for Inactive)
ROOT
ATOM      1  C   UNL d   1      -0.501  -2.260   1.994  0.00  0.00     0.020 A 
ATOM      2  C1  UNL d   1       0.790  -2.637   1.627  0.00  0.00     0.020 A 
ATOM      3  C2  UNL d   1       1.475  -1.917   0.646  0.00  0.00     0.034 A 
ATOM      4  C3  UNL d   1       0.870  -0.816   0.030  0.00  0.00     0.017 A 
ATOM      5  C4  UNL d   1      -0.426  -0.438   0.399  0.00  0.00     0.017 A 
ATOM      6  C5  UNL d   1      -1.108  -1.162   1.382  0.00  0.00     0.034 A 
ATOM      7 Cl   UNL d   1      -1.238   0.909  -0.317  0.00  0.00    -0.070 Cl
ATOM      8 Cl1  UNL d   1       1.777   0.029  -1.175  0.00  0.00    -0.070 Cl
ENDROOT
TORSDOF 0
ENDMDL
