MODEL 1
REMARK minimizedAffinity -4.02433777
REMARK minimizedRMSD -1
REMARK  0 active torsions:
REMARK  status: ('A' for Active; 'I' for Inactive)
ROOT
ATOM      1  C   UNL d   1      -0.461  -2.165   2.443  0.00  0.00     0.020 A 
ATOM      2  C1  UNL d   1       0.614  -3.007   2.160  0.00  0.00     0.020 A 
ATOM      3  C2  UNL d   1       1.477  -2.706   1.105  0.00  0.00     0.034 A 
ATOM      4  C3  UNL d   1       1.268  -1.561   0.328  0.00  0.00     0.017 A 
ATOM      5  C4  UNL d   1       0.189  -0.716   0.613  0.00  0.00     0.017 A 
ATOM      6  C5  UNL d   1      -0.673  -1.022   1.671  0.00  0.00     0.034 A 
ATOM      7 Cl   UNL d   1      -0.135   0.715  -0.300  0.00  0.00    -0.070 Cl
ATOM      8 Cl1  UNL d   1       2.375  -1.250  -0.961  0.00  0.00    -0.070 Cl
ENDROOT
TORSDOF 0
ENDMDL
