MODEL 1
REMARK minimizedAffinity -5.02374792
REMARK minimizedRMSD -1
REMARK  0 active torsions:
REMARK  status: ('A' for Active; 'I' for Inactive)
ROOT
ATOM      1  C   UNL d   1      -0.980  -2.755   3.083  0.00  0.00     0.020 A 
ATOM      2  C1  UNL d   1       0.216  -3.372   3.447  0.00  0.00     0.020 A 
ATOM      3  C2  UNL d   1       1.410  -3.000   2.826  0.00  0.00     0.034 A 
ATOM      4  C3  UNL d   1       1.411  -2.008   1.839  0.00  0.00     0.017 A 
ATOM      5  C4  UNL d   1       0.210  -1.389   1.475  0.00  0.00     0.017 A 
ATOM      6  C5  UNL d   1      -0.983  -1.765   2.099  0.00  0.00     0.034 A 
ATOM      7 Cl   UNL d   1       0.132  -0.157   0.265  0.00  0.00    -0.070 Cl
ATOM      8 Cl1  UNL d   1       2.925  -1.598   1.113  0.00  0.00    -0.070 Cl
ENDROOT
TORSDOF 0
ENDMDL
