MODEL 1
REMARK minimizedAffinity -4.16835403
REMARK minimizedRMSD -1
REMARK  0 active torsions:
REMARK  status: ('A' for Active; 'I' for Inactive)
ROOT
ATOM      1  C   UNL d   1       1.268  -2.812   1.883  0.00  0.00     0.020 A 
ATOM      2  C1  UNL d   1      -0.021  -2.540   2.340  0.00  0.00     0.020 A 
ATOM      3  C2  UNL d   1      -0.737  -1.465   1.810  0.00  0.00     0.034 A 
ATOM      4  C3  UNL d   1      -0.165  -0.657   0.821  0.00  0.00     0.017 A 
ATOM      5  C4  UNL d   1       1.129  -0.930   0.363  0.00  0.00     0.017 A 
ATOM      6  C5  UNL d   1       1.842  -2.008   0.897  0.00  0.00     0.034 A 
ATOM      7 Cl   UNL d   1       1.901   0.022  -0.855  0.00  0.00    -0.070 Cl
ATOM      8 Cl1  UNL d   1      -1.109   0.656   0.211  0.00  0.00    -0.070 Cl
ENDROOT
TORSDOF 0
ENDMDL
