MODEL 1
REMARK minimizedAffinity -5.75428295
REMARK minimizedRMSD -1
REMARK  0 active torsions:
REMARK  status: ('A' for Active; 'I' for Inactive)
ROOT
ATOM      1  C   UNL d   1       1.158  -2.979   1.193  0.00  0.00     0.020 A 
ATOM      2  C1  UNL d   1       1.644  -2.048   0.275  0.00  0.00     0.020 A 
ATOM      3  C2  UNL d   1       1.005  -0.815   0.126  0.00  0.00     0.034 A 
ATOM      4  C3  UNL d   1      -0.122  -0.509   0.897  0.00  0.00     0.017 A 
ATOM      5  C4  UNL d   1      -0.609  -1.443   1.819  0.00  0.00     0.017 A 
ATOM      6  C5  UNL d   1       0.035  -2.677   1.963  0.00  0.00     0.034 A 
ATOM      7 Cl   UNL d   1      -1.994  -1.137   2.805  0.00  0.00    -0.070 Cl
ATOM      8 Cl1  UNL d   1      -0.861   1.035   0.662  0.00  0.00    -0.070 Cl
ENDROOT
TORSDOF 0
ENDMDL
