MODEL 1
REMARK minimizedAffinity -4.44490433
REMARK minimizedRMSD -1
REMARK  0 active torsions:
REMARK  status: ('A' for Active; 'I' for Inactive)
ROOT
ATOM      1  C   UNL d   1       1.523  -3.409   1.639  0.00  0.00     0.020 A 
ATOM      2  C1  UNL d   1       1.837  -2.793   0.428  0.00  0.00     0.020 A 
ATOM      3  C2  UNL d   1       1.144  -1.649   0.026  0.00  0.00     0.034 A 
ATOM      4  C3  UNL d   1       0.134  -1.117   0.836  0.00  0.00     0.017 A 
ATOM      5  C4  UNL d   1      -0.180  -1.736   2.052  0.00  0.00     0.017 A 
ATOM      6  C5  UNL d   1       0.517  -2.881   2.449  0.00  0.00     0.034 A 
ATOM      7 Cl   UNL d   1      -1.414  -1.138   3.104  0.00  0.00    -0.070 Cl
ATOM      8 Cl1  UNL d   1      -0.681   0.300   0.277  0.00  0.00    -0.070 Cl
ENDROOT
TORSDOF 0
ENDMDL
