MODEL 1
REMARK minimizedAffinity -1.43467653
REMARK minimizedRMSD -1
REMARK  0 active torsions:
REMARK  status: ('A' for Active; 'I' for Inactive)
ROOT
ATOM      1  C   UNL d   1      -0.379   3.984  -3.582  0.00  0.00     0.020 A 
ATOM      2  C1  UNL d   1      -1.363   3.476  -4.429  0.00  0.00     0.020 A 
ATOM      3  C2  UNL d   1      -2.294   2.555  -3.943  0.00  0.00     0.034 A 
ATOM      4  C3  UNL d   1      -2.242   2.139  -2.608  0.00  0.00     0.017 A 
ATOM      5  C4  UNL d   1      -1.253   2.650  -1.759  0.00  0.00     0.017 A 
ATOM      6  C5  UNL d   1      -0.324   3.573  -2.250  0.00  0.00     0.034 A 
ATOM      7 Cl   UNL d   1      -1.126   2.186  -0.099  0.00  0.00    -0.070 Cl
ATOM      8 Cl1  UNL d   1      -3.424   0.998  -2.075  0.00  0.00    -0.070 Cl
ENDROOT
TORSDOF 0
ENDMDL
