MODEL 1
REMARK minimizedAffinity -1.53036833
REMARK minimizedRMSD -1
REMARK  0 active torsions:
REMARK  status: ('A' for Active; 'I' for Inactive)
ROOT
ATOM      1  C   UNL d   1      -1.246   0.686  -1.103  0.00  0.00     0.020 A 
ATOM      2  C1  UNL d   1      -0.274   1.508  -0.534  0.00  0.00     0.020 A 
ATOM      3  C2  UNL d   1       0.952   0.969  -0.138  0.00  0.00     0.034 A 
ATOM      4  C3  UNL d   1       1.209  -0.396  -0.311  0.00  0.00     0.017 A 
ATOM      5  C4  UNL d   1       0.233  -1.220  -0.882  0.00  0.00     0.017 A 
ATOM      6  C5  UNL d   1      -0.993  -0.675  -1.277  0.00  0.00     0.034 A 
ATOM      7 Cl   UNL d   1       0.477  -2.914  -1.128  0.00  0.00    -0.070 Cl
ATOM      8 Cl1  UNL d   1       2.747  -0.995   0.201  0.00  0.00    -0.070 Cl
ENDROOT
TORSDOF 0
ENDMDL
