MODEL 1
REMARK minimizedAffinity -2.19952631
REMARK minimizedRMSD -1
REMARK  0 active torsions:
REMARK  status: ('A' for Active; 'I' for Inactive)
ROOT
ATOM      1  C   UNL d   1      -1.148   0.174  -2.571  0.00  0.00     0.020 A 
ATOM      2  C1  UNL d   1       0.101  -0.335  -2.923  0.00  0.00     0.020 A 
ATOM      3  C2  UNL d   1       0.948  -0.848  -1.938  0.00  0.00     0.034 A 
ATOM      4  C3  UNL d   1       0.548  -0.853  -0.597  0.00  0.00     0.017 A 
ATOM      5  C4  UNL d   1      -0.707  -0.341  -0.245  0.00  0.00     0.017 A 
ATOM      6  C5  UNL d   1      -1.551   0.171  -1.235  0.00  0.00     0.034 A 
ATOM      7 Cl   UNL d   1      -1.271  -0.313   1.388  0.00  0.00    -0.070 Cl
ATOM      8 Cl1  UNL d   1       1.646  -1.503   0.567  0.00  0.00    -0.070 Cl
ENDROOT
TORSDOF 0
ENDMDL
