MODEL 1
REMARK minimizedAffinity -4.68920517
REMARK minimizedRMSD -1
REMARK  0 active torsions:
REMARK  status: ('A' for Active; 'I' for Inactive)
ROOT
ATOM      1  C   UNL d   1       2.131  -1.569   0.327  0.00  0.00     0.020 A 
ATOM      2  C1  UNL d   1       1.707  -0.525  -0.495  0.00  0.00     0.020 A 
ATOM      3  C2  UNL d   1       0.614   0.258  -0.120  0.00  0.00     0.034 A 
ATOM      4  C3  UNL d   1      -0.060  -0.002   1.079  0.00  0.00     0.017 A 
ATOM      5  C4  UNL d   1       0.366  -1.050   1.902  0.00  0.00     0.017 A 
ATOM      6  C5  UNL d   1       1.462  -1.831   1.523  0.00  0.00     0.034 A 
ATOM      7 Cl   UNL d   1      -0.415  -1.431   3.396  0.00  0.00    -0.070 Cl
ATOM      8 Cl1  UNL d   1      -1.405   1.007   1.480  0.00  0.00    -0.070 Cl
ENDROOT
TORSDOF 0
ENDMDL
