MODEL 1
REMARK minimizedAffinity -4.52455235
REMARK minimizedRMSD -1
REMARK  0 active torsions:
REMARK  status: ('A' for Active; 'I' for Inactive)
ROOT
ATOM      1  C   UNL d   1       1.132  -3.032   1.572  0.00  0.00     0.020 A 
ATOM      2  C1  UNL d   1       0.070  -2.610   2.371  0.00  0.00     0.020 A 
ATOM      3  C2  UNL d   1      -0.632  -1.448   2.043  0.00  0.00     0.034 A 
ATOM      4  C3  UNL d   1      -0.272  -0.704   0.913  0.00  0.00     0.017 A 
ATOM      5  C4  UNL d   1       0.794  -1.129   0.112  0.00  0.00     0.017 A 
ATOM      6  C5  UNL d   1       1.493  -2.293   0.445  0.00  0.00     0.034 A 
ATOM      7 Cl   UNL d   1       1.297  -0.263  -1.297  0.00  0.00    -0.070 Cl
ATOM      8 Cl1  UNL d   1      -1.184   0.722   0.567  0.00  0.00    -0.070 Cl
ENDROOT
TORSDOF 0
ENDMDL
