MODEL 1
REMARK minimizedAffinity -1.98555601
REMARK minimizedRMSD -1
REMARK  0 active torsions:
REMARK  status: ('A' for Active; 'I' for Inactive)
ROOT
ATOM      1  C   UNL d   1       2.561  -1.738  -0.358  0.00  0.00     0.020 A 
ATOM      2  C1  UNL d   1       2.585  -0.654  -1.235  0.00  0.00     0.020 A 
ATOM      3  C2  UNL d   1       1.596   0.329  -1.155  0.00  0.00     0.034 A 
ATOM      4  C3  UNL d   1       0.580   0.230  -0.198  0.00  0.00     0.017 A 
ATOM      5  C4  UNL d   1       0.557  -0.859   0.681  0.00  0.00     0.017 A 
ATOM      6  C5  UNL d   1       1.550  -1.840   0.597  0.00  0.00     0.034 A 
ATOM      7 Cl   UNL d   1      -0.664  -1.050   1.889  0.00  0.00    -0.070 Cl
ATOM      8 Cl1  UNL d   1      -0.610   1.482  -0.157  0.00  0.00    -0.070 Cl
ENDROOT
TORSDOF 0
ENDMDL
