MODEL 1
REMARK minimizedAffinity -1.92378759
REMARK minimizedRMSD -1
REMARK  0 active torsions:
REMARK  status: ('A' for Active; 'I' for Inactive)
ROOT
ATOM      1  C   UNL d   1       1.487  -2.425   2.127  0.00  0.00     0.020 A 
ATOM      2  C1  UNL d   1       0.118  -2.272   2.347  0.00  0.00     0.020 A 
ATOM      3  C2  UNL d   1      -0.643  -1.477   1.486  0.00  0.00     0.034 A 
ATOM      4  C3  UNL d   1      -0.036  -0.833   0.402  0.00  0.00     0.017 A 
ATOM      5  C4  UNL d   1       1.338  -0.987   0.182  0.00  0.00     0.017 A 
ATOM      6  C5  UNL d   1       2.095  -1.784   1.047  0.00  0.00     0.034 A 
ATOM      7 Cl   UNL d   1       2.157  -0.224  -1.135  0.00  0.00    -0.070 Cl
ATOM      8 Cl1  UNL d   1      -1.038   0.133  -0.621  0.00  0.00    -0.070 Cl
ENDROOT
TORSDOF 0
ENDMDL
