MODEL 1
REMARK minimizedAffinity -3.39617705
REMARK minimizedRMSD -1
REMARK  0 active torsions:
REMARK  status: ('A' for Active; 'I' for Inactive)
ROOT
ATOM      1  C   UNL d   1       0.081  -0.641  -0.027  0.00  0.00     0.020 A 
ATOM      2  C1  UNL d   1       1.007   0.401  -0.026  0.00  0.00     0.020 A 
ATOM      3  C2  UNL d   1       0.687   1.621  -0.626  0.00  0.00     0.034 A 
ATOM      4  C3  UNL d   1      -0.563   1.801  -1.229  0.00  0.00     0.017 A 
ATOM      5  C4  UNL d   1      -1.492   0.754  -1.230  0.00  0.00     0.017 A 
ATOM      6  C5  UNL d   1      -1.166  -0.465  -0.628  0.00  0.00     0.034 A 
ATOM      7 Cl   UNL d   1      -3.054   0.902  -1.955  0.00  0.00    -0.070 Cl
ATOM      8 Cl1  UNL d   1      -0.892   3.336  -1.952  0.00  0.00    -0.070 Cl
ENDROOT
TORSDOF 0
ENDMDL
