MODEL 1
REMARK minimizedAffinity -3.61464739
REMARK minimizedRMSD -1
REMARK  0 active torsions:
REMARK  status: ('A' for Active; 'I' for Inactive)
ROOT
ATOM      1  C   UNL d   1       1.710  -1.586   1.709  0.00  0.00     0.020 A 
ATOM      2  C1  UNL d   1       2.173  -1.221   0.445  0.00  0.00     0.020 A 
ATOM      3  C2  UNL d   1       1.429  -0.343  -0.345  0.00  0.00     0.034 A 
ATOM      4  C3  UNL d   1       0.216   0.173   0.127  0.00  0.00     0.017 A 
ATOM      5  C4  UNL d   1      -0.248  -0.194   1.395  0.00  0.00     0.017 A 
ATOM      6  C5  UNL d   1       0.501  -1.073   2.182  0.00  0.00     0.034 A 
ATOM      7 Cl   UNL d   1      -1.735   0.402   2.045  0.00  0.00    -0.070 Cl
ATOM      8 Cl1  UNL d   1      -0.652   1.254  -0.904  0.00  0.00    -0.070 Cl
ENDROOT
TORSDOF 0
ENDMDL
