MODEL 1
REMARK minimizedAffinity 0.545113683
REMARK minimizedRMSD -1
REMARK  0 active torsions:
REMARK  status: ('A' for Active; 'I' for Inactive)
ROOT
ATOM      1  C   UNL d   1       2.148  -2.514   1.691  0.00  0.00     0.020 A 
ATOM      2  C1  UNL d   1       2.408  -1.851   0.492  0.00  0.00     0.020 A 
ATOM      3  C2  UNL d   1       1.496  -0.915   0.001  0.00  0.00     0.034 A 
ATOM      4  C3  UNL d   1       0.320  -0.639   0.708  0.00  0.00     0.017 A 
ATOM      5  C4  UNL d   1       0.060  -1.305   1.911  0.00  0.00     0.017 A 
ATOM      6  C5  UNL d   1       0.977  -2.241   2.399  0.00  0.00     0.034 A 
ATOM      7 Cl   UNL d   1      -1.369  -1.018   2.840  0.00  0.00    -0.070 Cl
ATOM      8 Cl1  UNL d   1      -0.763   0.531   0.041  0.00  0.00    -0.070 Cl
ENDROOT
TORSDOF 0
ENDMDL
