MODEL 1
REMARK minimizedAffinity 7.67449331
REMARK minimizedRMSD -1
REMARK  2 active torsions:
REMARK  status: ('A' for Active; 'I' for Inactive)
REMARK    1  A    between atoms: C2'_3  and  C1'_4 
REMARK    2  A    between atoms: C1'_4  and  C1_5 
ROOT
ATOM      1  C1  I4B d   1       1.509  -0.168   2.368  0.00  0.00    -0.075 A 
ATOM      2  C2  I4B d   1       0.786  -0.273   3.530  0.00  0.00     0.003 A 
ATOM      3  C3  I4B d   1       0.257  -1.525   3.930  0.00  0.00     0.002 A 
ATOM      4  C4  I4B d   1       0.432  -2.627   3.118  0.00  0.00    -0.004 A 
ATOM      5  C5  I4B d   1       1.184  -2.523   1.952  0.00  0.00     0.002 A 
ATOM      6  C6  I4B d   1       1.737  -1.289   1.581  0.00  0.00     0.003 A 
ENDROOT
BRANCH   1   7
ATOM      7  C1' I4B d   1       2.024   1.175   1.959  0.00  0.00     0.060 C 
BRANCH   7   8
ATOM      8  C2' I4B d   1       1.568   2.185   2.993  0.00  0.00    -0.013 C 
ATOM      9  C4' I4B d   1       2.732   2.973   3.536  0.00  0.00     0.013 C 
ATOM     10  C3' I4B d   1       0.558   3.086   2.347  0.00  0.00     0.013 C 
ENDBRANCH   7   8
ENDBRANCH   1   7
TORSDOF 2
ENDMDL
