MODEL 1
REMARK minimizedAffinity 14.076704
REMARK minimizedRMSD -1
REMARK  2 active torsions:
REMARK  status: ('A' for Active; 'I' for Inactive)
REMARK    1  A    between atoms: C2'_3  and  C1'_4 
REMARK    2  A    between atoms: C1'_4  and  C1_5 
ROOT
ATOM      1  C1  I4B d   1       0.405  -3.047   4.350  0.00  0.00    -0.075 A 
ATOM      2  C2  I4B d   1       0.011  -1.751   4.132  0.00  0.00     0.003 A 
ATOM      3  C3  I4B d   1       0.363  -1.091   2.929  0.00  0.00     0.002 A 
ATOM      4  C4  I4B d   1       1.147  -1.745   2.000  0.00  0.00    -0.004 A 
ATOM      5  C5  I4B d   1       1.526  -3.067   2.213  0.00  0.00     0.002 A 
ATOM      6  C6  I4B d   1       1.143  -3.727   3.390  0.00  0.00     0.003 A 
ENDROOT
BRANCH   1   7
ATOM      7  C1' I4B d   1       0.044  -3.702   5.646  0.00  0.00     0.060 C 
BRANCH   7   8
ATOM      8  C2' I4B d   1      -0.050  -5.195   5.404  0.00  0.00    -0.013 C 
ATOM      9  C4' I4B d   1       1.130  -5.918   5.999  0.00  0.00     0.013 C 
ATOM     10  C3' I4B d   1      -1.338  -5.680   5.998  0.00  0.00     0.013 C 
ENDBRANCH   7   8
ENDBRANCH   1   7
TORSDOF 2
ENDMDL
