MODEL 1
REMARK minimizedAffinity 9.00298405
REMARK minimizedRMSD -1
REMARK  2 active torsions:
REMARK  status: ('A' for Active; 'I' for Inactive)
REMARK    1  A    between atoms: C2'_3  and  C1'_4 
REMARK    2  A    between atoms: C1'_4  and  C1_5 
ROOT
ATOM      1  C1  I4B d   1      -5.040  -3.223  -4.965  0.00  0.00    -0.075 A 
ATOM      2  C2  I4B d   1      -3.964  -3.926  -4.484  0.00  0.00     0.003 A 
ATOM      3  C3  I4B d   1      -3.829  -5.306  -4.770  0.00  0.00     0.002 A 
ATOM      4  C4  I4B d   1      -4.812  -5.950  -5.493  0.00  0.00    -0.004 A 
ATOM      5  C5  I4B d   1      -5.891  -5.231  -5.999  0.00  0.00     0.002 A 
ATOM      6  C6  I4B d   1      -6.000  -3.856  -5.745  0.00  0.00     0.003 A 
ENDROOT
BRANCH   1   7
ATOM      7  C1' I4B d   1      -5.169  -1.774  -4.617  0.00  0.00     0.060 C 
BRANCH   7   8
ATOM      8  C2' I4B d   1      -4.569  -1.570  -3.241  0.00  0.00    -0.013 C 
ATOM      9  C4' I4B d   1      -3.986  -0.188  -3.100  0.00  0.00     0.013 C 
ATOM     10  C3' I4B d   1      -5.646  -1.810  -2.225  0.00  0.00     0.013 C 
ENDBRANCH   7   8
ENDBRANCH   1   7
TORSDOF 2
ENDMDL
