MODEL 1
REMARK minimizedAffinity 14.4153757
REMARK minimizedRMSD -1
REMARK  2 active torsions:
REMARK  status: ('A' for Active; 'I' for Inactive)
REMARK    1  A    between atoms: C2'_3  and  C1'_4 
REMARK    2  A    between atoms: C1'_4  and  C1_5 
ROOT
ATOM      1  C1  I4B d   1      -4.216   2.960   0.238  0.00  0.00    -0.075 A 
ATOM      2  C2  I4B d   1      -5.151   3.790  -0.328  0.00  0.00     0.003 A 
ATOM      3  C3  I4B d   1      -5.999   4.574   0.492  0.00  0.00     0.002 A 
ATOM      4  C4  I4B d   1      -5.912   4.459   1.864  0.00  0.00    -0.004 A 
ATOM      5  C5  I4B d   1      -4.948   3.634   2.437  0.00  0.00     0.002 A 
ATOM      6  C6  I4B d   1      -4.086   2.889   1.619  0.00  0.00     0.003 A 
ENDROOT
BRANCH   1   7
ATOM      7  C1' I4B d   1      -3.359   2.122  -0.657  0.00  0.00     0.060 C 
BRANCH   7   8
ATOM      8  C2' I4B d   1      -4.181   1.750  -1.875  0.00  0.00    -0.013 C 
ATOM      9  C4' I4B d   1      -3.297   1.375  -3.035  0.00  0.00     0.013 C 
ATOM     10  C3' I4B d   1      -5.085   0.616  -1.494  0.00  0.00     0.013 C 
ENDBRANCH   7   8
ENDBRANCH   1   7
TORSDOF 2
ENDMDL
