MODEL 1
REMARK minimizedAffinity 8.88744354
REMARK minimizedRMSD -1
REMARK  2 active torsions:
REMARK  status: ('A' for Active; 'I' for Inactive)
REMARK    1  A    between atoms: C2'_3  and  C1'_4 
REMARK    2  A    between atoms: C1'_4  and  C1_5 
ROOT
ATOM      1  C1  I4B d   1      -4.199  -3.394  -4.115  0.00  0.00    -0.075 A 
ATOM      2  C2  I4B d   1      -3.852  -4.709  -4.305  0.00  0.00     0.003 A 
ATOM      3  C3  I4B d   1      -4.521  -5.489  -5.279  0.00  0.00     0.002 A 
ATOM      4  C4  I4B d   1      -5.558  -4.934  -6.000  0.00  0.00    -0.004 A 
ATOM      5  C5  I4B d   1      -5.894  -3.595  -5.822  0.00  0.00     0.002 A 
ATOM      6  C6  I4B d   1      -5.202  -2.816  -4.882  0.00  0.00     0.003 A 
ENDROOT
BRANCH   1   7
ATOM      7  C1' I4B d   1      -3.494  -2.609  -3.055  0.00  0.00     0.060 C 
BRANCH   7   8
ATOM      8  C2' I4B d   1      -4.321  -1.373  -2.763  0.00  0.00    -0.013 C 
ATOM      9  C4' I4B d   1      -5.054  -1.505  -1.454  0.00  0.00     0.013 C 
ATOM     10  C3' I4B d   1      -3.398  -0.191  -2.750  0.00  0.00     0.013 C 
ENDBRANCH   7   8
ENDBRANCH   1   7
TORSDOF 2
ENDMDL
