MODEL 1
REMARK minimizedAffinity 14.9368134
REMARK minimizedRMSD -1
REMARK  2 active torsions:
REMARK  status: ('A' for Active; 'I' for Inactive)
REMARK    1  A    between atoms: C2'_3  and  C1'_4 
REMARK    2  A    between atoms: C1'_4  and  C1_5 
ROOT
ATOM      1  C1  I4B d   1       1.307   1.038   2.038  0.00  0.00    -0.075 A 
ATOM      2  C2  I4B d   1       1.188   1.638   3.267  0.00  0.00     0.003 A 
ATOM      3  C3  I4B d   1       2.021   2.730   3.611  0.00  0.00     0.002 A 
ATOM      4  C4  I4B d   1       2.987   3.154   2.721  0.00  0.00    -0.004 A 
ATOM      5  C5  I4B d   1       3.091   2.559   1.467  0.00  0.00     0.002 A 
ATOM      6  C6  I4B d   1       2.238   1.503   1.118  0.00  0.00     0.003 A 
ENDROOT
BRANCH   1   7
ATOM      7  C1' I4B d   1       0.434  -0.134   1.720  0.00  0.00     0.060 C 
BRANCH   7   8
ATOM      8  C2' I4B d   1       1.173  -1.392   2.130  0.00  0.00    -0.013 C 
ATOM      9  C4' I4B d   1       2.611  -1.349   1.685  0.00  0.00     0.013 C 
ATOM     10  C3' I4B d   1       1.070  -1.524   3.620  0.00  0.00     0.013 C 
ENDBRANCH   7   8
ENDBRANCH   1   7
TORSDOF 2
ENDMDL
