MODEL 1
REMARK minimizedAffinity 14.3139343
REMARK minimizedRMSD -1
REMARK  2 active torsions:
REMARK  status: ('A' for Active; 'I' for Inactive)
REMARK    1  A    between atoms: C2'_3  and  C1'_4 
REMARK    2  A    between atoms: C1'_4  and  C1_5 
ROOT
ATOM      1  C1  I4B d   1      -3.965  -2.402  -4.124  0.00  0.00    -0.075 A 
ATOM      2  C2  I4B d   1      -3.403  -3.614  -4.437  0.00  0.00     0.003 A 
ATOM      3  C3  I4B d   1      -4.137  -4.570  -5.180  0.00  0.00     0.002 A 
ATOM      4  C4  I4B d   1      -5.439  -4.294  -5.543  0.00  0.00    -0.004 A 
ATOM      5  C5  I4B d   1      -6.000  -3.055  -5.245  0.00  0.00     0.002 A 
ATOM      6  C6  I4B d   1      -5.254  -2.098  -4.542  0.00  0.00     0.003 A 
ENDROOT
BRANCH   1   7
ATOM      7  C1' I4B d   1      -3.173  -1.428  -3.310  0.00  0.00     0.060 C 
BRANCH   7   8
ATOM      8  C2' I4B d   1      -4.141  -0.438  -2.695  0.00  0.00    -0.013 C 
ATOM      9  C4' I4B d   1      -4.795  -1.007  -1.464  0.00  0.00     0.013 C 
ATOM     10  C3' I4B d   1      -3.381   0.814  -2.375  0.00  0.00     0.013 C 
ENDBRANCH   7   8
ENDBRANCH   1   7
TORSDOF 2
ENDMDL
