MODEL 1
REMARK minimizedAffinity 2.23424029
REMARK minimizedRMSD -1
REMARK  2 active torsions:
REMARK  status: ('A' for Active; 'I' for Inactive)
REMARK    1  A    between atoms: C2'_3  and  C1'_4 
REMARK    2  A    between atoms: C1'_4  and  C1_5 
ROOT
ATOM      1  C1  I4B d   1       3.361  -2.662   4.188  0.00  0.00    -0.075 A 
ATOM      2  C2  I4B d   1       4.389  -2.717   3.281  0.00  0.00     0.003 A 
ATOM      3  C3  I4B d   1       5.731  -2.781   3.728  0.00  0.00     0.002 A 
ATOM      4  C4  I4B d   1       6.000  -2.737   5.081  0.00  0.00    -0.004 A 
ATOM      5  C5  I4B d   1       4.955  -2.705   6.000  0.00  0.00     0.002 A 
ATOM      6  C6  I4B d   1       3.626  -2.679   5.551  0.00  0.00     0.003 A 
ENDROOT
BRANCH   1   7
ATOM      7  C1' I4B d   1       1.957  -2.561   3.681  0.00  0.00     0.060 C 
BRANCH   7   8
ATOM      8  C2' I4B d   1       1.993  -1.847   2.345  0.00  0.00    -0.013 C 
ATOM      9  C4' I4B d   1       1.463  -2.726   1.243  0.00  0.00     0.013 C 
ATOM     10  C3' I4B d   1       1.186  -0.589   2.471  0.00  0.00     0.013 C 
ENDBRANCH   7   8
ENDBRANCH   1   7
TORSDOF 2
ENDMDL
