MODEL 1
REMARK minimizedAffinity -2.64954782
REMARK minimizedRMSD -1
REMARK  0 active torsions:
REMARK  status: ('A' for Active; 'I' for Inactive)
ROOT
ATOM      1  C   UNL d   1      -1.508   0.465   1.109  0.00  0.00     0.172 C 
ATOM      2  N   UNL d   1      -0.294  -0.250   0.792  0.00  0.00    -0.070 N 
ATOM      3  C1  UNL d   1      -0.152  -1.181  -0.201  0.00  0.00    -0.004 A 
ATOM      4  C2  UNL d   1       1.152  -1.627  -0.180  0.00  0.00    -0.047 A 
ATOM      5  C3  UNL d   1       1.817  -0.940   0.864  0.00  0.00    -0.047 A 
ATOM      6  C4  UNL d   1       0.899  -0.094   1.449  0.00  0.00    -0.004 A 
ENDROOT
TORSDOF 0
ENDMDL
