MODEL 1
REMARK minimizedAffinity -3.54355645
REMARK minimizedRMSD -1
REMARK  0 active torsions:
REMARK  status: ('A' for Active; 'I' for Inactive)
ROOT
ATOM      1  C   UNL d   1       2.474  -1.189   0.415  0.00  0.00     0.172 C 
ATOM      2  N   UNL d   1       1.043  -1.215   0.608  0.00  0.00    -0.070 N 
ATOM      3  C1  UNL d   1       0.187  -2.163   0.114  0.00  0.00    -0.004 A 
ATOM      4  C2  UNL d   1      -1.088  -1.832   0.519  0.00  0.00    -0.047 A 
ATOM      5  C3  UNL d   1      -0.996  -0.644   1.282  0.00  0.00    -0.047 A 
ATOM      6  C4  UNL d   1       0.335  -0.284   1.321  0.00  0.00    -0.004 A 
ENDROOT
TORSDOF 0
ENDMDL
