MODEL 1
REMARK minimizedAffinity 4.77651548
REMARK minimizedRMSD -1
REMARK  0 active torsions:
REMARK  status: ('A' for Active; 'I' for Inactive)
ROOT
ATOM      1  C   UNL d   1       3.766   3.895  -1.796  0.00  0.00     0.172 C 
ATOM      2  N   UNL d   1       3.150   2.742  -2.410  0.00  0.00    -0.070 N 
ATOM      3  C1  UNL d   1       1.993   2.750  -3.142  0.00  0.00    -0.004 A 
ATOM      4  C2  UNL d   1       1.743   1.458  -3.551  0.00  0.00    -0.047 A 
ATOM      5  C3  UNL d   1       2.785   0.645  -3.046  0.00  0.00    -0.047 A 
ATOM      6  C4  UNL d   1       3.642   1.465  -2.344  0.00  0.00    -0.004 A 
ENDROOT
TORSDOF 0
ENDMDL
