MODEL 1
REMARK minimizedAffinity -2.4771719
REMARK minimizedRMSD -1
REMARK  0 active torsions:
REMARK  status: ('A' for Active; 'I' for Inactive)
ROOT
ATOM      1  C   UNL d   1      -2.216   0.978   1.723  0.00  0.00     0.172 C 
ATOM      2  N   UNL d   1      -1.285  -0.002   1.217  0.00  0.00    -0.070 N 
ATOM      3  C1  UNL d   1       0.075   0.035   1.370  0.00  0.00    -0.004 A 
ATOM      4  C2  UNL d   1       0.601  -1.076   0.746  0.00  0.00    -0.047 A 
ATOM      5  C3  UNL d   1      -0.480  -1.805   0.197  0.00  0.00    -0.047 A 
ATOM      6  C4  UNL d   1      -1.636  -1.118   0.504  0.00  0.00    -0.004 A 
ENDROOT
TORSDOF 0
ENDMDL
