MODEL 1
REMARK minimizedAffinity 0.370994478
REMARK minimizedRMSD -1
REMARK  0 active torsions:
REMARK  status: ('A' for Active; 'I' for Inactive)
ROOT
ATOM      1  C   UNL d   1       3.043  -2.115  -0.047  0.00  0.00     0.172 C 
ATOM      2  N   UNL d   1       1.625  -2.117   0.227  0.00  0.00    -0.070 N 
ATOM      3  C1  UNL d   1       0.699  -2.933  -0.366  0.00  0.00    -0.004 A 
ATOM      4  C2  UNL d   1      -0.535  -2.626   0.166  0.00  0.00    -0.047 A 
ATOM      5  C3  UNL d   1      -0.344  -1.590   1.111  0.00  0.00    -0.047 A 
ATOM      6  C4  UNL d   1       1.003  -1.295   1.128  0.00  0.00    -0.004 A 
ENDROOT
TORSDOF 0
ENDMDL
