MODEL 1
REMARK minimizedAffinity -2.86413527
REMARK minimizedRMSD -1
REMARK  0 active torsions:
REMARK  status: ('A' for Active; 'I' for Inactive)
ROOT
ATOM      1  C   UNL d   1       1.715  -3.605  -0.406  0.00  0.00     0.172 C 
ATOM      2  N   UNL d   1       1.034  -2.455   0.143  0.00  0.00    -0.070 N 
ATOM      3  C1  UNL d   1      -0.053  -2.493   0.975  0.00  0.00    -0.004 A 
ATOM      4  C2  UNL d   1      -0.402  -1.194   1.273  0.00  0.00    -0.047 A 
ATOM      5  C3  UNL d   1       0.506  -0.346   0.597  0.00  0.00    -0.047 A 
ATOM      6  C4  UNL d   1       1.385  -1.153  -0.095  0.00  0.00    -0.004 A 
ENDROOT
TORSDOF 0
ENDMDL
