MODEL 1
REMARK minimizedAffinity -3.50548148
REMARK minimizedRMSD -1
REMARK  0 active torsions:
REMARK  status: ('A' for Active; 'I' for Inactive)
ROOT
ATOM      1  C   UNL d   1       1.970  -3.699  -0.362  0.00  0.00     0.172 C 
ATOM      2  N   UNL d   1       1.321  -2.457  -0.014  0.00  0.00    -0.070 N 
ATOM      3  C1  UNL d   1       1.955  -1.280   0.283  0.00  0.00    -0.004 A 
ATOM      4  C2  UNL d   1       0.989  -0.337   0.560  0.00  0.00    -0.047 A 
ATOM      5  C3  UNL d   1      -0.270  -0.970   0.425  0.00  0.00    -0.047 A 
ATOM      6  C4  UNL d   1      -0.035  -2.281   0.070  0.00  0.00    -0.004 A 
ENDROOT
TORSDOF 0
ENDMDL
