MODEL 1
REMARK minimizedAffinity 1.53291023
REMARK minimizedRMSD -1
REMARK  0 active torsions:
REMARK  status: ('A' for Active; 'I' for Inactive)
ROOT
ATOM      1  C   UNL d   1       2.206  -0.114   2.461  0.00  0.00     0.172 C 
ATOM      2  N   UNL d   1       1.324  -0.709   1.485  0.00  0.00    -0.070 N 
ATOM      3  C1  UNL d   1       1.717  -1.381   0.359  0.00  0.00    -0.004 A 
ATOM      4  C2  UNL d   1       0.581  -1.792  -0.305  0.00  0.00    -0.047 A 
ATOM      5  C3  UNL d   1      -0.533  -1.352   0.448  0.00  0.00    -0.047 A 
ATOM      6  C4  UNL d   1      -0.044  -0.684   1.551  0.00  0.00    -0.004 A 
ENDROOT
TORSDOF 0
ENDMDL
