MODEL 1
REMARK minimizedAffinity 0.243067712
REMARK minimizedRMSD -1
REMARK  0 active torsions:
REMARK  status: ('A' for Active; 'I' for Inactive)
ROOT
ATOM      1  C   UNL d   1      -0.573  -1.181   0.650  0.00  0.00     0.172 C 
ATOM      2  N   UNL d   1       0.648  -1.796   0.184  0.00  0.00    -0.070 N 
ATOM      3  C1  UNL d   1       1.871  -1.184   0.108  0.00  0.00    -0.004 A 
ATOM      4  C2  UNL d   1       2.773  -2.103  -0.384  0.00  0.00    -0.047 A 
ATOM      5  C3  UNL d   1       2.067  -3.309  -0.612  0.00  0.00    -0.047 A 
ATOM      6  C4  UNL d   1       0.754  -3.090  -0.252  0.00  0.00    -0.004 A 
ENDROOT
TORSDOF 0
ENDMDL
