MODEL 1
REMARK minimizedAffinity 2.10594416
REMARK minimizedRMSD -1
REMARK  0 active torsions:
REMARK  status: ('A' for Active; 'I' for Inactive)
ROOT
ATOM      1  C   UNL d   1      -0.972  -0.653   1.280  0.00  0.00     0.172 C 
ATOM      2  N   UNL d   1      -0.244  -1.505   0.369  0.00  0.00    -0.070 N 
ATOM      3  C1  UNL d   1       0.152  -2.791   0.623  0.00  0.00    -0.004 A 
ATOM      4  C2  UNL d   1       0.815  -3.257  -0.492  0.00  0.00    -0.047 A 
ATOM      5  C3  UNL d   1       0.817  -2.214  -1.449  0.00  0.00    -0.047 A 
ATOM      6  C4  UNL d   1       0.155  -1.142  -0.890  0.00  0.00    -0.004 A 
ENDROOT
TORSDOF 0
ENDMDL
