MODEL 1
REMARK minimizedAffinity 3.15239859
REMARK minimizedRMSD -1
REMARK  0 active torsions:
REMARK  status: ('A' for Active; 'I' for Inactive)
ROOT
ATOM      1  C   UNL d   1       1.512  -3.727  -0.427  0.00  0.00     0.172 C 
ATOM      2  N   UNL d   1       0.840  -2.614   0.202  0.00  0.00    -0.070 N 
ATOM      3  C1  UNL d   1       1.401  -1.751   1.106  0.00  0.00    -0.004 A 
ATOM      4  C2  UNL d   1       0.438  -0.833   1.467  0.00  0.00    -0.047 A 
ATOM      5  C3  UNL d   1      -0.742  -1.156   0.755  0.00  0.00    -0.047 A 
ATOM      6  C4  UNL d   1      -0.465  -2.262  -0.020  0.00  0.00    -0.004 A 
ENDROOT
TORSDOF 0
ENDMDL
