MODEL 1
REMARK minimizedAffinity -0.0965915322
REMARK minimizedRMSD -1
REMARK  0 active torsions:
REMARK  status: ('A' for Active; 'I' for Inactive)
ROOT
ATOM      1  C   UNL d   1      -0.269  -1.233   1.303  0.00  0.00     0.172 C 
ATOM      2  N   UNL d   1      -1.302  -0.279   1.632  0.00  0.00    -0.070 N 
ATOM      3  C1  UNL d   1      -1.559   0.220   2.882  0.00  0.00    -0.004 A 
ATOM      4  C2  UNL d   1      -2.616   1.097   2.777  0.00  0.00    -0.047 A 
ATOM      5  C3  UNL d   1      -3.009   1.126   1.417  0.00  0.00    -0.047 A 
ATOM      6  C4  UNL d   1      -2.179   0.264   0.732  0.00  0.00    -0.004 A 
ENDROOT
TORSDOF 0
ENDMDL
