MODEL 1
REMARK minimizedAffinity -3.63404775
REMARK minimizedRMSD -1
REMARK  0 active torsions:
REMARK  status: ('A' for Active; 'I' for Inactive)
ROOT
ATOM      1  C   UNL d   1      -1.905   0.534   1.695  0.00  0.00     0.172 C 
ATOM      2  N   UNL d   1      -1.448  -0.723   1.150  0.00  0.00    -0.070 N 
ATOM      3  C1  UNL d   1      -0.359  -1.431   1.582  0.00  0.00    -0.004 A 
ATOM      4  C2  UNL d   1      -0.261  -2.568   0.810  0.00  0.00    -0.047 A 
ATOM      5  C3  UNL d   1      -1.328  -2.542  -0.120  0.00  0.00    -0.047 A 
ATOM      6  C4  UNL d   1      -2.047  -1.388   0.113  0.00  0.00    -0.004 A 
ENDROOT
TORSDOF 0
ENDMDL
