MODEL 1
REMARK minimizedAffinity -2.27587223
REMARK minimizedRMSD -1
REMARK  0 active torsions:
REMARK  status: ('A' for Active; 'I' for Inactive)
ROOT
ATOM      1  C   UNL d   1      -1.830  -0.734   0.972  0.00  0.00     0.172 C 
ATOM      2  N   UNL d   1      -0.605  -1.404   0.602  0.00  0.00    -0.070 N 
ATOM      3  C1  UNL d   1      -0.518  -2.592  -0.074  0.00  0.00    -0.004 A 
ATOM      4  C2  UNL d   1       0.818  -2.890  -0.232  0.00  0.00    -0.047 A 
ATOM      5  C3  UNL d   1       1.560  -1.846   0.370  0.00  0.00    -0.047 A 
ATOM      6  C4  UNL d   1       0.653  -0.940   0.879  0.00  0.00    -0.004 A 
ENDROOT
TORSDOF 0
ENDMDL
