MODEL 1
REMARK minimizedAffinity 13.3454151
REMARK minimizedRMSD -1
REMARK  0 active torsions:
REMARK  status: ('A' for Active; 'I' for Inactive)
ROOT
ATOM      1  C   UNL d   1       0.536   4.428  -1.220  0.00  0.00     0.124 A 
ATOM      2  C1  UNL d   1       1.549   4.561  -0.281  0.00  0.00     0.062 A 
ATOM      3  C2  UNL d   1       1.541   3.784   0.873  0.00  0.00     0.162 A 
ATOM      4  C3  UNL d   1       0.515   2.865   1.095  0.00  0.00    -0.034 A 
ATOM      5  C4  UNL d   1      -0.501   2.737   0.146  0.00  0.00     0.162 A 
ATOM      6  C5  UNL d   1      -0.488   3.516  -1.006  0.00  0.00     0.062 A 
ATOM      7  F   UNL d   1      -1.468   3.386  -1.912  0.00  0.00    -0.097 F 
ATOM      8  F1  UNL d   1      -1.502   1.863   0.328  0.00  0.00    -0.096 F 
ATOM      9  I   UNL d   1       0.499   1.700   2.820  0.00  0.00    -0.060 I 
ATOM     10  F2  UNL d   1       2.533   3.934   1.763  0.00  0.00    -0.096 F 
ATOM     11  F3  UNL d   1       2.539   5.443  -0.486  0.00  0.00    -0.097 F 
ATOM     12  F4  UNL d   1       0.546   5.178  -2.330  0.00  0.00    -0.092 F 
ENDROOT
TORSDOF 0
ENDMDL
