MODEL 1
REMARK minimizedAffinity 10.312521
REMARK minimizedRMSD -1
REMARK  0 active torsions:
REMARK  status: ('A' for Active; 'I' for Inactive)
ROOT
ATOM      1  C   UNL d   1       4.738  -1.970  -2.637  0.00  0.00     0.124 A 
ATOM      2  C1  UNL d   1       3.931  -2.631  -3.553  0.00  0.00     0.062 A 
ATOM      3  C2  UNL d   1       3.039  -3.609  -3.122  0.00  0.00     0.162 A 
ATOM      4  C3  UNL d   1       2.949  -3.932  -1.768  0.00  0.00    -0.034 A 
ATOM      5  C4  UNL d   1       3.764  -3.264  -0.853  0.00  0.00     0.162 A 
ATOM      6  C5  UNL d   1       4.654  -2.287  -1.288  0.00  0.00     0.062 A 
ATOM      7  F   UNL d   1       5.432  -1.650  -0.402  0.00  0.00    -0.097 F 
ATOM      8  F1  UNL d   1       3.703  -3.550   0.456  0.00  0.00    -0.096 F 
ATOM      9  I   UNL d   1       1.616  -5.394  -1.121  0.00  0.00    -0.060 I 
ATOM     10  F2  UNL d   1       2.272  -4.232  -4.030  0.00  0.00    -0.096 F 
ATOM     11  F3  UNL d   1       4.011  -2.327  -4.856  0.00  0.00    -0.097 F 
ATOM     12  F4  UNL d   1       5.596  -1.030  -3.054  0.00  0.00    -0.092 F 
ENDROOT
TORSDOF 0
ENDMDL
