MODEL 1
REMARK minimizedAffinity 7.24082947
REMARK minimizedRMSD -1
REMARK  0 active torsions:
REMARK  status: ('A' for Active; 'I' for Inactive)
ROOT
ATOM      1  C   UNL d   1       4.986  -4.344  -2.804  0.00  0.00     0.124 A 
ATOM      2  C1  UNL d   1       4.256  -3.251  -3.250  0.00  0.00     0.062 A 
ATOM      3  C2  UNL d   1       3.655  -2.390  -2.335  0.00  0.00     0.162 A 
ATOM      4  C3  UNL d   1       3.782  -2.619  -0.965  0.00  0.00    -0.034 A 
ATOM      5  C4  UNL d   1       4.517  -3.721  -0.524  0.00  0.00     0.162 A 
ATOM      6  C5  UNL d   1       5.115  -4.578  -1.442  0.00  0.00     0.062 A 
ATOM      7  F   UNL d   1       5.820  -5.634  -1.009  0.00  0.00    -0.097 F 
ATOM      8  F1  UNL d   1       4.659  -3.970   0.786  0.00  0.00    -0.096 F 
ATOM      9  I   UNL d   1       2.886  -1.334   0.405  0.00  0.00    -0.060 I 
ATOM     10  F2  UNL d   1       2.956  -1.341  -2.795  0.00  0.00    -0.096 F 
ATOM     11  F3  UNL d   1       4.129  -3.023  -4.565  0.00  0.00    -0.097 F 
ATOM     12  F4  UNL d   1       5.562  -5.171  -3.686  0.00  0.00    -0.092 F 
ENDROOT
TORSDOF 0
ENDMDL
