MODEL 1
REMARK minimizedAffinity 10.874198
REMARK minimizedRMSD -1
REMARK  0 active torsions:
REMARK  status: ('A' for Active; 'I' for Inactive)
ROOT
ATOM      1  C   UNL d   1       5.039  -3.679  -4.195  0.00  0.00     0.124 A 
ATOM      2  C1  UNL d   1       4.507  -2.495  -3.704  0.00  0.00     0.062 A 
ATOM      3  C2  UNL d   1       3.824  -2.484  -2.491  0.00  0.00     0.162 A 
ATOM      4  C3  UNL d   1       3.670  -3.662  -1.760  0.00  0.00    -0.034 A 
ATOM      5  C4  UNL d   1       4.207  -4.849  -2.261  0.00  0.00     0.162 A 
ATOM      6  C5  UNL d   1       4.888  -4.855  -3.474  0.00  0.00     0.062 A 
ATOM      7  F   UNL d   1       5.401  -6.000  -3.947  0.00  0.00    -0.097 F 
ATOM      8  F1  UNL d   1       4.077  -5.999  -1.584  0.00  0.00    -0.096 F 
ATOM      9  I   UNL d   1       2.650  -3.650   0.054  0.00  0.00    -0.060 I 
ATOM     10  F2  UNL d   1       3.321  -1.325  -2.040  0.00  0.00    -0.096 F 
ATOM     11  F3  UNL d   1       4.650  -1.357  -4.400  0.00  0.00    -0.097 F 
ATOM     12  F4  UNL d   1       5.694  -3.686  -5.363  0.00  0.00    -0.092 F 
ENDROOT
TORSDOF 0
ENDMDL
