MODEL 1
REMARK minimizedAffinity 1.0448252
REMARK minimizedRMSD -1
REMARK  1 active torsions:
REMARK  status: ('A' for Active; 'I' for Inactive)
REMARK    1  A    between atoms: C1_2  and  C2_3 
ROOT
ATOM      1  C2  UNL d   1       1.302   0.034  -0.128  0.00  0.00    -0.077 A 
ATOM      2  C3  UNL d   1       0.006  -0.260  -0.575  0.00  0.00     0.002 A 
ATOM      3  C4  UNL d   1      -0.342  -1.568  -0.919  0.00  0.00     0.002 A 
ATOM      4  C5  UNL d   1       0.598  -2.591  -0.816  0.00  0.00    -0.004 A 
ATOM      5  C6  UNL d   1       1.890  -2.308  -0.375  0.00  0.00     0.002 A 
ATOM      6  C7  UNL d   1       2.240  -1.001  -0.032  0.00  0.00     0.002 A 
ENDROOT
BRANCH   1   7
ATOM      7  C1  UNL d   1       1.665   1.435   0.290  0.00  0.00     0.055 C 
ATOM      8  C   UNL d   1       3.062   1.809  -0.183  0.00  0.00     0.019 C 
ENDBRANCH   1   7
TORSDOF 1
ENDMDL
