MODEL 1
REMARK minimizedAffinity 3.82030106
REMARK minimizedRMSD -1
REMARK  1 active torsions:
REMARK  status: ('A' for Active; 'I' for Inactive)
REMARK    1  A    between atoms: C1_2  and  C2_3 
ROOT
ATOM      1  C2  UNL d   1       0.418  -1.651  -0.989  0.00  0.00    -0.077 A 
ATOM      2  C3  UNL d   1       0.517  -0.265  -0.805  0.00  0.00     0.002 A 
ATOM      3  C4  UNL d   1       1.768   0.350  -0.730  0.00  0.00     0.002 A 
ATOM      4  C5  UNL d   1       2.929  -0.412  -0.843  0.00  0.00    -0.004 A 
ATOM      5  C6  UNL d   1       2.841  -1.792  -1.025  0.00  0.00     0.002 A 
ATOM      6  C7  UNL d   1       1.591  -2.408  -1.098  0.00  0.00     0.002 A 
ENDROOT
BRANCH   1   7
ATOM      7  C1  UNL d   1      -0.931  -2.310  -1.119  0.00  0.00     0.055 C 
ATOM      8  C   UNL d   1      -1.704  -2.251   0.191  0.00  0.00     0.019 C 
ENDBRANCH   1   7
TORSDOF 1
ENDMDL
