MODEL 1
REMARK minimizedAffinity 0.734022021
REMARK minimizedRMSD -1
REMARK  1 active torsions:
REMARK  status: ('A' for Active; 'I' for Inactive)
REMARK    1  A    between atoms: C1_2  and  C2_3 
ROOT
ATOM      1  C2  UNL d   1       0.579   0.794   0.517  0.00  0.00    -0.077 A 
ATOM      2  C3  UNL d   1      -0.093   1.403  -0.552  0.00  0.00     0.002 A 
ATOM      3  C4  UNL d   1      -0.573   0.634  -1.614  0.00  0.00     0.002 A 
ATOM      4  C5  UNL d   1      -0.388  -0.747  -1.616  0.00  0.00    -0.004 A 
ATOM      5  C6  UNL d   1       0.281  -1.361  -0.558  0.00  0.00     0.002 A 
ATOM      6  C7  UNL d   1       0.761  -0.595   0.504  0.00  0.00     0.002 A 
ENDROOT
BRANCH   1   7
ATOM      7  C1  UNL d   1       1.053   1.615   1.688  0.00  0.00     0.055 C 
ATOM      8  C   UNL d   1      -0.101   2.355   2.349  0.00  0.00     0.019 C 
ENDBRANCH   1   7
TORSDOF 1
ENDMDL
