MODEL 1
REMARK minimizedAffinity 2.15104055
REMARK minimizedRMSD -1
REMARK  1 active torsions:
REMARK  status: ('A' for Active; 'I' for Inactive)
REMARK    1  A    between atoms: C1_2  and  C2_3 
ROOT
ATOM      1  C2  UNL d   1       2.830   0.007  -1.000  0.00  0.00    -0.077 A 
ATOM      2  C3  UNL d   1       2.731  -1.375  -1.212  0.00  0.00     0.002 A 
ATOM      3  C4  UNL d   1       1.568  -2.062  -0.862  0.00  0.00     0.002 A 
ATOM      4  C5  UNL d   1       0.493  -1.375  -0.301  0.00  0.00    -0.004 A 
ATOM      5  C6  UNL d   1       0.582  -0.001  -0.084  0.00  0.00     0.002 A 
ATOM      6  C7  UNL d   1       1.745   0.687  -0.433  0.00  0.00     0.002 A 
ENDROOT
BRANCH   1   7
ATOM      7  C1  UNL d   1       4.066   0.758  -1.422  0.00  0.00     0.055 C 
ATOM      8  C   UNL d   1       4.148   2.116  -0.741  0.00  0.00     0.019 C 
ENDBRANCH   1   7
TORSDOF 1
ENDMDL
