MODEL 1
REMARK minimizedAffinity -0.323542207
REMARK minimizedRMSD -1
REMARK  1 active torsions:
REMARK  status: ('A' for Active; 'I' for Inactive)
REMARK    1  A    between atoms: C1_2  and  C2_3 
ROOT
ATOM      1  C2  UNL d   1       3.262  -1.625  -1.053  0.00  0.00    -0.077 A 
ATOM      2  C3  UNL d   1       3.913  -0.463  -0.617  0.00  0.00     0.002 A 
ATOM      3  C4  UNL d   1       4.740   0.251  -1.486  0.00  0.00     0.002 A 
ATOM      4  C5  UNL d   1       4.920  -0.187  -2.797  0.00  0.00    -0.004 A 
ATOM      5  C6  UNL d   1       4.278  -1.343  -3.239  0.00  0.00     0.002 A 
ATOM      6  C7  UNL d   1       3.452  -2.058  -2.371  0.00  0.00     0.002 A 
ENDROOT
BRANCH   1   7
ATOM      7  C1  UNL d   1       2.330  -2.369  -0.131  0.00  0.00     0.055 C 
ATOM      8  C   UNL d   1       0.874  -2.117  -0.494  0.00  0.00     0.019 C 
ENDBRANCH   1   7
TORSDOF 1
ENDMDL
