MODEL 1
REMARK minimizedAffinity -1.51579368
REMARK minimizedRMSD -1
REMARK  0 active torsions:
REMARK  status: ('A' for Active; 'I' for Inactive)
ROOT
ATOM      1  C   UNL d   1      -0.364  -0.659   2.642  0.00  0.00     0.023 A 
ATOM      2  C1  UNL d   1       0.658  -1.048   1.776  0.00  0.00     0.003 A 
ATOM      3  C2  UNL d   1       0.920  -0.303   0.624  0.00  0.00     0.048 A 
ATOM      4  C3  UNL d   1       0.157   0.831   0.345  0.00  0.00     0.023 A 
ATOM      5  C4  UNL d   1      -0.866   1.224   1.210  0.00  0.00     0.048 A 
ATOM      6  C5  UNL d   1      -1.125   0.475   2.359  0.00  0.00     0.003 A 
ATOM      7  I   UNL d   1       0.545   1.941  -1.368  0.00  0.00    -0.146 I 
ENDROOT
TORSDOF 0
ENDMDL
