MODEL 1
REMARK minimizedAffinity -3.8550384
REMARK minimizedRMSD -1
REMARK  0 active torsions:
REMARK  status: ('A' for Active; 'I' for Inactive)
ROOT
ATOM      1  C   UNL d   1       1.265  -2.229  -1.871  0.00  0.00     0.023 A 
ATOM      2  C1  UNL d   1      -0.047  -2.607  -1.585  0.00  0.00     0.003 A 
ATOM      3  C2  UNL d   1      -0.855  -1.788  -0.794  0.00  0.00     0.048 A 
ATOM      4  C3  UNL d   1      -0.345  -0.591  -0.293  0.00  0.00     0.023 A 
ATOM      5  C4  UNL d   1       0.966  -0.208  -0.577  0.00  0.00     0.048 A 
ATOM      6  C5  UNL d   1       1.771  -1.030  -1.367  0.00  0.00     0.003 A 
ATOM      7  I   UNL d   1      -1.546   0.630   0.885  0.00  0.00    -0.146 I 
ENDROOT
TORSDOF 0
ENDMDL
