MODEL 1
REMARK minimizedAffinity -2.61588645
REMARK minimizedRMSD -1
REMARK  0 active torsions:
REMARK  status: ('A' for Active; 'I' for Inactive)
ROOT
ATOM      1  C   UNL d   1      -1.880   1.691   1.966  0.00  0.00     0.023 A 
ATOM      2  C1  UNL d   1      -1.574   0.366   2.276  0.00  0.00     0.003 A 
ATOM      3  C2  UNL d   1      -0.785  -0.392   1.408  0.00  0.00     0.048 A 
ATOM      4  C3  UNL d   1      -0.305   0.183   0.231  0.00  0.00     0.023 A 
ATOM      5  C4  UNL d   1      -0.608   1.509  -0.082  0.00  0.00     0.048 A 
ATOM      6  C5  UNL d   1      -1.397   2.262   0.788  0.00  0.00     0.003 A 
ATOM      7  I   UNL d   1       0.869  -0.942  -1.063  0.00  0.00    -0.146 I 
ENDROOT
TORSDOF 0
ENDMDL
