MODEL 1
REMARK minimizedAffinity -3.54075503
REMARK minimizedRMSD -1
REMARK  0 active torsions:
REMARK  status: ('A' for Active; 'I' for Inactive)
ROOT
ATOM      1  C   UNL d   1      -1.467   2.443   1.600  0.00  0.00     0.023 A 
ATOM      2  C1  UNL d   1      -1.086   2.655   0.275  0.00  0.00     0.003 A 
ATOM      3  C2  UNL d   1      -0.365   1.675  -0.411  0.00  0.00     0.048 A 
ATOM      4  C3  UNL d   1      -0.029   0.485   0.234  0.00  0.00     0.023 A 
ATOM      5  C4  UNL d   1      -0.409   0.268   1.559  0.00  0.00     0.048 A 
ATOM      6  C5  UNL d   1      -1.129   1.251   2.241  0.00  0.00     0.003 A 
ATOM      7  I   UNL d   1       1.043  -0.975  -0.785  0.00  0.00    -0.146 I 
ENDROOT
TORSDOF 0
ENDMDL
