MODEL 1
REMARK minimizedAffinity -5.45785284
REMARK minimizedRMSD -1
REMARK  0 active torsions:
REMARK  status: ('A' for Active; 'I' for Inactive)
ROOT
ATOM      1  C   UNL d   1      -1.950   3.017   1.348  0.00  0.00     0.023 A 
ATOM      2  C1  UNL d   1      -0.971   3.322   0.403  0.00  0.00     0.003 A 
ATOM      3  C2  UNL d   1      -0.257   2.297  -0.221  0.00  0.00     0.048 A 
ATOM      4  C3  UNL d   1      -0.529   0.969   0.104  0.00  0.00     0.023 A 
ATOM      5  C4  UNL d   1      -1.509   0.658   1.048  0.00  0.00     0.048 A 
ATOM      6  C5  UNL d   1      -2.219   1.686   1.670  0.00  0.00     0.003 A 
ATOM      7  I   UNL d   1       0.532  -0.559  -0.824  0.00  0.00    -0.146 I 
ENDROOT
TORSDOF 0
ENDMDL
