MODEL 1
REMARK minimizedAffinity -5.368608
REMARK minimizedRMSD -1
REMARK  0 active torsions:
REMARK  status: ('A' for Active; 'I' for Inactive)
ROOT
ATOM      1  C   UNL d   1      -1.905   2.872   1.345  0.00  0.00     0.023 A 
ATOM      2  C1  UNL d   1      -0.888   3.075   0.412  0.00  0.00     0.003 A 
ATOM      3  C2  UNL d   1      -0.190   1.985  -0.111  0.00  0.00     0.048 A 
ATOM      4  C3  UNL d   1      -0.515   0.693   0.302  0.00  0.00     0.023 A 
ATOM      5  C4  UNL d   1      -1.533   0.485   1.235  0.00  0.00     0.048 A 
ATOM      6  C5  UNL d   1      -2.228   1.578   1.756  0.00  0.00     0.003 A 
ATOM      7  I   UNL d   1       0.522  -0.931  -0.475  0.00  0.00    -0.146 I 
ENDROOT
TORSDOF 0
ENDMDL
