MODEL 1
REMARK minimizedAffinity -4.93319988
REMARK minimizedRMSD -1
REMARK  0 active torsions:
REMARK  status: ('A' for Active; 'I' for Inactive)
ROOT
ATOM      1  C   UNL d   1      -1.615   1.882   1.926  0.00  0.00     0.023 A 
ATOM      2  C1  UNL d   1      -1.646   2.949   1.028  0.00  0.00     0.003 A 
ATOM      3  C2  UNL d   1      -0.821   2.939  -0.099  0.00  0.00     0.048 A 
ATOM      4  C3  UNL d   1       0.032   1.858  -0.322  0.00  0.00     0.023 A 
ATOM      5  C4  UNL d   1       0.065   0.788   0.574  0.00  0.00     0.048 A 
ATOM      6  C5  UNL d   1      -0.761   0.803   1.699  0.00  0.00     0.003 A 
ATOM      7  I   UNL d   1       1.260   1.841  -1.998  0.00  0.00    -0.146 I 
ENDROOT
TORSDOF 0
ENDMDL
