MODEL 1
REMARK minimizedAffinity -2.28243685
REMARK minimizedRMSD -1
REMARK  0 active torsions:
REMARK  status: ('A' for Active; 'I' for Inactive)
ROOT
ATOM      1  C   UNL d   1       1.130  -0.728  -0.851  0.00  0.00     0.023 A 
ATOM      2  C1  UNL d   1       0.398  -1.242   0.220  0.00  0.00     0.003 A 
ATOM      3  C2  UNL d   1      -0.314  -0.382   1.058  0.00  0.00     0.048 A 
ATOM      4  C3  UNL d   1      -0.291   0.992   0.819  0.00  0.00     0.023 A 
ATOM      5  C4  UNL d   1       0.440   1.511  -0.251  0.00  0.00     0.048 A 
ATOM      6  C5  UNL d   1       1.151   0.647  -1.086  0.00  0.00     0.003 A 
ATOM      7  I   UNL d   1      -1.350   2.275   2.065  0.00  0.00    -0.146 I 
ENDROOT
TORSDOF 0
ENDMDL
