MODEL 1
REMARK minimizedAffinity -2.67452407
REMARK minimizedRMSD -1
REMARK  0 active torsions:
REMARK  status: ('A' for Active; 'I' for Inactive)
ROOT
ATOM      1  C   UNL d   1       1.125  -2.946  -2.474  0.00  0.00     0.023 A 
ATOM      2  C1  UNL d   1      -0.172  -2.436  -2.418  0.00  0.00     0.003 A 
ATOM      3  C2  UNL d   1      -0.511  -1.488  -1.451  0.00  0.00     0.048 A 
ATOM      4  C3  UNL d   1       0.454  -1.053  -0.542  0.00  0.00     0.023 A 
ATOM      5  C4  UNL d   1       1.753  -1.560  -0.594  0.00  0.00     0.048 A 
ATOM      6  C5  UNL d   1       2.087  -2.508  -1.563  0.00  0.00     0.003 A 
ATOM      7  I   UNL d   1      -0.047   0.358   0.899  0.00  0.00    -0.146 I 
ENDROOT
TORSDOF 0
ENDMDL
