MODEL 1
REMARK minimizedAffinity -0.881921768
REMARK minimizedRMSD -1
REMARK  0 active torsions:
REMARK  status: ('A' for Active; 'I' for Inactive)
ROOT
ATOM      1  C   UNL d   1      -0.793   0.128   1.688  0.00  0.00     0.023 A 
ATOM      2  C1  UNL d   1      -1.808  -0.610   1.078  0.00  0.00     0.003 A 
ATOM      3  C2  UNL d   1      -1.524  -1.399  -0.038  0.00  0.00     0.048 A 
ATOM      4  C3  UNL d   1      -0.224  -1.445  -0.540  0.00  0.00     0.023 A 
ATOM      5  C4  UNL d   1       0.794  -0.709   0.067  0.00  0.00     0.048 A 
ATOM      6  C5  UNL d   1       0.506   0.079   1.183  0.00  0.00     0.003 A 
ATOM      7  I   UNL d   1       0.201  -2.619  -2.202  0.00  0.00    -0.146 I 
ENDROOT
TORSDOF 0
ENDMDL
