MODEL 1
REMARK minimizedAffinity -3.44751716
REMARK minimizedRMSD -1
REMARK  0 active torsions:
REMARK  status: ('A' for Active; 'I' for Inactive)
ROOT
ATOM      1  C   UNL d   1      -1.272   2.023   1.383  0.00  0.00     0.023 A 
ATOM      2  C1  UNL d   1      -1.330   0.707   1.843  0.00  0.00     0.003 A 
ATOM      3  C2  UNL d   1      -0.785  -0.326   1.078  0.00  0.00     0.048 A 
ATOM      4  C3  UNL d   1      -0.183  -0.036  -0.146  0.00  0.00     0.023 A 
ATOM      5  C4  UNL d   1      -0.121   1.279  -0.610  0.00  0.00     0.048 A 
ATOM      6  C5  UNL d   1      -0.668   2.308   0.158  0.00  0.00     0.003 A 
ATOM      7  I   UNL d   1       0.629  -1.573  -1.287  0.00  0.00    -0.146 I 
ENDROOT
TORSDOF 0
ENDMDL
