MODEL 1
REMARK minimizedAffinity -5.18143606
REMARK minimizedRMSD -1
REMARK  0 active torsions:
REMARK  status: ('A' for Active; 'I' for Inactive)
ROOT
ATOM      1  C   UNL d   1      -1.919   2.891   1.223  0.00  0.00     0.023 A 
ATOM      2  C1  UNL d   1      -1.992   1.577   1.685  0.00  0.00     0.003 A 
ATOM      3  C2  UNL d   1      -1.174   0.593   1.125  0.00  0.00     0.048 A 
ATOM      4  C3  UNL d   1      -0.285   0.931   0.105  0.00  0.00     0.023 A 
ATOM      5  C4  UNL d   1      -0.209   2.245  -0.359  0.00  0.00     0.048 A 
ATOM      6  C5  UNL d   1      -1.029   3.225   0.202  0.00  0.00     0.003 A 
ATOM      7  I   UNL d   1       0.933  -0.532  -0.729  0.00  0.00    -0.146 I 
ENDROOT
TORSDOF 0
ENDMDL
