MODEL 1
REMARK minimizedAffinity -1.3998338
REMARK minimizedRMSD -1
REMARK  0 active torsions:
REMARK  status: ('A' for Active; 'I' for Inactive)
ROOT
ATOM      1  C   UNL d   1      -0.709   1.065   2.471  0.00  0.00     0.023 A 
ATOM      2  C1  UNL d   1       0.522   0.426   2.620  0.00  0.00     0.003 A 
ATOM      3  C2  UNL d   1       1.072  -0.291   1.555  0.00  0.00     0.048 A 
ATOM      4  C3  UNL d   1       0.385  -0.365   0.344  0.00  0.00     0.023 A 
ATOM      5  C4  UNL d   1      -0.847   0.274   0.190  0.00  0.00     0.048 A 
ATOM      6  C5  UNL d   1      -1.392   0.989   1.257  0.00  0.00     0.003 A 
ATOM      7  I   UNL d   1       1.200  -1.432  -1.243  0.00  0.00    -0.146 I 
ENDROOT
TORSDOF 0
ENDMDL
