MODEL 1
REMARK minimizedAffinity -4.23572445
REMARK minimizedRMSD -1
REMARK  0 active torsions:
REMARK  status: ('A' for Active; 'I' for Inactive)
ROOT
ATOM      1  C   UNL d   1      -2.273   2.828   1.523  0.00  0.00     0.023 A 
ATOM      2  C1  UNL d   1      -1.332   3.190   0.558  0.00  0.00     0.003 A 
ATOM      3  C2  UNL d   1      -0.449   2.235   0.049  0.00  0.00     0.048 A 
ATOM      4  C3  UNL d   1      -0.513   0.920   0.508  0.00  0.00     0.023 A 
ATOM      5  C4  UNL d   1      -1.453   0.553   1.472  0.00  0.00     0.048 A 
ATOM      6  C5  UNL d   1      -2.333   1.511   1.979  0.00  0.00     0.003 A 
ATOM      7  I   UNL d   1       0.800  -0.503  -0.249  0.00  0.00    -0.146 I 
ENDROOT
TORSDOF 0
ENDMDL
