MODEL 1
REMARK minimizedAffinity 9.96829891
REMARK minimizedRMSD -1
REMARK  0 active torsions:
REMARK  status: ('A' for Active; 'I' for Inactive)
ROOT
ATOM      1  C2' OXE d   1      -4.679   2.728   2.726  0.00  0.00     0.078 C 
ATOM      2  C1' OXE d   1      -5.359   0.112   1.971  0.00  0.00     0.078 C 
ATOM      3  C1  OXE d   1      -3.895   0.470   2.025  0.00  0.00    -0.078 A 
ATOM      4  C2  OXE d   1      -3.573   1.766   2.350  0.00  0.00    -0.078 A 
ATOM      5  C3  OXE d   1      -2.237   2.135   2.468  0.00  0.00     0.003 A 
ATOM      6  C4  OXE d   1      -1.220   1.242   2.109  0.00  0.00    -0.002 A 
ATOM      7  C5  OXE d   1      -1.528  -0.071   1.737  0.00  0.00    -0.002 A 
ATOM      8  C6  OXE d   1      -2.855  -0.485   1.731  0.00  0.00     0.003 A 
ENDROOT
TORSDOF 0
ENDMDL
