MODEL 1
REMARK minimizedAffinity 16.8721886
REMARK minimizedRMSD -1
REMARK  0 active torsions:
REMARK  status: ('A' for Active; 'I' for Inactive)
ROOT
ATOM      1  C2' OXE d   1      -2.991  -0.162   2.437  0.00  0.00     0.078 C 
ATOM      2  C1' OXE d   1      -2.239  -1.396   4.844  0.00  0.00     0.078 C 
ATOM      3  C1  OXE d   1      -1.459  -1.745   3.601  0.00  0.00    -0.078 A 
ATOM      4  C2  OXE d   1      -1.863  -1.172   2.419  0.00  0.00    -0.078 A 
ATOM      5  C3  OXE d   1      -1.145  -1.416   1.253  0.00  0.00     0.003 A 
ATOM      6  C4  OXE d   1      -0.109  -2.359   1.243  0.00  0.00    -0.002 A 
ATOM      7  C5  OXE d   1       0.293  -2.984   2.428  0.00  0.00    -0.002 A 
ATOM      8  C6  OXE d   1      -0.342  -2.657   3.621  0.00  0.00     0.003 A 
ENDROOT
TORSDOF 0
ENDMDL
