MODEL 1
REMARK minimizedAffinity 7.90204954
REMARK minimizedRMSD -1
REMARK  0 active torsions:
REMARK  status: ('A' for Active; 'I' for Inactive)
ROOT
ATOM      1  C2' OXE d   1      -0.938  -1.220   1.390  0.00  0.00     0.078 C 
ATOM      2  C1' OXE d   1      -0.839   1.294   0.145  0.00  0.00     0.078 C 
ATOM      3  C1  OXE d   1      -1.803   1.114   1.291  0.00  0.00    -0.078 A 
ATOM      4  C2  OXE d   1      -1.878  -0.133   1.864  0.00  0.00    -0.078 A 
ATOM      5  C3  OXE d   1      -2.711  -0.339   2.960  0.00  0.00     0.003 A 
ATOM      6  C4  OXE d   1      -3.585   0.670   3.386  0.00  0.00    -0.002 A 
ATOM      7  C5  OXE d   1      -3.552   1.935   2.791  0.00  0.00    -0.002 A 
ATOM      8  C6  OXE d   1      -2.639   2.186   1.772  0.00  0.00     0.003 A 
ENDROOT
TORSDOF 0
ENDMDL
