MODEL 1
REMARK minimizedAffinity 4.68829966
REMARK minimizedRMSD -1
REMARK  0 active torsions:
REMARK  status: ('A' for Active; 'I' for Inactive)
ROOT
ATOM      1  C2' OXE d   1      -4.746  -0.193   1.578  0.00  0.00     0.078 C 
ATOM      2  C1' OXE d   1      -4.063   2.425   2.327  0.00  0.00     0.078 C 
ATOM      3  C1  OXE d   1      -2.951   1.414   2.211  0.00  0.00    -0.078 A 
ATOM      4  C2  OXE d   1      -3.299   0.124   1.889  0.00  0.00    -0.078 A 
ATOM      5  C3  OXE d   1      -2.306  -0.836   1.716  0.00  0.00     0.003 A 
ATOM      6  C4  OXE d   1      -0.972  -0.537   2.016  0.00  0.00    -0.002 A 
ATOM      7  C5  OXE d   1      -0.600   0.761   2.383  0.00  0.00    -0.002 A 
ATOM      8  C6  OXE d   1      -1.569   1.756   2.444  0.00  0.00     0.003 A 
ENDROOT
TORSDOF 0
ENDMDL
