MODEL 1
REMARK minimizedAffinity 13.3635006
REMARK minimizedRMSD -1
REMARK  0 active torsions:
REMARK  status: ('A' for Active; 'I' for Inactive)
ROOT
ATOM      1  C2' OXE d   1       0.824  -1.731  -3.641  0.00  0.00     0.078 C 
ATOM      2  C1' OXE d   1       3.061  -0.487  -4.792  0.00  0.00     0.078 C 
ATOM      3  C1  OXE d   1       2.198   0.334  -3.867  0.00  0.00    -0.078 A 
ATOM      4  C2  OXE d   1       1.079  -0.269  -3.345  0.00  0.00    -0.078 A 
ATOM      5  C3  OXE d   1       0.279   0.426  -2.443  0.00  0.00     0.003 A 
ATOM      6  C4  OXE d   1       0.516   1.781  -2.182  0.00  0.00    -0.002 A 
ATOM      7  C5  OXE d   1       1.628   2.426  -2.735  0.00  0.00    -0.002 A 
ATOM      8  C6  OXE d   1       2.501   1.707  -3.544  0.00  0.00     0.003 A 
ENDROOT
TORSDOF 0
ENDMDL
