MODEL 1
REMARK minimizedAffinity 13.4403152
REMARK minimizedRMSD -1
REMARK  0 active torsions:
REMARK  status: ('A' for Active; 'I' for Inactive)
ROOT
ATOM      1  C2' OXE d   1      -0.279   2.087   3.289  0.00  0.00     0.078 C 
ATOM      2  C1' OXE d   1      -0.938  -0.123   1.688  0.00  0.00     0.078 C 
ATOM      3  C1  OXE d   1      -2.038   0.852   2.029  0.00  0.00    -0.078 A 
ATOM      4  C2  OXE d   1      -1.716   1.905   2.851  0.00  0.00    -0.078 A 
ATOM      5  C3  OXE d   1      -2.680   2.863   3.152  0.00  0.00     0.003 A 
ATOM      6  C4  OXE d   1      -4.009   2.682   2.752  0.00  0.00    -0.002 A 
ATOM      7  C5  OXE d   1      -4.366   1.595   1.947  0.00  0.00    -0.002 A 
ATOM      8  C6  OXE d   1      -3.386   0.696   1.542  0.00  0.00     0.003 A 
ENDROOT
TORSDOF 0
ENDMDL
