MODEL 1
REMARK minimizedAffinity 6.59538889
REMARK minimizedRMSD -1
REMARK  0 active torsions:
REMARK  status: ('A' for Active; 'I' for Inactive)
ROOT
ATOM      1  C2' OXE d   1      -0.134  -1.583   3.842  0.00  0.00     0.078 C 
ATOM      2  C1' OXE d   1      -2.877  -1.433   4.419  0.00  0.00     0.078 C 
ATOM      3  C1  OXE d   1      -2.325  -0.491   3.378  0.00  0.00    -0.078 A 
ATOM      4  C2  OXE d   1      -0.973  -0.540   3.135  0.00  0.00    -0.078 A 
ATOM      5  C3  OXE d   1      -0.421   0.268   2.146  0.00  0.00     0.003 A 
ATOM      6  C4  OXE d   1      -1.202   1.237   1.504  0.00  0.00    -0.002 A 
ATOM      7  C5  OXE d   1      -2.573   1.330   1.765  0.00  0.00    -0.002 A 
ATOM      8  C6  OXE d   1      -3.157   0.447   2.666  0.00  0.00     0.003 A 
ENDROOT
TORSDOF 0
ENDMDL
