MODEL 1
REMARK minimizedAffinity 8.84296227
REMARK minimizedRMSD -1
REMARK  0 active torsions:
REMARK  status: ('A' for Active; 'I' for Inactive)
ROOT
ATOM      1  C2' OXE d   1       2.993   1.838  -5.999  0.00  0.00     0.078 C 
ATOM      2  C1' OXE d   1       3.589  -0.711  -4.985  0.00  0.00     0.078 C 
ATOM      3  C1  OXE d   1       2.139  -0.372  -5.228  0.00  0.00    -0.078 A 
ATOM      4  C2  OXE d   1       1.853   0.894  -5.680  0.00  0.00    -0.078 A 
ATOM      5  C3  OXE d   1       0.537   1.240  -5.972  0.00  0.00     0.003 A 
ATOM      6  C4  OXE d   1      -0.511   0.365  -5.665  0.00  0.00    -0.002 A 
ATOM      7  C5  OXE d   1      -0.245  -0.915  -5.166  0.00  0.00    -0.002 A 
ATOM      8  C6  OXE d   1       1.075  -1.313  -4.983  0.00  0.00     0.003 A 
ENDROOT
TORSDOF 0
ENDMDL
