MODEL 1
REMARK minimizedAffinity 7.12919855
REMARK minimizedRMSD -1
REMARK  0 active torsions:
REMARK  status: ('A' for Active; 'I' for Inactive)
ROOT
ATOM      1  C2' OXE d   1       2.705   0.792  -4.861  0.00  0.00     0.078 C 
ATOM      2  C1' OXE d   1       1.664   2.105  -2.608  0.00  0.00     0.078 C 
ATOM      3  C1  OXE d   1       2.533   2.902  -3.548  0.00  0.00    -0.078 A 
ATOM      4  C2  OXE d   1       3.076   2.240  -4.623  0.00  0.00    -0.078 A 
ATOM      5  C3  OXE d   1       3.841   2.941  -5.551  0.00  0.00     0.003 A 
ATOM      6  C4  OXE d   1       4.188   4.277  -5.318  0.00  0.00    -0.002 A 
ATOM      7  C5  OXE d   1       3.678   4.960  -4.209  0.00  0.00    -0.002 A 
ATOM      8  C6  OXE d   1       2.817   4.301  -3.339  0.00  0.00     0.003 A 
ENDROOT
TORSDOF 0
ENDMDL
