MODEL 1
REMARK minimizedAffinity 13.3243608
REMARK minimizedRMSD -1
REMARK  0 active torsions:
REMARK  status: ('A' for Active; 'I' for Inactive)
ROOT
ATOM      1  C2' OXE d   1      -1.843  -1.632   3.214  0.00  0.00     0.078 C 
ATOM      2  C1' OXE d   1      -3.352  -2.229   0.924  0.00  0.00     0.078 C 
ATOM      3  C1  OXE d   1      -2.613  -0.915   0.956  0.00  0.00    -0.078 A 
ATOM      4  C2  OXE d   1      -1.915  -0.610   2.100  0.00  0.00    -0.078 A 
ATOM      5  C3  OXE d   1      -1.171   0.565   2.161  0.00  0.00     0.003 A 
ATOM      6  C4  OXE d   1      -1.251   1.509   1.130  0.00  0.00    -0.002 A 
ATOM      7  C5  OXE d   1      -1.988   1.236  -0.027  0.00  0.00    -0.002 A 
ATOM      8  C6  OXE d   1      -2.639   0.013  -0.148  0.00  0.00     0.003 A 
ENDROOT
TORSDOF 0
ENDMDL
