MODEL 1
REMARK minimizedAffinity 15.2637138
REMARK minimizedRMSD -1
REMARK  0 active torsions:
REMARK  status: ('A' for Active; 'I' for Inactive)
ROOT
ATOM      1  C2' OXE d   1      -4.503  -4.552   0.380  0.00  0.00     0.078 C 
ATOM      2  C1' OXE d   1      -2.174  -2.995   0.554  0.00  0.00     0.078 C 
ATOM      3  C1  OXE d   1      -3.501  -2.279   0.565  0.00  0.00    -0.078 A 
ATOM      4  C2  OXE d   1      -4.634  -3.045   0.432  0.00  0.00    -0.078 A 
ATOM      5  C3  OXE d   1      -5.886  -2.441   0.491  0.00  0.00     0.003 A 
ATOM      6  C4  OXE d   1      -5.999  -1.046   0.529  0.00  0.00    -0.002 A 
ATOM      7  C5  OXE d   1      -4.856  -0.244   0.625  0.00  0.00    -0.002 A 
ATOM      8  C6  OXE d   1      -3.604  -0.846   0.686  0.00  0.00     0.003 A 
ENDROOT
TORSDOF 0
ENDMDL
