MODEL 1
REMARK minimizedAffinity 7.16073561
REMARK minimizedRMSD -1
REMARK  0 active torsions:
REMARK  status: ('A' for Active; 'I' for Inactive)
ROOT
ATOM      1  C2' OXE d   1      -4.881  -0.226  -4.497  0.00  0.00     0.078 C 
ATOM      2  C1' OXE d   1      -4.989  -2.698  -5.822  0.00  0.00     0.078 C 
ATOM      3  C1  OXE d   1      -5.341  -2.670  -4.356  0.00  0.00    -0.078 A 
ATOM      4  C2  OXE d   1      -5.241  -1.464  -3.705  0.00  0.00    -0.078 A 
ATOM      5  C3  OXE d   1      -5.607  -1.372  -2.365  0.00  0.00     0.003 A 
ATOM      6  C4  OXE d   1      -5.929  -2.524  -1.637  0.00  0.00    -0.002 A 
ATOM      7  C5  OXE d   1      -5.998  -3.769  -2.272  0.00  0.00    -0.002 A 
ATOM      8  C6  OXE d   1      -5.750  -3.852  -3.637  0.00  0.00     0.003 A 
ENDROOT
TORSDOF 0
ENDMDL
