MODEL 1
REMARK minimizedAffinity 17.3337994
REMARK minimizedRMSD -1
REMARK  0 active torsions:
REMARK  status: ('A' for Active; 'I' for Inactive)
ROOT
ATOM      1  C2' OXE d   1      -5.745   5.099   0.116  0.00  0.00     0.078 C 
ATOM      2  C1' OXE d   1      -3.978   3.147   1.090  0.00  0.00     0.078 C 
ATOM      3  C1  OXE d   1      -4.563   4.123   2.080  0.00  0.00    -0.078 A 
ATOM      4  C2  OXE d   1      -5.390   5.104   1.587  0.00  0.00    -0.078 A 
ATOM      5  C3  OXE d   1      -6.000   5.996   2.465  0.00  0.00     0.003 A 
ATOM      6  C4  OXE d   1      -5.658   6.000   3.823  0.00  0.00    -0.002 A 
ATOM      7  C5  OXE d   1      -4.787   5.035   4.338  0.00  0.00    -0.002 A 
ATOM      8  C6  OXE d   1      -4.265   4.065   3.489  0.00  0.00     0.003 A 
ENDROOT
TORSDOF 0
ENDMDL
