MODEL 1
REMARK minimizedAffinity 10.5209589
REMARK minimizedRMSD -1
REMARK  0 active torsions:
REMARK  status: ('A' for Active; 'I' for Inactive)
ROOT
ATOM      1  C2' OXE d   1      -1.626   0.376   1.258  0.00  0.00     0.078 C 
ATOM      2  C1' OXE d   1      -2.791   2.910   1.581  0.00  0.00     0.078 C 
ATOM      3  C1  OXE d   1      -1.431   2.678   2.191  0.00  0.00    -0.078 A 
ATOM      4  C2  OXE d   1      -0.889   1.421   2.068  0.00  0.00    -0.078 A 
ATOM      5  C3  OXE d   1       0.386   1.169   2.565  0.00  0.00     0.003 A 
ATOM      6  C4  OXE d   1       1.057   2.137   3.322  0.00  0.00    -0.002 A 
ATOM      7  C5  OXE d   1       0.505   3.411   3.493  0.00  0.00    -0.002 A 
ATOM      8  C6  OXE d   1      -0.717   3.711   2.899  0.00  0.00     0.003 A 
ENDROOT
TORSDOF 0
ENDMDL
