MODEL 1
REMARK minimizedAffinity 7.61865234
REMARK minimizedRMSD -1
REMARK  0 active torsions:
REMARK  status: ('A' for Active; 'I' for Inactive)
ROOT
ATOM      1  C2' OXE d   1      -3.186   1.840   0.765  0.00  0.00     0.078 C 
ATOM      2  C1' OXE d   1      -0.764   0.800   1.731  0.00  0.00     0.078 C 
ATOM      3  C1  OXE d   1      -1.797  -0.176   1.224  0.00  0.00    -0.078 A 
ATOM      4  C2  OXE d   1      -2.997   0.339   0.796  0.00  0.00    -0.078 A 
ATOM      5  C3  OXE d   1      -3.963  -0.512   0.267  0.00  0.00     0.003 A 
ATOM      6  C4  OXE d   1      -3.784  -1.900   0.309  0.00  0.00    -0.002 A 
ATOM      7  C5  OXE d   1      -2.585  -2.448   0.777  0.00  0.00    -0.002 A 
ATOM      8  C6  OXE d   1      -1.567  -1.599   1.198  0.00  0.00     0.003 A 
ENDROOT
TORSDOF 0
ENDMDL
