MODEL 1
REMARK minimizedAffinity 7.25279331
REMARK minimizedRMSD -1
REMARK  0 active torsions:
REMARK  status: ('A' for Active; 'I' for Inactive)
ROOT
ATOM      1  C2' OXE d   1      -2.051   4.383   2.737  0.00  0.00     0.078 C 
ATOM      2  C1' OXE d   1       0.190   2.693   2.795  0.00  0.00     0.078 C 
ATOM      3  C1  OXE d   1      -0.955   2.314   1.888  0.00  0.00    -0.078 A 
ATOM      4  C2  OXE d   1      -2.066   3.121   1.901  0.00  0.00    -0.078 A 
ATOM      5  C3  OXE d   1      -3.128   2.847   1.044  0.00  0.00     0.003 A 
ATOM      6  C4  OXE d   1      -3.138   1.673   0.282  0.00  0.00    -0.002 A 
ATOM      7  C5  OXE d   1      -2.033   0.815   0.284  0.00  0.00    -0.002 A 
ATOM      8  C6  OXE d   1      -0.918   1.143   1.047  0.00  0.00     0.003 A 
ENDROOT
TORSDOF 0
ENDMDL
