MODEL 1
REMARK minimizedAffinity 13.6703157
REMARK minimizedRMSD -1
REMARK  0 active torsions:
REMARK  status: ('A' for Active; 'I' for Inactive)
ROOT
ATOM      1  C2' OXE d   1      -4.133  -4.836   0.034  0.00  0.00     0.078 C 
ATOM      2  C1' OXE d   1      -1.929  -3.175   0.546  0.00  0.00     0.078 C 
ATOM      3  C1  OXE d   1      -3.302  -2.551   0.574  0.00  0.00    -0.078 A 
ATOM      4  C2  OXE d   1      -4.371  -3.361   0.277  0.00  0.00    -0.078 A 
ATOM      5  C3  OXE d   1      -5.664  -2.849   0.342  0.00  0.00     0.003 A 
ATOM      6  C4  OXE d   1      -5.874  -1.481   0.557  0.00  0.00    -0.002 A 
ATOM      7  C5  OXE d   1      -4.796  -0.630   0.823  0.00  0.00    -0.002 A 
ATOM      8  C6  OXE d   1      -3.510  -1.156   0.877  0.00  0.00     0.003 A 
ENDROOT
TORSDOF 0
ENDMDL
