MODEL 1
REMARK minimizedAffinity 10.4746971
REMARK minimizedRMSD -1
REMARK  0 active torsions:
REMARK  status: ('A' for Active; 'I' for Inactive)
ROOT
ATOM      1  C2' OXE d   1      -1.323  -3.891   0.727  0.00  0.00     0.078 C 
ATOM      2  C1' OXE d   1      -2.279  -1.335   1.383  0.00  0.00     0.078 C 
ATOM      3  C1  OXE d   1      -3.229  -2.288   0.702  0.00  0.00    -0.078 A 
ATOM      4  C2  OXE d   1      -2.739  -3.520   0.343  0.00  0.00    -0.078 A 
ATOM      5  C3  OXE d   1      -3.588  -4.457  -0.239  0.00  0.00     0.003 A 
ATOM      6  C4  OXE d   1      -4.894  -4.103  -0.600  0.00  0.00    -0.002 A 
ATOM      7  C5  OXE d   1      -5.401  -2.839  -0.279  0.00  0.00    -0.002 A 
ATOM      8  C6  OXE d   1      -4.597  -1.937   0.409  0.00  0.00     0.003 A 
ENDROOT
TORSDOF 0
ENDMDL
