MODEL 1
REMARK minimizedAffinity 12.1033421
REMARK minimizedRMSD -1
REMARK  0 active torsions:
REMARK  status: ('A' for Active; 'I' for Inactive)
ROOT
ATOM      1  C2' OXE d   1       2.267  -0.377  -4.196  0.00  0.00     0.078 C 
ATOM      2  C1' OXE d   1       2.398   1.636  -2.244  0.00  0.00     0.078 C 
ATOM      3  C1  OXE d   1       3.095   1.884  -3.558  0.00  0.00    -0.078 A 
ATOM      4  C2  OXE d   1       3.065   0.875  -4.490  0.00  0.00    -0.078 A 
ATOM      5  C3  OXE d   1       3.646   1.073  -5.739  0.00  0.00     0.003 A 
ATOM      6  C4  OXE d   1       4.391   2.229  -5.999  0.00  0.00    -0.002 A 
ATOM      7  C5  OXE d   1       4.467   3.253  -5.049  0.00  0.00    -0.002 A 
ATOM      8  C6  OXE d   1       3.791   3.115  -3.842  0.00  0.00     0.003 A 
ENDROOT
TORSDOF 0
ENDMDL
