MODEL 1
REMARK minimizedAffinity -5.14886951
REMARK minimizedRMSD -1
REMARK  3 active torsions:
REMARK  status: ('A' for Active; 'I' for Inactive)
REMARK    1  A    between atoms: C3'_2  and  C2'_3 
REMARK    2  A    between atoms: C2'_3  and  C1'_4 
REMARK    3  A    between atoms: C1'_4  and  C1_5 
ROOT
ATOM      1  C1  N4B d   1      -0.023   0.120   0.019  0.00  0.00    -0.075 A 
ATOM      2  C2  N4B d   1       0.752   0.675   1.061  0.00  0.00     0.002 A 
ATOM      3  C3  N4B d   1       0.681   0.146   2.326  0.00  0.00     0.002 A 
ATOM      4  C4  N4B d   1      -0.168  -0.922   2.576  0.00  0.00    -0.004 A 
ATOM      5  C5  N4B d   1      -0.894  -1.469   1.559  0.00  0.00     0.002 A 
ATOM      6  C6  N4B d   1      -0.830  -0.949   0.281  0.00  0.00     0.002 A 
ENDROOT
BRANCH   1   7
ATOM      7  C1' N4B d   1      -0.044   0.719  -1.361  0.00  0.00     0.057 C 
BRANCH   7   8
ATOM      8  C2' N4B d   1       0.655  -0.230  -2.330  0.00  0.00     0.009 C 
BRANCH   8   9
ATOM      9  C3' N4B d   1       2.123   0.119  -2.507  0.00  0.00     0.004 C 
ATOM     10  C4' N4B d   1       3.008  -1.091  -2.538  0.00  0.00     0.003 C 
ENDBRANCH   8   9
ENDBRANCH   7   8
ENDBRANCH   1   7
TORSDOF 3
ENDMDL
