MODEL 1
REMARK minimizedAffinity -5.70108843
REMARK minimizedRMSD -1
REMARK  3 active torsions:
REMARK  status: ('A' for Active; 'I' for Inactive)
REMARK    1  A    between atoms: C3'_2  and  C2'_3 
REMARK    2  A    between atoms: C2'_3  and  C1'_4 
REMARK    3  A    between atoms: C1'_4  and  C1_5 
ROOT
ATOM      1  C1  N4B d   1      -0.410  -0.022   0.805  0.00  0.00    -0.075 A 
ATOM      2  C2  N4B d   1      -0.030  -0.291   2.139  0.00  0.00     0.002 A 
ATOM      3  C3  N4B d   1      -0.986  -0.596   3.076  0.00  0.00     0.002 A 
ATOM      4  C4  N4B d   1      -2.324  -0.621   2.710  0.00  0.00    -0.004 A 
ATOM      5  C5  N4B d   1      -2.679  -0.385   1.414  0.00  0.00     0.002 A 
ATOM      6  C6  N4B d   1      -1.729  -0.081   0.460  0.00  0.00     0.002 A 
ENDROOT
BRANCH   1   7
ATOM      7  C1' N4B d   1       0.591   0.400  -0.235  0.00  0.00     0.057 C 
BRANCH   7   8
ATOM      8  C2' N4B d   1      -0.109   0.516  -1.586  0.00  0.00     0.009 C 
BRANCH   8   9
ATOM      9  C3' N4B d   1       0.649  -0.212  -2.683  0.00  0.00     0.004 C 
ATOM     10  C4' N4B d   1      -0.181  -1.255  -3.370  0.00  0.00     0.003 C 
ENDBRANCH   8   9
ENDBRANCH   7   8
ENDBRANCH   1   7
TORSDOF 3
ENDMDL
