MODEL 1
REMARK minimizedAffinity -5.41675234
REMARK minimizedRMSD -1
REMARK  3 active torsions:
REMARK  status: ('A' for Active; 'I' for Inactive)
REMARK    1  A    between atoms: C3'_2  and  C2'_3 
REMARK    2  A    between atoms: C2'_3  and  C1'_4 
REMARK    3  A    between atoms: C1'_4  and  C1_5 
ROOT
ATOM      1  C1  N4B d   1       0.665  -0.506  -1.878  0.00  0.00    -0.075 A 
ATOM      2  C2  N4B d   1       2.033  -0.669  -2.187  0.00  0.00     0.002 A 
ATOM      3  C3  N4B d   1       2.423  -1.614  -3.104  0.00  0.00     0.002 A 
ATOM      4  C4  N4B d   1       1.468  -2.418  -3.708  0.00  0.00    -0.004 A 
ATOM      5  C5  N4B d   1       0.146  -2.238  -3.423  0.00  0.00     0.002 A 
ATOM      6  C6  N4B d   1      -0.260  -1.289  -2.507  0.00  0.00     0.002 A 
ENDROOT
BRANCH   1   7
ATOM      7  C1' N4B d   1       0.199   0.455  -0.820  0.00  0.00     0.057 C 
BRANCH   7   8
ATOM      8  C2' N4B d   1       0.831   0.074   0.516  0.00  0.00     0.009 C 
BRANCH   8   9
ATOM      9  C3' N4B d   1      -0.114  -0.743   1.380  0.00  0.00     0.004 C 
ATOM     10  C4' N4B d   1      -0.105  -0.313   2.817  0.00  0.00     0.003 C 
ENDBRANCH   8   9
ENDBRANCH   7   8
ENDBRANCH   1   7
TORSDOF 3
ENDMDL
