MODEL 1
REMARK minimizedAffinity -5.80320549
REMARK minimizedRMSD -1
REMARK  3 active torsions:
REMARK  status: ('A' for Active; 'I' for Inactive)
REMARK    1  A    between atoms: C3'_2  and  C2'_3 
REMARK    2  A    between atoms: C2'_3  and  C1'_4 
REMARK    3  A    between atoms: C1'_4  and  C1_5 
ROOT
ATOM      1  C1  N4B d   1       0.017  -0.423  -1.328  0.00  0.00    -0.075 A 
ATOM      2  C2  N4B d   1       1.174   0.221  -1.820  0.00  0.00     0.002 A 
ATOM      3  C3  N4B d   1       1.682  -0.126  -3.047  0.00  0.00     0.002 A 
ATOM      4  C4  N4B d   1       1.065  -1.121  -3.790  0.00  0.00    -0.004 A 
ATOM      5  C5  N4B d   1      -0.067  -1.720  -3.319  0.00  0.00     0.002 A 
ATOM      6  C6  N4B d   1      -0.591  -1.379  -2.088  0.00  0.00     0.002 A 
ENDROOT
BRANCH   1   7
ATOM      7  C1' N4B d   1      -0.527  -0.139   0.046  0.00  0.00     0.057 C 
BRANCH   7   8
ATOM      8  C2' N4B d   1       0.633   0.157   0.992  0.00  0.00     0.009 C 
BRANCH   8   9
ATOM      9  C3' N4B d   1       0.539  -0.649   2.276  0.00  0.00     0.004 C 
ATOM     10  C4' N4B d   1      -0.612  -0.229   3.142  0.00  0.00     0.003 C 
ENDBRANCH   8   9
ENDBRANCH   7   8
ENDBRANCH   1   7
TORSDOF 3
ENDMDL
