MODEL 1
REMARK minimizedAffinity -5.4978075
REMARK minimizedRMSD -1
REMARK  3 active torsions:
REMARK  status: ('A' for Active; 'I' for Inactive)
REMARK    1  A    between atoms: C3'_2  and  C2'_3 
REMARK    2  A    between atoms: C2'_3  and  C1'_4 
REMARK    3  A    between atoms: C1'_4  and  C1_5 
ROOT
ATOM      1  C1  N4B d   1       0.464  -0.357  -1.701  0.00  0.00    -0.075 A 
ATOM      2  C2  N4B d   1      -0.251  -0.358  -2.919  0.00  0.00     0.002 A 
ATOM      3  C3  N4B d   1       0.358  -0.787  -4.072  0.00  0.00     0.002 A 
ATOM      4  C4  N4B d   1       1.681  -1.201  -4.036  0.00  0.00    -0.004 A 
ATOM      5  C5  N4B d   1       2.356  -1.222  -2.851  0.00  0.00     0.002 A 
ATOM      6  C6  N4B d   1       1.756  -0.796  -1.683  0.00  0.00     0.002 A 
ENDROOT
BRANCH   1   7
ATOM      7  C1' N4B d   1      -0.132   0.184  -0.430  0.00  0.00     0.057 C 
BRANCH   7   8
ATOM      8  C2' N4B d   1       0.383  -0.631   0.752  0.00  0.00     0.009 C 
BRANCH   8   9
ATOM      9  C3' N4B d   1       0.037   0.015   2.082  0.00  0.00     0.004 C 
ATOM     10  C4' N4B d   1      -0.310  -0.987   3.142  0.00  0.00     0.003 C 
ENDBRANCH   8   9
ENDBRANCH   7   8
ENDBRANCH   1   7
TORSDOF 3
ENDMDL
