MODEL 1
REMARK minimizedAffinity -5.30844736
REMARK minimizedRMSD -1
REMARK  3 active torsions:
REMARK  status: ('A' for Active; 'I' for Inactive)
REMARK    1  A    between atoms: C3'_2  and  C2'_3 
REMARK    2  A    between atoms: C2'_3  and  C1'_4 
REMARK    3  A    between atoms: C1'_4  and  C1_5 
ROOT
ATOM      1  C1  N4B d   1       3.061  -0.572  -3.379  0.00  0.00    -0.075 A 
ATOM      2  C2  N4B d   1       2.120   0.370  -2.909  0.00  0.00     0.002 A 
ATOM      3  C3  N4B d   1       0.793   0.027  -2.818  0.00  0.00     0.002 A 
ATOM      4  C4  N4B d   1       0.383  -1.239  -3.208  0.00  0.00    -0.004 A 
ATOM      5  C5  N4B d   1       1.303  -2.151  -3.638  0.00  0.00     0.002 A 
ATOM      6  C6  N4B d   1       2.640  -1.822  -3.730  0.00  0.00     0.002 A 
ENDROOT
BRANCH   1   7
ATOM      7  C1' N4B d   1       4.510  -0.216  -3.577  0.00  0.00     0.057 C 
BRANCH   7   8
ATOM      8  C2' N4B d   1       4.650   1.303  -3.627  0.00  0.00     0.009 C 
BRANCH   8   9
ATOM      9  C3' N4B d   1       5.819   1.737  -4.494  0.00  0.00     0.004 C 
ATOM     10  C4' N4B d   1       5.395   2.571  -5.666  0.00  0.00     0.003 C 
ENDBRANCH   8   9
ENDBRANCH   7   8
ENDBRANCH   1   7
TORSDOF 3
ENDMDL
