MODEL 1
REMARK minimizedAffinity -6.06050634
REMARK minimizedRMSD -1
REMARK  3 active torsions:
REMARK  status: ('A' for Active; 'I' for Inactive)
REMARK    1  A    between atoms: C3'_2  and  C2'_3 
REMARK    2  A    between atoms: C2'_3  and  C1'_4 
REMARK    3  A    between atoms: C1'_4  and  C1_5 
ROOT
ATOM      1  C1  N4B d   1      -0.070   0.240   0.244  0.00  0.00    -0.075 A 
ATOM      2  C2  N4B d   1       0.762   0.238   1.386  0.00  0.00     0.002 A 
ATOM      3  C3  N4B d   1       0.246  -0.111   2.610  0.00  0.00     0.002 A 
ATOM      4  C4  N4B d   1      -1.097  -0.440   2.720  0.00  0.00    -0.004 A 
ATOM      5  C5  N4B d   1      -1.887  -0.460   1.608  0.00  0.00     0.002 A 
ATOM      6  C6  N4B d   1      -1.381  -0.116   0.371  0.00  0.00     0.002 A 
ENDROOT
BRANCH   1   7
ATOM      7  C1' N4B d   1       0.428   0.696  -1.100  0.00  0.00     0.057 C 
BRANCH   7   8
ATOM      8  C2' N4B d   1      -0.053  -0.280  -2.170  0.00  0.00     0.009 C 
BRANCH   8   9
ATOM      9  C3' N4B d   1       1.105  -0.970  -2.870  0.00  0.00     0.004 C 
ATOM     10  C4' N4B d   1       0.677  -2.187  -3.636  0.00  0.00     0.003 C 
ENDBRANCH   8   9
ENDBRANCH   7   8
ENDBRANCH   1   7
TORSDOF 3
ENDMDL
