MODEL 1
REMARK minimizedAffinity -5.22543955
REMARK minimizedRMSD -1
REMARK  3 active torsions:
REMARK  status: ('A' for Active; 'I' for Inactive)
REMARK    1  A    between atoms: C3'_2  and  C2'_3 
REMARK    2  A    between atoms: C2'_3  and  C1'_4 
REMARK    3  A    between atoms: C1'_4  and  C1_5 
ROOT
ATOM      1  C1  N4B d   1       0.988  -0.146  -1.806  0.00  0.00    -0.075 A 
ATOM      2  C2  N4B d   1       0.356  -1.356  -2.165  0.00  0.00     0.002 A 
ATOM      3  C3  N4B d   1       0.785  -2.055  -3.267  0.00  0.00     0.002 A 
ATOM      4  C4  N4B d   1       1.827  -1.555  -4.033  0.00  0.00    -0.004 A 
ATOM      5  C5  N4B d   1       2.449  -0.398  -3.665  0.00  0.00     0.002 A 
ATOM      6  C6  N4B d   1       2.031   0.313  -2.557  0.00  0.00     0.002 A 
ENDROOT
BRANCH   1   7
ATOM      7  C1' N4B d   1       0.499   0.697  -0.660  0.00  0.00     0.057 C 
BRANCH   7   8
ATOM      8  C2' N4B d   1      -0.335  -0.170   0.279  0.00  0.00     0.009 C 
BRANCH   8   9
ATOM      9  C3' N4B d   1       0.289  -0.274   1.660  0.00  0.00     0.004 C 
ATOM     10  C4' N4B d   1      -0.520  -1.117   2.601  0.00  0.00     0.003 C 
ENDBRANCH   8   9
ENDBRANCH   7   8
ENDBRANCH   1   7
TORSDOF 3
ENDMDL
