MODEL 1
REMARK minimizedAffinity -2.84633279
REMARK minimizedRMSD -1
REMARK  3 active torsions:
REMARK  status: ('A' for Active; 'I' for Inactive)
REMARK    1  A    between atoms: C3'_2  and  C2'_3 
REMARK    2  A    between atoms: C2'_3  and  C1'_4 
REMARK    3  A    between atoms: C1'_4  and  C1_5 
ROOT
ATOM      1  C1  N4B d   1       0.506  -0.841  -2.076  0.00  0.00    -0.075 A 
ATOM      2  C2  N4B d   1      -0.257  -1.694  -2.903  0.00  0.00     0.002 A 
ATOM      3  C3  N4B d   1       0.364  -2.452  -3.865  0.00  0.00     0.002 A 
ATOM      4  C4  N4B d   1       1.737  -2.360  -4.031  0.00  0.00    -0.004 A 
ATOM      5  C5  N4B d   1       2.470  -1.553  -3.211  0.00  0.00     0.002 A 
ATOM      6  C6  N4B d   1       1.861  -0.788  -2.237  0.00  0.00     0.002 A 
ENDROOT
BRANCH   1   7
ATOM      7  C1' N4B d   1      -0.137   0.072  -1.068  0.00  0.00     0.057 C 
BRANCH   7   8
ATOM      8  C2' N4B d   1       0.590  -0.065   0.267  0.00  0.00     0.009 C 
BRANCH   8   9
ATOM      9  C3' N4B d   1      -0.372  -0.049   1.442  0.00  0.00     0.004 C 
ATOM     10  C4' N4B d   1      -1.068  -1.363   1.641  0.00  0.00     0.003 C 
ENDBRANCH   8   9
ENDBRANCH   7   8
ENDBRANCH   1   7
TORSDOF 3
ENDMDL
