MODEL 1
REMARK minimizedAffinity -2.32916403
REMARK minimizedRMSD -1
REMARK  3 active torsions:
REMARK  status: ('A' for Active; 'I' for Inactive)
REMARK    1  A    between atoms: C3'_2  and  C2'_3 
REMARK    2  A    between atoms: C2'_3  and  C1'_4 
REMARK    3  A    between atoms: C1'_4  and  C1_5 
ROOT
ATOM      1  C1  N4B d   1       0.123   0.378   0.243  0.00  0.00    -0.075 A 
ATOM      2  C2  N4B d   1      -0.989  -0.466   0.454  0.00  0.00     0.002 A 
ATOM      3  C3  N4B d   1      -1.300  -0.886   1.724  0.00  0.00     0.002 A 
ATOM      4  C4  N4B d   1      -0.506  -0.492   2.791  0.00  0.00    -0.004 A 
ATOM      5  C5  N4B d   1       0.551   0.344   2.581  0.00  0.00     0.002 A 
ATOM      6  C6  N4B d   1       0.873   0.777   1.311  0.00  0.00     0.002 A 
ENDROOT
BRANCH   1   7
ATOM      7  C1' N4B d   1       0.553   0.794  -1.137  0.00  0.00     0.057 C 
BRANCH   7   8
ATOM      8  C2' N4B d   1       1.012  -0.438  -1.911  0.00  0.00     0.009 C 
BRANCH   8   9
ATOM      9  C3' N4B d   1       1.971  -0.080  -3.033  0.00  0.00     0.004 C 
ATOM     10  C4' N4B d   1       2.795  -1.248  -3.488  0.00  0.00     0.003 C 
ENDBRANCH   8   9
ENDBRANCH   7   8
ENDBRANCH   1   7
TORSDOF 3
ENDMDL
