MODEL 1
REMARK minimizedAffinity 4.91288662
REMARK minimizedRMSD -1
REMARK  1 active torsions:
REMARK  status: ('A' for Active; 'I' for Inactive)
REMARK    1  A    between atoms: C3_4  and  O_7 
ROOT
ATOM      1  C   UNL d   1      -1.910  -2.314  -5.467  0.00  0.00    -0.033 A 
ATOM      2  C1  UNL d   1      -1.663  -2.348  -4.093  0.00  0.00     0.039 A 
ATOM      3  C2  UNL d   1      -2.554  -3.000  -3.238  0.00  0.00    -0.080 A 
ATOM      4  C3  UNL d   1      -3.684  -3.615  -3.769  0.00  0.00     0.150 A 
ATOM      5  C4  UNL d   1      -3.934  -3.589  -5.137  0.00  0.00    -0.007 A 
ATOM      6  C5  UNL d   1      -3.044  -2.936  -5.989  0.00  0.00     0.039 A 
ENDROOT
BRANCH   4   7
ATOM      7  O   UNL d   1      -4.585  -4.259  -2.973  0.00  0.00    -0.526 OA
ATOM      8  H5  UNL d   1      -4.297  -4.171  -2.049  0.00  0.00     0.418 HD
ENDBRANCH   4   7
TORSDOF 1
ENDMDL
