MODEL 1
REMARK minimizedAffinity 0.59175241
REMARK minimizedRMSD -1
REMARK  1 active torsions:
REMARK  status: ('A' for Active; 'I' for Inactive)
REMARK    1  A    between atoms: C3_4  and  O_7 
ROOT
ATOM      1  C   UNL d   1       3.152   0.606   0.416  0.00  0.00    -0.033 A 
ATOM      2  C1  UNL d   1       3.905   0.025  -0.607  0.00  0.00     0.039 A 
ATOM      3  C2  UNL d   1       3.769   0.479  -1.920  0.00  0.00    -0.080 A 
ATOM      4  C3  UNL d   1       2.879   1.513  -2.197  0.00  0.00     0.150 A 
ATOM      5  C4  UNL d   1       2.129   2.099  -1.183  0.00  0.00    -0.007 A 
ATOM      6  C5  UNL d   1       2.265   1.644   0.128  0.00  0.00     0.039 A 
ENDROOT
BRANCH   4   7
ATOM      7  O   UNL d   1       2.709   1.986  -3.464  0.00  0.00    -0.526 OA
ATOM      8  H5  UNL d   1       3.271   1.468  -4.065  0.00  0.00     0.418 HD
ENDBRANCH   4   7
TORSDOF 1
ENDMDL
