MODEL 1
REMARK minimizedAffinity 13.6546965
REMARK minimizedRMSD -1
REMARK  1 active torsions:
REMARK  status: ('A' for Active; 'I' for Inactive)
REMARK    1  A    between atoms: C3_4  and  O_7 
ROOT
ATOM      1  C   UNL d   1      -2.432  -5.529   4.858  0.00  0.00    -0.033 A 
ATOM      2  C1  UNL d   1      -3.312  -4.446   4.910  0.00  0.00     0.039 A 
ATOM      3  C2  UNL d   1      -2.941  -3.216   4.362  0.00  0.00    -0.080 A 
ATOM      4  C3  UNL d   1      -1.689  -3.083   3.766  0.00  0.00     0.150 A 
ATOM      5  C4  UNL d   1      -0.810  -4.159   3.708  0.00  0.00    -0.007 A 
ATOM      6  C5  UNL d   1      -1.181  -5.386   4.256  0.00  0.00     0.039 A 
ENDROOT
BRANCH   4   7
ATOM      7  O   UNL d   1      -1.281  -1.901   3.223  0.00  0.00    -0.526 OA
ATOM      8  H5  UNL d   1      -1.980  -1.241   3.362  0.00  0.00     0.418 HD
ENDBRANCH   4   7
TORSDOF 1
ENDMDL
