MODEL 1
REMARK minimizedAffinity 9.31182861
REMARK minimizedRMSD -1
REMARK  1 active torsions:
REMARK  status: ('A' for Active; 'I' for Inactive)
REMARK    1  A    between atoms: C3_4  and  O_7 
ROOT
ATOM      1  C   UNL d   1       0.027   1.242   4.823  0.00  0.00    -0.033 A 
ATOM      2  C1  UNL d   1       0.922   0.756   3.868  0.00  0.00     0.039 A 
ATOM      3  C2  UNL d   1       0.657  -0.445   3.207  0.00  0.00    -0.080 A 
ATOM      4  C3  UNL d   1      -0.505  -1.149   3.510  0.00  0.00     0.150 A 
ATOM      5  C4  UNL d   1      -1.403  -0.669   4.457  0.00  0.00    -0.007 A 
ATOM      6  C5  UNL d   1      -1.136   0.530   5.117  0.00  0.00     0.039 A 
ENDROOT
BRANCH   4   7
ATOM      7  O   UNL d   1      -0.805  -2.328   2.895  0.00  0.00    -0.526 OA
ATOM      8  H5  UNL d   1      -0.081  -2.551   2.286  0.00  0.00     0.418 HD
ENDBRANCH   4   7
TORSDOF 1
ENDMDL
