MODEL 1
REMARK minimizedAffinity 20.4104099
REMARK minimizedRMSD -1
REMARK  1 active torsions:
REMARK  status: ('A' for Active; 'I' for Inactive)
REMARK    1  A    between atoms: C3_4  and  O_7 
ROOT
ATOM      1  C   UNL d   1      -2.168  -5.836   4.599  0.00  0.00    -0.033 A 
ATOM      2  C1  UNL d   1      -3.105  -4.830   4.840  0.00  0.00     0.039 A 
ATOM      3  C2  UNL d   1      -2.876  -3.534   4.376  0.00  0.00    -0.080 A 
ATOM      4  C3  UNL d   1      -1.708  -3.257   3.671  0.00  0.00     0.150 A 
ATOM      5  C4  UNL d   1      -0.771  -4.255   3.424  0.00  0.00    -0.007 A 
ATOM      6  C5  UNL d   1      -1.001  -5.549   3.890  0.00  0.00     0.039 A 
ENDROOT
BRANCH   4   7
ATOM      7  O   UNL d   1      -1.438  -2.005   3.202  0.00  0.00    -0.526 OA
ATOM      8  H5  UNL d   1      -2.160  -1.413   3.473  0.00  0.00     0.418 HD
ENDBRANCH   4   7
TORSDOF 1
ENDMDL
