MODEL 1
REMARK minimizedAffinity 12.4932947
REMARK minimizedRMSD -1
REMARK  1 active torsions:
REMARK  status: ('A' for Active; 'I' for Inactive)
REMARK    1  A    between atoms: C3_4  and  O_7 
ROOT
ATOM      1  C   UNL d   1      -2.044  -4.535  -5.970  0.00  0.00    -0.033 A 
ATOM      2  C1  UNL d   1      -3.428  -4.349  -5.971  0.00  0.00     0.039 A 
ATOM      3  C2  UNL d   1      -3.961  -3.058  -5.975  0.00  0.00    -0.080 A 
ATOM      4  C3  UNL d   1      -3.100  -1.964  -5.979  0.00  0.00     0.150 A 
ATOM      5  C4  UNL d   1      -1.720  -2.143  -5.982  0.00  0.00    -0.007 A 
ATOM      6  C5  UNL d   1      -1.191  -3.432  -5.977  0.00  0.00     0.039 A 
ENDROOT
BRANCH   4   7
ATOM      7  O   UNL d   1      -3.573  -0.686  -5.978  0.00  0.00    -0.526 OA
ATOM      8  H5  UNL d   1      -4.544  -0.717  -5.947  0.00  0.00     0.418 HD
ENDBRANCH   4   7
TORSDOF 1
ENDMDL
