MODEL 1
REMARK minimizedAffinity 11.7026434
REMARK minimizedRMSD -1
REMARK  1 active torsions:
REMARK  status: ('A' for Active; 'I' for Inactive)
REMARK    1  A    between atoms: C3_4  and  O_7 
ROOT
ATOM      1  C   UNL d   1      -3.705  -0.912  -5.901  0.00  0.00    -0.033 A 
ATOM      2  C1  UNL d   1      -2.522  -1.650  -5.964  0.00  0.00     0.039 A 
ATOM      3  C2  UNL d   1      -2.569  -3.045  -6.000  0.00  0.00    -0.080 A 
ATOM      4  C3  UNL d   1      -3.804  -3.688  -5.972  0.00  0.00     0.150 A 
ATOM      5  C4  UNL d   1      -4.986  -2.958  -5.912  0.00  0.00    -0.007 A 
ATOM      6  C5  UNL d   1      -4.938  -1.566  -5.876  0.00  0.00     0.039 A 
ENDROOT
BRANCH   4   7
ATOM      7  O   UNL d   1      -3.900  -5.048  -5.999  0.00  0.00    -0.526 OA
ATOM      8  H5  UNL d   1      -3.002  -5.420  -6.011  0.00  0.00     0.418 HD
ENDBRANCH   4   7
TORSDOF 1
ENDMDL
