MODEL 1
REMARK minimizedAffinity 8.26095486
REMARK minimizedRMSD -1
REMARK  1 active torsions:
REMARK  status: ('A' for Active; 'I' for Inactive)
REMARK    1  A    between atoms: C3_4  and  O_7 
ROOT
ATOM      1  C   UNL d   1       0.624   1.979   2.764  0.00  0.00    -0.033 A 
ATOM      2  C1  UNL d   1       1.067   1.495   3.996  0.00  0.00     0.039 A 
ATOM      3  C2  UNL d   1       2.230   0.726   4.069  0.00  0.00    -0.080 A 
ATOM      4  C3  UNL d   1       2.942   0.451   2.904  0.00  0.00     0.150 A 
ATOM      5  C4  UNL d   1       2.509   0.934   1.674  0.00  0.00    -0.007 A 
ATOM      6  C5  UNL d   1       1.346   1.700   1.603  0.00  0.00     0.039 A 
ENDROOT
BRANCH   4   7
ATOM      7  O   UNL d   1       4.080  -0.299   2.925  0.00  0.00    -0.526 OA
ATOM      8  H5  UNL d   1       4.242  -0.588   3.838  0.00  0.00     0.418 HD
ENDBRANCH   4   7
TORSDOF 1
ENDMDL
