MODEL 1
REMARK minimizedAffinity 9.44055843
REMARK minimizedRMSD -1
REMARK  1 active torsions:
REMARK  status: ('A' for Active; 'I' for Inactive)
REMARK    1  A    between atoms: C3_4  and  O_7 
ROOT
ATOM      1  C   UNL d   1      -3.144  -2.218  -6.000  0.00  0.00    -0.033 A 
ATOM      2  C1  UNL d   1      -3.737  -3.482  -5.995  0.00  0.00     0.039 A 
ATOM      3  C2  UNL d   1      -2.941  -4.629  -5.993  0.00  0.00    -0.080 A 
ATOM      4  C3  UNL d   1      -1.555  -4.498  -5.995  0.00  0.00     0.150 A 
ATOM      5  C4  UNL d   1      -0.957  -3.242  -5.996  0.00  0.00    -0.007 A 
ATOM      6  C5  UNL d   1      -1.754  -2.098  -5.999  0.00  0.00     0.039 A 
ENDROOT
BRANCH   4   7
ATOM      7  O   UNL d   1      -0.736  -5.588  -5.999  0.00  0.00    -0.526 OA
ATOM      8  H5  UNL d   1      -1.288  -6.387  -6.027  0.00  0.00     0.418 HD
ENDBRANCH   4   7
TORSDOF 1
ENDMDL
