MODEL 1
REMARK minimizedAffinity 3.34749031
REMARK minimizedRMSD -1
REMARK  1 active torsions:
REMARK  status: ('A' for Active; 'I' for Inactive)
REMARK    1  A    between atoms: C3_4  and  O_7 
ROOT
ATOM      1  C   UNL d   1      -1.132  -2.517   3.169  0.00  0.00    -0.033 A 
ATOM      2  C1  UNL d   1      -0.734  -1.837   2.016  0.00  0.00     0.039 A 
ATOM      3  C2  UNL d   1      -0.150  -2.537   0.958  0.00  0.00    -0.080 A 
ATOM      4  C3  UNL d   1       0.029  -3.914   1.065  0.00  0.00     0.150 A 
ATOM      5  C4  UNL d   1      -0.370  -4.597   2.209  0.00  0.00    -0.007 A 
ATOM      6  C5  UNL d   1      -0.952  -3.897   3.265  0.00  0.00     0.039 A 
ENDROOT
BRANCH   4   7
ATOM      7  O   UNL d   1       0.598  -4.638   0.061  0.00  0.00    -0.526 OA
ATOM      8  H5  UNL d   1       0.850  -4.030  -0.654  0.00  0.00     0.418 HD
ENDBRANCH   4   7
TORSDOF 1
ENDMDL
