MODEL 1
REMARK minimizedAffinity 7.08545446
REMARK minimizedRMSD -1
REMARK  1 active torsions:
REMARK  status: ('A' for Active; 'I' for Inactive)
REMARK    1  A    between atoms: C3_4  and  O_7 
ROOT
ATOM      1  C   UNL d   1      -3.641  -5.997   5.903  0.00  0.00    -0.033 A 
ATOM      2  C1  UNL d   1      -4.272  -5.241   4.914  0.00  0.00     0.039 A 
ATOM      3  C2  UNL d   1      -3.512  -4.483   4.021  0.00  0.00    -0.080 A 
ATOM      4  C3  UNL d   1      -2.124  -4.490   4.128  0.00  0.00     0.150 A 
ATOM      5  C4  UNL d   1      -1.488  -5.244   5.109  0.00  0.00    -0.007 A 
ATOM      6  C5  UNL d   1      -2.249  -6.000   6.000  0.00  0.00     0.039 A 
ENDROOT
BRANCH   4   7
ATOM      7  O   UNL d   1      -1.340  -3.762   3.282  0.00  0.00    -0.526 OA
ATOM      8  H5  UNL d   1      -1.917  -3.269   2.676  0.00  0.00     0.418 HD
ENDBRANCH   4   7
TORSDOF 1
ENDMDL
