MODEL 1
REMARK minimizedAffinity 7.90629148
REMARK minimizedRMSD -1
REMARK  1 active torsions:
REMARK  status: ('A' for Active; 'I' for Inactive)
REMARK    1  A    between atoms: C3_4  and  O_7 
ROOT
ATOM      1  C   UNL d   1       2.255   1.014   0.521  0.00  0.00    -0.033 A 
ATOM      2  C1  UNL d   1       1.670   1.565   1.663  0.00  0.00     0.039 A 
ATOM      3  C2  UNL d   1       2.040   1.107   2.929  0.00  0.00    -0.080 A 
ATOM      4  C3  UNL d   1       2.995   0.100   3.040  0.00  0.00     0.150 A 
ATOM      5  C4  UNL d   1       3.585  -0.450   1.906  0.00  0.00    -0.007 A 
ATOM      6  C5  UNL d   1       3.213   0.007   0.643  0.00  0.00     0.039 A 
ENDROOT
BRANCH   4   7
ATOM      7  O   UNL d   1       3.385  -0.382   4.254  0.00  0.00    -0.526 OA
ATOM      8  H5  UNL d   1       2.873   0.071   4.944  0.00  0.00     0.418 HD
ENDBRANCH   4   7
TORSDOF 1
ENDMDL
