MODEL 1
REMARK minimizedAffinity 6.72570515
REMARK minimizedRMSD -1
REMARK  1 active torsions:
REMARK  status: ('A' for Active; 'I' for Inactive)
REMARK    1  A    between atoms: C3_4  and  O_7 
ROOT
ATOM      1  C   UNL d   1       2.942   1.508  -3.552  0.00  0.00    -0.033 A 
ATOM      2  C1  UNL d   1       4.230   1.620  -3.025  0.00  0.00     0.039 A 
ATOM      3  C2  UNL d   1       5.273   0.860  -3.557  0.00  0.00    -0.080 A 
ATOM      4  C3  UNL d   1       5.015  -0.008  -4.614  0.00  0.00     0.150 A 
ATOM      5  C4  UNL d   1       3.735  -0.123  -5.147  0.00  0.00    -0.007 A 
ATOM      6  C5  UNL d   1       2.695   0.637  -4.614  0.00  0.00     0.039 A 
ENDROOT
BRANCH   4   7
ATOM      7  O   UNL d   1       6.000  -0.775  -5.163  0.00  0.00    -0.526 OA
ATOM      8  H5  UNL d   1       6.825  -0.612  -4.676  0.00  0.00     0.418 HD
ENDBRANCH   4   7
TORSDOF 1
ENDMDL
