MODEL 1
REMARK minimizedAffinity 6.92385578
REMARK minimizedRMSD -1
REMARK  1 active torsions:
REMARK  status: ('A' for Active; 'I' for Inactive)
REMARK    1  A    between atoms: C3_4  and  O_7 
ROOT
ATOM      1  C   UNL d   1       2.017   1.881   1.691  0.00  0.00    -0.033 A 
ATOM      2  C1  UNL d   1       1.206   1.369   2.707  0.00  0.00     0.039 A 
ATOM      3  C2  UNL d   1      -0.062   1.909   2.929  0.00  0.00    -0.080 A 
ATOM      4  C3  UNL d   1      -0.508   2.958   2.130  0.00  0.00     0.150 A 
ATOM      5  C4  UNL d   1       0.292   3.470   1.114  0.00  0.00    -0.007 A 
ATOM      6  C5  UNL d   1       1.559   2.930   0.894  0.00  0.00     0.039 A 
ENDROOT
BRANCH   4   7
ATOM      7  O   UNL d   1      -1.736   3.520   2.313  0.00  0.00    -0.526 OA
ATOM      8  H5  UNL d   1      -2.165   3.084   3.068  0.00  0.00     0.418 HD
ENDBRANCH   4   7
TORSDOF 1
ENDMDL
