MODEL 1
REMARK minimizedAffinity 1.48062789
REMARK minimizedRMSD -1
REMARK  0 active torsions:
REMARK  status: ('A' for Active; 'I' for Inactive)
ROOT
ATOM      1  C   UNL d   1       0.335  -0.816   0.838  0.00  0.00     0.124 A 
ATOM      2  C1  UNL d   1      -0.105  -2.118   0.647  0.00  0.00     0.062 A 
ATOM      3  C2  UNL d   1       0.792  -3.111   0.263  0.00  0.00     0.162 A 
ATOM      4  C3  UNL d   1       2.139  -2.805   0.068  0.00  0.00    -0.034 A 
ATOM      5  C4  UNL d   1       2.574  -1.493   0.261  0.00  0.00     0.162 A 
ATOM      6  C5  UNL d   1       1.674  -0.504   0.645  0.00  0.00     0.062 A 
ATOM      7  F   UNL d   1       2.101   0.753   0.829  0.00  0.00    -0.097 F 
ATOM      8  F1  UNL d   1       3.862  -1.165   0.082  0.00  0.00    -0.096 F 
ATOM      9  I   UNL d   1       3.483  -4.287  -0.506  0.00  0.00    -0.060 I 
ATOM     10  F2  UNL d   1       0.339  -4.361   0.086  0.00  0.00    -0.096 F 
ATOM     11  F3  UNL d   1      -1.398  -2.421   0.832  0.00  0.00    -0.097 F 
ATOM     12  F4  UNL d   1      -0.530   0.138   1.207  0.00  0.00    -0.092 F 
ENDROOT
TORSDOF 0
ENDMDL
