MODEL 1
REMARK minimizedAffinity -2.61932158
REMARK minimizedRMSD -1
REMARK  0 active torsions:
REMARK  status: ('A' for Active; 'I' for Inactive)
ROOT
ATOM      1  C   UNL d   1       0.228  -0.726   0.888  0.00  0.00     0.124 A 
ATOM      2  C1  UNL d   1      -0.278  -1.952   0.480  0.00  0.00     0.062 A 
ATOM      3  C2  UNL d   1       0.585  -3.002   0.183  0.00  0.00     0.162 A 
ATOM      4  C3  UNL d   1       1.965  -2.831   0.293  0.00  0.00    -0.034 A 
ATOM      5  C4  UNL d   1       2.467  -1.595   0.703  0.00  0.00     0.162 A 
ATOM      6  C5  UNL d   1       1.600  -0.549   0.999  0.00  0.00     0.062 A 
ATOM      7  F   UNL d   1       2.091   0.635   1.393  0.00  0.00    -0.097 F 
ATOM      8  F1  UNL d   1       3.789  -1.396   0.819  0.00  0.00    -0.096 F 
ATOM      9  I   UNL d   1       3.260  -4.399  -0.151  0.00  0.00    -0.060 I 
ATOM     10  F2  UNL d   1       0.068  -4.176  -0.209  0.00  0.00    -0.096 F 
ATOM     11  F3  UNL d   1      -1.603  -2.126   0.371  0.00  0.00    -0.097 F 
ATOM     12  F4  UNL d   1      -0.605   0.283   1.173  0.00  0.00    -0.092 F 
ENDROOT
TORSDOF 0
ENDMDL
