MODEL 1
REMARK minimizedAffinity 16.2550392
REMARK minimizedRMSD -1
REMARK  0 active torsions:
REMARK  status: ('A' for Active; 'I' for Inactive)
ROOT
ATOM      1  C   UNL d   1       0.699  -0.955   1.243  0.00  0.00     0.124 A 
ATOM      2  C1  UNL d   1       1.885  -0.268   1.023  0.00  0.00     0.062 A 
ATOM      3  C2  UNL d   1       2.325  -0.028  -0.276  0.00  0.00     0.162 A 
ATOM      4  C3  UNL d   1       1.577  -0.475  -1.365  0.00  0.00    -0.034 A 
ATOM      5  C4  UNL d   1       0.386  -1.166  -1.136  0.00  0.00     0.162 A 
ATOM      6  C5  UNL d   1      -0.049  -1.403   0.164  0.00  0.00     0.062 A 
ATOM      7  F   UNL d   1      -1.195  -2.067   0.374  0.00  0.00    -0.097 F 
ATOM      8  F1  UNL d   1      -0.357  -1.609  -2.161  0.00  0.00    -0.096 F 
ATOM      9  I   UNL d   1       2.231  -0.118  -3.309  0.00  0.00    -0.060 I 
ATOM     10  F2  UNL d   1       3.474   0.639  -0.459  0.00  0.00    -0.096 F 
ATOM     11  F3  UNL d   1       2.610   0.165   2.064  0.00  0.00    -0.097 F 
ATOM     12  F4  UNL d   1       0.280  -1.185   2.494  0.00  0.00    -0.092 F 
ENDROOT
TORSDOF 0
ENDMDL
