MODEL 1
REMARK minimizedAffinity 7.56279421
REMARK minimizedRMSD -1
REMARK  0 active torsions:
REMARK  status: ('A' for Active; 'I' for Inactive)
ROOT
ATOM      1  C   UNL d   1      -0.187  -0.596   1.170  0.00  0.00     0.124 A 
ATOM      2  C1  UNL d   1       1.144  -0.369   0.849  0.00  0.00     0.062 A 
ATOM      3  C2  UNL d   1       1.949  -1.418   0.417  0.00  0.00     0.162 A 
ATOM      4  C3  UNL d   1       1.425  -2.706   0.303  0.00  0.00    -0.034 A 
ATOM      5  C4  UNL d   1       0.086  -2.928   0.629  0.00  0.00     0.162 A 
ATOM      6  C5  UNL d   1      -0.715  -1.875   1.060  0.00  0.00     0.062 A 
ATOM      7  F   UNL d   1      -2.000  -2.097   1.370  0.00  0.00    -0.097 F 
ATOM      8  F1  UNL d   1      -0.450  -4.153   0.531  0.00  0.00    -0.096 F 
ATOM      9  I   UNL d   1       2.626  -4.279  -0.342  0.00  0.00    -0.060 I 
ATOM     10  F2  UNL d   1       3.232  -1.170   0.113  0.00  0.00    -0.096 F 
ATOM     11  F3  UNL d   1       1.656   0.866   0.955  0.00  0.00    -0.097 F 
ATOM     12  F4  UNL d   1      -0.959   0.416   1.586  0.00  0.00    -0.092 F 
ENDROOT
TORSDOF 0
ENDMDL
