MODEL 1
REMARK minimizedAffinity 3.57659197
REMARK minimizedRMSD -1
REMARK  0 active torsions:
REMARK  status: ('A' for Active; 'I' for Inactive)
ROOT
ATOM      1  C   UNL d   1       0.365  -0.961   0.706  0.00  0.00     0.124 A 
ATOM      2  C1  UNL d   1       1.734  -0.742   0.651  0.00  0.00     0.062 A 
ATOM      3  C2  UNL d   1       2.601  -1.794   0.370  0.00  0.00     0.162 A 
ATOM      4  C3  UNL d   1       2.100  -3.076   0.141  0.00  0.00    -0.034 A 
ATOM      5  C4  UNL d   1       0.722  -3.288   0.199  0.00  0.00     0.162 A 
ATOM      6  C5  UNL d   1      -0.140  -2.233   0.480  0.00  0.00     0.062 A 
ATOM      7  F   UNL d   1      -1.463  -2.447   0.533  0.00  0.00    -0.097 F 
ATOM      8  F1  UNL d   1       0.206  -4.508  -0.016  0.00  0.00    -0.096 F 
ATOM      9  I   UNL d   1       3.392  -4.652  -0.280  0.00  0.00    -0.060 I 
ATOM     10  F2  UNL d   1       3.919  -1.554   0.323  0.00  0.00    -0.096 F 
ATOM     11  F3  UNL d   1       2.225   0.487   0.869  0.00  0.00    -0.097 F 
ATOM     12  F4  UNL d   1      -0.466   0.054   0.977  0.00  0.00    -0.092 F 
ENDROOT
TORSDOF 0
ENDMDL
