MODEL 1
REMARK minimizedAffinity 8.74235249
REMARK minimizedRMSD -1
REMARK  0 active torsions:
REMARK  status: ('A' for Active; 'I' for Inactive)
ROOT
ATOM      1  C   UNL d   1       1.818  -2.556   0.476  0.00  0.00     0.124 A 
ATOM      2  C1  UNL d   1       0.467  -2.873   0.474  0.00  0.00     0.062 A 
ATOM      3  C2  UNL d   1      -0.472  -1.938   0.900  0.00  0.00     0.162 A 
ATOM      4  C3  UNL d   1      -0.063  -0.676   1.332  0.00  0.00    -0.034 A 
ATOM      5  C4  UNL d   1       1.298  -0.365   1.332  0.00  0.00     0.162 A 
ATOM      6  C5  UNL d   1       2.232  -1.303   0.905  0.00  0.00     0.062 A 
ATOM      7  F   UNL d   1       3.537  -0.995   0.909  0.00  0.00    -0.097 F 
ATOM      8  F1  UNL d   1       1.725   0.838   1.741  0.00  0.00    -0.096 F 
ATOM      9  I   UNL d   1      -1.464   0.724   1.970  0.00  0.00    -0.060 I 
ATOM     10  F2  UNL d   1      -1.772  -2.272   0.887  0.00  0.00    -0.096 F 
ATOM     11  F3  UNL d   1       0.064  -4.083   0.060  0.00  0.00    -0.097 F 
ATOM     12  F4  UNL d   1       2.719  -3.458   0.066  0.00  0.00    -0.092 F 
ENDROOT
TORSDOF 0
ENDMDL
