MODEL 1
REMARK minimizedAffinity 1.27073288
REMARK minimizedRMSD -1
REMARK  0 active torsions:
REMARK  status: ('A' for Active; 'I' for Inactive)
ROOT
ATOM      1  C   UNL d   1       0.261  -0.679   0.850  0.00  0.00     0.124 A 
ATOM      2  C1  UNL d   1      -0.278  -1.954   0.750  0.00  0.00     0.062 A 
ATOM      3  C2  UNL d   1       0.520  -3.022   0.351  0.00  0.00     0.162 A 
ATOM      4  C3  UNL d   1       1.867  -2.820   0.051  0.00  0.00    -0.034 A 
ATOM      5  C4  UNL d   1       2.402  -1.535   0.153  0.00  0.00     0.162 A 
ATOM      6  C5  UNL d   1       1.600  -0.470   0.552  0.00  0.00     0.062 A 
ATOM      7  F   UNL d   1       2.123   0.761   0.648  0.00  0.00    -0.097 F 
ATOM      8  F1  UNL d   1       3.694  -1.305  -0.129  0.00  0.00    -0.096 F 
ATOM      9  I   UNL d   1       3.064  -4.415  -0.546  0.00  0.00    -0.060 I 
ATOM     10  F2  UNL d   1      -0.027  -4.243   0.263  0.00  0.00    -0.096 F 
ATOM     11  F3  UNL d   1      -1.572  -2.157   1.037  0.00  0.00    -0.097 F 
ATOM     12  F4  UNL d   1      -0.509   0.348   1.233  0.00  0.00    -0.092 F 
ENDROOT
TORSDOF 0
ENDMDL
