MODEL 1
REMARK minimizedAffinity -2.67026114
REMARK minimizedRMSD -1
REMARK  0 active torsions:
REMARK  status: ('A' for Active; 'I' for Inactive)
ROOT
ATOM      1  C   UNL d   1       0.213  -0.878   0.816  0.00  0.00     0.124 A 
ATOM      2  C1  UNL d   1      -0.156  -2.215   0.763  0.00  0.00     0.062 A 
ATOM      3  C2  UNL d   1       0.788  -3.190   0.456  0.00  0.00     0.162 A 
ATOM      4  C3  UNL d   1       2.112  -2.832   0.200  0.00  0.00    -0.034 A 
ATOM      5  C4  UNL d   1       2.476  -1.485   0.255  0.00  0.00     0.162 A 
ATOM      6  C5  UNL d   1       1.528  -0.514   0.563  0.00  0.00     0.062 A 
ATOM      7  F   UNL d   1       1.886   0.777   0.614  0.00  0.00    -0.097 F 
ATOM      8  F1  UNL d   1       3.740  -1.106   0.015  0.00  0.00    -0.096 F 
ATOM      9  I   UNL d   1       3.527  -4.287  -0.259  0.00  0.00    -0.060 I 
ATOM     10  F2  UNL d   1       0.404  -4.474   0.411  0.00  0.00    -0.096 F 
ATOM     11  F3  UNL d   1      -1.426  -2.568   1.007  0.00  0.00    -0.097 F 
ATOM     12  F4  UNL d   1      -0.698   0.059   1.111  0.00  0.00    -0.092 F 
ENDROOT
TORSDOF 0
ENDMDL
