MODEL 1
REMARK minimizedAffinity -1.02994549
REMARK minimizedRMSD -1
REMARK  0 active torsions:
REMARK  status: ('A' for Active; 'I' for Inactive)
ROOT
ATOM      1  C   UNL d   1       0.551  -0.919   0.903  0.00  0.00     0.124 A 
ATOM      2  C1  UNL d   1       0.037  -2.202   0.773  0.00  0.00     0.062 A 
ATOM      3  C2  UNL d   1       0.873  -3.259   0.424  0.00  0.00     0.162 A 
ATOM      4  C3  UNL d   1       2.232  -3.038   0.204  0.00  0.00    -0.034 A 
ATOM      5  C4  UNL d   1       2.742  -1.745   0.336  0.00  0.00     0.162 A 
ATOM      6  C5  UNL d   1       1.903  -0.692   0.684  0.00  0.00     0.062 A 
ATOM      7  F   UNL d   1       2.401   0.546   0.809  0.00  0.00    -0.097 F 
ATOM      8  F1  UNL d   1       4.044  -1.498   0.131  0.00  0.00    -0.096 F 
ATOM      9  I   UNL d   1       3.485  -4.616  -0.317  0.00  0.00    -0.060 I 
ATOM     10  F2  UNL d   1       0.349  -4.488   0.306  0.00  0.00    -0.096 F 
ATOM     11  F3  UNL d   1      -1.269  -2.424   0.982  0.00  0.00    -0.097 F 
ATOM     12  F4  UNL d   1      -0.255   0.096   1.237  0.00  0.00    -0.092 F 
ENDROOT
TORSDOF 0
ENDMDL
