MODEL 1
REMARK minimizedAffinity 0.736105144
REMARK minimizedRMSD -1
REMARK  0 active torsions:
REMARK  status: ('A' for Active; 'I' for Inactive)
ROOT
ATOM      1  C   UNL d   1       0.127  -0.474   1.215  0.00  0.00     0.124 A 
ATOM      2  C1  UNL d   1       1.453  -0.194   0.915  0.00  0.00     0.062 A 
ATOM      3  C2  UNL d   1       2.281  -1.190   0.406  0.00  0.00     0.162 A 
ATOM      4  C3  UNL d   1       1.786  -2.476   0.193  0.00  0.00    -0.034 A 
ATOM      5  C4  UNL d   1       0.452  -2.751   0.498  0.00  0.00     0.162 A 
ATOM      6  C5  UNL d   1      -0.372  -1.752   1.006  0.00  0.00     0.062 A 
ATOM      7  F   UNL d   1      -1.653  -2.025   1.295  0.00  0.00    -0.097 F 
ATOM      8  F1  UNL d   1      -0.057  -3.977   0.305  0.00  0.00    -0.096 F 
ATOM      9  I   UNL d   1       3.022  -3.968  -0.568  0.00  0.00    -0.060 I 
ATOM     10  F2  UNL d   1       3.558  -0.890   0.125  0.00  0.00    -0.096 F 
ATOM     11  F3  UNL d   1       1.938   1.040   1.117  0.00  0.00    -0.097 F 
ATOM     12  F4  UNL d   1      -0.668   0.486   1.705  0.00  0.00    -0.092 F 
ENDROOT
TORSDOF 0
ENDMDL
