MODEL 1
REMARK minimizedAffinity 4.15140343
REMARK minimizedRMSD -1
REMARK  0 active torsions:
REMARK  status: ('A' for Active; 'I' for Inactive)
ROOT
ATOM      1  C   UNL d   1       0.675  -0.371   0.701  0.00  0.00     0.124 A 
ATOM      2  C1  UNL d   1       2.061  -0.342   0.624  0.00  0.00     0.062 A 
ATOM      3  C2  UNL d   1       2.772  -1.512   0.371  0.00  0.00     0.162 A 
ATOM      4  C3  UNL d   1       2.099  -2.720   0.193  0.00  0.00    -0.034 A 
ATOM      5  C4  UNL d   1       0.705  -2.741   0.273  0.00  0.00     0.162 A 
ATOM      6  C5  UNL d   1      -0.001  -1.570   0.525  0.00  0.00     0.062 A 
ATOM      7  F   UNL d   1      -1.340  -1.599   0.599  0.00  0.00    -0.097 F 
ATOM      8  F1  UNL d   1       0.026  -3.886   0.106  0.00  0.00    -0.096 F 
ATOM      9  I   UNL d   1       3.159  -4.471  -0.185  0.00  0.00    -0.060 I 
ATOM     10  F2  UNL d   1       4.111  -1.455   0.302  0.00  0.00    -0.096 F 
ATOM     11  F3  UNL d   1       2.717   0.815   0.794  0.00  0.00    -0.097 F 
ATOM     12  F4  UNL d   1      -0.006   0.756   0.945  0.00  0.00    -0.092 F 
ENDROOT
TORSDOF 0
ENDMDL
