MODEL 1
REMARK minimizedAffinity 8.31577778
REMARK minimizedRMSD -1
REMARK  0 active torsions:
REMARK  status: ('A' for Active; 'I' for Inactive)
ROOT
ATOM      1  C   UNL d   1       0.030  -0.407   0.980  0.00  0.00     0.124 A 
ATOM      2  C1  UNL d   1       1.399  -0.507   1.183  0.00  0.00     0.062 A 
ATOM      3  C2  UNL d   1       2.058  -1.706   0.931  0.00  0.00     0.162 A 
ATOM      4  C3  UNL d   1       1.349  -2.816   0.472  0.00  0.00    -0.034 A 
ATOM      5  C4  UNL d   1      -0.028  -2.708   0.271  0.00  0.00     0.162 A 
ATOM      6  C5  UNL d   1      -0.683  -1.507   0.525  0.00  0.00     0.062 A 
ATOM      7  F   UNL d   1      -2.006  -1.412   0.328  0.00  0.00    -0.097 F 
ATOM      8  F1  UNL d   1      -0.741  -3.756  -0.169  0.00  0.00    -0.096 F 
ATOM      9  I   UNL d   1       2.331  -4.612   0.094  0.00  0.00    -0.060 I 
ATOM     10  F2  UNL d   1       3.382  -1.774   1.136  0.00  0.00    -0.096 F 
ATOM     11  F3  UNL d   1       2.089   0.555   1.624  0.00  0.00    -0.097 F 
ATOM     12  F4  UNL d   1      -0.602   0.749   1.225  0.00  0.00    -0.092 F 
ENDROOT
TORSDOF 0
ENDMDL
