MODEL 1
REMARK minimizedAffinity -0.37261492
REMARK minimizedRMSD -1
REMARK  0 active torsions:
REMARK  status: ('A' for Active; 'I' for Inactive)
ROOT
ATOM      1  C   UNL d   1       0.670  -1.027   0.991  0.00  0.00     0.124 A 
ATOM      2  C1  UNL d   1       2.010  -0.712   1.167  0.00  0.00     0.062 A 
ATOM      3  C2  UNL d   1       2.996  -1.635   0.832  0.00  0.00     0.162 A 
ATOM      4  C3  UNL d   1       2.646  -2.883   0.316  0.00  0.00    -0.034 A 
ATOM      5  C4  UNL d   1       1.296  -3.193   0.143  0.00  0.00     0.162 A 
ATOM      6  C5  UNL d   1       0.314  -2.267   0.479  0.00  0.00     0.062 A 
ATOM      7  F   UNL d   1      -0.980  -2.573   0.308  0.00  0.00    -0.097 F 
ATOM      8  F1  UNL d   1       0.924  -4.383  -0.351  0.00  0.00    -0.096 F 
ATOM      9  I   UNL d   1       4.118  -4.266  -0.186  0.00  0.00    -0.060 I 
ATOM     10  F2  UNL d   1       4.283  -1.303   1.013  0.00  0.00    -0.096 F 
ATOM     11  F3  UNL d   1       2.357   0.485   1.662  0.00  0.00    -0.097 F 
ATOM     12  F4  UNL d   1      -0.277  -0.137   1.315  0.00  0.00    -0.092 F 
ENDROOT
TORSDOF 0
ENDMDL
