MODEL 1
REMARK minimizedAffinity 1.38004982
REMARK minimizedRMSD -1
REMARK  0 active torsions:
REMARK  status: ('A' for Active; 'I' for Inactive)
ROOT
ATOM      1  C   UNL d   1       1.900  -2.954   0.082  0.00  0.00     0.124 A 
ATOM      2  C1  UNL d   1       0.543  -3.244   0.120  0.00  0.00     0.062 A 
ATOM      3  C2  UNL d   1      -0.367  -2.282   0.551  0.00  0.00     0.162 A 
ATOM      4  C3  UNL d   1       0.078  -1.020   0.946  0.00  0.00    -0.034 A 
ATOM      5  C4  UNL d   1       1.444  -0.736   0.905  0.00  0.00     0.162 A 
ATOM      6  C5  UNL d   1       2.349  -1.700   0.474  0.00  0.00     0.062 A 
ATOM      7  F   UNL d   1       3.659  -1.418   0.437  0.00  0.00    -0.097 F 
ATOM      8  F1  UNL d   1       1.905   0.467   1.277  0.00  0.00    -0.096 F 
ATOM      9  I   UNL d   1      -1.279   0.421   1.590  0.00  0.00    -0.060 I 
ATOM     10  F2  UNL d   1      -1.672  -2.590   0.578  0.00  0.00    -0.096 F 
ATOM     11  F3  UNL d   1       0.106  -4.454  -0.257  0.00  0.00    -0.097 F 
ATOM     12  F4  UNL d   1       2.772  -3.881  -0.332  0.00  0.00    -0.092 F 
ENDROOT
TORSDOF 0
ENDMDL
