MODEL 1
REMARK minimizedAffinity -0.864184797
REMARK minimizedRMSD -1
REMARK  0 active torsions:
REMARK  status: ('A' for Active; 'I' for Inactive)
ROOT
ATOM      1  C   UNL d   1       2.236  -2.639  -0.067  0.00  0.00     0.124 A 
ATOM      2  C1  UNL d   1       0.943  -3.144  -0.082  0.00  0.00     0.062 A 
ATOM      3  C2  UNL d   1      -0.118  -2.364   0.368  0.00  0.00     0.162 A 
ATOM      4  C3  UNL d   1       0.108  -1.070   0.836  0.00  0.00    -0.034 A 
ATOM      5  C4  UNL d   1       1.411  -0.569   0.848  0.00  0.00     0.162 A 
ATOM      6  C5  UNL d   1       2.469  -1.353   0.398  0.00  0.00     0.062 A 
ATOM      7  F   UNL d   1       3.717  -0.863   0.413  0.00  0.00    -0.097 F 
ATOM      8  F1  UNL d   1       1.664   0.671   1.292  0.00  0.00    -0.096 F 
ATOM      9  I   UNL d   1      -1.476   0.099   1.509  0.00  0.00    -0.060 I 
ATOM     10  F2  UNL d   1      -1.357  -2.878   0.342  0.00  0.00    -0.096 F 
ATOM     11  F3  UNL d   1       0.716  -4.387  -0.530  0.00  0.00    -0.097 F 
ATOM     12  F4  UNL d   1       3.255  -3.392  -0.500  0.00  0.00    -0.092 F 
ENDROOT
TORSDOF 0
ENDMDL
