MODEL 1
REMARK minimizedAffinity -1.76924098
REMARK minimizedRMSD -1
REMARK  0 active torsions:
REMARK  status: ('A' for Active; 'I' for Inactive)
ROOT
ATOM      1  C   UNL d   1       0.400  -0.836   0.871  0.00  0.00     0.124 A 
ATOM      2  C1  UNL d   1       1.771  -0.625   0.901  0.00  0.00     0.062 A 
ATOM      3  C2  UNL d   1       2.647  -1.677   0.649  0.00  0.00     0.162 A 
ATOM      4  C3  UNL d   1       2.153  -2.950   0.364  0.00  0.00    -0.034 A 
ATOM      5  C4  UNL d   1       0.772  -3.155   0.337  0.00  0.00     0.162 A 
ATOM      6  C5  UNL d   1      -0.098  -2.100   0.589  0.00  0.00     0.062 A 
ATOM      7  F   UNL d   1      -1.423  -2.305   0.560  0.00  0.00    -0.097 F 
ATOM      8  F1  UNL d   1       0.264  -4.366   0.067  0.00  0.00    -0.096 F 
ATOM      9  I   UNL d   1       3.459  -4.527  -0.013  0.00  0.00    -0.060 I 
ATOM     10  F2  UNL d   1       3.967  -1.445   0.684  0.00  0.00    -0.096 F 
ATOM     11  F3  UNL d   1       2.255   0.596   1.174  0.00  0.00    -0.097 F 
ATOM     12  F4  UNL d   1      -0.440   0.179   1.115  0.00  0.00    -0.092 F 
ENDROOT
TORSDOF 0
ENDMDL
