MODEL 1
REMARK minimizedAffinity 24.7277718
REMARK minimizedRMSD -1
REMARK  0 active torsions:
REMARK  status: ('A' for Active; 'I' for Inactive)
ROOT
ATOM      1  C   UNL d   1      -2.768   1.861   4.845  0.00  0.00     0.124 A 
ATOM      2  C1  UNL d   1      -4.073   2.335   4.844  0.00  0.00     0.062 A 
ATOM      3  C2  UNL d   1      -4.688   2.692   3.647  0.00  0.00     0.162 A 
ATOM      4  C3  UNL d   1      -3.999   2.574   2.440  0.00  0.00    -0.034 A 
ATOM      5  C4  UNL d   1      -2.686   2.098   2.449  0.00  0.00     0.162 A 
ATOM      6  C5  UNL d   1      -2.077   1.743   3.648  0.00  0.00     0.062 A 
ATOM      7  F   UNL d   1      -0.816   1.285   3.646  0.00  0.00    -0.097 F 
ATOM      8  F1  UNL d   1      -1.995   1.973   1.306  0.00  0.00    -0.096 F 
ATOM      9  I   UNL d   1      -4.914   3.107   0.649  0.00  0.00    -0.060 I 
ATOM     10  F2  UNL d   1      -5.949   3.147   3.677  0.00  0.00    -0.096 F 
ATOM     11  F3  UNL d   1      -4.743   2.451   6.000  0.00  0.00    -0.097 F 
ATOM     12  F4  UNL d   1      -2.179   1.520   5.998  0.00  0.00    -0.092 F 
ENDROOT
TORSDOF 0
ENDMDL
