MODEL 1
REMARK minimizedAffinity -3.67144132
REMARK minimizedRMSD -1
REMARK  0 active torsions:
REMARK  status: ('A' for Active; 'I' for Inactive)
ROOT
ATOM      1  C   UNL d   1       0.078  -0.784   0.755  0.00  0.00     0.124 A 
ATOM      2  C1  UNL d   1       1.437  -0.554   0.920  0.00  0.00     0.062 A 
ATOM      3  C2  UNL d   1       2.351  -1.584   0.715  0.00  0.00     0.162 A 
ATOM      4  C3  UNL d   1       1.909  -2.853   0.340  0.00  0.00    -0.034 A 
ATOM      5  C4  UNL d   1       0.541  -3.076   0.177  0.00  0.00     0.162 A 
ATOM      6  C5  UNL d   1      -0.368  -2.044   0.384  0.00  0.00     0.062 A 
ATOM      7  F   UNL d   1      -1.681  -2.268   0.224  0.00  0.00    -0.097 F 
ATOM      8  F1  UNL d   1       0.082  -4.284  -0.182  0.00  0.00    -0.096 F 
ATOM      9  I   UNL d   1       3.273  -4.395   0.032  0.00  0.00    -0.060 I 
ATOM     10  F2  UNL d   1       3.658  -1.333   0.881  0.00  0.00    -0.096 F 
ATOM     11  F3  UNL d   1       1.871   0.662   1.280  0.00  0.00    -0.097 F 
ATOM     12  F4  UNL d   1      -0.799   0.208   0.955  0.00  0.00    -0.092 F 
ENDROOT
TORSDOF 0
ENDMDL
