MODEL 1
REMARK minimizedAffinity 10.0666876
REMARK minimizedRMSD -1
REMARK  0 active torsions:
REMARK  status: ('A' for Active; 'I' for Inactive)
ROOT
ATOM      1  C4' PXY d   1       3.350   2.948  -0.110  0.00  0.00     0.077 C 
ATOM      2  C1' PXY d   1      -0.899   4.912   3.281  0.00  0.00     0.077 C 
ATOM      3  C1  PXY d   1       0.211   4.385   2.393  0.00  0.00    -0.082 A 
ATOM      4  C2  PXY d   1       1.322   5.089   2.247  0.00  0.00     0.003 A 
ATOM      5  C3  PXY d   1       2.322   4.642   1.423  0.00  0.00     0.003 A 
ATOM      6  C4  PXY d   1       2.207   3.437   0.784  0.00  0.00    -0.082 A 
ATOM      7  C5  PXY d   1       1.082   2.708   0.936  0.00  0.00     0.003 A 
ATOM      8  C6  PXY d   1       0.060   3.198   1.745  0.00  0.00     0.003 A 
ENDROOT
TORSDOF 0
ENDMDL
