MODEL 1
REMARK minimizedAffinity 5.01472807
REMARK minimizedRMSD -1
REMARK  0 active torsions:
REMARK  status: ('A' for Active; 'I' for Inactive)
ROOT
ATOM      1  C4' PXY d   1      -1.125  -3.338  -4.500  0.00  0.00     0.077 C 
ATOM      2  C1' PXY d   1      -0.644  -0.750   0.647  0.00  0.00     0.077 C 
ATOM      3  C1  PXY d   1      -0.776  -1.439  -0.697  0.00  0.00    -0.082 A 
ATOM      4  C2  PXY d   1       0.062  -1.132  -1.674  0.00  0.00     0.003 A 
ATOM      5  C3  PXY d   1      -0.063  -1.722  -2.906  0.00  0.00     0.003 A 
ATOM      6  C4  PXY d   1      -1.023  -2.674  -3.124  0.00  0.00    -0.082 A 
ATOM      7  C5  PXY d   1      -1.875  -3.000  -2.129  0.00  0.00     0.003 A 
ATOM      8  C6  PXY d   1      -1.757  -2.360  -0.898  0.00  0.00     0.003 A 
ENDROOT
TORSDOF 0
ENDMDL
