MODEL 1
REMARK minimizedAffinity 5.52311039
REMARK minimizedRMSD -1
REMARK  0 active torsions:
REMARK  status: ('A' for Active; 'I' for Inactive)
ROOT
ATOM      1  C4' PXY d   1      -1.873  -3.001  -1.834  0.00  0.00     0.077 C 
ATOM      2  C1' PXY d   1       0.443   1.366   1.162  0.00  0.00     0.077 C 
ATOM      3  C1  PXY d   1      -0.155   0.222   0.367  0.00  0.00    -0.082 A 
ATOM      4  C2  PXY d   1      -1.439  -0.069   0.505  0.00  0.00     0.003 A 
ATOM      5  C3  PXY d   1      -1.988  -1.121  -0.182  0.00  0.00     0.003 A 
ATOM      6  C4  PXY d   1      -1.229  -1.849  -1.059  0.00  0.00    -0.082 A 
ATOM      7  C5  PXY d   1       0.078  -1.551  -1.213  0.00  0.00     0.003 A 
ATOM      8  C6  PXY d   1       0.627  -0.505  -0.475  0.00  0.00     0.003 A 
ENDROOT
TORSDOF 0
ENDMDL
