MODEL 1
REMARK minimizedAffinity 6.00741816
REMARK minimizedRMSD -1
REMARK  0 active torsions:
REMARK  status: ('A' for Active; 'I' for Inactive)
ROOT
ATOM      1  C4' PXY d   1       0.965   2.369   1.163  0.00  0.00     0.077 C 
ATOM      2  C1' PXY d   1      -0.965  -2.164  -1.860  0.00  0.00     0.077 C 
ATOM      3  C1  PXY d   1      -0.450  -0.973  -1.077  0.00  0.00    -0.082 A 
ATOM      4  C2  PXY d   1      -0.616  -0.932   0.235  0.00  0.00     0.003 A 
ATOM      5  C3  PXY d   1      -0.185   0.153   0.955  0.00  0.00     0.003 A 
ATOM      6  C4  PXY d   1       0.470   1.182   0.333  0.00  0.00    -0.082 A 
ATOM      7  C5  PXY d   1       0.652   1.142  -1.004  0.00  0.00     0.003 A 
ATOM      8  C6  PXY d   1       0.171   0.052  -1.722  0.00  0.00     0.003 A 
ENDROOT
TORSDOF 0
ENDMDL
