MODEL 1
REMARK minimizedAffinity 12.5001287
REMARK minimizedRMSD -1
REMARK  0 active torsions:
REMARK  status: ('A' for Active; 'I' for Inactive)
ROOT
ATOM      1  C4' PXY d   1      -3.166   0.024   1.737  0.00  0.00     0.077 C 
ATOM      2  C1' PXY d   1       1.322  -1.372  -1.630  0.00  0.00     0.077 C 
ATOM      3  C1  PXY d   1       0.137  -1.008  -0.757  0.00  0.00    -0.082 A 
ATOM      4  C2  PXY d   1       0.312  -0.213   0.286  0.00  0.00     0.003 A 
ATOM      5  C3  PXY d   1      -0.742   0.100   1.105  0.00  0.00     0.003 A 
ATOM      6  C4  PXY d   1      -2.000  -0.362   0.822  0.00  0.00    -0.082 A 
ATOM      7  C5  PXY d   1      -2.189  -1.165  -0.246  0.00  0.00     0.003 A 
ATOM      8  C6  PXY d   1      -1.098  -1.505  -1.041  0.00  0.00     0.003 A 
ENDROOT
TORSDOF 0
ENDMDL
