MODEL 1
REMARK minimizedAffinity 5.49989939
REMARK minimizedRMSD -1
REMARK  0 active torsions:
REMARK  status: ('A' for Active; 'I' for Inactive)
ROOT
ATOM      1  C4' PXY d   1       0.781  -1.877  -1.479  0.00  0.00     0.077 C 
ATOM      2  C1' PXY d   1       6.000  -4.093  -2.604  0.00  0.00     0.077 C 
ATOM      3  C1  PXY d   1       4.632  -3.515  -2.296  0.00  0.00    -0.082 A 
ATOM      4  C2  PXY d   1       3.747  -3.377  -3.270  0.00  0.00     0.003 A 
ATOM      5  C3  PXY d   1       2.517  -2.827  -3.015  0.00  0.00     0.003 A 
ATOM      6  C4  PXY d   1       2.170  -2.464  -1.741  0.00  0.00    -0.082 A 
ATOM      7  C5  PXY d   1       3.065  -2.612  -0.741  0.00  0.00     0.003 A 
ATOM      8  C6  PXY d   1       4.323  -3.134  -1.027  0.00  0.00     0.003 A 
ENDROOT
TORSDOF 0
ENDMDL
