MODEL 1
REMARK minimizedAffinity 4.99166822
REMARK minimizedRMSD -1
REMARK  0 active torsions:
REMARK  status: ('A' for Active; 'I' for Inactive)
ROOT
ATOM      1  C4' PXY d   1      -2.110  -3.960  -4.342  0.00  0.00     0.077 C 
ATOM      2  C1' PXY d   1      -1.706  -0.831   0.502  0.00  0.00     0.077 C 
ATOM      3  C1  PXY d   1      -1.819  -1.660  -0.762  0.00  0.00    -0.082 A 
ATOM      4  C2  PXY d   1      -0.886  -1.562  -1.695  0.00  0.00     0.003 A 
ATOM      5  C3  PXY d   1      -0.989  -2.280  -2.858  0.00  0.00     0.003 A 
ATOM      6  C4  PXY d   1      -2.031  -3.149  -3.046  0.00  0.00    -0.082 A 
ATOM      7  C5  PXY d   1      -2.982  -3.263  -2.094  0.00  0.00     0.003 A 
ATOM      8  C6  PXY d   1      -2.880  -2.494  -0.938  0.00  0.00     0.003 A 
ENDROOT
TORSDOF 0
ENDMDL
