MODEL 1
REMARK minimizedAffinity 0.24423337
REMARK minimizedRMSD -1
REMARK  0 active torsions:
REMARK  status: ('A' for Active; 'I' for Inactive)
ROOT
ATOM      1  C4' PXY d   1       4.880  -3.359  -5.999  0.00  0.00     0.077 C 
ATOM      2  C1' PXY d   1       5.168  -3.374  -0.226  0.00  0.00     0.077 C 
ATOM      3  C1  PXY d   1       5.079  -3.368  -1.739  0.00  0.00    -0.082 A 
ATOM      4  C2  PXY d   1       6.000  -3.998  -2.451  0.00  0.00     0.003 A 
ATOM      5  C3  PXY d   1       5.953  -3.976  -3.821  0.00  0.00     0.003 A 
ATOM      6  C4  PXY d   1       4.924  -3.347  -4.469  0.00  0.00    -0.082 A 
ATOM      7  C5  PXY d   1       3.975  -2.711  -3.749  0.00  0.00     0.003 A 
ATOM      8  C6  PXY d   1       4.063  -2.710  -2.360  0.00  0.00     0.003 A 
ENDROOT
TORSDOF 0
ENDMDL
