MODEL 1
REMARK minimizedAffinity 1.36184931
REMARK minimizedRMSD -1
REMARK  0 active torsions:
REMARK  status: ('A' for Active; 'I' for Inactive)
ROOT
ATOM      1  C4' PXY d   1      -2.997  -0.059   2.220  0.00  0.00     0.077 C 
ATOM      2  C1' PXY d   1       1.052  -1.449  -1.664  0.00  0.00     0.077 C 
ATOM      3  C1  PXY d   1      -0.019  -1.090  -0.653  0.00  0.00    -0.082 A 
ATOM      4  C2  PXY d   1       0.178  -0.079   0.178  0.00  0.00     0.003 A 
ATOM      5  C3  PXY d   1      -0.766   0.239   1.119  0.00  0.00     0.003 A 
ATOM      6  C4  PXY d   1      -1.948  -0.451   1.177  0.00  0.00    -0.082 A 
ATOM      7  C5  PXY d   1      -2.161  -1.477   0.326  0.00  0.00     0.003 A 
ATOM      8  C6  PXY d   1      -1.172  -1.810  -0.596  0.00  0.00     0.003 A 
ENDROOT
TORSDOF 0
ENDMDL
