MODEL 1
REMARK minimizedAffinity 3.67398238
REMARK minimizedRMSD -1
REMARK  0 active torsions:
REMARK  status: ('A' for Active; 'I' for Inactive)
ROOT
ATOM      1  C4' PXY d   1      -1.852  -4.107  -4.406  0.00  0.00     0.077 C 
ATOM      2  C1' PXY d   1      -1.073  -1.015   0.415  0.00  0.00     0.077 C 
ATOM      3  C1  PXY d   1      -1.286  -1.833  -0.843  0.00  0.00    -0.082 A 
ATOM      4  C2  PXY d   1      -0.332  -1.886  -1.758  0.00  0.00     0.003 A 
ATOM      5  C3  PXY d   1      -0.521  -2.595  -2.916  0.00  0.00     0.003 A 
ATOM      6  C4  PXY d   1      -1.677  -3.301  -3.116  0.00  0.00    -0.082 A 
ATOM      7  C5  PXY d   1      -2.651  -3.261  -2.182  0.00  0.00     0.003 A 
ATOM      8  C6  PXY d   1      -2.456  -2.501  -1.032  0.00  0.00     0.003 A 
ENDROOT
TORSDOF 0
ENDMDL
