MODEL 1
REMARK minimizedAffinity 14.8358288
REMARK minimizedRMSD -1
REMARK  0 active torsions:
REMARK  status: ('A' for Active; 'I' for Inactive)
ROOT
ATOM      1  C4' PXY d   1       2.225   0.664  -2.824  0.00  0.00     0.077 C 
ATOM      2  C1' PXY d   1      -1.960  -2.461  -0.348  0.00  0.00     0.077 C 
ATOM      3  C1  PXY d   1      -0.865  -1.648  -1.009  0.00  0.00    -0.082 A 
ATOM      4  C2  PXY d   1       0.113  -1.147  -0.272  0.00  0.00     0.003 A 
ATOM      5  C3  PXY d   1       1.094  -0.382  -0.848  0.00  0.00     0.003 A 
ATOM      6  C4  PXY d   1       1.104  -0.172  -2.201  0.00  0.00    -0.082 A 
ATOM      7  C5  PXY d   1       0.115  -0.688  -2.961  0.00  0.00     0.003 A 
ATOM      8  C6  PXY d   1      -0.894  -1.428  -2.351  0.00  0.00     0.003 A 
ENDROOT
TORSDOF 0
ENDMDL
