MODEL 1
REMARK minimizedAffinity 7.04107141
REMARK minimizedRMSD -1
REMARK  0 active torsions:
REMARK  status: ('A' for Active; 'I' for Inactive)
ROOT
ATOM      1  C4' PXY d   1      -1.482  -3.014  -3.847  0.00  0.00     0.077 C 
ATOM      2  C1' PXY d   1      -2.176  -1.008   1.530  0.00  0.00     0.077 C 
ATOM      3  C1  PXY d   1      -2.000  -1.545   0.123  0.00  0.00    -0.082 A 
ATOM      4  C2  PXY d   1      -1.005  -1.101  -0.627  0.00  0.00     0.003 A 
ATOM      5  C3  PXY d   1      -0.850  -1.552  -1.912  0.00  0.00     0.003 A 
ATOM      6  C4  PXY d   1      -1.692  -2.507  -2.418  0.00  0.00    -0.082 A 
ATOM      7  C5  PXY d   1      -2.704  -2.973  -1.655  0.00  0.00     0.003 A 
ATOM      8  C6  PXY d   1      -2.868  -2.472  -0.367  0.00  0.00     0.003 A 
ENDROOT
TORSDOF 0
ENDMDL
