MODEL 1
REMARK minimizedAffinity 8.09657764
REMARK minimizedRMSD -1
REMARK  0 active torsions:
REMARK  status: ('A' for Active; 'I' for Inactive)
ROOT
ATOM      1  C4' PXY d   1      -5.219   1.318   3.440  0.00  0.00     0.077 C 
ATOM      2  C1' PXY d   1      -0.766  -0.658   0.328  0.00  0.00     0.077 C 
ATOM      3  C1  PXY d   1      -1.934  -0.151   1.151  0.00  0.00    -0.082 A 
ATOM      4  C2  PXY d   1      -2.698   0.818   0.674  0.00  0.00     0.003 A 
ATOM      5  C3  PXY d   1      -3.739   1.310   1.418  0.00  0.00     0.003 A 
ATOM      6  C4  PXY d   1      -4.034   0.769   2.640  0.00  0.00    -0.082 A 
ATOM      7  C5  PXY d   1      -3.266  -0.228   3.129  0.00  0.00     0.003 A 
ATOM      8  C6  PXY d   1      -2.189  -0.686   2.376  0.00  0.00     0.003 A 
ENDROOT
TORSDOF 0
ENDMDL
