MODEL 1
REMARK minimizedAffinity 2.71315718
REMARK minimizedRMSD -1
REMARK  0 active torsions:
REMARK  status: ('A' for Active; 'I' for Inactive)
ROOT
ATOM      1  C4' PXY d   1      -2.791  -1.424   1.242  0.00  0.00     0.077 C 
ATOM      2  C1' PXY d   1       1.787  -0.666  -2.204  0.00  0.00     0.077 C 
ATOM      3  C1  PXY d   1       0.580  -0.870  -1.310  0.00  0.00    -0.082 A 
ATOM      4  C2  PXY d   1       0.420  -0.105  -0.243  0.00  0.00     0.003 A 
ATOM      5  C3  PXY d   1      -0.649  -0.297   0.594  0.00  0.00     0.003 A 
ATOM      6  C4  PXY d   1      -1.592  -1.247   0.306  0.00  0.00    -0.082 A 
ATOM      7  C5  PXY d   1      -1.441  -2.025  -0.787  0.00  0.00     0.003 A 
ATOM      8  C6  PXY d   1      -0.327  -1.842  -1.601  0.00  0.00     0.003 A 
ENDROOT
TORSDOF 0
ENDMDL
