MODEL 1
REMARK minimizedAffinity 9.83468342
REMARK minimizedRMSD -1
REMARK  0 active torsions:
REMARK  status: ('A' for Active; 'I' for Inactive)
ROOT
ATOM      1  C4' PXY d   1       5.992  -2.950  -0.765  0.00  0.00     0.077 C 
ATOM      2  C1' PXY d   1       3.489  -3.194  -5.970  0.00  0.00     0.077 C 
ATOM      3  C1  PXY d   1       4.137  -3.121  -4.601  0.00  0.00    -0.082 A 
ATOM      4  C2  PXY d   1       5.406  -3.466  -4.459  0.00  0.00     0.003 A 
ATOM      5  C3  PXY d   1       5.998  -3.436  -3.222  0.00  0.00     0.003 A 
ATOM      6  C4  PXY d   1       5.299  -2.999  -2.129  0.00  0.00    -0.082 A 
ATOM      7  C5  PXY d   1       4.007  -2.635  -2.268  0.00  0.00     0.003 A 
ATOM      8  C6  PXY d   1       3.412  -2.711  -3.524  0.00  0.00     0.003 A 
ENDROOT
TORSDOF 0
ENDMDL
