MODEL 1
REMARK minimizedAffinity 7.55783796
REMARK minimizedRMSD -1
REMARK  0 active torsions:
REMARK  status: ('A' for Active; 'I' for Inactive)
ROOT
ATOM      1  C4' PXY d   1       5.134  -3.003  -0.099  0.00  0.00     0.077 C 
ATOM      2  C1' PXY d   1       4.501  -2.181  -5.786  0.00  0.00     0.077 C 
ATOM      3  C1  PXY d   1       4.656  -2.389  -4.292  0.00  0.00    -0.082 A 
ATOM      4  C2  PXY d   1       5.847  -2.675  -3.792  0.00  0.00     0.003 A 
ATOM      5  C3  PXY d   1       6.000  -2.898  -2.448  0.00  0.00     0.003 A 
ATOM      6  C4  PXY d   1       4.932  -2.775  -1.600  0.00  0.00    -0.082 A 
ATOM      7  C5  PXY d   1       3.716  -2.473  -2.101  0.00  0.00     0.003 A 
ATOM      8  C6  PXY d   1       3.574  -2.291  -3.473  0.00  0.00     0.003 A 
ENDROOT
TORSDOF 0
ENDMDL
