MODEL 1
REMARK minimizedAffinity 2.15008354
REMARK minimizedRMSD -1
REMARK  0 active torsions:
REMARK  status: ('A' for Active; 'I' for Inactive)
ROOT
ATOM      1  C4' PXY d   1      -3.037  -3.214   6.000  0.00  0.00     0.077 C 
ATOM      2  C1' PXY d   1      -4.846   1.784   3.726  0.00  0.00     0.077 C 
ATOM      3  C1  PXY d   1      -4.367   0.469   4.310  0.00  0.00    -0.082 A 
ATOM      4  C2  PXY d   1      -4.896   0.024   5.439  0.00  0.00     0.003 A 
ATOM      5  C3  PXY d   1      -4.453  -1.146   5.998  0.00  0.00     0.003 A 
ATOM      6  C4  PXY d   1      -3.496  -1.896   5.368  0.00  0.00    -0.082 A 
ATOM      7  C5  PXY d   1      -2.959  -1.455   4.211  0.00  0.00     0.003 A 
ATOM      8  C6  PXY d   1      -3.394  -0.243   3.681  0.00  0.00     0.003 A 
ENDROOT
TORSDOF 0
ENDMDL
