MODEL 1
REMARK minimizedAffinity 8.58118153
REMARK minimizedRMSD -1
REMARK  0 active torsions:
REMARK  status: ('A' for Active; 'I' for Inactive)
ROOT
ATOM      1  C4' PXY d   1       1.006   1.480   0.824  0.00  0.00     0.077 C 
ATOM      2  C1' PXY d   1      -1.904  -2.824  -1.709  0.00  0.00     0.077 C 
ATOM      3  C1  PXY d   1      -1.130  -1.703  -1.044  0.00  0.00    -0.082 A 
ATOM      4  C2  PXY d   1      -1.784  -0.745  -0.407  0.00  0.00     0.003 A 
ATOM      5  C3  PXY d   1      -1.102   0.294   0.172  0.00  0.00     0.003 A 
ATOM      6  C4  PXY d   1       0.267   0.324   0.146  0.00  0.00    -0.082 A 
ATOM      7  C5  PXY d   1       0.942  -0.656  -0.492  0.00  0.00     0.003 A 
ATOM      8  C6  PXY d   1       0.229  -1.679  -1.110  0.00  0.00     0.003 A 
ENDROOT
TORSDOF 0
ENDMDL
