MODEL 1
REMARK minimizedAffinity -2.35228968
REMARK minimizedRMSD -1
REMARK  0 active torsions:
REMARK  status: ('A' for Active; 'I' for Inactive)
ROOT
ATOM      1  C4' PXY d   1      -0.103   2.216  -0.104  0.00  0.00     0.077 C 
ATOM      2  C1' PXY d   1      -0.453  -3.549   0.121  0.00  0.00     0.077 C 
ATOM      3  C1  PXY d   1      -0.371  -2.036   0.071  0.00  0.00    -0.082 A 
ATOM      4  C2  PXY d   1       0.167  -1.445  -0.984  0.00  0.00     0.003 A 
ATOM      5  C3  PXY d   1       0.278  -0.080  -1.032  0.00  0.00     0.003 A 
ATOM      6  C4  PXY d   1      -0.215   0.692  -0.014  0.00  0.00    -0.082 A 
ATOM      7  C5  PXY d   1      -0.776   0.097   1.060  0.00  0.00     0.003 A 
ATOM      8  C6  PXY d   1      -0.841  -1.292   1.108  0.00  0.00     0.003 A 
ENDROOT
TORSDOF 0
ENDMDL
