MODEL 1
REMARK minimizedAffinity -3.36022091
REMARK minimizedRMSD -1
REMARK  1 active torsions:
REMARK  status: ('A' for Active; 'I' for Inactive)
REMARK    1  A    between atoms: C1_2  and  C2_3 
ROOT
ATOM      1  C2  UNL d   1      -0.403  -0.154  -0.105  0.00  0.00    -0.077 A 
ATOM      2  C3  UNL d   1      -0.718  -1.158   0.820  0.00  0.00     0.002 A 
ATOM      3  C4  UNL d   1       0.094  -2.287   0.942  0.00  0.00     0.002 A 
ATOM      4  C5  UNL d   1       1.229  -2.420   0.145  0.00  0.00    -0.004 A 
ATOM      5  C6  UNL d   1       1.550  -1.428  -0.780  0.00  0.00     0.002 A 
ATOM      6  C7  UNL d   1       0.738  -0.299  -0.904  0.00  0.00     0.002 A 
ENDROOT
BRANCH   1   7
ATOM      7  C1  UNL d   1      -1.251   1.087  -0.204  0.00  0.00     0.055 C 
ATOM      8  C   UNL d   1      -2.559   0.925   0.556  0.00  0.00     0.019 C 
ENDBRANCH   1   7
TORSDOF 1
ENDMDL
