MODEL 1
REMARK minimizedAffinity -5.10273933
REMARK minimizedRMSD -1
REMARK  1 active torsions:
REMARK  status: ('A' for Active; 'I' for Inactive)
REMARK    1  A    between atoms: C1_2  and  C2_3 
ROOT
ATOM      1  C2  UNL d   1       0.802  -0.504  -0.253  0.00  0.00    -0.077 A 
ATOM      2  C3  UNL d   1       1.386   0.741   0.025  0.00  0.00     0.002 A 
ATOM      3  C4  UNL d   1       2.572   0.817   0.756  0.00  0.00     0.002 A 
ATOM      4  C5  UNL d   1       3.188  -0.347   1.213  0.00  0.00    -0.004 A 
ATOM      5  C6  UNL d   1       2.614  -1.589   0.943  0.00  0.00     0.002 A 
ATOM      6  C7  UNL d   1       1.427  -1.667   0.213  0.00  0.00     0.002 A 
ENDROOT
BRANCH   1   7
ATOM      7  C1  UNL d   1      -0.451  -0.591  -1.084  0.00  0.00     0.055 C 
ATOM      8  C   UNL d   1      -1.534   0.337  -0.552  0.00  0.00     0.019 C 
ENDBRANCH   1   7
TORSDOF 1
ENDMDL
