MODEL 1
REMARK minimizedAffinity -4.92695332
REMARK minimizedRMSD -1
REMARK  1 active torsions:
REMARK  status: ('A' for Active; 'I' for Inactive)
REMARK    1  A    between atoms: C1_2  and  C2_3 
ROOT
ATOM      1  C2  UNL d   1       0.078   0.004  -0.412  0.00  0.00    -0.077 A 
ATOM      2  C3  UNL d   1       0.512  -1.262  -0.830  0.00  0.00     0.002 A 
ATOM      3  C4  UNL d   1       1.848  -1.637  -0.679  0.00  0.00     0.002 A 
ATOM      4  C5  UNL d   1       2.761  -0.753  -0.106  0.00  0.00    -0.004 A 
ATOM      5  C6  UNL d   1       2.340   0.509   0.310  0.00  0.00     0.002 A 
ATOM      6  C7  UNL d   1       1.005   0.886   0.159  0.00  0.00     0.002 A 
ENDROOT
BRANCH   1   7
ATOM      7  C1  UNL d   1      -1.373   0.391  -0.529  0.00  0.00     0.055 C 
ATOM      8  C   UNL d   1      -2.070   0.339   0.822  0.00  0.00     0.019 C 
ENDBRANCH   1   7
TORSDOF 1
ENDMDL
