MODEL 1
REMARK minimizedAffinity -5.90290976
REMARK minimizedRMSD -1
REMARK  1 active torsions:
REMARK  status: ('A' for Active; 'I' for Inactive)
REMARK    1  A    between atoms: C1_2  and  C2_3 
ROOT
ATOM      1  C2  UNL d   1       1.401  -0.281  -0.073  0.00  0.00    -0.077 A 
ATOM      2  C3  UNL d   1       2.296  -1.225   0.449  0.00  0.00     0.002 A 
ATOM      3  C4  UNL d   1       3.557  -0.829   0.900  0.00  0.00     0.002 A 
ATOM      4  C5  UNL d   1       3.932   0.511   0.837  0.00  0.00    -0.004 A 
ATOM      5  C6  UNL d   1       3.049   1.457   0.318  0.00  0.00     0.002 A 
ATOM      6  C7  UNL d   1       1.789   1.063  -0.135  0.00  0.00     0.002 A 
ENDROOT
BRANCH   1   7
ATOM      7  C1  UNL d   1       0.022  -0.698  -0.514  0.00  0.00     0.055 C 
ATOM      8  C   UNL d   1      -0.809   0.502  -0.944  0.00  0.00     0.019 C 
ENDBRANCH   1   7
TORSDOF 1
ENDMDL
