MODEL 1
REMARK minimizedAffinity -3.57135224
REMARK minimizedRMSD -1
REMARK  1 active torsions:
REMARK  status: ('A' for Active; 'I' for Inactive)
REMARK    1  A    between atoms: C1_2  and  C2_3 
ROOT
ATOM      1  C2  UNL d   1      -0.138  -0.139  -0.126  0.00  0.00    -0.077 A 
ATOM      2  C3  UNL d   1       0.970   0.292   0.617  0.00  0.00     0.002 A 
ATOM      3  C4  UNL d   1       2.102  -0.517   0.731  0.00  0.00     0.002 A 
ATOM      4  C5  UNL d   1       2.139  -1.760   0.102  0.00  0.00    -0.004 A 
ATOM      5  C6  UNL d   1       1.041  -2.198  -0.637  0.00  0.00     0.002 A 
ATOM      6  C7  UNL d   1      -0.092  -1.391  -0.751  0.00  0.00     0.002 A 
ENDROOT
BRANCH   1   7
ATOM      7  C1  UNL d   1      -1.340   0.754  -0.291  0.00  0.00     0.055 C 
ATOM      8  C   UNL d   1      -2.373   0.498   0.797  0.00  0.00     0.019 C 
ENDBRANCH   1   7
TORSDOF 1
ENDMDL
