MODEL 1
REMARK minimizedAffinity 7.40302467
REMARK minimizedRMSD -1
REMARK  0 active torsions:
REMARK  status: ('A' for Active; 'I' for Inactive)
ROOT
ATOM      1  O1  BZF d   1       0.171   2.205  -1.028  0.00  0.00    -0.204 OA
ATOM      2  C2  BZF d   1      -0.843   2.937  -1.613  0.00  0.00     0.174 A 
ATOM      3  C3  BZF d   1      -1.689   3.416  -0.678  0.00  0.00    -0.012 A 
ATOM      4  C3A BZF d   1      -1.118   3.032   0.577  0.00  0.00    -0.107 A 
ATOM      5  C4  BZF d   1      -1.488   3.231   1.876  0.00  0.00     0.055 A 
ATOM      6  C5  BZF d   1      -0.752   2.662   2.867  0.00  0.00    -0.016 A 
ATOM      7  C6  BZF d   1       0.356   1.886   2.594  0.00  0.00     0.022 A 
ATOM      8  C7  BZF d   1       0.765   1.665   1.321  0.00  0.00     0.029 A 
ATOM      9  C7A BZF d   1       0.042   2.265   0.319  0.00  0.00     0.058 A 
ENDROOT
TORSDOF 0
ENDMDL
