MODEL 1
REMARK minimizedAffinity 5.24482965
REMARK minimizedRMSD -1
REMARK  0 active torsions:
REMARK  status: ('A' for Active; 'I' for Inactive)
ROOT
ATOM      1  O1  BZF d   1       2.947  -0.855  -1.178  0.00  0.00    -0.204 OA
ATOM      2  C2  BZF d   1       1.669  -1.185  -0.771  0.00  0.00     0.174 A 
ATOM      3  C3  BZF d   1       1.530  -2.522  -0.666  0.00  0.00    -0.012 A 
ATOM      4  C3A BZF d   1       2.828  -3.058  -0.941  0.00  0.00    -0.107 A 
ATOM      5  C4  BZF d   1       3.333  -4.326  -0.976  0.00  0.00     0.055 A 
ATOM      6  C5  BZF d   1       4.626  -4.513  -1.350  0.00  0.00    -0.016 A 
ATOM      7  C6  BZF d   1       5.440  -3.456  -1.701  0.00  0.00     0.022 A 
ATOM      8  C7  BZF d   1       4.986  -2.179  -1.677  0.00  0.00     0.029 A 
ATOM      9  C7A BZF d   1       3.689  -1.984  -1.268  0.00  0.00     0.058 A 
ENDROOT
TORSDOF 0
ENDMDL
