MODEL 1
REMARK minimizedAffinity 6.79483557
REMARK minimizedRMSD -1
REMARK  0 active torsions:
REMARK  status: ('A' for Active; 'I' for Inactive)
ROOT
ATOM      1  O1  BZF d   1      -4.771   5.870  -5.496  0.00  0.00    -0.204 OA
ATOM      2  C2  BZF d   1      -5.995   6.000  -4.870  0.00  0.00     0.174 A 
ATOM      3  C3  BZF d   1      -6.000   5.349  -3.689  0.00  0.00    -0.012 A 
ATOM      4  C3A BZF d   1      -4.667   4.854  -3.527  0.00  0.00    -0.107 A 
ATOM      5  C4  BZF d   1      -4.044   4.139  -2.544  0.00  0.00     0.055 A 
ATOM      6  C5  BZF d   1      -2.754   3.752  -2.725  0.00  0.00    -0.016 A 
ATOM      7  C6  BZF d   1      -2.059   4.058  -3.877  0.00  0.00     0.022 A 
ATOM      8  C7  BZF d   1      -2.633   4.770  -4.878  0.00  0.00     0.029 A 
ATOM      9  C7A BZF d   1      -3.926   5.190  -4.683  0.00  0.00     0.058 A 
ENDROOT
TORSDOF 0
ENDMDL
