MODEL 1
REMARK minimizedAffinity -0.29077062
REMARK minimizedRMSD -1
REMARK  0 active torsions:
REMARK  status: ('A' for Active; 'I' for Inactive)
ROOT
ATOM      1  O1  BZF d   1      -0.326   2.434  -2.185  0.00  0.00    -0.204 OA
ATOM      2  C2  BZF d   1      -0.211   1.070  -2.371  0.00  0.00     0.174 A 
ATOM      3  C3  BZF d   1      -0.108   0.432  -1.187  0.00  0.00    -0.012 A 
ATOM      4  C3A BZF d   1      -0.256   1.454  -0.196  0.00  0.00    -0.107 A 
ATOM      5  C4  BZF d   1      -0.261   1.443   1.170  0.00  0.00     0.055 A 
ATOM      6  C5  BZF d   1      -0.353   2.622   1.839  0.00  0.00    -0.016 A 
ATOM      7  C6  BZF d   1      -0.436   3.829   1.176  0.00  0.00     0.022 A 
ATOM      8  C7  BZF d   1      -0.440   3.889  -0.178  0.00  0.00     0.029 A 
ATOM      9  C7A BZF d   1      -0.380   2.697  -0.857  0.00  0.00     0.058 A 
ENDROOT
TORSDOF 0
ENDMDL
