MODEL 1
REMARK minimizedAffinity 0.962849379
REMARK minimizedRMSD -1
REMARK  0 active torsions:
REMARK  status: ('A' for Active; 'I' for Inactive)
ROOT
ATOM      1  O1  BZF d   1      -2.650   3.153   3.251  0.00  0.00    -0.204 OA
ATOM      2  C2  BZF d   1      -2.674   4.190   2.338  0.00  0.00     0.174 A 
ATOM      3  C3  BZF d   1      -1.720   4.023   1.400  0.00  0.00    -0.012 A 
ATOM      4  C3A BZF d   1      -1.119   2.758   1.695  0.00  0.00    -0.107 A 
ATOM      5  C4  BZF d   1      -0.121   2.033   1.109  0.00  0.00     0.055 A 
ATOM      6  C5  BZF d   1       0.277   0.870   1.687  0.00  0.00    -0.016 A 
ATOM      7  C6  BZF d   1      -0.297   0.405   2.852  0.00  0.00     0.022 A 
ATOM      8  C7  BZF d   1      -1.293   1.087   3.468  0.00  0.00     0.029 A 
ATOM      9  C7A BZF d   1      -1.720   2.246   2.868  0.00  0.00     0.058 A 
ENDROOT
TORSDOF 0
ENDMDL
