MODEL 1
REMARK minimizedAffinity 9.88925362
REMARK minimizedRMSD -1
REMARK  0 active torsions:
REMARK  status: ('A' for Active; 'I' for Inactive)
ROOT
ATOM      1  O1  BZF d   1      -1.678   2.714  -0.637  0.00  0.00    -0.204 OA
ATOM      2  C2  BZF d   1      -1.145   3.685  -1.461  0.00  0.00     0.174 A 
ATOM      3  C3  BZF d   1      -0.127   4.325  -0.851  0.00  0.00    -0.012 A 
ATOM      4  C3A BZF d   1       0.043   3.653   0.401  0.00  0.00    -0.107 A 
ATOM      5  C4  BZF d   1       0.908   3.817   1.445  0.00  0.00     0.055 A 
ATOM      6  C5  BZF d   1       0.762   3.043   2.552  0.00  0.00    -0.016 A 
ATOM      7  C6  BZF d   1      -0.240   2.100   2.651  0.00  0.00     0.022 A 
ATOM      8  C7  BZF d   1      -1.119   1.897   1.639  0.00  0.00     0.029 A 
ATOM      9  C7A BZF d   1      -0.953   2.655   0.506  0.00  0.00     0.058 A 
ENDROOT
TORSDOF 0
ENDMDL
