MODEL 1
REMARK minimizedAffinity -2.23191595
REMARK minimizedRMSD -1
REMARK  0 active torsions:
REMARK  status: ('A' for Active; 'I' for Inactive)
ROOT
ATOM      1  O1  BZF d   1      -0.821  -1.092   1.789  0.00  0.00    -0.204 OA
ATOM      2  C2  BZF d   1      -1.021  -2.429   1.507  0.00  0.00     0.174 A 
ATOM      3  C3  BZF d   1      -0.847  -2.672   0.192  0.00  0.00    -0.012 A 
ATOM      4  C3A BZF d   1      -0.428  -1.425  -0.369  0.00  0.00    -0.107 A 
ATOM      5  C4  BZF d   1      -0.086  -1.031  -1.631  0.00  0.00     0.055 A 
ATOM      6  C5  BZF d   1       0.205   0.277  -1.858  0.00  0.00    -0.016 A 
ATOM      7  C6  BZF d   1       0.159   1.217  -0.850  0.00  0.00     0.022 A 
ATOM      8  C7  BZF d   1      -0.171   0.873   0.419  0.00  0.00     0.029 A 
ATOM      9  C7A BZF d   1      -0.433  -0.453   0.659  0.00  0.00     0.058 A 
ENDROOT
TORSDOF 0
ENDMDL
