MODEL 1
REMARK minimizedAffinity -1.10355139
REMARK minimizedRMSD -1
REMARK  0 active torsions:
REMARK  status: ('A' for Active; 'I' for Inactive)
ROOT
ATOM      1  O1  BZF d   1      -0.452   1.417  -1.339  0.00  0.00    -0.204 OA
ATOM      2  C2  BZF d   1      -0.601   1.699   0.005  0.00  0.00     0.174 A 
ATOM      3  C3  BZF d   1      -0.199   0.657   0.761  0.00  0.00    -0.012 A 
ATOM      4  C3A BZF d   1       0.314  -0.305  -0.167  0.00  0.00    -0.107 A 
ATOM      5  C4  BZF d   1       0.873  -1.542  -0.023  0.00  0.00     0.055 A 
ATOM      6  C5  BZF d   1       1.202  -2.252  -1.135  0.00  0.00    -0.016 A 
ATOM      7  C6  BZF d   1       0.981  -1.757  -2.403  0.00  0.00     0.022 A 
ATOM      8  C7  BZF d   1       0.433  -0.532  -2.596  0.00  0.00     0.029 A 
ATOM      9  C7A BZF d   1       0.130   0.201  -1.475  0.00  0.00     0.058 A 
ENDROOT
TORSDOF 0
ENDMDL
