MODEL 1
REMARK minimizedAffinity -2.51080108
REMARK minimizedRMSD -1
REMARK  0 active torsions:
REMARK  status: ('A' for Active; 'I' for Inactive)
ROOT
ATOM      1  O1  BZF d   1      -1.190  -3.191   0.636  0.00  0.00    -0.204 OA
ATOM      2  C2  BZF d   1      -0.531  -3.998  -0.271  0.00  0.00     0.174 A 
ATOM      3  C3  BZF d   1       0.220  -3.257  -1.112  0.00  0.00    -0.012 A 
ATOM      4  C3A BZF d   1       0.089  -1.910  -0.646  0.00  0.00    -0.107 A 
ATOM      5  C4  BZF d   1       0.611  -0.719  -1.061  0.00  0.00     0.055 A 
ATOM      6  C5  BZF d   1       0.227   0.425  -0.434  0.00  0.00    -0.016 A 
ATOM      7  C6  BZF d   1      -0.681   0.413   0.605  0.00  0.00     0.022 A 
ATOM      8  C7  BZF d   1      -1.222  -0.745   1.054  0.00  0.00     0.029 A 
ATOM      9  C7A BZF d   1      -0.811  -1.905   0.445  0.00  0.00     0.058 A 
ENDROOT
TORSDOF 0
ENDMDL
