MODEL 1
REMARK minimizedAffinity -4.4190464
REMARK minimizedRMSD -1
REMARK  0 active torsions:
REMARK  status: ('A' for Active; 'I' for Inactive)
ROOT
ATOM      1  O1  BZF d   1       0.449   0.143  -1.240  0.00  0.00    -0.204 OA
ATOM      2  C2  BZF d   1      -0.093   1.299  -0.713  0.00  0.00     0.174 A 
ATOM      3  C3  BZF d   1      -0.748   1.039   0.437  0.00  0.00    -0.012 A 
ATOM      4  C3A BZF d   1      -0.529  -0.353   0.689  0.00  0.00    -0.107 A 
ATOM      5  C4  BZF d   1      -0.914  -1.198   1.690  0.00  0.00     0.055 A 
ATOM      6  C5  BZF d   1      -0.595  -2.516   1.601  0.00  0.00    -0.016 A 
ATOM      7  C6  BZF d   1       0.101  -3.023   0.523  0.00  0.00     0.022 A 
ATOM      8  C7  BZF d   1       0.509  -2.223  -0.492  0.00  0.00     0.029 A 
ATOM      9  C7A BZF d   1       0.217  -0.885  -0.388  0.00  0.00     0.058 A 
ENDROOT
TORSDOF 0
ENDMDL
