MODEL 1
REMARK minimizedAffinity -2.36477971
REMARK minimizedRMSD -1
REMARK  0 active torsions:
REMARK  status: ('A' for Active; 'I' for Inactive)
ROOT
ATOM      1  O1  BZF d   1       1.069   0.486  -0.663  0.00  0.00    -0.204 OA
ATOM      2  C2  BZF d   1       0.666   1.626   0.004  0.00  0.00     0.174 A 
ATOM      3  C3  BZF d   1      -0.171   1.319   1.016  0.00  0.00    -0.012 A 
ATOM      4  C3A BZF d   1      -0.226  -0.111   1.037  0.00  0.00    -0.107 A 
ATOM      5  C4  BZF d   1      -0.878  -1.014   1.828  0.00  0.00     0.055 A 
ATOM      6  C5  BZF d   1      -0.779  -2.338   1.538  0.00  0.00    -0.016 A 
ATOM      7  C6  BZF d   1      -0.042  -2.793   0.465  0.00  0.00     0.022 A 
ATOM      8  C7  BZF d   1       0.627  -1.936  -0.345  0.00  0.00     0.029 A 
ATOM      9  C7A BZF d   1       0.555  -0.600  -0.035  0.00  0.00     0.058 A 
ENDROOT
TORSDOF 0
ENDMDL
