MODEL 1
REMARK minimizedAffinity -3.89652634
REMARK minimizedRMSD -1
REMARK  0 active torsions:
REMARK  status: ('A' for Active; 'I' for Inactive)
ROOT
ATOM      1  O1  BZF d   1      -0.163   1.328  -0.566  0.00  0.00    -0.204 OA
ATOM      2  C2  BZF d   1       0.189   0.563  -1.660  0.00  0.00     0.174 A 
ATOM      3  C3  BZF d   1       0.004  -0.749  -1.407  0.00  0.00    -0.012 A 
ATOM      4  C3A BZF d   1      -0.583  -0.801  -0.103  0.00  0.00    -0.107 A 
ATOM      5  C4  BZF d   1      -1.012  -1.824   0.694  0.00  0.00     0.055 A 
ATOM      6  C5  BZF d   1      -1.469  -1.542   1.942  0.00  0.00    -0.016 A 
ATOM      7  C6  BZF d   1      -1.505  -0.251   2.428  0.00  0.00     0.022 A 
ATOM      8  C7  BZF d   1      -1.095   0.797   1.673  0.00  0.00     0.029 A 
ATOM      9  C7A BZF d   1      -0.664   0.519   0.399  0.00  0.00     0.058 A 
ENDROOT
TORSDOF 0
ENDMDL
