MODEL 1
REMARK minimizedAffinity -3.389395
REMARK minimizedRMSD -1
REMARK  0 active torsions:
REMARK  status: ('A' for Active; 'I' for Inactive)
ROOT
ATOM      1  O1  BZF d   1      -0.589  -2.609   1.155  0.00  0.00    -0.204 OA
ATOM      2  C2  BZF d   1       0.298  -3.376   0.425  0.00  0.00     0.174 A 
ATOM      3  C3  BZF d   1       0.911  -2.631  -0.518  0.00  0.00    -0.012 A 
ATOM      4  C3A BZF d   1       0.442  -1.296  -0.307  0.00  0.00    -0.107 A 
ATOM      5  C4  BZF d   1       0.701  -0.102  -0.918  0.00  0.00     0.055 A 
ATOM      6  C5  BZF d   1       0.021   1.005  -0.519  0.00  0.00    -0.016 A 
ATOM      7  C6  BZF d   1      -0.926   0.953   0.483  0.00  0.00     0.022 A 
ATOM      8  C7  BZF d   1      -1.214  -0.207   1.121  0.00  0.00     0.029 A 
ATOM      9  C7A BZF d   1      -0.505  -1.321   0.743  0.00  0.00     0.058 A 
ENDROOT
TORSDOF 0
ENDMDL
