MODEL 1
REMARK minimizedAffinity -4.75596857
REMARK minimizedRMSD -1
REMARK  0 active torsions:
REMARK  status: ('A' for Active; 'I' for Inactive)
ROOT
ATOM      1  O1  BZF d   1       0.647  -1.202  -2.391  0.00  0.00    -0.204 OA
ATOM      2  C2  BZF d   1       0.124   0.008  -2.805  0.00  0.00     0.174 A 
ATOM      3  C3  BZF d   1      -0.569   0.596  -1.808  0.00  0.00    -0.012 A 
ATOM      4  C3A BZF d   1      -0.396  -0.259  -0.674  0.00  0.00    -0.107 A 
ATOM      5  C4  BZF d   1      -0.831  -0.203   0.619  0.00  0.00     0.055 A 
ATOM      6  C5  BZF d   1      -0.547  -1.235   1.457  0.00  0.00    -0.016 A 
ATOM      7  C6  BZF d   1       0.163  -2.339   1.034  0.00  0.00     0.022 A 
ATOM      8  C7  BZF d   1       0.620  -2.438  -0.239  0.00  0.00     0.029 A 
ATOM      9  C7A BZF d   1       0.363  -1.382  -1.078  0.00  0.00     0.058 A 
ENDROOT
TORSDOF 0
ENDMDL
