MODEL 1
REMARK minimizedAffinity -5.64983225
REMARK minimizedRMSD -1
REMARK  0 active torsions:
REMARK  status: ('A' for Active; 'I' for Inactive)
ROOT
ATOM      1  O1  BZF d   1       0.399  -0.098  -1.823  0.00  0.00    -0.204 OA
ATOM      2  C2  BZF d   1       0.252   1.175  -1.308  0.00  0.00     0.174 A 
ATOM      3  C3  BZF d   1      -0.183   1.127  -0.033  0.00  0.00    -0.012 A 
ATOM      4  C3A BZF d   1      -0.228  -0.264   0.298  0.00  0.00    -0.107 A 
ATOM      5  C4  BZF d   1      -0.566  -0.950   1.430  0.00  0.00     0.055 A 
ATOM      6  C5  BZF d   1      -0.573  -2.309   1.401  0.00  0.00    -0.016 A 
ATOM      7  C6  BZF d   1      -0.253  -3.013   0.259  0.00  0.00     0.022 A 
ATOM      8  C7  BZF d   1       0.094  -2.376  -0.886  0.00  0.00     0.029 A 
ATOM      9  C7A BZF d   1       0.134  -1.004  -0.851  0.00  0.00     0.058 A 
ENDROOT
TORSDOF 0
ENDMDL
