MODEL 1
REMARK minimizedAffinity -2.99882817
REMARK minimizedRMSD -1
REMARK  0 active torsions:
REMARK  status: ('A' for Active; 'I' for Inactive)
ROOT
ATOM      1  O1  BZF d   1      -0.597   0.839   1.096  0.00  0.00    -0.204 OA
ATOM      2  C2  BZF d   1       0.218   1.640   0.320  0.00  0.00     0.174 A 
ATOM      3  C3  BZF d   1       0.867   0.907  -0.607  0.00  0.00    -0.012 A 
ATOM      4  C3A BZF d   1       0.360  -0.423  -0.458  0.00  0.00    -0.107 A 
ATOM      5  C4  BZF d   1       0.607  -1.600  -1.105  0.00  0.00     0.055 A 
ATOM      6  C5  BZF d   1      -0.000  -2.734  -0.668  0.00  0.00    -0.016 A 
ATOM      7  C6  BZF d   1      -0.855  -2.728   0.415  0.00  0.00     0.022 A 
ATOM      8  C7  BZF d   1      -1.135  -1.584   1.085  0.00  0.00     0.029 A 
ATOM      9  C7A BZF d   1      -0.548  -0.431   0.625  0.00  0.00     0.058 A 
ENDROOT
TORSDOF 0
ENDMDL
