MODEL 1
REMARK minimizedAffinity -2.64320755
REMARK minimizedRMSD -1
REMARK  0 active torsions:
REMARK  status: ('A' for Active; 'I' for Inactive)
ROOT
ATOM      1  O1  BZF d   1       0.134  -2.131   1.576  0.00  0.00    -0.204 OA
ATOM      2  C2  BZF d   1       0.113  -3.169   0.664  0.00  0.00     0.174 A 
ATOM      3  C3  BZF d   1      -0.033  -2.700  -0.592  0.00  0.00    -0.012 A 
ATOM      4  C3A BZF d   1      -0.015  -1.275  -0.465  0.00  0.00    -0.107 A 
ATOM      5  C4  BZF d   1      -0.104  -0.251  -1.365  0.00  0.00     0.055 A 
ATOM      6  C5  BZF d   1      -0.128   1.029  -0.910  0.00  0.00    -0.016 A 
ATOM      7  C6  BZF d   1      -0.070   1.321   0.437  0.00  0.00     0.022 A 
ATOM      8  C7  BZF d   1       0.023   0.340   1.368  0.00  0.00     0.029 A 
ATOM      9  C7A BZF d   1       0.081  -0.954   0.908  0.00  0.00     0.058 A 
ENDROOT
TORSDOF 0
ENDMDL
