MODEL 1
REMARK minimizedAffinity -2.9766345
REMARK minimizedRMSD -1
REMARK  0 active torsions:
REMARK  status: ('A' for Active; 'I' for Inactive)
ROOT
ATOM      1  O1  BZF d   1       0.417   0.085  -0.996  0.00  0.00    -0.204 OA
ATOM      2  C2  BZF d   1      -0.042   0.595   0.203  0.00  0.00     0.174 A 
ATOM      3  C3  BZF d   1      -0.680  -0.357   0.915  0.00  0.00    -0.012 A 
ATOM      4  C3A BZF d   1      -0.535  -1.558   0.152  0.00  0.00    -0.107 A 
ATOM      5  C4  BZF d   1      -0.940  -2.848   0.345  0.00  0.00     0.055 A 
ATOM      6  C5  BZF d   1      -0.701  -3.768  -0.626  0.00  0.00    -0.016 A 
ATOM      7  C6  BZF d   1      -0.065  -3.432  -1.803  0.00  0.00     0.022 A 
ATOM      8  C7  BZF d   1       0.360  -2.167  -2.038  0.00  0.00     0.029 A 
ATOM      9  C7A BZF d   1       0.149  -1.242  -1.044  0.00  0.00     0.058 A 
ENDROOT
TORSDOF 0
ENDMDL
