MODEL 1
REMARK minimizedAffinity -0.689156055
REMARK minimizedRMSD -1
REMARK  0 active torsions:
REMARK  status: ('A' for Active; 'I' for Inactive)
ROOT
ATOM      1  O1  BZF d   1      -1.304  -2.642   0.947  0.00  0.00    -0.204 OA
ATOM      2  C2  BZF d   1      -0.411  -3.562   0.434  0.00  0.00     0.174 A 
ATOM      3  C3  BZF d   1       0.573  -2.944  -0.250  0.00  0.00    -0.012 A 
ATOM      4  C3A BZF d   1       0.328  -1.545  -0.081  0.00  0.00    -0.107 A 
ATOM      5  C4  BZF d   1       0.972  -0.420  -0.511  0.00  0.00     0.055 A 
ATOM      6  C5  BZF d   1       0.432   0.796  -0.234  0.00  0.00    -0.016 A 
ATOM      7  C6  BZF d   1      -0.750   0.924   0.465  0.00  0.00     0.022 A 
ATOM      8  C7  BZF d   1      -1.423  -0.163   0.916  0.00  0.00     0.029 A 
ATOM      9  C7A BZF d   1      -0.863  -1.392   0.667  0.00  0.00     0.058 A 
ENDROOT
TORSDOF 0
ENDMDL
