MODEL 1
REMARK minimizedAffinity -3.59470391
REMARK minimizedRMSD -1
REMARK  0 active torsions:
REMARK  status: ('A' for Active; 'I' for Inactive)
ROOT
ATOM      1  O1  BZF d   1      -0.489  -2.346   1.256  0.00  0.00    -0.204 OA
ATOM      2  C2  BZF d   1       0.283  -3.351   0.707  0.00  0.00     0.174 A 
ATOM      3  C3  BZF d   1       0.782  -2.973  -0.488  0.00  0.00    -0.012 A 
ATOM      4  C3A BZF d   1       0.365  -1.614  -0.656  0.00  0.00    -0.107 A 
ATOM      5  C4  BZF d   1       0.563  -0.687  -1.639  0.00  0.00     0.055 A 
ATOM      6  C5  BZF d   1      -0.041   0.526  -1.533  0.00  0.00    -0.016 A 
ATOM      7  C6  BZF d   1      -0.851   0.843  -0.462  0.00  0.00     0.022 A 
ATOM      8  C7  BZF d   1      -1.073  -0.043   0.539  0.00  0.00     0.029 A 
ATOM      9  C7A BZF d   1      -0.438  -1.257   0.452  0.00  0.00     0.058 A 
ENDROOT
TORSDOF 0
ENDMDL
