MODEL 1
REMARK minimizedAffinity -3.7385757
REMARK minimizedRMSD -1
REMARK  0 active torsions:
REMARK  status: ('A' for Active; 'I' for Inactive)
ROOT
ATOM      1  O1  BZF d   1       0.522   0.896  -0.798  0.00  0.00    -0.204 OA
ATOM      2  C2  BZF d   1       0.006   1.919  -0.027  0.00  0.00     0.174 A 
ATOM      3  C3  BZF d   1      -0.698   1.427   1.013  0.00  0.00    -0.012 A 
ATOM      4  C3A BZF d   1      -0.540   0.007   0.935  0.00  0.00    -0.107 A 
ATOM      5  C4  BZF d   1      -0.990  -1.031   1.700  0.00  0.00     0.055 A 
ATOM      6  C5  BZF d   1      -0.718  -2.304   1.311  0.00  0.00    -0.016 A 
ATOM      7  C6  BZF d   1      -0.004  -2.576   0.162  0.00  0.00     0.022 A 
ATOM      8  C7  BZF d   1       0.468  -1.580  -0.626  0.00  0.00     0.029 A 
ATOM      9  C7A BZF d   1       0.223  -0.291  -0.218  0.00  0.00     0.058 A 
ENDROOT
TORSDOF 0
ENDMDL
