MODEL 1
REMARK minimizedAffinity -3.29880166
REMARK minimizedRMSD -1
REMARK  0 active torsions:
REMARK  status: ('A' for Active; 'I' for Inactive)
ROOT
ATOM      1  O1  BZF d   1      -0.509  -2.984   1.077  0.00  0.00    -0.204 OA
ATOM      2  C2  BZF d   1       0.526  -3.570   0.374  0.00  0.00     0.174 A 
ATOM      3  C3  BZF d   1       1.173  -2.656  -0.378  0.00  0.00    -0.012 A 
ATOM      4  C3A BZF d   1       0.558  -1.404  -0.059  0.00  0.00    -0.107 A 
ATOM      5  C4  BZF d   1       0.773  -0.120  -0.471  0.00  0.00     0.055 A 
ATOM      6  C5  BZF d   1      -0.050   0.865  -0.023  0.00  0.00    -0.016 A 
ATOM      7  C6  BZF d   1      -1.099   0.601   0.833  0.00  0.00     0.022 A 
ATOM      8  C7  BZF d   1      -1.349  -0.656   1.274  0.00  0.00     0.029 A 
ATOM      9  C7A BZF d   1      -0.499  -1.648   0.849  0.00  0.00     0.058 A 
ENDROOT
TORSDOF 0
ENDMDL
