MODEL 1
REMARK minimizedAffinity -3.65319681
REMARK minimizedRMSD -1
REMARK  0 active torsions:
REMARK  status: ('A' for Active; 'I' for Inactive)
ROOT
ATOM      1  O1  BZF d   1      -0.965   0.857   0.363  0.00  0.00    -0.204 OA
ATOM      2  C2  BZF d   1      -0.018   1.605  -0.310  0.00  0.00     0.174 A 
ATOM      3  C3  BZF d   1       0.978   0.818  -0.765  0.00  0.00    -0.012 A 
ATOM      4  C3A BZF d   1       0.586  -0.517  -0.430  0.00  0.00    -0.107 A 
ATOM      5  C4  BZF d   1       1.155  -1.741  -0.634  0.00  0.00     0.055 A 
ATOM      6  C5  BZF d   1       0.551  -2.844  -0.118  0.00  0.00    -0.016 A 
ATOM      7  C6  BZF d   1      -0.618  -2.759   0.608  0.00  0.00     0.022 A 
ATOM      8  C7  BZF d   1      -1.223  -1.566   0.832  0.00  0.00     0.029 A 
ATOM      9  C7A BZF d   1      -0.632  -0.454   0.285  0.00  0.00     0.058 A 
ENDROOT
TORSDOF 0
ENDMDL
