MODEL 1
REMARK minimizedAffinity -2.53574896
REMARK minimizedRMSD -1
REMARK  0 active torsions:
REMARK  status: ('A' for Active; 'I' for Inactive)
ROOT
ATOM      1  N1  IND d   1       0.973  -1.487  -0.125  0.00  0.00    -0.196 N 
ATOM      2  C2  IND d   1       1.263  -1.174  -1.424  0.00  0.00     0.054 A 
ATOM      3  C3  IND d   1       0.641  -0.028  -1.781  0.00  0.00    -0.031 A 
ATOM      4  C4  IND d   1      -0.818   1.551  -0.366  0.00  0.00     0.051 A 
ATOM      5  C5  IND d   1      -1.396   1.669   0.867  0.00  0.00    -0.031 A 
ATOM      6  C6  IND d   1      -1.207   0.722   1.853  0.00  0.00     0.015 A 
ATOM      7  C7  IND d   1      -0.422  -0.376   1.646  0.00  0.00    -0.016 A 
ATOM      8  C8  IND d   1       0.161  -0.502   0.393  0.00  0.00    -0.047 A 
ATOM      9  C9  IND d   1      -0.061   0.434  -0.626  0.00  0.00    -0.096 A 
ATOM     10  HN1 IND d   1       1.251  -2.183   0.298  0.00  0.00     0.298 HD
ENDROOT
TORSDOF 0
ENDMDL
