MODEL 1
REMARK minimizedAffinity -2.79227853
REMARK minimizedRMSD -1
REMARK  0 active torsions:
REMARK  status: ('A' for Active; 'I' for Inactive)
ROOT
ATOM      1  N1  IND d   1       0.991   0.455  -1.917  0.00  0.00    -0.196 N 
ATOM      2  C2  IND d   1       1.856  -0.600  -1.828  0.00  0.00     0.054 A 
ATOM      3  C3  IND d   1       1.694  -1.243  -0.650  0.00  0.00    -0.031 A 
ATOM      4  C4  IND d   1      -0.001  -0.799   1.236  0.00  0.00     0.051 A 
ATOM      5  C5  IND d   1      -0.974   0.079   1.626  0.00  0.00    -0.031 A 
ATOM      6  C6  IND d   1      -1.351   1.147   0.838  0.00  0.00     0.015 A 
ATOM      7  C7  IND d   1      -0.774   1.371  -0.380  0.00  0.00    -0.016 A 
ATOM      8  C8  IND d   1       0.218   0.486  -0.776  0.00  0.00    -0.047 A 
ATOM      9  C9  IND d   1       0.635  -0.575   0.038  0.00  0.00    -0.096 A 
ATOM     10  HN1 IND d   1       0.938   1.006  -2.574  0.00  0.00     0.298 HD
ENDROOT
TORSDOF 0
ENDMDL
