MODEL 1
REMARK minimizedAffinity -2.71171188
REMARK minimizedRMSD -1
REMARK  0 active torsions:
REMARK  status: ('A' for Active; 'I' for Inactive)
ROOT
ATOM      1  N1  IND d   1      -1.588   0.268   1.949  0.00  0.00    -0.196 N 
ATOM      2  C2  IND d   1      -2.156   1.497   2.143  0.00  0.00     0.054 A 
ATOM      3  C3  IND d   1      -1.785   2.347   1.160  0.00  0.00    -0.031 A 
ATOM      4  C4  IND d   1      -0.334   1.908  -0.921  0.00  0.00     0.051 A 
ATOM      5  C5  IND d   1       0.439   0.948  -1.512  0.00  0.00    -0.031 A 
ATOM      6  C6  IND d   1       0.577  -0.314  -0.970  0.00  0.00     0.015 A 
ATOM      7  C7  IND d   1      -0.066  -0.668   0.183  0.00  0.00    -0.016 A 
ATOM      8  C8  IND d   1      -0.846   0.306   0.789  0.00  0.00    -0.047 A 
ATOM      9  C9  IND d   1      -0.955   1.602   0.267  0.00  0.00    -0.096 A 
ATOM     10  HN1 IND d   1      -1.679  -0.413   2.466  0.00  0.00     0.298 HD
ENDROOT
TORSDOF 0
ENDMDL
