MODEL 1
REMARK minimizedAffinity -4.90566301
REMARK minimizedRMSD -1
REMARK  0 active torsions:
REMARK  status: ('A' for Active; 'I' for Inactive)
ROOT
ATOM      1  N1  IND d   1       0.345  -1.186   0.156  0.00  0.00    -0.196 N 
ATOM      2  C2  IND d   1       0.388  -0.979  -1.195  0.00  0.00     0.054 A 
ATOM      3  C3  IND d   1      -0.410   0.057  -1.538  0.00  0.00    -0.031 A 
ATOM      4  C4  IND d   1      -1.799   1.618  -0.035  0.00  0.00     0.051 A 
ATOM      5  C5  IND d   1      -2.184   1.802   1.264  0.00  0.00    -0.031 A 
ATOM      6  C6  IND d   1      -1.735   0.984   2.280  0.00  0.00     0.015 A 
ATOM      7  C7  IND d   1      -0.870  -0.046   2.036  0.00  0.00    -0.016 A 
ATOM      8  C8  IND d   1      -0.483  -0.239   0.718  0.00  0.00    -0.047 A 
ATOM      9  C9  IND d   1      -0.969   0.561  -0.324  0.00  0.00    -0.096 A 
ATOM     10  HN1 IND d   1       0.765  -1.804   0.582  0.00  0.00     0.298 HD
ENDROOT
TORSDOF 0
ENDMDL
