MODEL 1
REMARK minimizedAffinity -5.07803583
REMARK minimizedRMSD -1
REMARK  0 active torsions:
REMARK  status: ('A' for Active; 'I' for Inactive)
ROOT
ATOM      1  N1  IND d   1       1.135   1.300  -1.354  0.00  0.00    -0.196 N 
ATOM      2  C2  IND d   1       1.651   0.035  -1.314  0.00  0.00     0.054 A 
ATOM      3  C3  IND d   1       1.027  -0.698  -0.365  0.00  0.00    -0.031 A 
ATOM      4  C4  IND d   1      -0.937  -0.055   1.170  0.00  0.00     0.051 A 
ATOM      5  C5  IND d   1      -1.724   1.004   1.526  0.00  0.00    -0.031 A 
ATOM      6  C6  IND d   1      -1.598   2.241   0.926  0.00  0.00     0.015 A 
ATOM      7  C7  IND d   1      -0.683   2.461  -0.065  0.00  0.00    -0.016 A 
ATOM      8  C8  IND d   1       0.123   1.390  -0.424  0.00  0.00    -0.047 A 
ATOM      9  C9  IND d   1       0.028   0.145   0.211  0.00  0.00    -0.096 A 
ATOM     10  HN1 IND d   1       1.398   1.933  -1.873  0.00  0.00     0.298 HD
ENDROOT
TORSDOF 0
ENDMDL
