MODEL 1
REMARK minimizedAffinity -2.88710666
REMARK minimizedRMSD -1
REMARK  0 active torsions:
REMARK  status: ('A' for Active; 'I' for Inactive)
ROOT
ATOM      1  N1  IND d   1       0.852  -0.129   1.030  0.00  0.00    -0.196 N 
ATOM      2  C2  IND d   1       0.921  -0.692  -0.214  0.00  0.00     0.054 A 
ATOM      3  C3  IND d   1      -0.201  -0.419  -0.917  0.00  0.00    -0.031 A 
ATOM      4  C4  IND d   1      -2.234   1.019  -0.260  0.00  0.00     0.051 A 
ATOM      5  C5  IND d   1      -2.769   1.710   0.790  0.00  0.00    -0.031 A 
ATOM      6  C6  IND d   1      -2.111   1.829   1.997  0.00  0.00     0.015 A 
ATOM      7  C7  IND d   1      -0.882   1.268   2.196  0.00  0.00    -0.016 A 
ATOM      8  C8  IND d   1      -0.338   0.558   1.134  0.00  0.00    -0.047 A 
ATOM      9  C9  IND d   1      -1.020   0.398  -0.079  0.00  0.00    -0.096 A 
ATOM     10  HN1 IND d   1       1.450  -0.193   1.643  0.00  0.00     0.298 HD
ENDROOT
TORSDOF 0
ENDMDL
