MODEL 1
REMARK minimizedAffinity 0.605470538
REMARK minimizedRMSD -1
REMARK  0 active torsions:
REMARK  status: ('A' for Active; 'I' for Inactive)
ROOT
ATOM      1  N1  IND d   1       0.710   0.326  -1.374  0.00  0.00    -0.196 N 
ATOM      2  C2  IND d   1       1.347  -0.862  -1.148  0.00  0.00     0.054 A 
ATOM      3  C3  IND d   1       1.122  -1.283   0.117  0.00  0.00    -0.031 A 
ATOM      4  C4  IND d   1      -0.343  -0.232   1.954  0.00  0.00     0.051 A 
ATOM      5  C5  IND d   1      -1.095   0.876   2.230  0.00  0.00    -0.031 A 
ATOM      6  C6  IND d   1      -1.289   1.875   1.299  0.00  0.00     0.015 A 
ATOM      7  C7  IND d   1      -0.746   1.799   0.048  0.00  0.00    -0.016 A 
ATOM      8  C8  IND d   1       0.024   0.679  -0.234  0.00  0.00    -0.047 A 
ATOM      9  C9  IND d   1       0.260  -0.318   0.721  0.00  0.00    -0.096 A 
ATOM     10  HN1 IND d   1       0.735   0.777  -2.106  0.00  0.00     0.298 HD
ENDROOT
TORSDOF 0
ENDMDL
