MODEL 1
REMARK minimizedAffinity -4.02269936
REMARK minimizedRMSD -1
REMARK  0 active torsions:
REMARK  status: ('A' for Active; 'I' for Inactive)
ROOT
ATOM      1  N1  IND d   1       0.953   0.230   1.339  0.00  0.00    -0.196 N 
ATOM      2  C2  IND d   1       1.441  -0.145   0.119  0.00  0.00     0.054 A 
ATOM      3  C3  IND d   1       0.539   0.123  -0.852  0.00  0.00    -0.031 A 
ATOM      4  C4  IND d   1      -1.760   1.268  -0.677  0.00  0.00     0.051 A 
ATOM      5  C5  IND d   1      -2.654   1.756   0.235  0.00  0.00    -0.031 A 
ATOM      6  C6  IND d   1      -2.385   1.763   1.588  0.00  0.00     0.015 A 
ATOM      7  C7  IND d   1      -1.201   1.290   2.082  0.00  0.00    -0.016 A 
ATOM      8  C8  IND d   1      -0.294   0.788   1.160  0.00  0.00    -0.047 A 
ATOM      9  C9  IND d   1      -0.579   0.739  -0.211  0.00  0.00    -0.096 A 
ATOM     10  HN1 IND d   1       1.356   0.134   2.092  0.00  0.00     0.298 HD
ENDROOT
TORSDOF 0
ENDMDL
