MODEL 1
REMARK minimizedAffinity -4.27688742
REMARK minimizedRMSD -1
REMARK  0 active torsions:
REMARK  status: ('A' for Active; 'I' for Inactive)
ROOT
ATOM      1  N1  IND d   1      -1.449   2.558   0.271  0.00  0.00    -0.196 N 
ATOM      2  C2  IND d   1      -2.074   2.483   1.484  0.00  0.00     0.054 A 
ATOM      3  C3  IND d   1      -1.725   1.343   2.123  0.00  0.00    -0.031 A 
ATOM      4  C4  IND d   1      -0.067  -0.491   1.408  0.00  0.00     0.051 A 
ATOM      5  C5  IND d   1       0.723  -0.881   0.363  0.00  0.00    -0.031 A 
ATOM      6  C6  IND d   1       0.833  -0.128  -0.788  0.00  0.00     0.015 A 
ATOM      7  C7  IND d   1       0.164   1.054  -0.933  0.00  0.00    -0.016 A 
ATOM      8  C8  IND d   1      -0.644   1.450   0.123  0.00  0.00    -0.047 A 
ATOM      9  C9  IND d   1      -0.793   0.669   1.276  0.00  0.00    -0.096 A 
ATOM     10  HN1 IND d   1      -1.543   3.191  -0.303  0.00  0.00     0.298 HD
ENDROOT
TORSDOF 0
ENDMDL
