MODEL 1
REMARK minimizedAffinity -3.95921993
REMARK minimizedRMSD -1
REMARK  0 active torsions:
REMARK  status: ('A' for Active; 'I' for Inactive)
ROOT
ATOM      1  N1  IND d   1       0.268  -0.342  -1.394  0.00  0.00    -0.196 N 
ATOM      2  C2  IND d   1       0.753  -1.474  -0.801  0.00  0.00     0.054 A 
ATOM      3  C3  IND d   1       0.434  -1.490   0.513  0.00  0.00    -0.031 A 
ATOM      4  C4  IND d   1      -0.964   0.187   1.877  0.00  0.00     0.051 A 
ATOM      5  C5  IND d   1      -1.591   1.397   1.779  0.00  0.00    -0.031 A 
ATOM      6  C6  IND d   1      -1.633   2.103   0.594  0.00  0.00     0.015 A 
ATOM      7  C7  IND d   1      -1.057   1.617  -0.545  0.00  0.00    -0.016 A 
ATOM      8  C8  IND d   1      -0.414   0.391  -0.448  0.00  0.00    -0.047 A 
ATOM      9  C9  IND d   1      -0.331  -0.310   0.762  0.00  0.00    -0.096 A 
ATOM     10  HN1 IND d   1       0.372  -0.124  -2.220  0.00  0.00     0.298 HD
ENDROOT
TORSDOF 0
ENDMDL
