MODEL 1
REMARK minimizedAffinity -4.29046011
REMARK minimizedRMSD -1
REMARK  0 active torsions:
REMARK  status: ('A' for Active; 'I' for Inactive)
ROOT
ATOM      1  N1  IND d   1      -0.546  -0.222  -1.449  0.00  0.00    -0.196 N 
ATOM      2  C2  IND d   1       0.537  -1.038  -1.274  0.00  0.00     0.054 A 
ATOM      3  C3  IND d   1       0.979  -0.964   0.002  0.00  0.00    -0.031 A 
ATOM      4  C4  IND d   1       0.016   0.352   1.993  0.00  0.00     0.051 A 
ATOM      5  C5  IND d   1      -0.946   1.268   2.315  0.00  0.00    -0.031 A 
ATOM      6  C6  IND d   1      -1.844   1.742   1.380  0.00  0.00     0.015 A 
ATOM      7  C7  IND d   1      -1.820   1.306   0.085  0.00  0.00    -0.016 A 
ATOM      8  C8  IND d   1      -0.840   0.382  -0.247  0.00  0.00    -0.047 A 
ATOM      9  C9  IND d   1       0.101  -0.071   0.688  0.00  0.00    -0.096 A 
ATOM     10  HN1 IND d   1      -0.972  -0.106  -2.187  0.00  0.00     0.298 HD
ENDROOT
TORSDOF 0
ENDMDL
