MODEL 1
REMARK minimizedAffinity -1.98040974
REMARK minimizedRMSD -1
REMARK  0 active torsions:
REMARK  status: ('A' for Active; 'I' for Inactive)
ROOT
ATOM      1  N1  IND d   1      -2.161   1.588   0.047  0.00  0.00    -0.196 N 
ATOM      2  C2  IND d   1      -2.241   2.014   1.343  0.00  0.00     0.054 A 
ATOM      3  C3  IND d   1      -1.259   1.453   2.084  0.00  0.00    -0.031 A 
ATOM      4  C4  IND d   1       0.649  -0.114   1.354  0.00  0.00     0.051 A 
ATOM      5  C5  IND d   1       1.116  -0.812   0.276  0.00  0.00    -0.031 A 
ATOM      6  C6  IND d   1       0.504  -0.742  -0.959  0.00  0.00     0.015 A 
ATOM      7  C7  IND d   1      -0.596   0.041  -1.166  0.00  0.00    -0.016 A 
ATOM      8  C8  IND d   1      -1.078   0.745  -0.072  0.00  0.00    -0.047 A 
ATOM      9  C9  IND d   1      -0.486   0.645   1.194  0.00  0.00    -0.096 A 
ATOM     10  HN1 IND d   1      -2.698   1.808  -0.587  0.00  0.00     0.298 HD
ENDROOT
TORSDOF 0
ENDMDL
