MODEL 1
REMARK minimizedAffinity -3.053442
REMARK minimizedRMSD -1
REMARK  0 active torsions:
REMARK  status: ('A' for Active; 'I' for Inactive)
ROOT
ATOM      1  N1  IND d   1       0.780  -0.684   0.866  0.00  0.00    -0.196 N 
ATOM      2  C2  IND d   1       0.951  -0.724  -0.490  0.00  0.00     0.054 A 
ATOM      3  C3  IND d   1       0.073   0.103  -1.099  0.00  0.00    -0.031 A 
ATOM      4  C4  IND d   1      -1.667   1.692  -0.063  0.00  0.00     0.051 A 
ATOM      5  C5  IND d   1      -2.219   2.052   1.134  0.00  0.00    -0.031 A 
ATOM      6  C6  IND d   1      -1.789   1.509   2.328  0.00  0.00     0.015 A 
ATOM      7  C7  IND d   1      -0.779   0.590   2.370  0.00  0.00    -0.016 A 
ATOM      8  C8  IND d   1      -0.221   0.218   1.155  0.00  0.00    -0.047 A 
ATOM      9  C9  IND d   1      -0.682   0.733  -0.063  0.00  0.00    -0.096 A 
ATOM     10  HN1 IND d   1       1.222  -1.145   1.442  0.00  0.00     0.298 HD
ENDROOT
TORSDOF 0
ENDMDL
