MODEL 1
REMARK minimizedAffinity -3.55618405
REMARK minimizedRMSD -1
REMARK  0 active torsions:
REMARK  status: ('A' for Active; 'I' for Inactive)
ROOT
ATOM      1  N1  IND d   1       0.588  -0.420  -1.407  0.00  0.00    -0.196 N 
ATOM      2  C2  IND d   1       1.080  -1.484  -0.704  0.00  0.00     0.054 A 
ATOM      3  C3  IND d   1       0.666  -1.429   0.582  0.00  0.00    -0.031 A 
ATOM      4  C4  IND d   1      -0.905   0.261   1.724  0.00  0.00     0.051 A 
ATOM      5  C5  IND d   1      -1.578   1.429   1.498  0.00  0.00    -0.031 A 
ATOM      6  C6  IND d   1      -1.565   2.051   0.267  0.00  0.00     0.015 A 
ATOM      7  C7  IND d   1      -0.885   1.521  -0.793  0.00  0.00    -0.016 A 
ATOM      8  C8  IND d   1      -0.195   0.339  -0.565  0.00  0.00    -0.047 A 
ATOM      9  C9  IND d   1      -0.169  -0.275   0.694  0.00  0.00    -0.096 A 
ATOM     10  HN1 IND d   1       0.743  -0.252  -2.237  0.00  0.00     0.298 HD
ENDROOT
TORSDOF 0
ENDMDL
