MODEL 1
REMARK minimizedAffinity -0.39080295
REMARK minimizedRMSD -1
REMARK  1 active torsions:
REMARK  status: ('A' for Active; 'I' for Inactive)
REMARK    1  A    between atoms: C3_4  and  O_7 
ROOT
ATOM      1  C   UNL d   1      -2.644  -3.956  -4.671  0.00  0.00    -0.033 A 
ATOM      2  C1  UNL d   1      -3.648  -3.260  -5.346  0.00  0.00     0.039 A 
ATOM      3  C2  UNL d   1      -4.787  -3.932  -5.794  0.00  0.00    -0.080 A 
ATOM      4  C3  UNL d   1      -4.909  -5.299  -5.560  0.00  0.00     0.150 A 
ATOM      5  C4  UNL d   1      -3.915  -5.999  -4.885  0.00  0.00    -0.007 A 
ATOM      6  C5  UNL d   1      -2.778  -5.326  -4.439  0.00  0.00     0.039 A 
ENDROOT
BRANCH   4   7
ATOM      7  O   UNL d   1      -6.000  -5.999  -5.983  0.00  0.00    -0.526 OA
ATOM      8  H5  UNL d   1      -6.590  -5.392  -6.460  0.00  0.00     0.418 HD
ENDBRANCH   4   7
TORSDOF 1
ENDMDL
