MODEL 1
REMARK minimizedAffinity 11.7721214
REMARK minimizedRMSD -1
REMARK  1 active torsions:
REMARK  status: ('A' for Active; 'I' for Inactive)
REMARK    1  A    between atoms: C3_4  and  O_7 
ROOT
ATOM      1  C   UNL d   1       1.917  -3.093   4.643  0.00  0.00    -0.033 A 
ATOM      2  C1  UNL d   1       0.904  -2.680   5.510  0.00  0.00     0.039 A 
ATOM      3  C2  UNL d   1       0.252  -1.464   5.295  0.00  0.00    -0.080 A 
ATOM      4  C3  UNL d   1       0.621  -0.673   4.211  0.00  0.00     0.150 A 
ATOM      5  C4  UNL d   1       1.627  -1.080   3.341  0.00  0.00    -0.007 A 
ATOM      6  C5  UNL d   1       2.278  -2.294   3.557  0.00  0.00     0.039 A 
ENDROOT
BRANCH   4   7
ATOM      7  O   UNL d   1       0.016   0.524   3.964  0.00  0.00    -0.526 OA
ATOM      8  H5  UNL d   1      -0.638   0.688   4.663  0.00  0.00     0.418 HD
ENDBRANCH   4   7
TORSDOF 1
ENDMDL
