MODEL 1
REMARK minimizedAffinity 10.9805708
REMARK minimizedRMSD -1
REMARK  1 active torsions:
REMARK  status: ('A' for Active; 'I' for Inactive)
REMARK    1  A    between atoms: C3_4  and  O_7 
ROOT
ATOM      1  C   UNL d   1      -3.624   3.988  -3.287  0.00  0.00    -0.033 A 
ATOM      2  C1  UNL d   1      -2.920   3.906  -4.491  0.00  0.00     0.039 A 
ATOM      3  C2  UNL d   1      -3.177   2.862  -5.382  0.00  0.00    -0.080 A 
ATOM      4  C3  UNL d   1      -4.138   1.908  -5.059  0.00  0.00     0.150 A 
ATOM      5  C4  UNL d   1      -4.845   1.986  -3.864  0.00  0.00    -0.007 A 
ATOM      6  C5  UNL d   1      -4.587   3.028  -2.974  0.00  0.00     0.039 A 
ENDROOT
BRANCH   4   7
ATOM      7  O   UNL d   1      -4.419   0.869  -5.895  0.00  0.00    -0.526 OA
ATOM      8  H5  UNL d   1      -3.834   0.929  -6.668  0.00  0.00     0.418 HD
ENDBRANCH   4   7
TORSDOF 1
ENDMDL
