MODEL 1
REMARK minimizedAffinity 7.29470348
REMARK minimizedRMSD -1
REMARK  1 active torsions:
REMARK  status: ('A' for Active; 'I' for Inactive)
REMARK    1  A    between atoms: C3_4  and  O_7 
ROOT
ATOM      1  C   UNL d   1      -3.777   3.754  -3.777  0.00  0.00    -0.033 A 
ATOM      2  C1  UNL d   1      -4.889   3.007  -3.382  0.00  0.00     0.039 A 
ATOM      3  C2  UNL d   1      -5.276   1.886  -4.119  0.00  0.00    -0.080 A 
ATOM      4  C3  UNL d   1      -4.545   1.523  -5.246  0.00  0.00     0.150 A 
ATOM      5  C4  UNL d   1      -3.434   2.260  -5.643  0.00  0.00    -0.007 A 
ATOM      6  C5  UNL d   1      -3.049   3.380  -4.907  0.00  0.00     0.039 A 
ENDROOT
BRANCH   4   7
ATOM      7  O   UNL d   1      -4.887   0.439  -6.000  0.00  0.00    -0.526 OA
ATOM      8  H5  UNL d   1      -5.691   0.044  -5.623  0.00  0.00     0.418 HD
ENDBRANCH   4   7
TORSDOF 1
ENDMDL
