MODEL 1
REMARK minimizedAffinity 8.30326462
REMARK minimizedRMSD -1
REMARK  1 active torsions:
REMARK  status: ('A' for Active; 'I' for Inactive)
REMARK    1  A    between atoms: C3_4  and  O_7 
ROOT
ATOM      1  C   UNL d   1       3.258  -1.673   0.470  0.00  0.00    -0.033 A 
ATOM      2  C1  UNL d   1       2.704  -1.201  -0.722  0.00  0.00     0.039 A 
ATOM      3  C2  UNL d   1       1.669  -1.906  -1.339  0.00  0.00    -0.080 A 
ATOM      4  C3  UNL d   1       1.198  -3.079  -0.756  0.00  0.00     0.150 A 
ATOM      5  C4  UNL d   1       1.742  -3.552   0.434  0.00  0.00    -0.007 A 
ATOM      6  C5  UNL d   1       2.776  -2.847   1.048  0.00  0.00     0.039 A 
ENDROOT
BRANCH   4   7
ATOM      7  O   UNL d   1       0.193  -3.804  -1.324  0.00  0.00    -0.526 OA
ATOM      8  H5  UNL d   1      -0.066  -3.372  -2.155  0.00  0.00     0.418 HD
ENDBRANCH   4   7
TORSDOF 1
ENDMDL
