MODEL 1
REMARK minimizedAffinity 8.25804996
REMARK minimizedRMSD -1
REMARK  1 active torsions:
REMARK  status: ('A' for Active; 'I' for Inactive)
REMARK    1  A    between atoms: C3_4  and  O_7 
ROOT
ATOM      1  C   UNL d   1       5.956  -3.898   0.353  0.00  0.00    -0.033 A 
ATOM      2  C1  UNL d   1       5.988  -3.160  -0.832  0.00  0.00     0.039 A 
ATOM      3  C2  UNL d   1       6.000  -3.815  -2.065  0.00  0.00    -0.080 A 
ATOM      4  C3  UNL d   1       5.977  -5.207  -2.099  0.00  0.00     0.150 A 
ATOM      5  C4  UNL d   1       5.941  -5.948  -0.923  0.00  0.00    -0.007 A 
ATOM      6  C5  UNL d   1       5.931  -5.292   0.307  0.00  0.00     0.039 A 
ENDROOT
BRANCH   4   7
ATOM      7  O   UNL d   1       5.992  -5.890  -3.279  0.00  0.00    -0.526 OA
ATOM      8  H5  UNL d   1       6.047  -5.248  -4.006  0.00  0.00     0.418 HD
ENDBRANCH   4   7
TORSDOF 1
ENDMDL
