MODEL 1
REMARK minimizedAffinity 12.9793558
REMARK minimizedRMSD -1
REMARK  1 active torsions:
REMARK  status: ('A' for Active; 'I' for Inactive)
REMARK    1  A    between atoms: C3_4  and  O_7 
ROOT
ATOM      1  C   UNL d   1       1.269  -5.786  -1.072  0.00  0.00    -0.033 A 
ATOM      2  C1  UNL d   1       0.418  -4.682  -0.988  0.00  0.00     0.039 A 
ATOM      3  C2  UNL d   1       0.928  -3.432  -0.631  0.00  0.00    -0.080 A 
ATOM      4  C3  UNL d   1       2.287  -3.299  -0.362  0.00  0.00     0.150 A 
ATOM      5  C4  UNL d   1       3.141  -4.394  -0.448  0.00  0.00    -0.007 A 
ATOM      6  C5  UNL d   1       2.630  -5.642  -0.804  0.00  0.00     0.039 A 
ENDROOT
BRANCH   4   7
ATOM      7  O   UNL d   1       2.829  -2.101  -0.005  0.00  0.00    -0.526 OA
ATOM      8  H5  UNL d   1       2.116  -1.442   0.042  0.00  0.00     0.418 HD
ENDBRANCH   4   7
TORSDOF 1
ENDMDL
