MODEL 1
REMARK minimizedAffinity 1.78338206
REMARK minimizedRMSD -1
REMARK  1 active torsions:
REMARK  status: ('A' for Active; 'I' for Inactive)
REMARK    1  A    between atoms: C3_4  and  O_7 
ROOT
ATOM      1  C   UNL d   1       1.726  -1.521  -1.427  0.00  0.00    -0.033 A 
ATOM      2  C1  UNL d   1       1.318  -2.724  -0.846  0.00  0.00     0.039 A 
ATOM      3  C2  UNL d   1       1.654  -3.011   0.478  0.00  0.00    -0.080 A 
ATOM      4  C3  UNL d   1       2.398  -2.088   1.210  0.00  0.00     0.150 A 
ATOM      5  C4  UNL d   1       2.804  -0.887   0.638  0.00  0.00    -0.007 A 
ATOM      6  C5  UNL d   1       2.468  -0.603  -0.684  0.00  0.00     0.039 A 
ENDROOT
BRANCH   4   7
ATOM      7  O   UNL d   1       2.754  -2.327   2.504  0.00  0.00    -0.526 OA
ATOM      8  H5  UNL d   1       2.429  -3.207   2.756  0.00  0.00     0.418 HD
ENDBRANCH   4   7
TORSDOF 1
ENDMDL
