MODEL 1
REMARK minimizedAffinity -1.67651391
REMARK minimizedRMSD -1
REMARK  1 active torsions:
REMARK  status: ('A' for Active; 'I' for Inactive)
REMARK    1  A    between atoms: C3_4  and  O_7 
ROOT
ATOM      1  C   UNL d   1       2.198  -2.290  -0.114  0.00  0.00    -0.033 A 
ATOM      2  C1  UNL d   1       1.136  -1.667  -0.772  0.00  0.00     0.039 A 
ATOM      3  C2  UNL d   1       0.991  -0.280  -0.709  0.00  0.00    -0.080 A 
ATOM      4  C3  UNL d   1       1.913   0.472   0.013  0.00  0.00     0.150 A 
ATOM      5  C4  UNL d   1       2.976  -0.142   0.668  0.00  0.00    -0.007 A 
ATOM      6  C5  UNL d   1       3.119  -1.527   0.605  0.00  0.00     0.039 A 
ENDROOT
BRANCH   4   7
ATOM      7  O   UNL d   1       1.810   1.828   0.107  0.00  0.00    -0.526 OA
ATOM      8  H5  UNL d   1       1.012   2.110  -0.371  0.00  0.00     0.418 HD
ENDBRANCH   4   7
TORSDOF 1
ENDMDL
