MODEL 1
REMARK minimizedAffinity 1.82254136
REMARK minimizedRMSD -1
REMARK  1 active torsions:
REMARK  status: ('A' for Active; 'I' for Inactive)
REMARK    1  A    between atoms: C3_4  and  O_7 
ROOT
ATOM      1  C   UNL d   1      -6.000   1.859  -0.770  0.00  0.00    -0.033 A 
ATOM      2  C1  UNL d   1      -5.174   0.785  -0.430  0.00  0.00     0.039 A 
ATOM      3  C2  UNL d   1      -4.073   0.469  -1.229  0.00  0.00    -0.080 A 
ATOM      4  C3  UNL d   1      -3.810   1.233  -2.363  0.00  0.00     0.150 A 
ATOM      5  C4  UNL d   1      -4.626   2.306  -2.705  0.00  0.00    -0.007 A 
ATOM      6  C5  UNL d   1      -5.725   2.620  -1.906  0.00  0.00     0.039 A 
ENDROOT
BRANCH   4   7
ATOM      7  O   UNL d   1      -2.750   0.959  -3.175  0.00  0.00    -0.526 OA
ATOM      8  H5  UNL d   1      -2.292   0.174  -2.831  0.00  0.00     0.418 HD
ENDBRANCH   4   7
TORSDOF 1
ENDMDL
