MODEL 1
REMARK minimizedAffinity -2.16763544
REMARK minimizedRMSD -1
REMARK  1 active torsions:
REMARK  status: ('A' for Active; 'I' for Inactive)
REMARK    1  A    between atoms: C3_4  and  O_7 
ROOT
ATOM      1  C   UNL d   1       1.848   0.601  -0.043  0.00  0.00    -0.033 A 
ATOM      2  C1  UNL d   1       2.664  -0.212   0.745  0.00  0.00     0.039 A 
ATOM      3  C2  UNL d   1       2.548  -1.601   0.671  0.00  0.00    -0.080 A 
ATOM      4  C3  UNL d   1       1.614  -2.164  -0.194  0.00  0.00     0.150 A 
ATOM      5  C4  UNL d   1       0.801  -1.360  -0.986  0.00  0.00    -0.007 A 
ATOM      6  C5  UNL d   1       0.917   0.027  -0.910  0.00  0.00     0.039 A 
ENDROOT
BRANCH   4   7
ATOM      7  O   UNL d   1       1.462  -3.515  -0.297  0.00  0.00    -0.526 OA
ATOM      8  H5  UNL d   1       2.070  -3.942   0.329  0.00  0.00     0.418 HD
ENDBRANCH   4   7
TORSDOF 1
ENDMDL
