MODEL 1
REMARK minimizedAffinity 0.25451231
REMARK minimizedRMSD -1
REMARK  1 active torsions:
REMARK  status: ('A' for Active; 'I' for Inactive)
REMARK    1  A    between atoms: C3_4  and  O_7 
ROOT
ATOM      1  C   UNL d   1       0.205   0.274  -1.359  0.00  0.00    -0.033 A 
ATOM      2  C1  UNL d   1       1.255   0.614  -0.503  0.00  0.00     0.039 A 
ATOM      3  C2  UNL d   1       0.985   1.050   0.795  0.00  0.00    -0.080 A 
ATOM      4  C3  UNL d   1      -0.336   1.140   1.225  0.00  0.00     0.150 A 
ATOM      5  C4  UNL d   1      -1.386   0.799   0.379  0.00  0.00    -0.007 A 
ATOM      6  C5  UNL d   1      -1.115   0.365  -0.918  0.00  0.00     0.039 A 
ENDROOT
BRANCH   4   7
ATOM      7  O   UNL d   1      -0.649   1.565   2.482  0.00  0.00    -0.526 OA
ATOM      8  H5  UNL d   1       0.175   1.793   2.944  0.00  0.00     0.418 HD
ENDBRANCH   4   7
TORSDOF 1
ENDMDL
