MODEL 1
REMARK minimizedAffinity 5.42662001
REMARK minimizedRMSD -1
REMARK  1 active torsions:
REMARK  status: ('A' for Active; 'I' for Inactive)
REMARK    1  A    between atoms: C3_4  and  O_7 
ROOT
ATOM      1  C   UNL d   1      -0.363   1.143   3.399  0.00  0.00    -0.033 A 
ATOM      2  C1  UNL d   1      -0.960   2.147   2.634  0.00  0.00     0.039 A 
ATOM      3  C2  UNL d   1      -0.339   2.601   1.468  0.00  0.00    -0.080 A 
ATOM      4  C3  UNL d   1       0.875   2.043   1.079  0.00  0.00     0.150 A 
ATOM      5  C4  UNL d   1       1.473   1.040   1.834  0.00  0.00    -0.007 A 
ATOM      6  C5  UNL d   1       0.853   0.588   2.998  0.00  0.00     0.039 A 
ENDROOT
BRANCH   4   7
ATOM      7  O   UNL d   1       1.521   2.457  -0.048  0.00  0.00    -0.526 OA
ATOM      8  H5  UNL d   1       1.005   3.174  -0.452  0.00  0.00     0.418 HD
ENDBRANCH   4   7
TORSDOF 1
ENDMDL
