MODEL 1
REMARK minimizedAffinity 12.5967436
REMARK minimizedRMSD -1
REMARK  1 active torsions:
REMARK  status: ('A' for Active; 'I' for Inactive)
REMARK    1  A    between atoms: C3_4  and  O_7 
ROOT
ATOM      1  C   UNL d   1       3.440  -0.168   0.127  0.00  0.00    -0.033 A 
ATOM      2  C1  UNL d   1       3.542   1.209   0.332  0.00  0.00     0.039 A 
ATOM      3  C2  UNL d   1       2.390   1.996   0.385  0.00  0.00    -0.080 A 
ATOM      4  C3  UNL d   1       1.144   1.395   0.232  0.00  0.00     0.150 A 
ATOM      5  C4  UNL d   1       1.035   0.023   0.031  0.00  0.00    -0.007 A 
ATOM      6  C5  UNL d   1       2.186  -0.761  -0.022  0.00  0.00     0.039 A 
ENDROOT
BRANCH   4   7
ATOM      7  O   UNL d   1      -0.009   2.122   0.271  0.00  0.00    -0.526 OA
ATOM      8  H5  UNL d   1       0.223   3.059   0.388  0.00  0.00     0.418 HD
ENDBRANCH   4   7
TORSDOF 1
ENDMDL
