MODEL 1
REMARK minimizedAffinity 5.09533834
REMARK minimizedRMSD -1
REMARK  1 active torsions:
REMARK  status: ('A' for Active; 'I' for Inactive)
REMARK    1  A    between atoms: C3_4  and  O_7 
ROOT
ATOM      1  C   UNL d   1       1.130  -3.022   0.098  0.00  0.00    -0.033 A 
ATOM      2  C1  UNL d   1       2.099  -2.915   1.098  0.00  0.00     0.039 A 
ATOM      3  C2  UNL d   1       2.872  -1.757   1.203  0.00  0.00    -0.080 A 
ATOM      4  C3  UNL d   1       2.665  -0.714   0.304  0.00  0.00     0.150 A 
ATOM      5  C4  UNL d   1       1.699  -0.812  -0.692  0.00  0.00    -0.007 A 
ATOM      6  C5  UNL d   1       0.929  -1.969  -0.796  0.00  0.00     0.039 A 
ENDROOT
BRANCH   4   7
ATOM      7  O   UNL d   1       3.398   0.434   0.364  0.00  0.00    -0.526 OA
ATOM      8  H5  UNL d   1       4.046   0.348   1.083  0.00  0.00     0.418 HD
ENDBRANCH   4   7
TORSDOF 1
ENDMDL
