MODEL 1
REMARK minimizedAffinity 2.45409393
REMARK minimizedRMSD -1
REMARK  1 active torsions:
REMARK  status: ('A' for Active; 'I' for Inactive)
REMARK    1  A    between atoms: C3_4  and  O_7 
ROOT
ATOM      1  C   UNL d   1      -5.626   2.628  -1.354  0.00  0.00    -0.033 A 
ATOM      2  C1  UNL d   1      -4.929   1.443  -1.599  0.00  0.00     0.039 A 
ATOM      3  C2  UNL d   1      -4.608   1.079  -2.908  0.00  0.00    -0.080 A 
ATOM      4  C3  UNL d   1      -4.987   1.907  -3.961  0.00  0.00     0.150 A 
ATOM      5  C4  UNL d   1      -5.678   3.090  -3.724  0.00  0.00    -0.007 A 
ATOM      6  C5  UNL d   1      -5.999   3.452  -2.416  0.00  0.00     0.039 A 
ENDROOT
BRANCH   4   7
ATOM      7  O   UNL d   1      -4.700   1.591  -5.256  0.00  0.00    -0.526 OA
ATOM      8  H5  UNL d   1      -4.245   0.732  -5.269  0.00  0.00     0.418 HD
ENDBRANCH   4   7
TORSDOF 1
ENDMDL
