MODEL 1
REMARK minimizedAffinity 8.17045689
REMARK minimizedRMSD -1
REMARK  1 active torsions:
REMARK  status: ('A' for Active; 'I' for Inactive)
REMARK    1  A    between atoms: C3_4  and  O_7 
ROOT
ATOM      1  C   UNL d   1       2.877  -1.946  -0.740  0.00  0.00    -0.033 A 
ATOM      2  C1  UNL d   1       3.737  -1.273   0.129  0.00  0.00     0.039 A 
ATOM      3  C2  UNL d   1       3.520  -1.325   1.508  0.00  0.00    -0.080 A 
ATOM      4  C3  UNL d   1       2.441  -2.053   2.003  0.00  0.00     0.150 A 
ATOM      5  C4  UNL d   1       1.583  -2.729   1.142  0.00  0.00    -0.007 A 
ATOM      6  C5  UNL d   1       1.801  -2.676  -0.234  0.00  0.00     0.039 A 
ENDROOT
BRANCH   4   7
ATOM      7  O   UNL d   1       2.186  -2.129   3.340  0.00  0.00    -0.526 OA
ATOM      8  H5  UNL d   1       2.844  -1.589   3.809  0.00  0.00     0.418 HD
ENDBRANCH   4   7
TORSDOF 1
ENDMDL
