MODEL 1
REMARK minimizedAffinity -2.60386777
REMARK minimizedRMSD -1
REMARK  1 active torsions:
REMARK  status: ('A' for Active; 'I' for Inactive)
REMARK    1  A    between atoms: C3_4  and  O_7 
ROOT
ATOM      1  C   UNL d   1       2.504  -0.203  -0.095  0.00  0.00    -0.033 A 
ATOM      2  C1  UNL d   1       2.704  -1.222  -1.028  0.00  0.00     0.039 A 
ATOM      3  C2  UNL d   1       3.428  -0.970  -2.195  0.00  0.00    -0.080 A 
ATOM      4  C3  UNL d   1       3.946   0.303  -2.416  0.00  0.00     0.150 A 
ATOM      5  C4  UNL d   1       3.754   1.322  -1.489  0.00  0.00    -0.007 A 
ATOM      6  C5  UNL d   1       3.031   1.069  -0.325  0.00  0.00     0.039 A 
ENDROOT
BRANCH   4   7
ATOM      7  O   UNL d   1       4.655   0.597  -3.543  0.00  0.00    -0.526 OA
ATOM      8  H5  UNL d   1       4.683  -0.195  -4.105  0.00  0.00     0.418 HD
ENDBRANCH   4   7
TORSDOF 1
ENDMDL
