MODEL 1
REMARK minimizedAffinity 5.06106091
REMARK minimizedRMSD -1
REMARK  0 active torsions:
REMARK  status: ('A' for Active; 'I' for Inactive)
ROOT
ATOM      1  O1  BZF d   1       0.507   2.568   2.362  0.00  0.00    -0.204 OA
ATOM      2  C2  BZF d   1       0.168   1.256   2.626  0.00  0.00     0.174 A 
ATOM      3  C3  BZF d   1      -0.448   0.698   1.563  0.00  0.00    -0.012 A 
ATOM      4  C3A BZF d   1      -0.413   1.697   0.540  0.00  0.00    -0.107 A 
ATOM      5  C4  BZF d   1      -0.852   1.734  -0.752  0.00  0.00     0.055 A 
ATOM      6  C5  BZF d   1      -0.730   2.888  -1.459  0.00  0.00    -0.016 A 
ATOM      7  C6  BZF d   1      -0.179   4.024  -0.904  0.00  0.00     0.022 A 
ATOM      8  C7  BZF d   1       0.276   4.035   0.373  0.00  0.00     0.029 A 
ATOM      9  C7A BZF d   1       0.184   2.861   1.079  0.00  0.00     0.058 A 
ENDROOT
TORSDOF 0
ENDMDL
