MODEL 1
REMARK minimizedAffinity 9.71946239
REMARK minimizedRMSD -1
REMARK  0 active torsions:
REMARK  status: ('A' for Active; 'I' for Inactive)
ROOT
ATOM      1  O1  BZF d   1      -0.380  -4.302  -1.489  0.00  0.00    -0.204 OA
ATOM      2  C2  BZF d   1       0.514  -5.167  -0.890  0.00  0.00     0.174 A 
ATOM      3  C3  BZF d   1       1.058  -6.000  -1.800  0.00  0.00    -0.012 A 
ATOM      4  C3A BZF d   1       0.536  -5.571  -3.062  0.00  0.00    -0.107 A 
ATOM      5  C4  BZF d   1       0.718  -5.996  -4.347  0.00  0.00     0.055 A 
ATOM      6  C5  BZF d   1       0.003  -5.411  -5.343  0.00  0.00    -0.016 A 
ATOM      7  C6  BZF d   1      -0.904  -4.403  -5.091  0.00  0.00     0.022 A 
ATOM      8  C7  BZF d   1      -1.115  -3.944  -3.833  0.00  0.00     0.029 A 
ATOM      9  C7A BZF d   1      -0.370  -4.511  -2.828  0.00  0.00     0.058 A 
ENDROOT
TORSDOF 0
ENDMDL
