MODEL 1
REMARK minimizedAffinity 5.49357748
REMARK minimizedRMSD -1
REMARK  0 active torsions:
REMARK  status: ('A' for Active; 'I' for Inactive)
ROOT
ATOM      1  O1  BZF d   1       0.257   0.398  -1.236  0.00  0.00    -0.204 OA
ATOM      2  C2  BZF d   1      -0.304   1.148  -2.252  0.00  0.00     0.174 A 
ATOM      3  C3  BZF d   1      -0.963   2.213  -1.752  0.00  0.00    -0.012 A 
ATOM      4  C3A BZF d   1      -0.726   2.175  -0.342  0.00  0.00    -0.107 A 
ATOM      5  C4  BZF d   1      -1.105   2.978   0.696  0.00  0.00     0.055 A 
ATOM      6  C5  BZF d   1      -0.767   2.622   1.963  0.00  0.00    -0.016 A 
ATOM      7  C6  BZF d   1      -0.057   1.470   2.229  0.00  0.00     0.022 A 
ATOM      8  C7  BZF d   1       0.346   0.645   1.232  0.00  0.00     0.029 A 
ATOM      9  C7A BZF d   1       0.035   1.019  -0.052  0.00  0.00     0.058 A 
ENDROOT
TORSDOF 0
ENDMDL
