MODEL 1
REMARK minimizedAffinity 8.77934265
REMARK minimizedRMSD -1
REMARK  0 active torsions:
REMARK  status: ('A' for Active; 'I' for Inactive)
ROOT
ATOM      1  O1  BZF d   1      -0.453   3.045   1.776  0.00  0.00    -0.204 OA
ATOM      2  C2  BZF d   1      -0.226   1.848   2.427  0.00  0.00     0.174 A 
ATOM      3  C3  BZF d   1      -0.082   0.841   1.541  0.00  0.00    -0.012 A 
ATOM      4  C3A BZF d   1      -0.137   1.463   0.253  0.00  0.00    -0.107 A 
ATOM      5  C4  BZF d   1      -0.038   0.988  -1.023  0.00  0.00     0.055 A 
ATOM      6  C5  BZF d   1      -0.208   1.847  -2.063  0.00  0.00    -0.016 A 
ATOM      7  C6  BZF d   1      -0.482   3.184  -1.862  0.00  0.00     0.022 A 
ATOM      8  C7  BZF d   1      -0.584   3.702  -0.614  0.00  0.00     0.029 A 
ATOM      9  C7A BZF d   1      -0.381   2.843   0.438  0.00  0.00     0.058 A 
ENDROOT
TORSDOF 0
ENDMDL
