MODEL 1
REMARK minimizedAffinity 7.96419573
REMARK minimizedRMSD -1
REMARK  0 active torsions:
REMARK  status: ('A' for Active; 'I' for Inactive)
ROOT
ATOM      1  O1  BZF d   1       0.381  -3.145  -0.969  0.00  0.00    -0.204 OA
ATOM      2  C2  BZF d   1      -0.541  -4.057  -1.447  0.00  0.00     0.174 A 
ATOM      3  C3  BZF d   1      -1.391  -3.469  -2.313  0.00  0.00    -0.012 A 
ATOM      4  C3A BZF d   1      -0.918  -2.126  -2.452  0.00  0.00    -0.107 A 
ATOM      5  C4  BZF d   1      -1.336  -1.054  -3.188  0.00  0.00     0.055 A 
ATOM      6  C5  BZF d   1      -0.698   0.137  -3.041  0.00  0.00    -0.016 A 
ATOM      7  C6  BZF d   1       0.356   0.293  -2.165  0.00  0.00     0.022 A 
ATOM      8  C7  BZF d   1       0.809  -0.742  -1.417  0.00  0.00     0.029 A 
ATOM      9  C7A BZF d   1       0.188  -1.955  -1.587  0.00  0.00     0.058 A 
ENDROOT
TORSDOF 0
ENDMDL
