MODEL 1
REMARK minimizedAffinity 6.68981218
REMARK minimizedRMSD -1
REMARK  0 active torsions:
REMARK  status: ('A' for Active; 'I' for Inactive)
ROOT
ATOM      1  O1  BZF d   1       0.972  -0.375   3.063  0.00  0.00    -0.204 OA
ATOM      2  C2  BZF d   1       0.238   0.725   3.462  0.00  0.00     0.174 A 
ATOM      3  C3  BZF d   1      -0.267   1.375   2.394  0.00  0.00    -0.012 A 
ATOM      4  C3A BZF d   1       0.103   0.583   1.261  0.00  0.00    -0.107 A 
ATOM      5  C4  BZF d   1      -0.122   0.701  -0.081  0.00  0.00     0.055 A 
ATOM      6  C5  BZF d   1       0.438  -0.204  -0.926  0.00  0.00    -0.016 A 
ATOM      7  C6  BZF d   1       1.232  -1.234  -0.465  0.00  0.00     0.022 A 
ATOM      8  C7  BZF d   1       1.479  -1.394   0.857  0.00  0.00     0.029 A 
ATOM      9  C7A BZF d   1       0.887  -0.501   1.717  0.00  0.00     0.058 A 
ENDROOT
TORSDOF 0
ENDMDL
