MODEL 1
REMARK minimizedAffinity 1.29869366
REMARK minimizedRMSD -1
REMARK  0 active torsions:
REMARK  status: ('A' for Active; 'I' for Inactive)
ROOT
ATOM      1  O1  BZF d   1       1.269   0.429  -0.454  0.00  0.00    -0.204 OA
ATOM      2  C2  BZF d   1       1.311  -0.748   0.267  0.00  0.00     0.174 A 
ATOM      3  C3  BZF d   1       0.877  -0.552   1.529  0.00  0.00    -0.012 A 
ATOM      4  C3A BZF d   1       0.456   0.815   1.574  0.00  0.00    -0.107 A 
ATOM      5  C4  BZF d   1      -0.085   1.599   2.552  0.00  0.00     0.055 A 
ATOM      6  C5  BZF d   1      -0.314   2.914   2.294  0.00  0.00    -0.016 A 
ATOM      7  C6  BZF d   1      -0.010   3.477   1.072  0.00  0.00     0.022 A 
ATOM      8  C7  BZF d   1       0.524   2.738   0.069  0.00  0.00     0.029 A 
ATOM      9  C7A BZF d   1       0.726   1.402   0.316  0.00  0.00     0.058 A 
ENDROOT
TORSDOF 0
ENDMDL
