MODEL 1
REMARK minimizedAffinity -0.339335561
REMARK minimizedRMSD -1
REMARK  0 active torsions:
REMARK  status: ('A' for Active; 'I' for Inactive)
ROOT
ATOM      1  O1  BZF d   1       0.427   2.503   2.590  0.00  0.00    -0.204 OA
ATOM      2  C2  BZF d   1      -0.075   3.424   1.691  0.00  0.00     0.174 A 
ATOM      3  C3  BZF d   1       0.066   2.982   0.425  0.00  0.00    -0.012 A 
ATOM      4  C3A BZF d   1       0.611   1.664   0.545  0.00  0.00    -0.107 A 
ATOM      5  C4  BZF d   1       0.959   0.706  -0.364  0.00  0.00     0.055 A 
ATOM      6  C5  BZF d   1       1.532  -0.445   0.077  0.00  0.00    -0.016 A 
ATOM      7  C6  BZF d   1       1.776  -0.668   1.416  0.00  0.00     0.022 A 
ATOM      8  C7  BZF d   1       1.443   0.251   2.355  0.00  0.00     0.029 A 
ATOM      9  C7A BZF d   1       0.834   1.401   1.916  0.00  0.00     0.058 A 
ENDROOT
TORSDOF 0
ENDMDL
