MODEL 1
REMARK minimizedAffinity 2.41327548
REMARK minimizedRMSD -1
REMARK  1 active torsions:
REMARK  status: ('A' for Active; 'I' for Inactive)
REMARK    1  A    between atoms: C1_2  and  C2_3 
ROOT
ATOM      1  C2  UNL d   1      -1.588   2.197  -1.088  0.00  0.00    -0.076 A 
ATOM      2  C3  UNL d   1      -0.638   3.230  -1.011  0.00  0.00     0.004 A 
ATOM      3  C4  UNL d   1       0.047   3.661  -2.146  0.00  0.00    -0.003 A 
ATOM      4  C5  UNL d   1      -0.208   3.066  -3.377  0.00  0.00     0.000 A 
ATOM      5  C6  UNL d   1      -1.160   2.052  -3.475  0.00  0.00     0.000 A 
ATOM      6  C7  UNL d   1      -1.871   1.617  -2.343  0.00  0.00    -0.073 A 
ATOM      7  C8  UNL d   1      -2.882   0.515  -2.506  0.00  0.00     0.078 C 
ENDROOT
BRANCH   1   8
ATOM      8  C1  UNL d   1      -2.279   1.752   0.181  0.00  0.00     0.053 C 
ATOM      9  C   UNL d   1      -1.424   0.806   1.009  0.00  0.00     0.018 C 
ENDBRANCH   1   8
TORSDOF 1
ENDMDL
