MODEL 1
REMARK minimizedAffinity 4.23386145
REMARK minimizedRMSD -1
REMARK  1 active torsions:
REMARK  status: ('A' for Active; 'I' for Inactive)
REMARK    1  A    between atoms: C1_2  and  C2_3 
ROOT
ATOM      1  C2  UNL d   1       1.498  -1.105   0.134  0.00  0.00    -0.076 A 
ATOM      2  C3  UNL d   1       0.936  -0.029   0.841  0.00  0.00     0.004 A 
ATOM      3  C4  UNL d   1      -0.330  -0.131   1.417  0.00  0.00    -0.003 A 
ATOM      4  C5  UNL d   1      -1.053  -1.312   1.295  0.00  0.00     0.000 A 
ATOM      5  C6  UNL d   1      -0.504  -2.396   0.611  0.00  0.00     0.000 A 
ATOM      6  C7  UNL d   1       0.777  -2.315   0.039  0.00  0.00    -0.073 A 
ATOM      7  C8  UNL d   1       1.318  -3.513  -0.692  0.00  0.00     0.078 C 
ENDROOT
BRANCH   1   8
ATOM      8  C1  UNL d   1       2.862  -0.927  -0.493  0.00  0.00     0.053 C 
ATOM      9  C   UNL d   1       2.887   0.185  -1.530  0.00  0.00     0.018 C 
ENDBRANCH   1   8
TORSDOF 1
ENDMDL
