MODEL 1
REMARK minimizedAffinity 0.121225663
REMARK minimizedRMSD -1
REMARK  1 active torsions:
REMARK  status: ('A' for Active; 'I' for Inactive)
REMARK    1  A    between atoms: C1_2  and  C2_3 
ROOT
ATOM      1  C2  UNL d   1       1.038  -3.154  -0.263  0.00  0.00    -0.076 A 
ATOM      2  C3  UNL d   1       2.430  -3.274  -0.423  0.00  0.00     0.004 A 
ATOM      3  C4  UNL d   1       3.300  -2.339   0.136  0.00  0.00    -0.003 A 
ATOM      4  C5  UNL d   1       2.792  -1.270   0.865  0.00  0.00     0.000 A 
ATOM      5  C6  UNL d   1       1.416  -1.144   1.049  0.00  0.00     0.000 A 
ATOM      6  C7  UNL d   1       0.526  -2.087   0.506  0.00  0.00    -0.073 A 
ATOM      7  C8  UNL d   1      -0.950  -1.899   0.730  0.00  0.00     0.078 C 
ENDROOT
BRANCH   1   8
ATOM      8  C1  UNL d   1       0.142  -4.182  -0.915  0.00  0.00     0.053 C 
ATOM      9  C   UNL d   1       0.320  -4.236  -2.425  0.00  0.00     0.018 C 
ENDBRANCH   1   8
TORSDOF 1
ENDMDL
