MODEL 1
REMARK minimizedAffinity -2.12587404
REMARK minimizedRMSD -1
REMARK  1 active torsions:
REMARK  status: ('A' for Active; 'I' for Inactive)
REMARK    1  A    between atoms: C1_2  and  C2_3 
ROOT
ATOM      1  C2  UNL d   1       1.205  -1.213   0.609  0.00  0.00    -0.076 A 
ATOM      2  C3  UNL d   1       1.682  -2.338  -0.086  0.00  0.00     0.004 A 
ATOM      3  C4  UNL d   1       0.820  -3.368  -0.461  0.00  0.00    -0.003 A 
ATOM      4  C5  UNL d   1      -0.532  -3.289  -0.147  0.00  0.00     0.000 A 
ATOM      5  C6  UNL d   1      -1.025  -2.172   0.526  0.00  0.00     0.000 A 
ATOM      6  C7  UNL d   1      -0.174  -1.118   0.897  0.00  0.00    -0.073 A 
ATOM      7  C8  UNL d   1      -0.759   0.060   1.628  0.00  0.00     0.078 C 
ENDROOT
BRANCH   1   8
ATOM      8  C1  UNL d   1       2.190  -0.140   1.014  0.00  0.00     0.053 C 
ATOM      9  C   UNL d   1       2.757  -0.365   2.407  0.00  0.00     0.018 C 
ENDBRANCH   1   8
TORSDOF 1
ENDMDL
