MODEL 1
REMARK minimizedAffinity -0.958164811
REMARK minimizedRMSD -1
REMARK  1 active torsions:
REMARK  status: ('A' for Active; 'I' for Inactive)
REMARK    1  A    between atoms: C1_2  and  C2_3 
ROOT
ATOM      1  C2  UNL d   1       0.138  -1.483   0.840  0.00  0.00    -0.076 A 
ATOM      2  C3  UNL d   1       1.076  -0.526   1.266  0.00  0.00     0.004 A 
ATOM      3  C4  UNL d   1       2.421  -0.636   0.917  0.00  0.00    -0.003 A 
ATOM      4  C5  UNL d   1       2.850  -1.703   0.136  0.00  0.00     0.000 A 
ATOM      5  C6  UNL d   1       1.931  -2.652  -0.310  0.00  0.00     0.000 A 
ATOM      6  C7  UNL d   1       0.568  -2.548   0.019  0.00  0.00    -0.073 A 
ATOM      7  C8  UNL d   1      -0.379  -3.602  -0.484  0.00  0.00     0.078 C 
ENDROOT
BRANCH   1   8
ATOM      8  C1  UNL d   1      -1.303  -1.327   1.272  0.00  0.00     0.053 C 
ATOM      9  C   UNL d   1      -1.735   0.129   1.345  0.00  0.00     0.018 C 
ENDBRANCH   1   8
TORSDOF 1
ENDMDL
