MODEL 1
REMARK minimizedAffinity 1.33500803
REMARK minimizedRMSD -1
REMARK  1 active torsions:
REMARK  status: ('A' for Active; 'I' for Inactive)
REMARK    1  A    between atoms: C1_2  and  C2_3 
ROOT
ATOM      1  C2  UNL d   1       0.344  -2.234   0.432  0.00  0.00    -0.076 A 
ATOM      2  C3  UNL d   1      -1.055  -2.102   0.389  0.00  0.00     0.004 A 
ATOM      3  C4  UNL d   1      -1.666  -0.867   0.600  0.00  0.00    -0.003 A 
ATOM      4  C5  UNL d   1      -0.888   0.256   0.856  0.00  0.00     0.000 A 
ATOM      5  C6  UNL d   1       0.502   0.147   0.885  0.00  0.00     0.000 A 
ATOM      6  C7  UNL d   1       1.135  -1.087   0.658  0.00  0.00    -0.073 A 
ATOM      7  C8  UNL d   1       2.637  -1.148   0.706  0.00  0.00     0.078 C 
ENDROOT
BRANCH   1   8
ATOM      8  C1  UNL d   1       0.949  -3.604   0.222  0.00  0.00     0.053 C 
ATOM      9  C   UNL d   1       0.277  -4.371  -0.906  0.00  0.00     0.018 C 
ENDBRANCH   1   8
TORSDOF 1
ENDMDL
