MODEL 1
REMARK minimizedAffinity 1.29870546
REMARK minimizedRMSD -1
REMARK  1 active torsions:
REMARK  status: ('A' for Active; 'I' for Inactive)
REMARK    1  A    between atoms: C1_2  and  C2_3 
ROOT
ATOM      1  C2  UNL d   1       1.576  -1.078   0.299  0.00  0.00    -0.076 A 
ATOM      2  C3  UNL d   1       2.505  -1.918  -0.339  0.00  0.00     0.004 A 
ATOM      3  C4  UNL d   1       2.124  -3.165  -0.832  0.00  0.00    -0.003 A 
ATOM      4  C5  UNL d   1       0.808  -3.591  -0.698  0.00  0.00     0.000 A 
ATOM      5  C6  UNL d   1      -0.131  -2.763  -0.084  0.00  0.00     0.000 A 
ATOM      6  C7  UNL d   1       0.232  -1.496   0.405  0.00  0.00    -0.073 A 
ATOM      7  C8  UNL d   1      -0.820  -0.647   1.064  0.00  0.00     0.078 C 
ENDROOT
BRANCH   1   8
ATOM      8  C1  UNL d   1       2.053   0.252   0.838  0.00  0.00     0.053 C 
ATOM      9  C   UNL d   1       2.382   0.194   2.322  0.00  0.00     0.018 C 
ENDBRANCH   1   8
TORSDOF 1
ENDMDL
