MODEL 1
REMARK minimizedAffinity 2.0614171
REMARK minimizedRMSD -1
REMARK  1 active torsions:
REMARK  status: ('A' for Active; 'I' for Inactive)
REMARK    1  A    between atoms: C1_2  and  C2_3 
ROOT
ATOM      1  C2  UNL d   1       0.965  -1.000   1.495  0.00  0.00    -0.076 A 
ATOM      2  C3  UNL d   1       2.121  -0.875   0.705  0.00  0.00     0.004 A 
ATOM      3  C4  UNL d   1       2.111  -1.230  -0.643  0.00  0.00    -0.003 A 
ATOM      4  C5  UNL d   1       0.945  -1.716  -1.223  0.00  0.00     0.000 A 
ATOM      5  C6  UNL d   1      -0.216  -1.830  -0.459  0.00  0.00     0.000 A 
ATOM      6  C7  UNL d   1      -0.227  -1.461   0.897  0.00  0.00    -0.073 A 
ATOM      7  C8  UNL d   1      -1.506  -1.610   1.676  0.00  0.00     0.078 C 
ENDROOT
BRANCH   1   8
ATOM      8  C1  UNL d   1       1.044  -0.625   2.958  0.00  0.00     0.053 C 
ATOM      9  C   UNL d   1       1.631  -1.737   3.814  0.00  0.00     0.018 C 
ENDBRANCH   1   8
TORSDOF 1
ENDMDL
