MODEL 1
REMARK minimizedAffinity -1.62265611
REMARK minimizedRMSD -1
REMARK  1 active torsions:
REMARK  status: ('A' for Active; 'I' for Inactive)
REMARK    1  A    between atoms: C1_2  and  C2_3 
ROOT
ATOM      1  C2  UNL d   1       0.808  -2.376  -0.052  0.00  0.00    -0.076 A 
ATOM      2  C3  UNL d   1      -0.466  -2.630   0.485  0.00  0.00     0.004 A 
ATOM      3  C4  UNL d   1      -1.118  -1.677   1.266  0.00  0.00    -0.003 A 
ATOM      4  C5  UNL d   1      -0.507  -0.454   1.521  0.00  0.00     0.000 A 
ATOM      5  C6  UNL d   1       0.749  -0.179   0.982  0.00  0.00     0.000 A 
ATOM      6  C7  UNL d   1       1.413  -1.123   0.180  0.00  0.00    -0.073 A 
ATOM      7  C8  UNL d   1       2.769  -0.775  -0.371  0.00  0.00     0.078 C 
ENDROOT
BRANCH   1   8
ATOM      8  C1  UNL d   1       1.478  -3.458  -0.868  0.00  0.00     0.053 C 
ATOM      9  C   UNL d   1       2.870  -3.796  -0.358  0.00  0.00     0.018 C 
ENDBRANCH   1   8
TORSDOF 1
ENDMDL
