MODEL 1
REMARK minimizedAffinity 3.5567956
REMARK minimizedRMSD -1
REMARK  1 active torsions:
REMARK  status: ('A' for Active; 'I' for Inactive)
REMARK    1  A    between atoms: C1_2  and  C2_3 
ROOT
ATOM      1  C2  UNL d   1       0.929  -2.320   0.515  0.00  0.00    -0.076 A 
ATOM      2  C3  UNL d   1      -0.428  -2.232   0.868  0.00  0.00     0.004 A 
ATOM      3  C4  UNL d   1      -0.994  -1.015   1.245  0.00  0.00    -0.003 A 
ATOM      4  C5  UNL d   1      -0.211   0.134   1.273  0.00  0.00     0.000 A 
ATOM      5  C6  UNL d   1       1.134   0.068   0.909  0.00  0.00     0.000 A 
ATOM      6  C7  UNL d   1       1.715  -1.148   0.511  0.00  0.00    -0.073 A 
ATOM      7  C8  UNL d   1       3.171  -1.163   0.134  0.00  0.00     0.078 C 
ENDROOT
BRANCH   1   8
ATOM      8  C1  UNL d   1       1.494  -3.673   0.142  0.00  0.00     0.053 C 
ATOM      9  C   UNL d   1       0.928  -4.199  -1.168  0.00  0.00     0.018 C 
ENDBRANCH   1   8
TORSDOF 1
ENDMDL
