MODEL 1
REMARK minimizedAffinity 2.98421574
REMARK minimizedRMSD -1
REMARK  1 active torsions:
REMARK  status: ('A' for Active; 'I' for Inactive)
REMARK    1  A    between atoms: C1_2  and  C2_3 
ROOT
ATOM      1  C2  UNL d   1       1.742  -1.033   0.235  0.00  0.00    -0.076 A 
ATOM      2  C3  UNL d   1       1.728  -0.577   1.565  0.00  0.00     0.004 A 
ATOM      3  C4  UNL d   1       0.533  -0.217   2.186  0.00  0.00    -0.003 A 
ATOM      4  C5  UNL d   1      -0.666  -0.308   1.489  0.00  0.00     0.000 A 
ATOM      5  C6  UNL d   1      -0.672  -0.775   0.175  0.00  0.00     0.000 A 
ATOM      6  C7  UNL d   1       0.521  -1.158  -0.461  0.00  0.00    -0.073 A 
ATOM      7  C8  UNL d   1       0.457  -1.649  -1.881  0.00  0.00     0.078 C 
ENDROOT
BRANCH   1   8
ATOM      8  C1  UNL d   1       3.071  -1.384  -0.396  0.00  0.00     0.053 C 
ATOM      9  C   UNL d   1       3.393  -2.866  -0.290  0.00  0.00     0.018 C 
ENDBRANCH   1   8
TORSDOF 1
ENDMDL
