MODEL 1
REMARK minimizedAffinity 5.10650444
REMARK minimizedRMSD -1
REMARK  0 active torsions:
REMARK  status: ('A' for Active; 'I' for Inactive)
ROOT
ATOM      1  C4' PXY d   1      -0.314   3.903   0.495  0.00  0.00     0.077 C 
ATOM      2  C1' PXY d   1       1.108   0.017   4.531  0.00  0.00     0.077 C 
ATOM      3  C1  PXY d   1       0.722   1.032   3.473  0.00  0.00    -0.082 A 
ATOM      4  C2  PXY d   1       1.631   1.453   2.609  0.00  0.00     0.003 A 
ATOM      5  C3  PXY d   1       1.308   2.395   1.666  0.00  0.00     0.003 A 
ATOM      6  C4  PXY d   1       0.028   2.871   1.573  0.00  0.00    -0.082 A 
ATOM      7  C5  PXY d   1      -0.908   2.439   2.445  0.00  0.00     0.003 A 
ATOM      8  C6  PXY d   1      -0.549   1.513   3.421  0.00  0.00     0.003 A 
ENDROOT
TORSDOF 0
ENDMDL
