MODEL 1
REMARK minimizedAffinity 7.82228279
REMARK minimizedRMSD -1
REMARK  0 active torsions:
REMARK  status: ('A' for Active; 'I' for Inactive)
ROOT
ATOM      1  C4' PXY d   1       0.364   2.049   2.596  0.00  0.00     0.077 C 
ATOM      2  C1' PXY d   1       0.716   5.814  -1.776  0.00  0.00     0.077 C 
ATOM      3  C1  PXY d   1       0.611   4.827  -0.631  0.00  0.00    -0.082 A 
ATOM      4  C2  PXY d   1       1.587   4.750   0.259  0.00  0.00     0.003 A 
ATOM      5  C3  PXY d   1       1.523   3.841   1.283  0.00  0.00     0.003 A 
ATOM      6  C4  PXY d   1       0.424   3.038   1.429  0.00  0.00    -0.082 A 
ATOM      7  C5  PXY d   1      -0.582   3.118   0.531  0.00  0.00     0.003 A 
ATOM      8  C6  PXY d   1      -0.479   4.018  -0.524  0.00  0.00     0.003 A 
ENDROOT
TORSDOF 0
ENDMDL
