MODEL 1
REMARK minimizedAffinity 5.5025363
REMARK minimizedRMSD -1
REMARK  0 active torsions:
REMARK  status: ('A' for Active; 'I' for Inactive)
ROOT
ATOM      1  C4' PXY d   1       4.453  -4.515  -4.495  0.00  0.00     0.077 C 
ATOM      2  C1' PXY d   1       1.148  -6.000   0.008  0.00  0.00     0.077 C 
ATOM      3  C1  PXY d   1       2.019  -5.600  -1.166  0.00  0.00    -0.082 A 
ATOM      4  C2  PXY d   1       1.673  -5.963  -2.390  0.00  0.00     0.003 A 
ATOM      5  C3  PXY d   1       2.467  -5.637  -3.460  0.00  0.00     0.003 A 
ATOM      6  C4  PXY d   1       3.598  -4.888  -3.281  0.00  0.00    -0.082 A 
ATOM      7  C5  PXY d   1       3.952  -4.505  -2.036  0.00  0.00     0.003 A 
ATOM      8  C6  PXY d   1       3.155  -4.880  -0.958  0.00  0.00     0.003 A 
ENDROOT
TORSDOF 0
ENDMDL
