MODEL 1
REMARK minimizedAffinity 7.84287977
REMARK minimizedRMSD -1
REMARK  0 active torsions:
REMARK  status: ('A' for Active; 'I' for Inactive)
ROOT
ATOM      1  C4' PXY d   1       0.654   2.972   2.821  0.00  0.00     0.077 C 
ATOM      2  C1' PXY d   1      -0.815   5.426  -2.202  0.00  0.00     0.077 C 
ATOM      3  C1  PXY d   1      -0.426   4.794  -0.880  0.00  0.00    -0.082 A 
ATOM      4  C2  PXY d   1      -0.117   3.508  -0.836  0.00  0.00     0.003 A 
ATOM      5  C3  PXY d   1       0.205   2.914   0.357  0.00  0.00     0.003 A 
ATOM      6  C4  PXY d   1       0.265   3.654   1.507  0.00  0.00    -0.082 A 
ATOM      7  C5  PXY d   1      -0.038   4.969   1.468  0.00  0.00     0.003 A 
ATOM      8  C6  PXY d   1      -0.404   5.545   0.254  0.00  0.00     0.003 A 
ENDROOT
TORSDOF 0
ENDMDL
