MODEL 1
REMARK minimizedAffinity 10.2373466
REMARK minimizedRMSD -1
REMARK  0 active torsions:
REMARK  status: ('A' for Active; 'I' for Inactive)
ROOT
ATOM      1  C4' PXY d   1      -0.005   5.998  -1.561  0.00  0.00     0.077 C 
ATOM      2  C1' PXY d   1      -0.408   1.948   2.544  0.00  0.00     0.077 C 
ATOM      3  C1  PXY d   1      -0.315   3.012   1.469  0.00  0.00    -0.082 A 
ATOM      4  C2  PXY d   1       0.677   2.974   0.595  0.00  0.00     0.003 A 
ATOM      5  C3  PXY d   1       0.794   3.947  -0.365  0.00  0.00     0.003 A 
ATOM      6  C4  PXY d   1      -0.144   4.939  -0.464  0.00  0.00    -0.082 A 
ATOM      7  C5  PXY d   1      -1.166   4.978   0.418  0.00  0.00     0.003 A 
ATOM      8  C6  PXY d   1      -1.244   4.005   1.410  0.00  0.00     0.003 A 
ENDROOT
TORSDOF 0
ENDMDL
