MODEL 1
REMARK minimizedAffinity 6.33008814
REMARK minimizedRMSD -1
REMARK  0 active torsions:
REMARK  status: ('A' for Active; 'I' for Inactive)
ROOT
ATOM      1  C4' PXY d   1       0.745   0.577   4.567  0.00  0.00     0.077 C 
ATOM      2  C1' PXY d   1      -0.240   4.006   0.019  0.00  0.00     0.077 C 
ATOM      3  C1  PXY d   1       0.007   3.111   1.217  0.00  0.00    -0.082 A 
ATOM      4  C2  PXY d   1       1.240   2.724   1.501  0.00  0.00     0.003 A 
ATOM      5  C3  PXY d   1       1.478   1.889   2.562  0.00  0.00     0.003 A 
ATOM      6  C4  PXY d   1       0.449   1.488   3.372  0.00  0.00    -0.082 A 
ATOM      7  C5  PXY d   1      -0.810   1.888   3.095  0.00  0.00     0.003 A 
ATOM      8  C6  PXY d   1      -1.036   2.702   1.990  0.00  0.00     0.003 A 
ENDROOT
TORSDOF 0
ENDMDL
