MODEL 1
REMARK minimizedAffinity 6.54313993
REMARK minimizedRMSD -1
REMARK  0 active torsions:
REMARK  status: ('A' for Active; 'I' for Inactive)
ROOT
ATOM      1  C4' PXY d   1      -0.434   2.905   2.978  0.00  0.00     0.077 C 
ATOM      2  C1' PXY d   1       0.715   5.110  -2.240  0.00  0.00     0.077 C 
ATOM      3  C1  PXY d   1       0.418   4.543  -0.866  0.00  0.00    -0.082 A 
ATOM      4  C2  PXY d   1       0.341   3.232  -0.702  0.00  0.00     0.003 A 
ATOM      5  C3  PXY d   1       0.042   2.703   0.527  0.00  0.00     0.003 A 
ATOM      6  C4  PXY d   1      -0.128   3.522   1.611  0.00  0.00    -0.082 A 
ATOM      7  C5  PXY d   1      -0.040   4.860   1.454  0.00  0.00     0.003 A 
ATOM      8  C6  PXY d   1       0.224   5.379   0.190  0.00  0.00     0.003 A 
ENDROOT
TORSDOF 0
ENDMDL
