MODEL 1
REMARK minimizedAffinity 10.6481361
REMARK minimizedRMSD -1
REMARK  0 active torsions:
REMARK  status: ('A' for Active; 'I' for Inactive)
ROOT
ATOM      1  C4' PXY d   1      -0.543  -2.318  -2.213  0.00  0.00     0.077 C 
ATOM      2  C1' PXY d   1      -3.331   2.737  -1.915  0.00  0.00     0.077 C 
ATOM      3  C1  PXY d   1      -2.602   1.411  -2.006  0.00  0.00    -0.082 A 
ATOM      4  C2  PXY d   1      -2.483   0.654  -0.927  0.00  0.00     0.003 A 
ATOM      5  C3  PXY d   1      -1.800  -0.533  -0.984  0.00  0.00     0.003 A 
ATOM      6  C4  PXY d   1      -1.278  -0.976  -2.170  0.00  0.00    -0.082 A 
ATOM      7  C5  PXY d   1      -1.405  -0.215  -3.278  0.00  0.00     0.003 A 
ATOM      8  C6  PXY d   1      -2.066   1.006  -3.190  0.00  0.00     0.003 A 
ENDROOT
TORSDOF 0
ENDMDL
