MODEL 1
REMARK minimizedAffinity 6.84379625
REMARK minimizedRMSD -1
REMARK  0 active torsions:
REMARK  status: ('A' for Active; 'I' for Inactive)
ROOT
ATOM      1  C4' PXY d   1       5.073  -2.959  -3.468  0.00  0.00     0.077 C 
ATOM      2  C1' PXY d   1       3.426  -0.730   1.605  0.00  0.00     0.077 C 
ATOM      3  C1  PXY d   1       3.871  -1.312   0.277  0.00  0.00    -0.082 A 
ATOM      4  C2  PXY d   1       3.001  -1.417  -0.714  0.00  0.00     0.003 A 
ATOM      5  C3  PXY d   1       3.377  -1.970  -1.911  0.00  0.00     0.003 A 
ATOM      6  C4  PXY d   1       4.671  -2.370  -2.113  0.00  0.00    -0.082 A 
ATOM      7  C5  PXY d   1       5.567  -2.256  -1.110  0.00  0.00     0.003 A 
ATOM      8  C6  PXY d   1       5.155  -1.730   0.111  0.00  0.00     0.003 A 
ENDROOT
TORSDOF 0
ENDMDL
