MODEL 1
REMARK minimizedAffinity 3.93439269
REMARK minimizedRMSD -1
REMARK  0 active torsions:
REMARK  status: ('A' for Active; 'I' for Inactive)
ROOT
ATOM      1  C4' PXY d   1       1.388   0.042   4.419  0.00  0.00     0.077 C 
ATOM      2  C1' PXY d   1      -0.397   3.798   0.404  0.00  0.00     0.077 C 
ATOM      3  C1  PXY d   1       0.063   2.819   1.465  0.00  0.00    -0.082 A 
ATOM      4  C2  PXY d   1       1.260   2.264   1.369  0.00  0.00     0.003 A 
ATOM      5  C3  PXY d   1       1.679   1.352   2.303  0.00  0.00     0.003 A 
ATOM      6  C4  PXY d   1       0.886   1.044   3.375  0.00  0.00    -0.082 A 
ATOM      7  C5  PXY d   1      -0.333   1.614   3.487  0.00  0.00     0.003 A 
ATOM      8  C6  PXY d   1      -0.756   2.506   2.506  0.00  0.00     0.003 A 
ENDROOT
TORSDOF 0
ENDMDL
