MODEL 1
REMARK minimizedAffinity 3.04918122
REMARK minimizedRMSD -1
REMARK  0 active torsions:
REMARK  status: ('A' for Active; 'I' for Inactive)
ROOT
ATOM      1  C4' PXY d   1       1.353   0.165   3.520  0.00  0.00     0.077 C 
ATOM      2  C1' PXY d   1      -0.980   4.205   0.107  0.00  0.00     0.077 C 
ATOM      3  C1  PXY d   1      -0.377   3.148   1.011  0.00  0.00    -0.082 A 
ATOM      4  C2  PXY d   1       0.890   2.802   0.857  0.00  0.00     0.003 A 
ATOM      5  C3  PXY d   1       1.443   1.825   1.645  0.00  0.00     0.003 A 
ATOM      6  C4  PXY d   1       0.705   1.234   2.636  0.00  0.00    -0.082 A 
ATOM      7  C5  PXY d   1      -0.586   1.590   2.806  0.00  0.00     0.003 A 
ATOM      8  C6  PXY d   1      -1.140   2.554   1.969  0.00  0.00     0.003 A 
ENDROOT
TORSDOF 0
ENDMDL
