MODEL 1
REMARK minimizedAffinity 5.5253315
REMARK minimizedRMSD -1
REMARK  0 active torsions:
REMARK  status: ('A' for Active; 'I' for Inactive)
ROOT
ATOM      1  C4' PXY d   1      -0.741   4.467   1.027  0.00  0.00     0.077 C 
ATOM      2  C1' PXY d   1       0.117   5.999  -4.481  0.00  0.00     0.077 C 
ATOM      3  C1  PXY d   1      -0.117   5.607  -3.035  0.00  0.00    -0.082 A 
ATOM      4  C2  PXY d   1       0.838   4.983  -2.364  0.00  0.00     0.003 A 
ATOM      5  C3  PXY d   1       0.631   4.592  -1.066  0.00  0.00     0.003 A 
ATOM      6  C4  PXY d   1      -0.545   4.891  -0.431  0.00  0.00    -0.082 A 
ATOM      7  C5  PXY d   1      -1.520   5.536  -1.106  0.00  0.00     0.003 A 
ATOM      8  C6  PXY d   1      -1.306   5.888  -2.436  0.00  0.00     0.003 A 
ENDROOT
TORSDOF 0
ENDMDL
