MODEL 1
REMARK minimizedAffinity 13.1401997
REMARK minimizedRMSD -1
REMARK  0 active torsions:
REMARK  status: ('A' for Active; 'I' for Inactive)
ROOT
ATOM      1  O1  BZF d   1       4.238   3.716   0.737  0.00  0.00    -0.204 OA
ATOM      2  C2  BZF d   1       5.050   3.660  -0.379  0.00  0.00     0.174 A 
ATOM      3  C3  BZF d   1       5.897   2.614  -0.303  0.00  0.00    -0.012 A 
ATOM      4  C3A BZF d   1       5.533   1.921   0.895  0.00  0.00    -0.107 A 
ATOM      5  C4  BZF d   1       5.999   0.792   1.506  0.00  0.00     0.055 A 
ATOM      6  C5  BZF d   1       5.475   0.425   2.705  0.00  0.00    -0.016 A 
ATOM      7  C6  BZF d   1       4.489   1.166   3.323  0.00  0.00     0.022 A 
ATOM      8  C7  BZF d   1       3.992   2.291   2.754  0.00  0.00     0.029 A 
ATOM      9  C7A BZF d   1       4.496   2.646   1.527  0.00  0.00     0.058 A 
ENDROOT
TORSDOF 0
ENDMDL
