MODEL 1
REMARK minimizedAffinity 17.1391277
REMARK minimizedRMSD -1
REMARK  0 active torsions:
REMARK  status: ('A' for Active; 'I' for Inactive)
ROOT
ATOM      1  O1  BZF d   1      -1.005  -5.289   2.838  0.00  0.00    -0.204 OA
ATOM      2  C2  BZF d   1      -0.379  -5.988   1.824  0.00  0.00     0.174 A 
ATOM      3  C3  BZF d   1      -0.431  -5.299   0.666  0.00  0.00    -0.012 A 
ATOM      4  C3A BZF d   1      -1.052  -4.053   0.996  0.00  0.00    -0.107 A 
ATOM      5  C4  BZF d   1      -1.368  -2.939   0.271  0.00  0.00     0.055 A 
ATOM      6  C5  BZF d   1      -2.036  -1.924   0.878  0.00  0.00    -0.016 A 
ATOM      7  C6  BZF d   1      -2.408  -1.989   2.205  0.00  0.00     0.022 A 
ATOM      8  C7  BZF d   1      -2.112  -3.071   2.966  0.00  0.00     0.029 A 
ATOM      9  C7A BZF d   1      -1.408  -4.085   2.364  0.00  0.00     0.058 A 
ENDROOT
TORSDOF 0
ENDMDL
