MODEL 1
REMARK minimizedAffinity 5.95874929
REMARK minimizedRMSD -1
REMARK  0 active torsions:
REMARK  status: ('A' for Active; 'I' for Inactive)
ROOT
ATOM      1  O1  BZF d   1      -1.465  -4.478   0.216  0.00  0.00    -0.204 OA
ATOM      2  C2  BZF d   1      -1.307  -3.125   0.450  0.00  0.00     0.174 A 
ATOM      3  C3  BZF d   1      -2.499  -2.536   0.676  0.00  0.00    -0.012 A 
ATOM      4  C3A BZF d   1      -3.453  -3.603   0.668  0.00  0.00    -0.107 A 
ATOM      5  C4  BZF d   1      -4.805  -3.654   0.852  0.00  0.00     0.055 A 
ATOM      6  C5  BZF d   1      -5.447  -4.843   0.708  0.00  0.00    -0.016 A 
ATOM      7  C6  BZF d   1      -4.769  -5.998   0.377  0.00  0.00     0.022 A 
ATOM      8  C7  BZF d   1      -3.427  -5.998   0.190  0.00  0.00     0.029 A 
ATOM      9  C7A BZF d   1      -2.771  -4.804   0.367  0.00  0.00     0.058 A 
ENDROOT
TORSDOF 0
ENDMDL
