MODEL 1
REMARK minimizedAffinity 9.47437191
REMARK minimizedRMSD -1
REMARK  0 active torsions:
REMARK  status: ('A' for Active; 'I' for Inactive)
ROOT
ATOM      1  O1  BZF d   1       5.004   3.303   3.188  0.00  0.00    -0.204 OA
ATOM      2  C2  BZF d   1       4.483   2.476   4.165  0.00  0.00     0.174 A 
ATOM      3  C3  BZF d   1       3.499   1.703   3.663  0.00  0.00    -0.012 A 
ATOM      4  C3A BZF d   1       3.461   2.003   2.265  0.00  0.00    -0.107 A 
ATOM      5  C4  BZF d   1       2.703   1.544   1.226  0.00  0.00     0.055 A 
ATOM      6  C5  BZF d   1       2.865   2.095  -0.005  0.00  0.00    -0.016 A 
ATOM      7  C6  BZF d   1       3.772   3.110  -0.232  0.00  0.00     0.022 A 
ATOM      8  C7  BZF d   1       4.550   3.596   0.766  0.00  0.00     0.029 A 
ATOM      9  C7A BZF d   1       4.411   3.018   2.004  0.00  0.00     0.058 A 
ENDROOT
TORSDOF 0
ENDMDL
