MODEL 1
REMARK minimizedAffinity 8.7565527
REMARK minimizedRMSD -1
REMARK  0 active torsions:
REMARK  status: ('A' for Active; 'I' for Inactive)
ROOT
ATOM      1  O1  BZF d   1      -1.077  -2.768  -1.283  0.00  0.00    -0.204 OA
ATOM      2  C2  BZF d   1      -1.876  -1.853  -1.942  0.00  0.00     0.174 A 
ATOM      3  C3  BZF d   1      -2.589  -1.120  -1.063  0.00  0.00    -0.012 A 
ATOM      4  C3A BZF d   1      -2.145  -1.544   0.229  0.00  0.00    -0.107 A 
ATOM      5  C4  BZF d   1      -2.470  -1.173   1.502  0.00  0.00     0.055 A 
ATOM      6  C5  BZF d   1      -1.906  -1.833   2.547  0.00  0.00    -0.016 A 
ATOM      7  C6  BZF d   1      -1.019  -2.872   2.356  0.00  0.00     0.022 A 
ATOM      8  C7  BZF d   1      -0.661  -3.272   1.112  0.00  0.00     0.029 A 
ATOM      9  C7A BZF d   1      -1.204  -2.585   0.054  0.00  0.00     0.058 A 
ENDROOT
TORSDOF 0
ENDMDL
