MODEL 1
REMARK minimizedAffinity 11.8469591
REMARK minimizedRMSD -1
REMARK  0 active torsions:
REMARK  status: ('A' for Active; 'I' for Inactive)
ROOT
ATOM      1  O1  BZF d   1       2.822   1.545  -2.440  0.00  0.00    -0.204 OA
ATOM      2  C2  BZF d   1       2.093   0.594  -1.754  0.00  0.00     0.174 A 
ATOM      3  C3  BZF d   1       2.703  -0.608  -1.807  0.00  0.00    -0.012 A 
ATOM      4  C3A BZF d   1       3.934  -0.374  -2.497  0.00  0.00    -0.107 A 
ATOM      5  C4  BZF d   1       4.981  -1.177  -2.847  0.00  0.00     0.055 A 
ATOM      6  C5  BZF d   1       5.999  -0.654  -3.581  0.00  0.00    -0.016 A 
ATOM      7  C6  BZF d   1       5.999   0.664  -3.985  0.00  0.00     0.022 A 
ATOM      8  C7  BZF d   1       4.985   1.502  -3.658  0.00  0.00     0.029 A 
ATOM      9  C7A BZF d   1       3.971   0.984  -2.888  0.00  0.00     0.058 A 
ENDROOT
TORSDOF 0
ENDMDL
