MODEL 1
REMARK minimizedAffinity 9.90485287
REMARK minimizedRMSD -1
REMARK  0 active torsions:
REMARK  status: ('A' for Active; 'I' for Inactive)
ROOT
ATOM      1  O1  BZF d   1       2.973  -1.032  -1.752  0.00  0.00    -0.204 OA
ATOM      2  C2  BZF d   1       2.161   0.059  -1.510  0.00  0.00     0.174 A 
ATOM      3  C3  BZF d   1       2.683   1.175  -2.059  0.00  0.00    -0.012 A 
ATOM      4  C3A BZF d   1       3.851   0.738  -2.761  0.00  0.00    -0.107 A 
ATOM      5  C4  BZF d   1       4.786   1.381  -3.520  0.00  0.00     0.055 A 
ATOM      6  C5  BZF d   1       5.843   0.677  -4.003  0.00  0.00    -0.016 A 
ATOM      7  C6  BZF d   1       5.999  -0.669  -3.744  0.00  0.00     0.022 A 
ATOM      8  C7  BZF d   1       5.094  -1.352  -3.001  0.00  0.00     0.029 A 
ATOM      9  C7A BZF d   1       4.007  -0.650  -2.538  0.00  0.00     0.058 A 
ENDROOT
TORSDOF 0
ENDMDL
