MODEL 1
REMARK minimizedAffinity 4.87444067
REMARK minimizedRMSD -1
REMARK  0 active torsions:
REMARK  status: ('A' for Active; 'I' for Inactive)
ROOT
ATOM      1  O1  BZF d   1      -3.385   4.319  -1.330  0.00  0.00    -0.204 OA
ATOM      2  C2  BZF d   1      -3.720   5.235  -2.308  0.00  0.00     0.174 A 
ATOM      3  C3  BZF d   1      -4.759   5.999  -1.912  0.00  0.00    -0.012 A 
ATOM      4  C3A BZF d   1      -5.034   5.593  -0.568  0.00  0.00    -0.107 A 
ATOM      5  C4  BZF d   1      -5.945   5.995   0.367  0.00  0.00     0.055 A 
ATOM      6  C5  BZF d   1      -5.999   5.344   1.559  0.00  0.00    -0.016 A 
ATOM      7  C6  BZF d   1      -5.163   4.286   1.847  0.00  0.00     0.022 A 
ATOM      8  C7  BZF d   1      -4.240   3.854   0.953  0.00  0.00     0.029 A 
ATOM      9  C7A BZF d   1      -4.160   4.530  -0.239  0.00  0.00     0.058 A 
ENDROOT
TORSDOF 0
ENDMDL
