MODEL 1
REMARK minimizedAffinity 18.1183205
REMARK minimizedRMSD -1
REMARK  0 active torsions:
REMARK  status: ('A' for Active; 'I' for Inactive)
ROOT
ATOM      1  O1  BZF d   1       4.068   1.164   1.119  0.00  0.00    -0.204 OA
ATOM      2  C2  BZF d   1       4.113   2.524   1.358  0.00  0.00     0.174 A 
ATOM      3  C3  BZF d   1       3.313   3.188   0.499  0.00  0.00    -0.012 A 
ATOM      4  C3A BZF d   1       2.661   2.172  -0.269  0.00  0.00    -0.107 A 
ATOM      5  C4  BZF d   1       1.735   2.203  -1.273  0.00  0.00     0.055 A 
ATOM      6  C5  BZF d   1       1.359   1.037  -1.860  0.00  0.00    -0.016 A 
ATOM      7  C6  BZF d   1       1.891  -0.176  -1.473  0.00  0.00     0.022 A 
ATOM      8  C7  BZF d   1       2.808  -0.257  -0.478  0.00  0.00     0.029 A 
ATOM      9  C7A BZF d   1       3.166   0.916   0.140  0.00  0.00     0.058 A 
ENDROOT
TORSDOF 0
ENDMDL
