MODEL 1
REMARK minimizedAffinity 14.4294491
REMARK minimizedRMSD -1
REMARK  0 active torsions:
REMARK  status: ('A' for Active; 'I' for Inactive)
ROOT
ATOM      1  O1  BZF d   1      -2.688  -0.983   1.128  0.00  0.00    -0.204 OA
ATOM      2  C2  BZF d   1      -2.352  -0.688  -0.179  0.00  0.00     0.174 A 
ATOM      3  C3  BZF d   1      -1.467  -1.585  -0.660  0.00  0.00    -0.012 A 
ATOM      4  C3A BZF d   1      -1.305  -2.550   0.384  0.00  0.00    -0.107 A 
ATOM      5  C4  BZF d   1      -0.566  -3.692   0.500  0.00  0.00     0.055 A 
ATOM      6  C5  BZF d   1      -0.575  -4.368   1.679  0.00  0.00    -0.016 A 
ATOM      7  C6  BZF d   1      -1.306  -3.928   2.763  0.00  0.00     0.022 A 
ATOM      8  C7  BZF d   1      -2.059  -2.803   2.694  0.00  0.00     0.029 A 
ATOM      9  C7A BZF d   1      -2.078  -2.136   1.493  0.00  0.00     0.058 A 
ENDROOT
TORSDOF 0
ENDMDL
