MODEL 1
REMARK minimizedAffinity 11.0410919
REMARK minimizedRMSD -1
REMARK  0 active torsions:
REMARK  status: ('A' for Active; 'I' for Inactive)
ROOT
ATOM      1  O1  BZF d   1      -1.529  -3.454   3.065  0.00  0.00    -0.204 OA
ATOM      2  C2  BZF d   1      -2.491  -2.680   3.685  0.00  0.00     0.174 A 
ATOM      3  C3  BZF d   1      -3.030  -1.801   2.817  0.00  0.00    -0.012 A 
ATOM      4  C3A BZF d   1      -2.429  -2.102   1.554  0.00  0.00    -0.107 A 
ATOM      5  C4  BZF d   1      -2.570  -1.582   0.299  0.00  0.00     0.055 A 
ATOM      6  C5  BZF d   1      -1.782  -2.052  -0.703  0.00  0.00    -0.016 A 
ATOM      7  C6  BZF d   1      -0.841  -3.037  -0.486  0.00  0.00     0.022 A 
ATOM      8  C7  BZF d   1      -0.668  -3.587   0.741  0.00  0.00     0.029 A 
ATOM      9  C7A BZF d   1      -1.485  -3.137   1.749  0.00  0.00     0.058 A 
ENDROOT
TORSDOF 0
ENDMDL
