MODEL 1
REMARK minimizedAffinity 11.3068018
REMARK minimizedRMSD -1
REMARK  0 active torsions:
REMARK  status: ('A' for Active; 'I' for Inactive)
ROOT
ATOM      1  O1  BZF d   1      -1.184  -0.664  -0.113  0.00  0.00    -0.204 OA
ATOM      2  C2  BZF d   1      -2.193  -1.480  -0.587  0.00  0.00     0.174 A 
ATOM      3  C3  BZF d   1      -1.998  -1.774  -1.889  0.00  0.00    -0.012 A 
ATOM      4  C3A BZF d   1      -0.743  -1.176  -2.226  0.00  0.00    -0.107 A 
ATOM      5  C4  BZF d   1      -0.001  -1.133  -3.372  0.00  0.00     0.055 A 
ATOM      6  C5  BZF d   1       1.144  -0.402  -3.390  0.00  0.00    -0.016 A 
ATOM      7  C6  BZF d   1       1.575   0.301  -2.284  0.00  0.00     0.022 A 
ATOM      8  C7  BZF d   1       0.875   0.285  -1.123  0.00  0.00     0.029 A 
ATOM      9  C7A BZF d   1      -0.266  -0.479  -1.092  0.00  0.00     0.058 A 
ENDROOT
TORSDOF 0
ENDMDL
