MODEL 1
REMARK minimizedAffinity 16.0794067
REMARK minimizedRMSD -1
REMARK  0 active torsions:
REMARK  status: ('A' for Active; 'I' for Inactive)
ROOT
ATOM      1  O1  BZF d   1       4.767   5.256   2.224  0.00  0.00    -0.204 OA
ATOM      2  C2  BZF d   1       4.915   5.998   1.069  0.00  0.00     0.174 A 
ATOM      3  C3  BZF d   1       4.797   5.214  -0.022  0.00  0.00    -0.012 A 
ATOM      4  C3A BZF d   1       4.468   3.916   0.481  0.00  0.00    -0.107 A 
ATOM      5  C4  BZF d   1       4.210   2.715  -0.116  0.00  0.00     0.055 A 
ATOM      6  C5  BZF d   1       3.995   1.623   0.664  0.00  0.00    -0.016 A 
ATOM      7  C6  BZF d   1       4.035   1.694   2.041  0.00  0.00     0.022 A 
ATOM      8  C7  BZF d   1       4.283   2.864   2.678  0.00  0.00     0.029 A 
ATOM      9  C7A BZF d   1       4.468   3.976   1.894  0.00  0.00     0.058 A 
ENDROOT
TORSDOF 0
ENDMDL
