MODEL 1
REMARK minimizedAffinity 23.0955448
REMARK minimizedRMSD -1
REMARK  0 active torsions:
REMARK  status: ('A' for Active; 'I' for Inactive)
ROOT
ATOM      1  O1  BZF d   1       4.644   5.122   1.817  0.00  0.00    -0.204 OA
ATOM      2  C2  BZF d   1       5.081   6.000   0.843  0.00  0.00     0.174 A 
ATOM      3  C3  BZF d   1       4.930   5.465  -0.386  0.00  0.00    -0.012 A 
ATOM      4  C3A BZF d   1       4.278   4.210  -0.172  0.00  0.00    -0.107 A 
ATOM      5  C4  BZF d   1       3.845   3.222  -1.010  0.00  0.00     0.055 A 
ATOM      6  C5  BZF d   1       3.314   2.090  -0.478  0.00  0.00    -0.016 A 
ATOM      7  C6  BZF d   1       3.206   1.910   0.885  0.00  0.00     0.022 A 
ATOM      8  C7  BZF d   1       3.617   2.864   1.756  0.00  0.00     0.029 A 
ATOM      9  C7A BZF d   1       4.123   4.023   1.221  0.00  0.00     0.058 A 
ENDROOT
TORSDOF 0
ENDMDL
