MODEL 1
REMARK minimizedAffinity 8.21062088
REMARK minimizedRMSD -1
REMARK  0 active torsions:
REMARK  status: ('A' for Active; 'I' for Inactive)
ROOT
ATOM      1  O1  BZF d   1       4.672   5.306   2.235  0.00  0.00    -0.204 OA
ATOM      2  C2  BZF d   1       4.854   5.999   1.053  0.00  0.00     0.174 A 
ATOM      3  C3  BZF d   1       4.861   5.156   0.001  0.00  0.00    -0.012 A 
ATOM      4  C3A BZF d   1       4.580   3.865   0.550  0.00  0.00    -0.107 A 
ATOM      5  C4  BZF d   1       4.439   2.622   0.003  0.00  0.00     0.055 A 
ATOM      6  C5  BZF d   1       4.239   1.558   0.824  0.00  0.00    -0.016 A 
ATOM      7  C6  BZF d   1       4.179   1.699   2.195  0.00  0.00     0.022 A 
ATOM      8  C7  BZF d   1       4.308   2.913   2.783  0.00  0.00     0.029 A 
ATOM      9  C7A BZF d   1       4.477   3.995   1.955  0.00  0.00     0.058 A 
ENDROOT
TORSDOF 0
ENDMDL
