MODEL 1
REMARK minimizedAffinity 18.0949955
REMARK minimizedRMSD -1
REMARK  0 active torsions:
REMARK  status: ('A' for Active; 'I' for Inactive)
ROOT
ATOM      1  O1  BZF d   1      -2.590   4.530  -3.526  0.00  0.00    -0.204 OA
ATOM      2  C2  BZF d   1      -2.206   3.255  -3.894  0.00  0.00     0.174 A 
ATOM      3  C3  BZF d   1      -3.114   2.703  -4.724  0.00  0.00    -0.012 A 
ATOM      4  C3A BZF d   1      -4.083   3.730  -4.958  0.00  0.00    -0.107 A 
ATOM      5  C4  BZF d   1      -5.220   3.794  -5.712  0.00  0.00     0.055 A 
ATOM      6  C5  BZF d   1      -5.981   4.919  -5.666  0.00  0.00    -0.016 A 
ATOM      7  C6  BZF d   1      -5.638   5.996  -4.875  0.00  0.00     0.022 A 
ATOM      8  C7  BZF d   1      -4.516   5.981  -4.113  0.00  0.00     0.029 A 
ATOM      9  C7A BZF d   1      -3.728   4.858  -4.183  0.00  0.00     0.058 A 
ENDROOT
TORSDOF 0
ENDMDL
