MODEL 1
REMARK minimizedAffinity 15.2411346
REMARK minimizedRMSD -1
REMARK  0 active torsions:
REMARK  status: ('A' for Active; 'I' for Inactive)
ROOT
ATOM      1  O1  BZF d   1      -0.354  -4.779  -1.432  0.00  0.00    -0.204 OA
ATOM      2  C2  BZF d   1      -0.203  -5.713  -0.426  0.00  0.00     0.174 A 
ATOM      3  C3  BZF d   1      -0.597  -5.206   0.760  0.00  0.00    -0.012 A 
ATOM      4  C3A BZF d   1      -1.107  -3.903   0.461  0.00  0.00    -0.107 A 
ATOM      5  C4  BZF d   1      -1.659  -2.913   1.224  0.00  0.00     0.055 A 
ATOM      6  C5  BZF d   1      -1.986  -1.732   0.636  0.00  0.00    -0.016 A 
ATOM      7  C6  BZF d   1      -1.770  -1.505  -0.707  0.00  0.00     0.022 A 
ATOM      8  C7  BZF d   1      -1.230  -2.458  -1.505  0.00  0.00     0.029 A 
ATOM      9  C7A BZF d   1      -0.929  -3.664  -0.921  0.00  0.00     0.058 A 
ENDROOT
TORSDOF 0
ENDMDL
