MODEL 1
REMARK minimizedAffinity 24.6863003
REMARK minimizedRMSD -1
REMARK  0 active torsions:
REMARK  status: ('A' for Active; 'I' for Inactive)
ROOT
ATOM      1  O1  BZF d   1       0.141  -4.487   0.651  0.00  0.00    -0.204 OA
ATOM      2  C2  BZF d   1       0.076  -5.068   1.902  0.00  0.00     0.174 A 
ATOM      3  C3  BZF d   1      -0.925  -4.529   2.628  0.00  0.00    -0.012 A 
ATOM      4  C3A BZF d   1      -1.581  -3.615   1.744  0.00  0.00    -0.107 A 
ATOM      5  C4  BZF d   1      -2.659  -2.788   1.879  0.00  0.00     0.055 A 
ATOM      6  C5  BZF d   1      -2.997  -1.970   0.848  0.00  0.00    -0.016 A 
ATOM      7  C6  BZF d   1      -2.278  -1.949  -0.329  0.00  0.00     0.022 A 
ATOM      8  C7  BZF d   1      -1.204  -2.756  -0.512  0.00  0.00     0.029 A 
ATOM      9  C7A BZF d   1      -0.879  -3.607   0.516  0.00  0.00     0.058 A 
ENDROOT
TORSDOF 0
ENDMDL
