MODEL 1
REMARK minimizedAffinity 9.27759838
REMARK minimizedRMSD -1
REMARK  1 active torsions:
REMARK  status: ('A' for Active; 'I' for Inactive)
REMARK    1  A    between atoms: C1_2  and  C2_3 
ROOT
ATOM      1  C2  UNL d   1      -1.467   2.544   1.516  0.00  0.00    -0.073 A 
ATOM      2  C3  UNL d   1      -1.232   1.818   2.689  0.00  0.00    -0.002 A 
ATOM      3  C4  UNL d   1       0.069   1.460   3.047  0.00  0.00     0.004 A 
ATOM      4  C5  UNL d   1       1.146   1.829   2.241  0.00  0.00    -0.004 A 
ATOM      5  C6  UNL d   1       0.932   2.565   1.071  0.00  0.00    -0.075 A 
ATOM      6  C7  UNL d   1       2.079   2.967   0.192  0.00  0.00     0.076 C 
ATOM      7  C8  UNL d   1      -0.377   2.918   0.717  0.00  0.00     0.001 A 
ENDROOT
BRANCH   1   8
ATOM      8  C1  UNL d   1      -2.869   2.939   1.128  0.00  0.00     0.053 C 
ATOM      9  C   UNL d   1      -3.833   1.765   1.204  0.00  0.00     0.018 C 
ENDBRANCH   1   8
TORSDOF 1
ENDMDL
