MODEL 1
REMARK minimizedAffinity 4.24911118
REMARK minimizedRMSD -1
REMARK  1 active torsions:
REMARK  status: ('A' for Active; 'I' for Inactive)
REMARK    1  A    between atoms: C1_2  and  C2_3 
ROOT
ATOM      1  C2  UNL d   1       1.652  -1.259  -0.290  0.00  0.00    -0.073 A 
ATOM      2  C3  UNL d   1       2.308  -2.240   0.461  0.00  0.00    -0.002 A 
ATOM      3  C4  UNL d   1       1.725  -3.495   0.645  0.00  0.00     0.004 A 
ATOM      4  C5  UNL d   1       0.485  -3.782   0.076  0.00  0.00    -0.004 A 
ATOM      5  C6  UNL d   1      -0.182  -2.819  -0.688  0.00  0.00    -0.075 A 
ATOM      6  C7  UNL d   1      -1.517  -3.112  -1.306  0.00  0.00     0.076 C 
ATOM      7  C8  UNL d   1       0.410  -1.561  -0.866  0.00  0.00     0.001 A 
ENDROOT
BRANCH   1   8
ATOM      8  C1  UNL d   1       2.281   0.095  -0.497  0.00  0.00     0.053 C 
ATOM      9  C   UNL d   1       1.556   1.184   0.277  0.00  0.00     0.018 C 
ENDBRANCH   1   8
TORSDOF 1
ENDMDL
