MODEL 1
REMARK minimizedAffinity 6.97526932
REMARK minimizedRMSD -1
REMARK  1 active torsions:
REMARK  status: ('A' for Active; 'I' for Inactive)
REMARK    1  A    between atoms: C1_2  and  C2_3 
ROOT
ATOM      1  C2  UNL d   1       0.205   2.361   1.468  0.00  0.00    -0.073 A 
ATOM      2  C3  UNL d   1       0.500   1.725   2.680  0.00  0.00    -0.002 A 
ATOM      3  C4  UNL d   1      -0.456   1.665   3.695  0.00  0.00     0.004 A 
ATOM      4  C5  UNL d   1      -1.716   2.233   3.507  0.00  0.00    -0.004 A 
ATOM      5  C6  UNL d   1      -2.033   2.863   2.299  0.00  0.00    -0.075 A 
ATOM      6  C7  UNL d   1      -3.383   3.481   2.082  0.00  0.00     0.076 C 
ATOM      7  C8  UNL d   1      -1.067   2.921   1.285  0.00  0.00     0.001 A 
ENDROOT
BRANCH   1   8
ATOM      8  C1  UNL d   1       1.232   2.422   0.367  0.00  0.00     0.053 C 
ATOM      9  C   UNL d   1       2.063   1.151   0.290  0.00  0.00     0.018 C 
ENDBRANCH   1   8
TORSDOF 1
ENDMDL
