MODEL 1
REMARK minimizedAffinity 6.22418642
REMARK minimizedRMSD -1
REMARK  1 active torsions:
REMARK  status: ('A' for Active; 'I' for Inactive)
REMARK    1  A    between atoms: C1_2  and  C2_3 
ROOT
ATOM      1  C2  UNL d   1      -2.180   2.490   1.993  0.00  0.00    -0.073 A 
ATOM      2  C3  UNL d   1      -1.674   1.775   3.084  0.00  0.00    -0.002 A 
ATOM      3  C4  UNL d   1      -0.307   1.509   3.181  0.00  0.00     0.004 A 
ATOM      4  C5  UNL d   1       0.567   1.961   2.192  0.00  0.00    -0.004 A 
ATOM      5  C6  UNL d   1       0.082   2.687   1.100  0.00  0.00    -0.075 A 
ATOM      6  C7  UNL d   1       1.009   3.178   0.027  0.00  0.00     0.076 C 
ATOM      7  C8  UNL d   1      -1.292   2.948   1.009  0.00  0.00     0.001 A 
ENDROOT
BRANCH   1   8
ATOM      8  C1  UNL d   1      -3.654   2.785   1.888  0.00  0.00     0.053 C 
ATOM      9  C   UNL d   1      -4.447   1.570   1.433  0.00  0.00     0.018 C 
ENDBRANCH   1   8
TORSDOF 1
ENDMDL
