MODEL 1
REMARK minimizedAffinity 2.66324234
REMARK minimizedRMSD -1
REMARK  1 active torsions:
REMARK  status: ('A' for Active; 'I' for Inactive)
REMARK    1  A    between atoms: C1_2  and  C2_3 
ROOT
ATOM      1  C2  UNL d   1       2.019   0.395  -0.097  0.00  0.00    -0.073 A 
ATOM      2  C3  UNL d   1       3.225  -0.285   0.106  0.00  0.00    -0.002 A 
ATOM      3  C4  UNL d   1       3.266  -1.679   0.052  0.00  0.00     0.004 A 
ATOM      4  C5  UNL d   1       2.105  -2.406  -0.210  0.00  0.00    -0.004 A 
ATOM      5  C6  UNL d   1       0.892  -1.744  -0.427  0.00  0.00    -0.075 A 
ATOM      6  C7  UNL d   1      -0.366  -2.512  -0.709  0.00  0.00     0.076 C 
ATOM      7  C8  UNL d   1       0.859  -0.344  -0.369  0.00  0.00     0.001 A 
ENDROOT
BRANCH   1   8
ATOM      8  C1  UNL d   1       1.971   1.900  -0.046  0.00  0.00     0.053 C 
ATOM      9  C   UNL d   1       0.544   2.423   0.010  0.00  0.00     0.018 C 
ENDBRANCH   1   8
TORSDOF 1
ENDMDL
