MODEL 1
REMARK minimizedAffinity 5.3562355
REMARK minimizedRMSD -1
REMARK  1 active torsions:
REMARK  status: ('A' for Active; 'I' for Inactive)
REMARK    1  A    between atoms: C1_2  and  C2_3 
ROOT
ATOM      1  C2  UNL d   1       1.176   0.436  -0.118  0.00  0.00    -0.073 A 
ATOM      2  C3  UNL d   1       2.575   0.459  -0.105  0.00  0.00    -0.002 A 
ATOM      3  C4  UNL d   1       3.300  -0.733  -0.118  0.00  0.00     0.004 A 
ATOM      4  C5  UNL d   1       2.635  -1.959  -0.151  0.00  0.00    -0.004 A 
ATOM      5  C6  UNL d   1       1.237  -2.002  -0.177  0.00  0.00    -0.075 A 
ATOM      6  C7  UNL d   1       0.506  -3.312  -0.210  0.00  0.00     0.076 C 
ATOM      7  C8  UNL d   1       0.516  -0.800  -0.161  0.00  0.00     0.001 A 
ENDROOT
BRANCH   1   8
ATOM      8  C1  UNL d   1       0.389   1.721  -0.111  0.00  0.00     0.053 C 
ATOM      9  C   UNL d   1       1.252   2.916   0.263  0.00  0.00     0.018 C 
ENDBRANCH   1   8
TORSDOF 1
ENDMDL
