MODEL 1
REMARK minimizedAffinity 7.22737503
REMARK minimizedRMSD -1
REMARK  1 active torsions:
REMARK  status: ('A' for Active; 'I' for Inactive)
REMARK    1  A    between atoms: C1_2  and  C2_3 
ROOT
ATOM      1  C2  UNL d   1      -2.454   1.631   1.520  0.00  0.00    -0.073 A 
ATOM      2  C3  UNL d   1      -1.879   2.399   0.501  0.00  0.00    -0.002 A 
ATOM      3  C4  UNL d   1      -0.560   2.839   0.610  0.00  0.00     0.004 A 
ATOM      4  C5  UNL d   1       0.200   2.511   1.732  0.00  0.00    -0.004 A 
ATOM      5  C6  UNL d   1      -0.353   1.734   2.756  0.00  0.00    -0.075 A 
ATOM      6  C7  UNL d   1       0.450   1.374   3.971  0.00  0.00     0.076 C 
ATOM      7  C8  UNL d   1      -1.680   1.298   2.641  0.00  0.00     0.001 A 
ENDROOT
BRANCH   1   8
ATOM      8  C1  UNL d   1      -3.877   1.148   1.404  0.00  0.00     0.053 C 
ATOM      9  C   UNL d   1      -4.153   0.507   0.053  0.00  0.00     0.018 C 
ENDBRANCH   1   8
TORSDOF 1
ENDMDL
