MODEL 1
REMARK minimizedAffinity 5.91086245
REMARK minimizedRMSD -1
REMARK  1 active torsions:
REMARK  status: ('A' for Active; 'I' for Inactive)
REMARK    1  A    between atoms: C1_2  and  C2_3 
ROOT
ATOM      1  C2  UNL d   1       1.593   0.282  -0.103  0.00  0.00    -0.073 A 
ATOM      2  C3  UNL d   1       0.674   1.108  -0.759  0.00  0.00    -0.002 A 
ATOM      3  C4  UNL d   1      -0.267   1.835  -0.028  0.00  0.00     0.004 A 
ATOM      4  C5  UNL d   1      -0.295   1.748   1.364  0.00  0.00    -0.004 A 
ATOM      5  C6  UNL d   1       0.624   0.937   2.038  0.00  0.00    -0.075 A 
ATOM      6  C7  UNL d   1       0.606   0.831   3.535  0.00  0.00     0.076 C 
ATOM      7  C8  UNL d   1       1.564   0.209   1.297  0.00  0.00     0.001 A 
ENDROOT
BRANCH   1   8
ATOM      8  C1  UNL d   1       2.616  -0.499  -0.887  0.00  0.00     0.053 C 
ATOM      9  C   UNL d   1       2.477  -1.998  -0.670  0.00  0.00     0.018 C 
ENDBRANCH   1   8
TORSDOF 1
ENDMDL
