MODEL 1
REMARK minimizedAffinity -2.55797005
REMARK minimizedRMSD -1
REMARK  0 active torsions:
REMARK  status: ('A' for Active; 'I' for Inactive)
ROOT
ATOM      1  C   UNL d   1      -1.685   1.655   1.964  0.00  0.00     0.023 A 
ATOM      2  C1  UNL d   1      -0.474   1.104   2.385  0.00  0.00     0.003 A 
ATOM      3  C2  UNL d   1       0.271   0.306   1.515  0.00  0.00     0.048 A 
ATOM      4  C3  UNL d   1      -0.199   0.063   0.225  0.00  0.00     0.023 A 
ATOM      5  C4  UNL d   1      -1.410   0.613  -0.201  0.00  0.00     0.048 A 
ATOM      6  C5  UNL d   1      -2.152   1.410   0.672  0.00  0.00     0.003 A 
ATOM      7  I   UNL d   1       0.908  -1.125  -1.072  0.00  0.00    -0.146 I 
ENDROOT
TORSDOF 0
ENDMDL
