MODEL 1
REMARK minimizedAffinity -5.36683512
REMARK minimizedRMSD -1
REMARK  0 active torsions:
REMARK  status: ('A' for Active; 'I' for Inactive)
ROOT
ATOM      1  C   UNL d   1      -2.279   2.969   0.833  0.00  0.00     0.023 A 
ATOM      2  C1  UNL d   1      -1.286   3.287  -0.093  0.00  0.00     0.003 A 
ATOM      3  C2  UNL d   1      -0.388   2.306  -0.519  0.00  0.00     0.048 A 
ATOM      4  C3  UNL d   1      -0.490   1.010  -0.016  0.00  0.00     0.023 A 
ATOM      5  C4  UNL d   1      -1.483   0.687   0.910  0.00  0.00     0.048 A 
ATOM      6  C5  UNL d   1      -2.378   1.671   1.334  0.00  0.00     0.003 A 
ATOM      7  I   UNL d   1       0.845  -0.452  -0.650  0.00  0.00    -0.146 I 
ENDROOT
TORSDOF 0
ENDMDL
