MODEL 1
REMARK minimizedAffinity -3.66696978
REMARK minimizedRMSD -1
REMARK  0 active torsions:
REMARK  status: ('A' for Active; 'I' for Inactive)
ROOT
ATOM      1  C   UNL d   1      -1.550   1.512   1.523  0.00  0.00     0.023 A 
ATOM      2  C1  UNL d   1      -0.417   0.871   2.025  0.00  0.00     0.003 A 
ATOM      3  C2  UNL d   1       0.264  -0.061   1.240  0.00  0.00     0.048 A 
ATOM      4  C3  UNL d   1      -0.194  -0.348  -0.046  0.00  0.00     0.023 A 
ATOM      5  C4  UNL d   1      -1.327   0.291  -0.552  0.00  0.00     0.048 A 
ATOM      6  C5  UNL d   1      -2.004   1.223   0.237  0.00  0.00     0.003 A 
ATOM      7  I   UNL d   1       0.818  -1.736  -1.217  0.00  0.00    -0.146 I 
ENDROOT
TORSDOF 0
ENDMDL
