MODEL 1
REMARK minimizedAffinity -2.76704383
REMARK minimizedRMSD -1
REMARK  0 active torsions:
REMARK  status: ('A' for Active; 'I' for Inactive)
ROOT
ATOM      1  C   UNL d   1      -1.520   1.607   1.375  0.00  0.00     0.023 A 
ATOM      2  C1  UNL d   1      -1.359   0.350   1.957  0.00  0.00     0.003 A 
ATOM      3  C2  UNL d   1      -0.660  -0.651   1.279  0.00  0.00     0.048 A 
ATOM      4  C3  UNL d   1      -0.123  -0.387   0.019  0.00  0.00     0.023 A 
ATOM      5  C4  UNL d   1      -0.281   0.869  -0.567  0.00  0.00     0.048 A 
ATOM      6  C5  UNL d   1      -0.982   1.866   0.114  0.00  0.00     0.003 A 
ATOM      7  I   UNL d   1       0.918  -1.875  -0.992  0.00  0.00    -0.146 I 
ENDROOT
TORSDOF 0
ENDMDL
