MODEL 1
REMARK minimizedAffinity -3.87791872
REMARK minimizedRMSD -1
REMARK  0 active torsions:
REMARK  status: ('A' for Active; 'I' for Inactive)
ROOT
ATOM      1  C   UNL d   1      -1.618   2.860   1.342  0.00  0.00     0.023 A 
ATOM      2  C1  UNL d   1      -0.671   3.017   0.330  0.00  0.00     0.003 A 
ATOM      3  C2  UNL d   1      -0.090   1.894  -0.264  0.00  0.00     0.048 A 
ATOM      4  C3  UNL d   1      -0.463   0.618   0.157  0.00  0.00     0.023 A 
ATOM      5  C4  UNL d   1      -1.412   0.457   1.168  0.00  0.00     0.048 A 
ATOM      6  C5  UNL d   1      -1.988   1.582   1.760  0.00  0.00     0.003 A 
ATOM      7  I   UNL d   1       0.398  -1.054  -0.726  0.00  0.00    -0.146 I 
ENDROOT
TORSDOF 0
ENDMDL
