MODEL 1
REMARK minimizedAffinity -5.17170906
REMARK minimizedRMSD -1
REMARK  0 active torsions:
REMARK  status: ('A' for Active; 'I' for Inactive)
ROOT
ATOM      1  C   UNL d   1      -1.784   3.352   0.738  0.00  0.00     0.023 A 
ATOM      2  C1  UNL d   1      -0.807   3.344  -0.257  0.00  0.00     0.003 A 
ATOM      3  C2  UNL d   1      -0.078   2.181  -0.512  0.00  0.00     0.048 A 
ATOM      4  C3  UNL d   1      -0.332   1.028   0.231  0.00  0.00     0.023 A 
ATOM      5  C4  UNL d   1      -1.309   1.031   1.227  0.00  0.00     0.048 A 
ATOM      6  C5  UNL d   1      -2.035   2.197   1.480  0.00  0.00     0.003 A 
ATOM      7  I   UNL d   1       0.752  -0.704  -0.147  0.00  0.00    -0.146 I 
ENDROOT
TORSDOF 0
ENDMDL
