MODEL 1
REMARK minimizedAffinity -2.74883914
REMARK minimizedRMSD -1
REMARK  0 active torsions:
REMARK  status: ('A' for Active; 'I' for Inactive)
ROOT
ATOM      1  C   UNL d   1      -0.037   1.160  -0.140  0.00  0.00     0.023 A 
ATOM      2  C1  UNL d   1       0.553   1.056  -1.399  0.00  0.00     0.003 A 
ATOM      3  C2  UNL d   1       0.589  -0.176  -2.055  0.00  0.00     0.048 A 
ATOM      4  C3  UNL d   1       0.033  -1.300  -1.446  0.00  0.00     0.023 A 
ATOM      5  C4  UNL d   1      -0.560  -1.201  -0.186  0.00  0.00     0.048 A 
ATOM      6  C5  UNL d   1      -0.593   0.033   0.466  0.00  0.00     0.003 A 
ATOM      7  I   UNL d   1       0.085  -3.136  -2.420  0.00  0.00    -0.146 I 
ENDROOT
TORSDOF 0
ENDMDL
