MODEL 1
REMARK minimizedAffinity -3.99347234
REMARK minimizedRMSD -1
REMARK  0 active torsions:
REMARK  status: ('A' for Active; 'I' for Inactive)
ROOT
ATOM      1  C   UNL d   1      -1.699   2.397   1.600  0.00  0.00     0.023 A 
ATOM      2  C1  UNL d   1      -1.812   2.290   0.214  0.00  0.00     0.003 A 
ATOM      3  C2  UNL d   1      -1.080   1.320  -0.474  0.00  0.00     0.048 A 
ATOM      4  C3  UNL d   1      -0.238   0.460   0.230  0.00  0.00     0.023 A 
ATOM      5  C4  UNL d   1      -0.122   0.564   1.617  0.00  0.00     0.048 A 
ATOM      6  C5  UNL d   1      -0.856   1.535   2.301  0.00  0.00     0.003 A 
ATOM      7  I   UNL d   1       0.853  -0.984  -0.792  0.00  0.00    -0.146 I 
ENDROOT
TORSDOF 0
ENDMDL
