MODEL 1
REMARK minimizedAffinity -4.61436415
REMARK minimizedRMSD -1
REMARK  0 active torsions:
REMARK  status: ('A' for Active; 'I' for Inactive)
ROOT
ATOM      1  C   UNL d   1      -1.819   3.782   0.221  0.00  0.00     0.023 A 
ATOM      2  C1  UNL d   1      -0.883   3.171  -0.613  0.00  0.00     0.003 A 
ATOM      3  C2  UNL d   1      -0.398   1.898  -0.305  0.00  0.00     0.048 A 
ATOM      4  C3  UNL d   1      -0.854   1.242   0.838  0.00  0.00     0.023 A 
ATOM      5  C4  UNL d   1      -1.791   1.850   1.675  0.00  0.00     0.048 A 
ATOM      6  C5  UNL d   1      -2.272   3.123   1.363  0.00  0.00     0.003 A 
ATOM      7  I   UNL d   1      -0.134  -0.652   1.299  0.00  0.00    -0.146 I 
ENDROOT
TORSDOF 0
ENDMDL
