MODEL 1
REMARK minimizedAffinity -3.06265783
REMARK minimizedRMSD -1
REMARK  0 active torsions:
REMARK  status: ('A' for Active; 'I' for Inactive)
ROOT
ATOM      1  C   UNL d   1      -0.641  -0.629   1.824  0.00  0.00     0.023 A 
ATOM      2  C1  UNL d   1      -1.371   0.514   2.151  0.00  0.00     0.003 A 
ATOM      3  C2  UNL d   1      -1.169   1.699   1.440  0.00  0.00     0.048 A 
ATOM      4  C3  UNL d   1      -0.238   1.733   0.403  0.00  0.00     0.023 A 
ATOM      5  C4  UNL d   1       0.493   0.591   0.072  0.00  0.00     0.048 A 
ATOM      6  C5  UNL d   1       0.289  -0.591   0.786  0.00  0.00     0.003 A 
ATOM      7  I   UNL d   1       0.063   3.496  -0.657  0.00  0.00    -0.146 I 
ENDROOT
TORSDOF 0
ENDMDL
