MODEL 1
REMARK minimizedAffinity -3.95169902
REMARK minimizedRMSD -1
REMARK  0 active torsions:
REMARK  status: ('A' for Active; 'I' for Inactive)
ROOT
ATOM      1  C   UNL d   1      -1.441   2.228   1.194  0.00  0.00     0.023 A 
ATOM      2  C1  UNL d   1      -1.466   1.073   1.977  0.00  0.00     0.003 A 
ATOM      3  C2  UNL d   1      -0.832  -0.088   1.530  0.00  0.00     0.048 A 
ATOM      4  C3  UNL d   1      -0.174  -0.088   0.300  0.00  0.00     0.023 A 
ATOM      5  C4  UNL d   1      -0.146   1.066  -0.486  0.00  0.00     0.048 A 
ATOM      6  C5  UNL d   1      -0.783   2.224  -0.035  0.00  0.00     0.003 A 
ATOM      7  I   UNL d   1       0.770  -1.815  -0.366  0.00  0.00    -0.146 I 
ENDROOT
TORSDOF 0
ENDMDL
