MODEL 1
REMARK minimizedAffinity -4.28436899
REMARK minimizedRMSD -1
REMARK  0 active torsions:
REMARK  status: ('A' for Active; 'I' for Inactive)
ROOT
ATOM      1  C   UNL d   1      -1.840   2.162   1.531  0.00  0.00     0.023 A 
ATOM      2  C1  UNL d   1      -1.922   2.064   0.142  0.00  0.00     0.003 A 
ATOM      3  C2  UNL d   1      -1.264   1.030  -0.526  0.00  0.00     0.048 A 
ATOM      4  C3  UNL d   1      -0.526   0.096   0.201  0.00  0.00     0.023 A 
ATOM      5  C4  UNL d   1      -0.442   0.190   1.591  0.00  0.00     0.048 A 
ATOM      6  C5  UNL d   1      -1.101   1.226   2.255  0.00  0.00     0.003 A 
ATOM      7  I   UNL d   1       0.455  -1.444  -0.791  0.00  0.00    -0.146 I 
ENDROOT
TORSDOF 0
ENDMDL
