MODEL 1
REMARK minimizedAffinity -4.27383041
REMARK minimizedRMSD -1
REMARK  0 active torsions:
REMARK  status: ('A' for Active; 'I' for Inactive)
ROOT
ATOM      1  C   UNL d   1      -2.164   3.017   0.667  0.00  0.00     0.023 A 
ATOM      2  C1  UNL d   1      -2.073   1.752   1.248  0.00  0.00     0.003 A 
ATOM      3  C2  UNL d   1      -1.140   0.828   0.771  0.00  0.00     0.048 A 
ATOM      4  C3  UNL d   1      -0.301   1.176  -0.287  0.00  0.00     0.023 A 
ATOM      5  C4  UNL d   1      -0.388   2.441  -0.871  0.00  0.00     0.048 A 
ATOM      6  C5  UNL d   1      -1.322   3.361  -0.391  0.00  0.00     0.003 A 
ATOM      7  I   UNL d   1       1.088  -0.197  -0.998  0.00  0.00    -0.146 I 
ENDROOT
TORSDOF 0
ENDMDL
