MODEL 1
REMARK minimizedAffinity -3.88811374
REMARK minimizedRMSD -1
REMARK  0 active torsions:
REMARK  status: ('A' for Active; 'I' for Inactive)
ROOT
ATOM      1  C   UNL d   1      -1.771   3.439   0.389  0.00  0.00     0.023 A 
ATOM      2  C1  UNL d   1      -0.719   3.579  -0.516  0.00  0.00     0.003 A 
ATOM      3  C2  UNL d   1       0.031   2.464  -0.895  0.00  0.00     0.048 A 
ATOM      4  C3  UNL d   1      -0.276   1.212  -0.365  0.00  0.00     0.023 A 
ATOM      5  C4  UNL d   1      -1.329   1.066   0.540  0.00  0.00     0.048 A 
ATOM      6  C5  UNL d   1      -2.075   2.184   0.917  0.00  0.00     0.003 A 
ATOM      7  I   UNL d   1       0.839  -0.450  -0.927  0.00  0.00    -0.146 I 
ENDROOT
TORSDOF 0
ENDMDL
