MODEL 1
REMARK minimizedAffinity -3.43201375
REMARK minimizedRMSD -1
REMARK  0 active torsions:
REMARK  status: ('A' for Active; 'I' for Inactive)
ROOT
ATOM      1  C   UNL d   1       0.868  -0.556  -1.295  0.00  0.00     0.023 A 
ATOM      2  C1  UNL d   1       0.659   0.736  -1.778  0.00  0.00     0.003 A 
ATOM      3  C2  UNL d   1      -0.073   1.655  -1.024  0.00  0.00     0.048 A 
ATOM      4  C3  UNL d   1      -0.594   1.276   0.212  0.00  0.00     0.023 A 
ATOM      5  C4  UNL d   1      -0.387  -0.015   0.700  0.00  0.00     0.048 A 
ATOM      6  C5  UNL d   1       0.345  -0.931  -0.058  0.00  0.00     0.003 A 
ATOM      7  I   UNL d   1      -1.685   2.642   1.337  0.00  0.00    -0.146 I 
ENDROOT
TORSDOF 0
ENDMDL
