MODEL 1
REMARK minimizedAffinity -0.821091771
REMARK minimizedRMSD -1
REMARK  0 active torsions:
REMARK  status: ('A' for Active; 'I' for Inactive)
ROOT
ATOM      1  C   UNL d   1      -0.652  -0.783   1.638  0.00  0.00     0.023 A 
ATOM      2  C1  UNL d   1      -1.310   0.265   2.282  0.00  0.00     0.003 A 
ATOM      3  C2  UNL d   1      -1.127   1.579   1.846  0.00  0.00     0.048 A 
ATOM      4  C3  UNL d   1      -0.285   1.838   0.765  0.00  0.00     0.023 A 
ATOM      5  C4  UNL d   1       0.375   0.792   0.117  0.00  0.00     0.048 A 
ATOM      6  C5  UNL d   1       0.189  -0.519   0.557  0.00  0.00     0.003 A 
ATOM      7  I   UNL d   1      -0.011   3.793   0.114  0.00  0.00    -0.146 I 
ENDROOT
TORSDOF 0
ENDMDL
