MODEL 1
REMARK minimizedAffinity 0.684598327
REMARK minimizedRMSD -1
REMARK  0 active torsions:
REMARK  status: ('A' for Active; 'I' for Inactive)
ROOT
ATOM      1  C   UNL d   1       4.129   0.746  -5.246  0.00  0.00     0.077 C 
ATOM      2  C1  UNL d   1       3.833   2.198  -5.478  0.00  0.00    -0.074 A 
ATOM      3  C2  UNL d   1       4.858   3.101  -5.777  0.00  0.00    -0.005 A 
ATOM      4  C3  UNL d   1       4.566   4.447  -5.999  0.00  0.00     0.006 A 
ATOM      5  C4  UNL d   1       3.249   4.902  -5.926  0.00  0.00    -0.005 A 
ATOM      6  C5  UNL d   1       2.211   4.013  -5.630  0.00  0.00    -0.074 A 
ATOM      7  C6  UNL d   1       0.788   4.483  -5.558  0.00  0.00     0.077 C 
ATOM      8  C7  UNL d   1       2.511   2.661  -5.414  0.00  0.00    -0.001 A 
ENDROOT
TORSDOF 0
ENDMDL
