MODEL 1
REMARK minimizedAffinity -1.70482826
REMARK minimizedRMSD -1
REMARK  0 active torsions:
REMARK  status: ('A' for Active; 'I' for Inactive)
ROOT
ATOM      1  C   UNL d   1       0.792   5.160  -5.606  0.00  0.00     0.077 C 
ATOM      2  C1  UNL d   1       2.200   4.642  -5.622  0.00  0.00    -0.074 A 
ATOM      3  C2  UNL d   1       3.265   5.468  -5.996  0.00  0.00    -0.005 A 
ATOM      4  C3  UNL d   1       4.570   4.975  -5.998  0.00  0.00     0.006 A 
ATOM      5  C4  UNL d   1       4.823   3.654  -5.626  0.00  0.00    -0.005 A 
ATOM      6  C5  UNL d   1       3.771   2.814  -5.248  0.00  0.00    -0.074 A 
ATOM      7  C6  UNL d   1       4.026   1.395  -4.837  0.00  0.00     0.077 C 
ATOM      8  C7  UNL d   1       2.463   3.319  -5.243  0.00  0.00    -0.001 A 
ENDROOT
TORSDOF 0
ENDMDL
