MODEL 1
REMARK minimizedAffinity -0.588737071
REMARK minimizedRMSD -1
REMARK  0 active torsions:
REMARK  status: ('A' for Active; 'I' for Inactive)
ROOT
ATOM      1  C   UNL d   1       6.000   5.008  -6.000  0.00  0.00     0.077 C 
ATOM      2  C1  UNL d   1       4.897   4.104  -5.534  0.00  0.00    -0.074 A 
ATOM      3  C2  UNL d   1       5.159   3.039  -4.667  0.00  0.00    -0.005 A 
ATOM      4  C3  UNL d   1       4.122   2.212  -4.235  0.00  0.00     0.006 A 
ATOM      5  C4  UNL d   1       2.815   2.441  -4.666  0.00  0.00    -0.005 A 
ATOM      6  C5  UNL d   1       2.534   3.502  -5.532  0.00  0.00    -0.074 A 
ATOM      7  C6  UNL d   1       1.133   3.768  -5.997  0.00  0.00     0.077 C 
ATOM      8  C7  UNL d   1       3.580   4.332  -5.956  0.00  0.00    -0.001 A 
ENDROOT
TORSDOF 0
ENDMDL
