MODEL 1
REMARK minimizedAffinity -3.4708519
REMARK minimizedRMSD -1
REMARK  0 active torsions:
REMARK  status: ('A' for Active; 'I' for Inactive)
ROOT
ATOM      1  C   UNL d   1       0.743   5.259  -5.625  0.00  0.00     0.077 C 
ATOM      2  C1  UNL d   1       2.153   4.747  -5.642  0.00  0.00    -0.074 A 
ATOM      3  C2  UNL d   1       3.217   5.583  -5.994  0.00  0.00    -0.005 A 
ATOM      4  C3  UNL d   1       4.524   5.095  -5.995  0.00  0.00     0.006 A 
ATOM      5  C4  UNL d   1       4.779   3.769  -5.645  0.00  0.00    -0.005 A 
ATOM      6  C5  UNL d   1       3.728   2.918  -5.289  0.00  0.00    -0.074 A 
ATOM      7  C6  UNL d   1       3.986   1.493  -4.900  0.00  0.00     0.077 C 
ATOM      8  C7  UNL d   1       2.418   3.418  -5.283  0.00  0.00    -0.001 A 
ENDROOT
TORSDOF 0
ENDMDL
