MODEL 1
REMARK minimizedAffinity -2.50442314
REMARK minimizedRMSD -1
REMARK  0 active torsions:
REMARK  status: ('A' for Active; 'I' for Inactive)
ROOT
ATOM      1  C   UNL d   1       4.127   1.535  -4.890  0.00  0.00     0.077 C 
ATOM      2  C1  UNL d   1       4.174   2.986  -5.269  0.00  0.00    -0.074 A 
ATOM      3  C2  UNL d   1       5.379   3.593  -5.638  0.00  0.00    -0.005 A 
ATOM      4  C3  UNL d   1       5.406   4.940  -5.998  0.00  0.00     0.006 A 
ATOM      5  C4  UNL d   1       4.231   5.693  -5.993  0.00  0.00    -0.005 A 
ATOM      6  C5  UNL d   1       3.017   5.102  -5.628  0.00  0.00    -0.074 A 
ATOM      7  C6  UNL d   1       1.743   5.894  -5.627  0.00  0.00     0.077 C 
ATOM      8  C7  UNL d   1       2.997   3.746  -5.274  0.00  0.00    -0.001 A 
ENDROOT
TORSDOF 0
ENDMDL
