MODEL 1
REMARK minimizedAffinity -2.64936805
REMARK minimizedRMSD -1
REMARK  0 active torsions:
REMARK  status: ('A' for Active; 'I' for Inactive)
ROOT
ATOM      1  C   UNL d   1       0.900   4.604  -6.000  0.00  0.00     0.077 C 
ATOM      2  C1  UNL d   1       2.270   4.059  -5.730  0.00  0.00    -0.074 A 
ATOM      3  C2  UNL d   1       2.444   2.755  -5.254  0.00  0.00    -0.005 A 
ATOM      4  C3  UNL d   1       3.726   2.258  -5.017  0.00  0.00     0.006 A 
ATOM      5  C4  UNL d   1       4.845   3.058  -5.253  0.00  0.00    -0.005 A 
ATOM      6  C5  UNL d   1       4.690   4.364  -5.731  0.00  0.00    -0.074 A 
ATOM      7  C6  UNL d   1       5.882   5.233  -6.000  0.00  0.00     0.077 C 
ATOM      8  C7  UNL d   1       3.400   4.853  -5.973  0.00  0.00    -0.001 A 
ENDROOT
TORSDOF 0
ENDMDL
