MODEL 1
REMARK minimizedAffinity -2.70293856
REMARK minimizedRMSD -1
REMARK  0 active torsions:
REMARK  status: ('A' for Active; 'I' for Inactive)
ROOT
ATOM      1  C   UNL d   1       1.175   5.720  -5.622  0.00  0.00     0.077 C 
ATOM      2  C1  UNL d   1       2.494   5.008  -5.629  0.00  0.00    -0.074 A 
ATOM      3  C2  UNL d   1       3.669   5.674  -5.994  0.00  0.00    -0.005 A 
ATOM      4  C3  UNL d   1       4.890   5.001  -5.987  0.00  0.00     0.006 A 
ATOM      5  C4  UNL d   1       4.950   3.657  -5.616  0.00  0.00    -0.005 A 
ATOM      6  C5  UNL d   1       3.786   2.975  -5.247  0.00  0.00    -0.074 A 
ATOM      7  C6  UNL d   1       3.834   1.533  -4.836  0.00  0.00     0.077 C 
ATOM      8  C7  UNL d   1       2.564   3.660  -5.250  0.00  0.00    -0.001 A 
ENDROOT
TORSDOF 0
ENDMDL
