MODEL 1
REMARK minimizedAffinity -0.782652915
REMARK minimizedRMSD -1
REMARK  0 active torsions:
REMARK  status: ('A' for Active; 'I' for Inactive)
ROOT
ATOM      1  C   UNL d   1       0.366   4.457  -5.997  0.00  0.00     0.077 C 
ATOM      2  C1  UNL d   1       1.824   4.126  -5.874  0.00  0.00    -0.074 A 
ATOM      3  C2  UNL d   1       2.800   5.120  -5.999  0.00  0.00    -0.005 A 
ATOM      4  C3  UNL d   1       4.151   4.798  -5.873  0.00  0.00     0.006 A 
ATOM      5  C4  UNL d   1       4.540   3.482  -5.622  0.00  0.00    -0.005 A 
ATOM      6  C5  UNL d   1       3.578   2.475  -5.493  0.00  0.00    -0.074 A 
ATOM      7  C6  UNL d   1       3.978   1.056  -5.213  0.00  0.00     0.077 C 
ATOM      8  C7  UNL d   1       2.222   2.807  -5.614  0.00  0.00    -0.001 A 
ENDROOT
TORSDOF 0
ENDMDL
