MODEL 1
REMARK minimizedAffinity -2.96108246
REMARK minimizedRMSD -1
REMARK  0 active torsions:
REMARK  status: ('A' for Active; 'I' for Inactive)
ROOT
ATOM      1  C   UNL d   1       5.999   5.777  -6.000  0.00  0.00     0.077 C 
ATOM      2  C1  UNL d   1       4.952   4.747  -5.697  0.00  0.00    -0.074 A 
ATOM      3  C2  UNL d   1       5.271   3.386  -5.663  0.00  0.00    -0.005 A 
ATOM      4  C3  UNL d   1       4.288   2.440  -5.371  0.00  0.00     0.006 A 
ATOM      5  C4  UNL d   1       2.979   2.845  -5.110  0.00  0.00    -0.005 A 
ATOM      6  C5  UNL d   1       2.641   4.202  -5.139  0.00  0.00    -0.074 A 
ATOM      7  C6  UNL d   1       1.240   4.655  -4.851  0.00  0.00     0.077 C 
ATOM      8  C7  UNL d   1       3.636   5.147  -5.426  0.00  0.00    -0.001 A 
ENDROOT
TORSDOF 0
ENDMDL
