MODEL 1
REMARK minimizedAffinity -2.99700236
REMARK minimizedRMSD -1
REMARK  0 active torsions:
REMARK  status: ('A' for Active; 'I' for Inactive)
ROOT
ATOM      1  C   UNL d   1       4.133   1.517  -4.504  0.00  0.00     0.077 C 
ATOM      2  C1  UNL d   1       3.848   2.896  -5.021  0.00  0.00    -0.074 A 
ATOM      3  C2  UNL d   1       4.877   3.708  -5.508  0.00  0.00    -0.005 A 
ATOM      4  C3  UNL d   1       4.595   4.984  -5.995  0.00  0.00     0.006 A 
ATOM      5  C4  UNL d   1       3.283   5.461  -6.000  0.00  0.00    -0.005 A 
ATOM      6  C5  UNL d   1       2.241   4.662  -5.518  0.00  0.00    -0.074 A 
ATOM      7  C6  UNL d   1       0.824   5.155  -5.525  0.00  0.00     0.077 C 
ATOM      8  C7  UNL d   1       2.531   3.378  -5.037  0.00  0.00    -0.001 A 
ENDROOT
TORSDOF 0
ENDMDL
