MODEL 1
REMARK minimizedAffinity -2.92460346
REMARK minimizedRMSD -1
REMARK  0 active torsions:
REMARK  status: ('A' for Active; 'I' for Inactive)
ROOT
ATOM      1  C   UNL d   1       0.388   4.500  -5.618  0.00  0.00     0.077 C 
ATOM      2  C1  UNL d   1       1.877   4.317  -5.618  0.00  0.00    -0.074 A 
ATOM      3  C2  UNL d   1       2.730   5.357  -6.000  0.00  0.00    -0.005 A 
ATOM      4  C3  UNL d   1       4.112   5.175  -5.986  0.00  0.00     0.006 A 
ATOM      5  C4  UNL d   1       4.655   3.952  -5.590  0.00  0.00    -0.005 A 
ATOM      6  C5  UNL d   1       3.818   2.900  -5.204  0.00  0.00    -0.074 A 
ATOM      7  C6  UNL d   1       4.386   1.582  -4.767  0.00  0.00     0.077 C 
ATOM      8  C7  UNL d   1       2.430   3.093  -5.215  0.00  0.00    -0.001 A 
ENDROOT
TORSDOF 0
ENDMDL
