MODEL 1
REMARK minimizedAffinity -2.48884654
REMARK minimizedRMSD -1
REMARK  0 active torsions:
REMARK  status: ('A' for Active; 'I' for Inactive)
ROOT
ATOM      1  C   UNL d   1       1.101   4.625  -6.000  0.00  0.00     0.077 C 
ATOM      2  C1  UNL d   1       2.552   4.245  -5.983  0.00  0.00    -0.074 A 
ATOM      3  C2  UNL d   1       2.944   2.903  -5.995  0.00  0.00    -0.005 A 
ATOM      4  C3  UNL d   1       4.297   2.565  -5.990  0.00  0.00     0.006 A 
ATOM      5  C4  UNL d   1       5.271   3.564  -5.972  0.00  0.00    -0.005 A 
ATOM      6  C5  UNL d   1       4.898   4.912  -5.960  0.00  0.00    -0.074 A 
ATOM      7  C6  UNL d   1       5.931   5.999  -5.951  0.00  0.00     0.077 C 
ATOM      8  C7  UNL d   1       3.536   5.244  -5.973  0.00  0.00    -0.001 A 
ENDROOT
TORSDOF 0
ENDMDL
