MODEL 1
REMARK minimizedAffinity -3.56412435
REMARK minimizedRMSD -1
REMARK  0 active torsions:
REMARK  status: ('A' for Active; 'I' for Inactive)
ROOT
ATOM      1  C   UNL d   1       5.631   1.723  -5.999  0.00  0.00     0.077 C 
ATOM      2  C1  UNL d   1       4.757   2.823  -5.474  0.00  0.00    -0.074 A 
ATOM      3  C2  UNL d   1       5.238   3.731  -4.524  0.00  0.00    -0.005 A 
ATOM      4  C3  UNL d   1       4.417   4.755  -4.052  0.00  0.00     0.006 A 
ATOM      5  C4  UNL d   1       3.110   4.882  -4.524  0.00  0.00    -0.005 A 
ATOM      6  C5  UNL d   1       2.613   3.985  -5.475  0.00  0.00    -0.074 A 
ATOM      7  C6  UNL d   1       1.214   4.113  -6.000  0.00  0.00     0.077 C 
ATOM      8  C7  UNL d   1       3.446   2.962  -5.949  0.00  0.00    -0.001 A 
ENDROOT
TORSDOF 0
ENDMDL
