MODEL 1
REMARK minimizedAffinity -1.52217686
REMARK minimizedRMSD -1
REMARK  0 active torsions:
REMARK  status: ('A' for Active; 'I' for Inactive)
ROOT
ATOM      1  C   UNL d   1       0.930   5.642  -5.992  0.00  0.00     0.077 C 
ATOM      2  C1  UNL d   1       2.326   5.095  -5.998  0.00  0.00    -0.074 A 
ATOM      3  C2  UNL d   1       3.433   5.951  -5.986  0.00  0.00    -0.005 A 
ATOM      4  C3  UNL d   1       4.726   5.428  -5.981  0.00  0.00     0.006 A 
ATOM      5  C4  UNL d   1       4.926   4.047  -5.989  0.00  0.00    -0.005 A 
ATOM      6  C5  UNL d   1       3.832   3.176  -6.000  0.00  0.00    -0.074 A 
ATOM      7  C6  UNL d   1       4.029   1.690  -5.998  0.00  0.00     0.077 C 
ATOM      8  C7  UNL d   1       2.535   3.709  -5.997  0.00  0.00    -0.001 A 
ENDROOT
TORSDOF 0
ENDMDL
