MODEL 1
REMARK minimizedAffinity 7.67139816
REMARK minimizedRMSD -1
REMARK  0 active torsions:
REMARK  status: ('A' for Active; 'I' for Inactive)
ROOT
ATOM      1  C   UNL d   1       4.816   5.999  -5.906  0.00  0.00     0.077 C 
ATOM      2  C1  UNL d   1       3.525   5.237  -5.940  0.00  0.00    -0.074 A 
ATOM      3  C2  UNL d   1       3.515   3.839  -5.940  0.00  0.00    -0.005 A 
ATOM      4  C3  UNL d   1       2.306   3.144  -5.962  0.00  0.00     0.006 A 
ATOM      5  C4  UNL d   1       1.096   3.839  -5.984  0.00  0.00    -0.005 A 
ATOM      6  C5  UNL d   1       1.086   5.237  -5.984  0.00  0.00    -0.074 A 
ATOM      7  C6  UNL d   1      -0.206   5.999  -5.997  0.00  0.00     0.077 C 
ATOM      8  C7  UNL d   1       2.305   5.928  -5.955  0.00  0.00    -0.001 A 
ENDROOT
TORSDOF 0
ENDMDL
