MODEL 1
REMARK minimizedAffinity -3.80627227
REMARK minimizedRMSD -1
REMARK  0 active torsions:
REMARK  status: ('A' for Active; 'I' for Inactive)
ROOT
ATOM      1  C   UNL d   1       0.760   4.147  -6.000  0.00  0.00     0.077 C 
ATOM      2  C1  UNL d   1       2.232   4.183  -5.712  0.00  0.00    -0.074 A 
ATOM      3  C2  UNL d   1       2.829   5.324  -5.167  0.00  0.00    -0.005 A 
ATOM      4  C3  UNL d   1       4.198   5.340  -4.896  0.00  0.00     0.006 A 
ATOM      5  C4  UNL d   1       4.981   4.218  -5.167  0.00  0.00    -0.005 A 
ATOM      6  C5  UNL d   1       4.401   3.068  -5.712  0.00  0.00    -0.074 A 
ATOM      7  C6  UNL d   1       5.226   1.849  -6.000  0.00  0.00     0.077 C 
ATOM      8  C7  UNL d   1       3.024   3.057  -5.975  0.00  0.00    -0.001 A 
ENDROOT
TORSDOF 0
ENDMDL
