MODEL 1
REMARK minimizedAffinity -2.6919868
REMARK minimizedRMSD -1
REMARK  0 active torsions:
REMARK  status: ('A' for Active; 'I' for Inactive)
ROOT
ATOM      1  C   UNL d   1       5.453   1.500  -6.000  0.00  0.00     0.077 C 
ATOM      2  C1  UNL d   1       4.880   2.885  -5.989  0.00  0.00    -0.074 A 
ATOM      3  C2  UNL d   1       5.713   4.008  -5.998  0.00  0.00    -0.005 A 
ATOM      4  C3  UNL d   1       5.165   5.291  -5.997  0.00  0.00     0.006 A 
ATOM      5  C4  UNL d   1       3.781   5.464  -5.987  0.00  0.00    -0.005 A 
ATOM      6  C5  UNL d   1       2.931   4.353  -5.978  0.00  0.00    -0.074 A 
ATOM      7  C6  UNL d   1       1.441   4.520  -5.977  0.00  0.00     0.077 C 
ATOM      8  C7  UNL d   1       3.489   3.067  -5.987  0.00  0.00    -0.001 A 
ENDROOT
TORSDOF 0
ENDMDL
