MODEL 1
REMARK minimizedAffinity -4.99281883
REMARK minimizedRMSD -1
REMARK  2 active torsions:
REMARK  status: ('A' for Active; 'I' for Inactive)
REMARK    1  A    between atoms: C1_2  and  C2_3 
REMARK    2  A    between atoms: C2_3  and  C3_4 
ROOT
ATOM      1  C3  UNL d   1       0.607  -0.527   0.160  0.00  0.00    -0.075 A 
ATOM      2  C4  UNL d   1      -0.381  -1.104   0.971  0.00  0.00     0.002 A 
ATOM      3  C5  UNL d   1      -0.079  -2.190   1.793  0.00  0.00     0.002 A 
ATOM      4  C6  UNL d   1       1.210  -2.719   1.806  0.00  0.00    -0.004 A 
ATOM      5  C7  UNL d   1       2.195  -2.165   0.992  0.00  0.00     0.002 A 
ATOM      6  C8  UNL d   1       1.896  -1.075   0.172  0.00  0.00     0.002 A 
ENDROOT
BRANCH   1   7
ATOM      7  C2  UNL d   1       0.293   0.667  -0.709  0.00  0.00     0.056 C 
BRANCH   7   8
ATOM      8  C1  UNL d   1      -1.113   1.239  -0.499  0.00  0.00     0.007 C 
ATOM      9  C   UNL d   1      -1.696   1.876  -1.754  0.00  0.00     0.009 C 
ENDBRANCH   7   8
ENDBRANCH   1   7
TORSDOF 2
ENDMDL
