MODEL 1
REMARK minimizedAffinity -5.87798643
REMARK minimizedRMSD -1
REMARK  2 active torsions:
REMARK  status: ('A' for Active; 'I' for Inactive)
REMARK    1  A    between atoms: C1_2  and  C2_3 
REMARK    2  A    between atoms: C2_3  and  C3_4 
ROOT
ATOM      1  C3  UNL d   1      -0.784   2.980  -2.987  0.00  0.00    -0.075 A 
ATOM      2  C4  UNL d   1      -0.979   2.207  -4.141  0.00  0.00     0.002 A 
ATOM      3  C5  UNL d   1      -1.917   1.175  -4.153  0.00  0.00     0.002 A 
ATOM      4  C6  UNL d   1      -2.665   0.896  -3.011  0.00  0.00    -0.004 A 
ATOM      5  C7  UNL d   1      -2.469   1.646  -1.854  0.00  0.00     0.002 A 
ATOM      6  C8  UNL d   1      -1.533   2.682  -1.840  0.00  0.00     0.002 A 
ENDROOT
BRANCH   1   7
ATOM      7  C2  UNL d   1       0.209   4.117  -2.976  0.00  0.00     0.056 C 
BRANCH   7   8
ATOM      8  C1  UNL d   1       0.114   5.039  -4.196  0.00  0.00     0.007 C 
ATOM      9  C   UNL d   1       1.291   5.998  -4.317  0.00  0.00     0.009 C 
ENDBRANCH   7   8
ENDBRANCH   1   7
TORSDOF 2
ENDMDL
