MODEL 1
REMARK minimizedAffinity -4.78680086
REMARK minimizedRMSD -1
REMARK  2 active torsions:
REMARK  status: ('A' for Active; 'I' for Inactive)
REMARK    1  A    between atoms: C1_2  and  C2_3 
REMARK    2  A    between atoms: C2_3  and  C3_4 
ROOT
ATOM      1  C3  UNL d   1      -0.407  -0.359   0.660  0.00  0.00    -0.075 A 
ATOM      2  C4  UNL d   1      -0.858  -1.085   1.772  0.00  0.00     0.002 A 
ATOM      3  C5  UNL d   1      -0.117  -2.159   2.265  0.00  0.00     0.002 A 
ATOM      4  C6  UNL d   1       1.077  -2.527   1.648  0.00  0.00    -0.004 A 
ATOM      5  C7  UNL d   1       1.526  -1.824   0.532  0.00  0.00     0.002 A 
ATOM      6  C8  UNL d   1       0.788  -0.746   0.039  0.00  0.00     0.002 A 
ENDROOT
BRANCH   1   7
ATOM      7  C2  UNL d   1      -1.190   0.823   0.140  0.00  0.00     0.056 C 
BRANCH   7   8
ATOM      8  C1  UNL d   1      -0.514   1.554  -1.025  0.00  0.00     0.007 C 
ATOM      9  C   UNL d   1      -1.486   1.952  -2.129  0.00  0.00     0.009 C 
ENDBRANCH   7   8
ENDBRANCH   1   7
TORSDOF 2
ENDMDL
