MODEL 1
REMARK minimizedAffinity -5.92381763
REMARK minimizedRMSD -1
REMARK  2 active torsions:
REMARK  status: ('A' for Active; 'I' for Inactive)
REMARK    1  A    between atoms: C1_2  and  C2_3 
REMARK    2  A    between atoms: C2_3  and  C3_4 
ROOT
ATOM      1  C3  UNL d   1      -0.742   1.324  -0.854  0.00  0.00    -0.075 A 
ATOM      2  C4  UNL d   1      -0.906   0.916  -2.186  0.00  0.00     0.002 A 
ATOM      3  C5  UNL d   1      -1.915   1.468  -2.976  0.00  0.00     0.002 A 
ATOM      4  C6  UNL d   1      -2.777   2.425  -2.443  0.00  0.00    -0.004 A 
ATOM      5  C7  UNL d   1      -2.633   2.825  -1.116  0.00  0.00     0.002 A 
ATOM      6  C8  UNL d   1      -1.621   2.278  -0.325  0.00  0.00     0.002 A 
ENDROOT
BRANCH   1   7
ATOM      7  C2  UNL d   1       0.367   0.753  -0.002  0.00  0.00     0.056 C 
BRANCH   7   8
ATOM      8  C1  UNL d   1       0.713  -0.705  -0.325  0.00  0.00     0.007 C 
ATOM      9  C   UNL d   1       1.541  -1.380   0.760  0.00  0.00     0.009 C 
ENDBRANCH   7   8
ENDBRANCH   1   7
TORSDOF 2
ENDMDL
