MODEL 1
REMARK minimizedAffinity -4.17748213
REMARK minimizedRMSD -1
REMARK  2 active torsions:
REMARK  status: ('A' for Active; 'I' for Inactive)
REMARK    1  A    between atoms: C1_2  and  C2_3 
REMARK    2  A    between atoms: C2_3  and  C3_4 
ROOT
ATOM      1  C3  UNL d   1      -0.875   1.917  -1.573  0.00  0.00    -0.075 A 
ATOM      2  C4  UNL d   1      -1.935   1.231  -2.185  0.00  0.00     0.002 A 
ATOM      3  C5  UNL d   1      -2.335   1.557  -3.481  0.00  0.00     0.002 A 
ATOM      4  C6  UNL d   1      -1.690   2.577  -4.177  0.00  0.00    -0.004 A 
ATOM      5  C7  UNL d   1      -0.647   3.276  -3.573  0.00  0.00     0.002 A 
ATOM      6  C8  UNL d   1      -0.241   2.949  -2.278  0.00  0.00     0.002 A 
ENDROOT
BRANCH   1   7
ATOM      7  C2  UNL d   1      -0.418   1.549  -0.182  0.00  0.00     0.056 C 
BRANCH   7   8
ATOM      8  C1  UNL d   1      -0.147   0.053   0.011  0.00  0.00     0.007 C 
ATOM      9  C   UNL d   1       1.331  -0.305  -0.072  0.00  0.00     0.009 C 
ENDBRANCH   7   8
ENDBRANCH   1   7
TORSDOF 2
ENDMDL
