MODEL 1
REMARK minimizedAffinity -6.19322062
REMARK minimizedRMSD -1
REMARK  2 active torsions:
REMARK  status: ('A' for Active; 'I' for Inactive)
REMARK    1  A    between atoms: C1_2  and  C2_3 
REMARK    2  A    between atoms: C2_3  and  C3_4 
ROOT
ATOM      1  C3  UNL d   1      -0.959   2.472  -2.501  0.00  0.00    -0.075 A 
ATOM      2  C4  UNL d   1      -1.216   2.152  -3.842  0.00  0.00     0.002 A 
ATOM      3  C5  UNL d   1      -0.809   3.008  -4.865  0.00  0.00     0.002 A 
ATOM      4  C6  UNL d   1      -0.151   4.198  -4.562  0.00  0.00    -0.004 A 
ATOM      5  C7  UNL d   1       0.095   4.534  -3.233  0.00  0.00     0.002 A 
ATOM      6  C8  UNL d   1      -0.307   3.677  -2.207  0.00  0.00     0.002 A 
ENDROOT
BRANCH   1   7
ATOM      7  C2  UNL d   1      -1.370   1.536  -1.390  0.00  0.00     0.056 C 
BRANCH   7   8
ATOM      8  C1  UNL d   1      -0.415   1.531  -0.192  0.00  0.00     0.007 C 
ATOM      9  C   UNL d   1       0.471   0.293  -0.136  0.00  0.00     0.009 C 
ENDBRANCH   7   8
ENDBRANCH   1   7
TORSDOF 2
ENDMDL
