MODEL 1
REMARK minimizedAffinity -5.11800957
REMARK minimizedRMSD -1
REMARK  2 active torsions:
REMARK  status: ('A' for Active; 'I' for Inactive)
REMARK    1  A    between atoms: C1_2  and  C2_3 
REMARK    2  A    between atoms: C2_3  and  C3_4 
ROOT
ATOM      1  C3  UNL d   1      -0.683   2.878  -3.782  0.00  0.00    -0.075 A 
ATOM      2  C4  UNL d   1      -1.875   2.361  -4.308  0.00  0.00     0.002 A 
ATOM      3  C5  UNL d   1      -2.837   1.802  -3.466  0.00  0.00     0.002 A 
ATOM      4  C6  UNL d   1      -2.615   1.743  -2.092  0.00  0.00    -0.004 A 
ATOM      5  C7  UNL d   1      -1.427   2.238  -1.560  0.00  0.00     0.002 A 
ATOM      6  C8  UNL d   1      -0.465   2.803  -2.399  0.00  0.00     0.002 A 
ENDROOT
BRANCH   1   7
ATOM      7  C2  UNL d   1       0.349   3.511  -4.684  0.00  0.00     0.056 C 
BRANCH   7   8
ATOM      8  C1  UNL d   1       1.098   4.687  -4.047  0.00  0.00     0.007 C 
ATOM      9  C   UNL d   1       0.319   5.994  -4.098  0.00  0.00     0.009 C 
ENDBRANCH   7   8
ENDBRANCH   1   7
TORSDOF 2
ENDMDL
