MODEL 1
REMARK minimizedAffinity -5.06140947
REMARK minimizedRMSD -1
REMARK  2 active torsions:
REMARK  status: ('A' for Active; 'I' for Inactive)
REMARK    1  A    between atoms: C1_2  and  C2_3 
REMARK    2  A    between atoms: C2_3  and  C3_4 
ROOT
ATOM      1  C3  UNL d   1      -0.854   2.434  -3.484  0.00  0.00    -0.075 A 
ATOM      2  C4  UNL d   1      -2.027   1.886  -4.022  0.00  0.00     0.002 A 
ATOM      3  C5  UNL d   1      -2.954   1.248  -3.197  0.00  0.00     0.002 A 
ATOM      4  C6  UNL d   1      -2.715   1.140  -1.829  0.00  0.00    -0.004 A 
ATOM      5  C7  UNL d   1      -1.545   1.667  -1.286  0.00  0.00     0.002 A 
ATOM      6  C8  UNL d   1      -0.618   2.310  -2.108  0.00  0.00     0.002 A 
ENDROOT
BRANCH   1   7
ATOM      7  C2  UNL d   1       0.139   3.152  -4.367  0.00  0.00     0.056 C 
BRANCH   7   8
ATOM      8  C1  UNL d   1       0.775   4.385  -3.716  0.00  0.00     0.007 C 
ATOM      9  C   UNL d   1       0.823   5.594  -4.640  0.00  0.00     0.009 C 
ENDBRANCH   7   8
ENDBRANCH   1   7
TORSDOF 2
ENDMDL
