MODEL 1
REMARK minimizedAffinity -5.52841806
REMARK minimizedRMSD -1
REMARK  2 active torsions:
REMARK  status: ('A' for Active; 'I' for Inactive)
REMARK    1  A    between atoms: C1_2  and  C2_3 
REMARK    2  A    between atoms: C2_3  and  C3_4 
ROOT
ATOM      1  C3  UNL d   1      -0.707   2.790  -3.882  0.00  0.00    -0.075 A 
ATOM      2  C4  UNL d   1      -1.971   2.227  -4.114  0.00  0.00     0.002 A 
ATOM      3  C5  UNL d   1      -2.631   1.529  -3.103  0.00  0.00     0.002 A 
ATOM      4  C6  UNL d   1      -2.034   1.376  -1.853  0.00  0.00    -0.004 A 
ATOM      5  C7  UNL d   1      -0.772   1.916  -1.617  0.00  0.00     0.002 A 
ATOM      6  C8  UNL d   1      -0.111   2.620  -2.626  0.00  0.00     0.002 A 
ENDROOT
BRANCH   1   7
ATOM      7  C2  UNL d   1       0.000   3.572  -4.963  0.00  0.00     0.056 C 
BRANCH   7   8
ATOM      8  C1  UNL d   1       0.733   4.818  -4.454  0.00  0.00     0.007 C 
ATOM      9  C   UNL d   1      -0.195   6.000  -4.204  0.00  0.00     0.009 C 
ENDBRANCH   7   8
ENDBRANCH   1   7
TORSDOF 2
ENDMDL
