MODEL 1
REMARK minimizedAffinity -1.45112431
REMARK minimizedRMSD -1
REMARK  2 active torsions:
REMARK  status: ('A' for Active; 'I' for Inactive)
REMARK    1  A    between atoms: C1_2  and  C2_3 
REMARK    2  A    between atoms: C2_3  and  C3_4 
ROOT
ATOM      1  C3  UNL d   1      -0.201   1.174  -0.840  0.00  0.00    -0.075 A 
ATOM      2  C4  UNL d   1      -0.837   0.683   0.309  0.00  0.00     0.002 A 
ATOM      3  C5  UNL d   1      -0.177  -0.205   1.159  0.00  0.00     0.002 A 
ATOM      4  C6  UNL d   1       1.121  -0.619   0.867  0.00  0.00    -0.004 A 
ATOM      5  C7  UNL d   1       1.756  -0.150  -0.281  0.00  0.00     0.002 A 
ATOM      6  C8  UNL d   1       1.099   0.741  -1.131  0.00  0.00     0.002 A 
ENDROOT
BRANCH   1   7
ATOM      7  C2  UNL d   1      -0.900   2.158  -1.749  0.00  0.00     0.056 C 
BRANCH   7   8
ATOM      8  C1  UNL d   1       0.051   2.990  -2.616  0.00  0.00     0.007 C 
ATOM      9  C   UNL d   1      -0.295   2.947  -4.098  0.00  0.00     0.009 C 
ENDBRANCH   7   8
ENDBRANCH   1   7
TORSDOF 2
ENDMDL
