MODEL 1
REMARK minimizedAffinity -3.49669933
REMARK minimizedRMSD -1
REMARK  2 active torsions:
REMARK  status: ('A' for Active; 'I' for Inactive)
REMARK    1  A    between atoms: C1_2  and  C2_3 
REMARK    2  A    between atoms: C2_3  and  C3_4 
ROOT
ATOM      1  C3  UNL d   1       0.080   0.320   0.802  0.00  0.00    -0.075 A 
ATOM      2  C4  UNL d   1      -0.191  -0.432   1.954  0.00  0.00     0.002 A 
ATOM      3  C5  UNL d   1       0.644  -1.486   2.325  0.00  0.00     0.002 A 
ATOM      4  C6  UNL d   1       1.752  -1.809   1.545  0.00  0.00    -0.004 A 
ATOM      5  C7  UNL d   1       2.021  -1.080   0.389  0.00  0.00     0.002 A 
ATOM      6  C8  UNL d   1       1.190  -0.021   0.018  0.00  0.00     0.002 A 
ENDROOT
BRANCH   1   7
ATOM      7  C2  UNL d   1      -0.803   1.481   0.411  0.00  0.00     0.056 C 
BRANCH   7   8
ATOM      8  C1  UNL d   1      -0.680   1.891  -1.060  0.00  0.00     0.007 C 
ATOM      9  C   UNL d   1      -1.930   1.587  -1.875  0.00  0.00     0.009 C 
ENDBRANCH   7   8
ENDBRANCH   1   7
TORSDOF 2
ENDMDL
