MODEL 1
REMARK minimizedAffinity -3.9000802
REMARK minimizedRMSD -1
REMARK  2 active torsions:
REMARK  status: ('A' for Active; 'I' for Inactive)
REMARK    1  A    between atoms: C1_2  and  C2_3 
REMARK    2  A    between atoms: C2_3  and  C3_4 
ROOT
ATOM      1  C3  UNL d   1      -1.227   1.282  -1.342  0.00  0.00    -0.075 A 
ATOM      2  C4  UNL d   1      -2.498   0.842  -1.743  0.00  0.00     0.002 A 
ATOM      3  C5  UNL d   1      -2.940   1.052  -3.049  0.00  0.00     0.002 A 
ATOM      4  C6  UNL d   1      -2.124   1.710  -3.967  0.00  0.00    -0.004 A 
ATOM      5  C7  UNL d   1      -0.867   2.166  -3.575  0.00  0.00     0.002 A 
ATOM      6  C8  UNL d   1      -0.420   1.954  -2.269  0.00  0.00     0.002 A 
ENDROOT
BRANCH   1   7
ATOM      7  C2  UNL d   1      -0.731   1.032   0.063  0.00  0.00     0.056 C 
BRANCH   7   8
ATOM      8  C1  UNL d   1      -0.057  -0.330   0.253  0.00  0.00     0.007 C 
ATOM      9  C   UNL d   1       1.453  -0.285   0.058  0.00  0.00     0.009 C 
ENDBRANCH   7   8
ENDBRANCH   1   7
TORSDOF 2
ENDMDL
