MODEL 1
REMARK minimizedAffinity -5.26904154
REMARK minimizedRMSD -1
REMARK  0 active torsions:
REMARK  status: ('A' for Active; 'I' for Inactive)
ROOT
ATOM      1  O1  BZF d   1       1.963   3.405  -2.188  0.00  0.00    -0.204 OA
ATOM      2  C2  BZF d   1       1.811   4.588  -1.492  0.00  0.00     0.174 A 
ATOM      3  C3  BZF d   1       1.370   4.352  -0.239  0.00  0.00    -0.012 A 
ATOM      4  C3A BZF d   1       1.328   2.927  -0.117  0.00  0.00    -0.107 A 
ATOM      5  C4  BZF d   1       0.987   2.082   0.899  0.00  0.00     0.055 A 
ATOM      6  C5  BZF d   1       0.983   0.742   0.671  0.00  0.00    -0.016 A 
ATOM      7  C6  BZF d   1       1.310   0.215  -0.561  0.00  0.00     0.022 A 
ATOM      8  C7  BZF d   1       1.660   1.013  -1.599  0.00  0.00     0.029 A 
ATOM      9  C7A BZF d   1       1.696   2.366  -1.362  0.00  0.00     0.058 A 
ENDROOT
TORSDOF 0
ENDMDL
