MODEL 1
REMARK minimizedAffinity -4.22150707
REMARK minimizedRMSD -1
REMARK  0 active torsions:
REMARK  status: ('A' for Active; 'I' for Inactive)
ROOT
ATOM      1  O1  BZF d   1       1.585  -0.697  -2.373  0.00  0.00    -0.204 OA
ATOM      2  C2  BZF d   1       1.137  -1.783  -1.646  0.00  0.00     0.174 A 
ATOM      3  C3  BZF d   1       0.830  -1.420  -0.384  0.00  0.00    -0.012 A 
ATOM      4  C3A BZF d   1       1.014  -0.002  -0.345  0.00  0.00    -0.107 A 
ATOM      5  C4  BZF d   1       0.852   0.939   0.631  0.00  0.00     0.055 A 
ATOM      6  C5  BZF d   1       1.188   2.229   0.367  0.00  0.00    -0.016 A 
ATOM      7  C6  BZF d   1       1.694   2.612  -0.858  0.00  0.00     0.022 A 
ATOM      8  C7  BZF d   1       1.868   1.715  -1.859  0.00  0.00     0.029 A 
ATOM      9  C7A BZF d   1       1.498   0.416  -1.606  0.00  0.00     0.058 A 
ENDROOT
TORSDOF 0
ENDMDL
