MODEL 1
REMARK minimizedAffinity -0.166724473
REMARK minimizedRMSD -1
REMARK  0 active torsions:
REMARK  status: ('A' for Active; 'I' for Inactive)
ROOT
ATOM      1  O1  BZF d   1       1.313   3.327  -2.424  0.00  0.00    -0.204 OA
ATOM      2  C2  BZF d   1       1.573   4.449  -1.660  0.00  0.00     0.174 A 
ATOM      3  C3  BZF d   1       1.496   4.160  -0.345  0.00  0.00    -0.012 A 
ATOM      4  C3A BZF d   1       1.258   2.751  -0.282  0.00  0.00    -0.107 A 
ATOM      5  C4  BZF d   1       1.102   1.871   0.750  0.00  0.00     0.055 A 
ATOM      6  C5  BZF d   1       0.808   0.573   0.473  0.00  0.00    -0.016 A 
ATOM      7  C6  BZF d   1       0.659   0.123  -0.823  0.00  0.00     0.022 A 
ATOM      8  C7  BZF d   1       0.809   0.959  -1.880  0.00  0.00     0.029 A 
ATOM      9  C7A BZF d   1       1.138   2.263  -1.604  0.00  0.00     0.058 A 
ENDROOT
TORSDOF 0
ENDMDL
