MODEL 1
REMARK minimizedAffinity 0.634167492
REMARK minimizedRMSD -1
REMARK  0 active torsions:
REMARK  status: ('A' for Active; 'I' for Inactive)
ROOT
ATOM      1  O1  BZF d   1       1.323   3.679  -0.516  0.00  0.00    -0.204 OA
ATOM      2  C2  BZF d   1       1.519   3.664  -1.883  0.00  0.00     0.174 A 
ATOM      3  C3  BZF d   1       1.528   2.399  -2.351  0.00  0.00    -0.012 A 
ATOM      4  C3A BZF d   1       1.233   1.577  -1.218  0.00  0.00    -0.107 A 
ATOM      5  C4  BZF d   1       1.088   0.230  -1.048  0.00  0.00     0.055 A 
ATOM      6  C5  BZF d   1       0.873  -0.259   0.202  0.00  0.00    -0.016 A 
ATOM      7  C6  BZF d   1       0.804   0.569   1.303  0.00  0.00     0.022 A 
ATOM      8  C7  BZF d   1       0.937   1.912   1.184  0.00  0.00     0.029 A 
ATOM      9  C7A BZF d   1       1.121   2.412  -0.082  0.00  0.00     0.058 A 
ENDROOT
TORSDOF 0
ENDMDL
