MODEL 1
REMARK minimizedAffinity -2.26880026
REMARK minimizedRMSD -1
REMARK  0 active torsions:
REMARK  status: ('A' for Active; 'I' for Inactive)
ROOT
ATOM      1  O1  BZF d   1       0.836  -0.948   0.518  0.00  0.00    -0.204 OA
ATOM      2  C2  BZF d   1       0.846  -1.727  -0.622  0.00  0.00     0.174 A 
ATOM      3  C3  BZF d   1       0.856  -0.957  -1.729  0.00  0.00    -0.012 A 
ATOM      4  C3A BZF d   1       0.945   0.389  -1.249  0.00  0.00    -0.107 A 
ATOM      5  C4  BZF d   1       1.009   1.604  -1.869  0.00  0.00     0.055 A 
ATOM      6  C5  BZF d   1       1.014   2.732  -1.112  0.00  0.00    -0.016 A 
ATOM      7  C6  BZF d   1       0.952   2.682   0.265  0.00  0.00     0.022 A 
ATOM      8  C7  BZF d   1       0.893   1.500   0.925  0.00  0.00     0.029 A 
ATOM      9  C7A BZF d   1       0.920   0.357   0.164  0.00  0.00     0.058 A 
ENDROOT
TORSDOF 0
ENDMDL
