MODEL 1
REMARK minimizedAffinity 3.87460303
REMARK minimizedRMSD -1
REMARK  0 active torsions:
REMARK  status: ('A' for Active; 'I' for Inactive)
ROOT
ATOM      1  O1  BZF d   1       2.572  -0.588  -1.711  0.00  0.00    -0.204 OA
ATOM      2  C2  BZF d   1       1.797  -0.381  -2.835  0.00  0.00     0.174 A 
ATOM      3  C3  BZF d   1       0.941   0.645  -2.645  0.00  0.00    -0.012 A 
ATOM      4  C3A BZF d   1       1.262   1.167  -1.352  0.00  0.00    -0.107 A 
ATOM      5  C4  BZF d   1       0.769   2.201  -0.609  0.00  0.00     0.055 A 
ATOM      6  C5  BZF d   1       1.251   2.401   0.646  0.00  0.00    -0.016 A 
ATOM      7  C6  BZF d   1       2.220   1.584   1.190  0.00  0.00     0.022 A 
ATOM      8  C7  BZF d   1       2.743   0.548   0.490  0.00  0.00     0.029 A 
ATOM      9  C7A BZF d   1       2.281   0.364  -0.791  0.00  0.00     0.058 A 
ENDROOT
TORSDOF 0
ENDMDL
