MODEL 1
REMARK minimizedAffinity -3.25415802
REMARK minimizedRMSD -1
REMARK  0 active torsions:
REMARK  status: ('A' for Active; 'I' for Inactive)
ROOT
ATOM      1  O1  BZF d   1       1.644  -0.755   0.579  0.00  0.00    -0.204 OA
ATOM      2  C2  BZF d   1       1.217  -1.499  -0.504  0.00  0.00     0.174 A 
ATOM      3  C3  BZF d   1       0.742  -0.696  -1.477  0.00  0.00    -0.012 A 
ATOM      4  C3A BZF d   1       0.967   0.637  -1.009  0.00  0.00    -0.107 A 
ATOM      5  C4  BZF d   1       0.723   1.872  -1.539  0.00  0.00     0.055 A 
ATOM      6  C5  BZF d   1       0.994   2.976  -0.794  0.00  0.00    -0.016 A 
ATOM      7  C6  BZF d   1       1.504   2.882   0.485  0.00  0.00     0.022 A 
ATOM      8  C7  BZF d   1       1.767   1.679   1.051  0.00  0.00     0.029 A 
ATOM      9  C7A BZF d   1       1.525   0.562   0.288  0.00  0.00     0.058 A 
ENDROOT
TORSDOF 0
ENDMDL
