MODEL 1
REMARK minimizedAffinity -3.08533621
REMARK minimizedRMSD -1
REMARK  0 active torsions:
REMARK  status: ('A' for Active; 'I' for Inactive)
ROOT
ATOM      1  O1  BZF d   1       2.271  -0.825  -0.097  0.00  0.00    -0.204 OA
ATOM      2  C2  BZF d   1       1.860  -1.471  -1.247  0.00  0.00     0.174 A 
ATOM      3  C3  BZF d   1       1.286  -0.603  -2.104  0.00  0.00    -0.012 A 
ATOM      4  C3A BZF d   1       1.426   0.681  -1.489  0.00  0.00    -0.107 A 
ATOM      5  C4  BZF d   1       1.067   1.945  -1.862  0.00  0.00     0.055 A 
ATOM      6  C5  BZF d   1       1.282   2.974  -1.000  0.00  0.00    -0.016 A 
ATOM      7  C6  BZF d   1       1.847   2.775   0.242  0.00  0.00     0.022 A 
ATOM      8  C7  BZF d   1       2.224   1.540   0.654  0.00  0.00     0.029 A 
ATOM      9  C7A BZF d   1       2.039   0.503  -0.227  0.00  0.00     0.058 A 
ENDROOT
TORSDOF 0
ENDMDL
