MODEL 1
REMARK minimizedAffinity 2.97696209
REMARK minimizedRMSD -1
REMARK  0 active torsions:
REMARK  status: ('A' for Active; 'I' for Inactive)
ROOT
ATOM      1  O1  BZF d   1       1.498  -1.745   0.564  0.00  0.00    -0.204 OA
ATOM      2  C2  BZF d   1       1.017  -2.478  -0.503  0.00  0.00     0.174 A 
ATOM      3  C3  BZF d   1       0.465  -1.668  -1.430  0.00  0.00    -0.012 A 
ATOM      4  C3A BZF d   1       0.694  -0.339  -0.952  0.00  0.00    -0.107 A 
ATOM      5  C4  BZF d   1       0.394   0.899  -1.443  0.00  0.00     0.055 A 
ATOM      6  C5  BZF d   1       0.691   1.995  -0.696  0.00  0.00    -0.016 A 
ATOM      7  C6  BZF d   1       1.283   1.889   0.545  0.00  0.00     0.022 A 
ATOM      8  C7  BZF d   1       1.604   0.683   1.072  0.00  0.00     0.029 A 
ATOM      9  C7A BZF d   1       1.335  -0.425   0.305  0.00  0.00     0.058 A 
ENDROOT
TORSDOF 0
ENDMDL
