MODEL 1
REMARK minimizedAffinity -3.95946455
REMARK minimizedRMSD -1
REMARK  0 active torsions:
REMARK  status: ('A' for Active; 'I' for Inactive)
ROOT
ATOM      1  O1  BZF d   1       1.464   1.266  -2.385  0.00  0.00    -0.204 OA
ATOM      2  C2  BZF d   1       1.351   0.024  -1.789  0.00  0.00     0.174 A 
ATOM      3  C3  BZF d   1       1.386   0.133  -0.446  0.00  0.00    -0.012 A 
ATOM      4  C3A BZF d   1       1.438   1.539  -0.184  0.00  0.00    -0.107 A 
ATOM      5  C4  BZF d   1       1.474   2.280   0.963  0.00  0.00     0.055 A 
ATOM      6  C5  BZF d   1       1.595   3.630   0.874  0.00  0.00    -0.016 A 
ATOM      7  C6  BZF d   1       1.688   4.272  -0.344  0.00  0.00     0.022 A 
ATOM      8  C7  BZF d   1       1.652   3.580  -1.509  0.00  0.00     0.029 A 
ATOM      9  C7A BZF d   1       1.496   2.218  -1.423  0.00  0.00     0.058 A 
ENDROOT
TORSDOF 0
ENDMDL
