MODEL 1
REMARK minimizedAffinity -1.78529799
REMARK minimizedRMSD -1
REMARK  0 active torsions:
REMARK  status: ('A' for Active; 'I' for Inactive)
ROOT
ATOM      1  O1  BZF d   1       1.395   3.939   0.761  0.00  0.00    -0.204 OA
ATOM      2  C2  BZF d   1       1.733   4.834  -0.236  0.00  0.00     0.174 A 
ATOM      3  C3  BZF d   1       1.820   4.212  -1.429  0.00  0.00    -0.012 A 
ATOM      4  C3A BZF d   1       1.427   2.859  -1.177  0.00  0.00    -0.107 A 
ATOM      5  C4  BZF d   1       1.296   1.756  -1.972  0.00  0.00     0.055 A 
ATOM      6  C5  BZF d   1       0.963   0.568  -1.402  0.00  0.00    -0.016 A 
ATOM      7  C6  BZF d   1       0.760   0.445  -0.043  0.00  0.00     0.022 A 
ATOM      8  C7  BZF d   1       0.874   1.512   0.785  0.00  0.00     0.029 A 
ATOM      9  C7A BZF d   1       1.178   2.721   0.208  0.00  0.00     0.058 A 
ENDROOT
TORSDOF 0
ENDMDL
