MODEL 1
REMARK minimizedAffinity -0.857306719
REMARK minimizedRMSD -1
REMARK  0 active torsions:
REMARK  status: ('A' for Active; 'I' for Inactive)
ROOT
ATOM      1  O1  BZF d   1       1.698   3.865  -0.256  0.00  0.00    -0.204 OA
ATOM      2  C2  BZF d   1       1.506   4.236  -1.572  0.00  0.00     0.174 A 
ATOM      3  C3  BZF d   1       1.197   3.165  -2.332  0.00  0.00    -0.012 A 
ATOM      4  C3A BZF d   1       1.104   2.069  -1.416  0.00  0.00    -0.107 A 
ATOM      5  C4  BZF d   1       0.810   0.744  -1.565  0.00  0.00     0.055 A 
ATOM      6  C5  BZF d   1       0.876  -0.073  -0.481  0.00  0.00    -0.016 A 
ATOM      7  C6  BZF d   1       1.236   0.400   0.764  0.00  0.00     0.022 A 
ATOM      8  C7  BZF d   1       1.531   1.708   0.962  0.00  0.00     0.029 A 
ATOM      9  C7A BZF d   1       1.434   2.542  -0.125  0.00  0.00     0.058 A 
ENDROOT
TORSDOF 0
ENDMDL
