MODEL 1
REMARK minimizedAffinity 1.37772036
REMARK minimizedRMSD -1
REMARK  0 active torsions:
REMARK  status: ('A' for Active; 'I' for Inactive)
ROOT
ATOM      1  O1  BZF d   1       2.142   2.183  -2.309  0.00  0.00    -0.204 OA
ATOM      2  C2  BZF d   1       1.807   3.441  -1.847  0.00  0.00     0.174 A 
ATOM      3  C3  BZF d   1       1.112   3.358  -0.694  0.00  0.00    -0.012 A 
ATOM      4  C3A BZF d   1       1.085   1.965  -0.371  0.00  0.00    -0.107 A 
ATOM      5  C4  BZF d   1       0.555   1.252   0.667  0.00  0.00     0.055 A 
ATOM      6  C5  BZF d   1       0.640  -0.104   0.648  0.00  0.00    -0.016 A 
ATOM      7  C6  BZF d   1       1.241  -0.779  -0.394  0.00  0.00     0.022 A 
ATOM      8  C7  BZF d   1       1.786  -0.116  -1.442  0.00  0.00     0.029 A 
ATOM      9  C7A BZF d   1       1.731   1.257  -1.410  0.00  0.00     0.058 A 
ENDROOT
TORSDOF 0
ENDMDL
