MODEL 1
REMARK minimizedAffinity -2.8782661
REMARK minimizedRMSD -1
REMARK  0 active torsions:
REMARK  status: ('A' for Active; 'I' for Inactive)
ROOT
ATOM      1  O1  BZF d   1       1.604   3.962   0.318  0.00  0.00    -0.204 OA
ATOM      2  C2  BZF d   1       1.603   4.669  -0.869  0.00  0.00     0.174 A 
ATOM      3  C3  BZF d   1       1.486   3.835  -1.922  0.00  0.00    -0.012 A 
ATOM      4  C3A BZF d   1       1.315   2.533  -1.355  0.00  0.00    -0.107 A 
ATOM      5  C4  BZF d   1       1.131   1.291  -1.892  0.00  0.00     0.055 A 
ATOM      6  C5  BZF d   1       1.072   0.215  -1.064  0.00  0.00    -0.016 A 
ATOM      7  C6  BZF d   1       1.199   0.344   0.304  0.00  0.00     0.022 A 
ATOM      8  C7  BZF d   1       1.378   1.556   0.884  0.00  0.00     0.029 A 
ATOM      9  C7A BZF d   1       1.404   2.649   0.052  0.00  0.00     0.058 A 
ENDROOT
TORSDOF 0
ENDMDL
