MODEL 1
REMARK minimizedAffinity 1.61338902
REMARK minimizedRMSD -1
REMARK  0 active torsions:
REMARK  status: ('A' for Active; 'I' for Inactive)
ROOT
ATOM      1  O1  BZF d   1       1.447   3.260  -2.376  0.00  0.00    -0.204 OA
ATOM      2  C2  BZF d   1       1.824   4.360  -1.630  0.00  0.00     0.174 A 
ATOM      3  C3  BZF d   1       1.888   4.049  -0.319  0.00  0.00    -0.012 A 
ATOM      4  C3A BZF d   1       1.618   2.646  -0.252  0.00  0.00    -0.107 A 
ATOM      5  C4  BZF d   1       1.556   1.750   0.778  0.00  0.00     0.055 A 
ATOM      6  C5  BZF d   1       1.197   0.466   0.515  0.00  0.00    -0.016 A 
ATOM      7  C6  BZF d   1       0.890   0.045  -0.762  0.00  0.00     0.022 A 
ATOM      8  C7  BZF d   1       0.943   0.895  -1.816  0.00  0.00     0.029 A 
ATOM      9  C7A BZF d   1       1.337   2.186  -1.559  0.00  0.00     0.058 A 
ENDROOT
TORSDOF 0
ENDMDL
