MODEL 1
REMARK minimizedAffinity -2.98051262
REMARK minimizedRMSD -1
REMARK  0 active torsions:
REMARK  status: ('A' for Active; 'I' for Inactive)
ROOT
ATOM      1  O1  BZF d   1       1.095   3.690   0.337  0.00  0.00    -0.204 OA
ATOM      2  C2  BZF d   1       1.458   4.528  -0.699  0.00  0.00     0.174 A 
ATOM      3  C3  BZF d   1       1.693   3.823  -1.825  0.00  0.00    -0.012 A 
ATOM      4  C3A BZF d   1       1.373   2.468  -1.494  0.00  0.00    -0.107 A 
ATOM      5  C4  BZF d   1       1.389   1.300  -2.201  0.00  0.00     0.055 A 
ATOM      6  C5  BZF d   1       1.090   0.138  -1.563  0.00  0.00    -0.016 A 
ATOM      7  C6  BZF d   1       0.775   0.106  -0.220  0.00  0.00     0.022 A 
ATOM      8  C7  BZF d   1       0.741   1.240   0.521  0.00  0.00     0.029 A 
ATOM      9  C7A BZF d   1       1.011   2.420  -0.127  0.00  0.00     0.058 A 
ENDROOT
TORSDOF 0
ENDMDL
