MODEL 1
REMARK minimizedAffinity 2.39480519
REMARK minimizedRMSD -1
REMARK  0 active torsions:
REMARK  status: ('A' for Active; 'I' for Inactive)
ROOT
ATOM      1  O1  BZF d   1       1.039   2.586  -2.798  0.00  0.00    -0.204 OA
ATOM      2  C2  BZF d   1       1.523   3.759  -2.253  0.00  0.00     0.174 A 
ATOM      3  C3  BZF d   1       1.828   3.592  -0.950  0.00  0.00    -0.012 A 
ATOM      4  C3A BZF d   1       1.600   2.204  -0.686  0.00  0.00    -0.107 A 
ATOM      5  C4  BZF d   1       1.740   1.425   0.427  0.00  0.00     0.055 A 
ATOM      6  C5  BZF d   1       1.363   0.120   0.371  0.00  0.00    -0.016 A 
ATOM      7  C6  BZF d   1       0.839  -0.436  -0.777  0.00  0.00     0.022 A 
ATOM      8  C7  BZF d   1       0.686   0.296  -1.907  0.00  0.00     0.029 A 
ATOM      9  C7A BZF d   1       1.097   1.606  -1.864  0.00  0.00     0.058 A 
ENDROOT
TORSDOF 0
ENDMDL
