MODEL 1
REMARK minimizedAffinity -4.13326311
REMARK minimizedRMSD -1
REMARK  0 active torsions:
REMARK  status: ('A' for Active; 'I' for Inactive)
ROOT
ATOM      1  O1  BZF d   1       0.785   3.112  -2.639  0.00  0.00    -0.204 OA
ATOM      2  C2  BZF d   1       1.402   4.175  -2.007  0.00  0.00     0.174 A 
ATOM      3  C3  BZF d   1       1.745   3.847  -0.745  0.00  0.00    -0.012 A 
ATOM      4  C3A BZF d   1       1.398   2.466  -0.607  0.00  0.00    -0.107 A 
ATOM      5  C4  BZF d   1       1.511   1.567   0.415  0.00  0.00     0.055 A 
ATOM      6  C5  BZF d   1       1.010   0.314   0.251  0.00  0.00    -0.016 A 
ATOM      7  C6  BZF d   1       0.386  -0.071  -0.918  0.00  0.00     0.022 A 
ATOM      8  C7  BZF d   1       0.255   0.784  -1.961  0.00  0.00     0.029 A 
ATOM      9  C7A BZF d   1       0.790   2.040  -1.811  0.00  0.00     0.058 A 
ENDROOT
TORSDOF 0
ENDMDL
