MODEL 1
REMARK minimizedAffinity 3.36627436
REMARK minimizedRMSD -1
REMARK  0 active torsions:
REMARK  status: ('A' for Active; 'I' for Inactive)
ROOT
ATOM      1  C   UNL d   1       2.619   5.140  -5.996  0.00  0.00     0.020 A 
ATOM      2  C1  UNL d   1       4.012   5.068  -5.999  0.00  0.00     0.020 A 
ATOM      3  C2  UNL d   1       4.647   3.824  -5.999  0.00  0.00     0.034 A 
ATOM      4  C3  UNL d   1       3.889   2.647  -5.996  0.00  0.00     0.017 A 
ATOM      5  C4  UNL d   1       2.491   2.721  -5.992  0.00  0.00     0.017 A 
ATOM      6  C5  UNL d   1       1.861   3.969  -5.992  0.00  0.00     0.034 A 
ATOM      7 Cl   UNL d   1       1.490   1.312  -5.988  0.00  0.00    -0.070 Cl
ATOM      8 Cl1  UNL d   1       4.741   1.144  -5.996  0.00  0.00    -0.070 Cl
ENDROOT
TORSDOF 0
ENDMDL
