MODEL 1
REMARK minimizedAffinity 7.70923519
REMARK minimizedRMSD -1
REMARK  0 active torsions:
REMARK  status: ('A' for Active; 'I' for Inactive)
ROOT
ATOM      1  C   UNL d   1      -0.025   5.227   3.169  0.00  0.00     0.020 A 
ATOM      2  C1  UNL d   1      -0.070   5.976   4.344  0.00  0.00     0.020 A 
ATOM      3  C2  UNL d   1       1.033   5.999   5.200  0.00  0.00     0.034 A 
ATOM      4  C3  UNL d   1       2.186   5.272   4.882  0.00  0.00     0.017 A 
ATOM      5  C4  UNL d   1       2.230   4.520   3.702  0.00  0.00     0.017 A 
ATOM      6  C5  UNL d   1       1.123   4.501   2.849  0.00  0.00     0.034 A 
ATOM      7 Cl   UNL d   1       3.618   3.598   3.243  0.00  0.00    -0.070 Cl
ATOM      8 Cl1  UNL d   1       3.513   5.346   5.987  0.00  0.00    -0.070 Cl
ENDROOT
TORSDOF 0
ENDMDL
