MODEL 1
REMARK minimizedAffinity -2.42157674
REMARK minimizedRMSD -1
REMARK  0 active torsions:
REMARK  status: ('A' for Active; 'I' for Inactive)
ROOT
ATOM      1  C   UNL d   1       3.939   5.934  -5.925  0.00  0.00     0.020 A 
ATOM      2  C1  UNL d   1       4.578   4.695  -5.951  0.00  0.00     0.020 A 
ATOM      3  C2  UNL d   1       3.823   3.520  -5.974  0.00  0.00     0.034 A 
ATOM      4  C3  UNL d   1       2.425   3.582  -5.969  0.00  0.00     0.017 A 
ATOM      5  C4  UNL d   1       1.784   4.826  -5.942  0.00  0.00     0.017 A 
ATOM      6  C5  UNL d   1       2.545   5.999  -5.920  0.00  0.00     0.034 A 
ATOM      7 Cl   UNL d   1       0.063   4.982  -5.936  0.00  0.00    -0.070 Cl
ATOM      8 Cl1  UNL d   1       1.555   2.089  -5.998  0.00  0.00    -0.070 Cl
ENDROOT
TORSDOF 0
ENDMDL
