MODEL 1
REMARK minimizedAffinity -1.26857543
REMARK minimizedRMSD -1
REMARK  0 active torsions:
REMARK  status: ('A' for Active; 'I' for Inactive)
ROOT
ATOM      1  C   UNL d   1      -0.822   5.999   5.428  0.00  0.00     0.020 A 
ATOM      2  C1  UNL d   1      -1.044   5.444   4.168  0.00  0.00     0.020 A 
ATOM      3  C2  UNL d   1       0.018   4.888   3.453  0.00  0.00     0.034 A 
ATOM      4  C3  UNL d   1       1.308   4.884   3.998  0.00  0.00     0.017 A 
ATOM      5  C4  UNL d   1       1.529   5.441   5.262  0.00  0.00     0.017 A 
ATOM      6  C5  UNL d   1       0.462   5.997   5.974  0.00  0.00     0.034 A 
ATOM      7 Cl   UNL d   1       3.092   5.474   6.000  0.00  0.00    -0.070 Cl
ATOM      8 Cl1  UNL d   1       2.575   4.179   3.058  0.00  0.00    -0.070 Cl
ENDROOT
TORSDOF 0
ENDMDL
