MODEL 1
REMARK minimizedAffinity 3.63074875
REMARK minimizedRMSD -1
REMARK  0 active torsions:
REMARK  status: ('A' for Active; 'I' for Inactive)
ROOT
ATOM      1  C   UNL d   1       2.850   1.652  -5.993  0.00  0.00     0.020 A 
ATOM      2  C1  UNL d   1       1.491   1.964  -5.993  0.00  0.00     0.020 A 
ATOM      3  C2  UNL d   1       1.082   3.299  -5.995  0.00  0.00     0.034 A 
ATOM      4  C3  UNL d   1       2.031   4.327  -5.997  0.00  0.00     0.017 A 
ATOM      5  C4  UNL d   1       3.395   4.013  -5.997  0.00  0.00     0.017 A 
ATOM      6  C5  UNL d   1       3.800   2.674  -5.995  0.00  0.00     0.034 A 
ATOM      7 Cl   UNL d   1       4.626   5.226  -6.000  0.00  0.00    -0.070 Cl
ATOM      8 Cl1  UNL d   1       1.453   5.955  -6.000  0.00  0.00    -0.070 Cl
ENDROOT
TORSDOF 0
ENDMDL
