MODEL 1
REMARK minimizedAffinity 2.00450873
REMARK minimizedRMSD -1
REMARK  0 active torsions:
REMARK  status: ('A' for Active; 'I' for Inactive)
ROOT
ATOM      1  C   UNL d   1       1.676   3.206  -5.999  0.00  0.00     0.020 A 
ATOM      2  C1  UNL d   1       1.503   4.589  -5.999  0.00  0.00     0.020 A 
ATOM      3  C2  UNL d   1       2.617   5.432  -5.998  0.00  0.00     0.034 A 
ATOM      4  C3  UNL d   1       3.908   4.892  -5.999  0.00  0.00     0.017 A 
ATOM      5  C4  UNL d   1       4.080   3.503  -5.999  0.00  0.00     0.017 A 
ATOM      6  C5  UNL d   1       2.962   2.664  -6.000  0.00  0.00     0.034 A 
ATOM      7 Cl   UNL d   1       5.642   2.762  -5.999  0.00  0.00    -0.070 Cl
ATOM      8 Cl1  UNL d   1       5.240   5.993  -5.999  0.00  0.00    -0.070 Cl
ENDROOT
TORSDOF 0
ENDMDL
