MODEL 1
REMARK minimizedAffinity -1.41599011
REMARK minimizedRMSD -1
REMARK  0 active torsions:
REMARK  status: ('A' for Active; 'I' for Inactive)
ROOT
ATOM      1  C   UNL d   1       3.733   5.905  -5.995  0.00  0.00     0.020 A 
ATOM      2  C1  UNL d   1       2.407   5.475  -5.999  0.00  0.00     0.020 A 
ATOM      3  C2  UNL d   1       2.117   4.109  -6.000  0.00  0.00     0.034 A 
ATOM      4  C3  UNL d   1       3.154   3.169  -5.997  0.00  0.00     0.017 A 
ATOM      5  C4  UNL d   1       4.485   3.602  -5.993  0.00  0.00     0.017 A 
ATOM      6  C5  UNL d   1       4.769   4.971  -5.992  0.00  0.00     0.034 A 
ATOM      7 Cl   UNL d   1       5.818   2.502  -5.990  0.00  0.00    -0.070 Cl
ATOM      8 Cl1  UNL d   1       2.722   1.496  -5.999  0.00  0.00    -0.070 Cl
ENDROOT
TORSDOF 0
ENDMDL
