MODEL 1
REMARK minimizedAffinity -3.53799558
REMARK minimizedRMSD -1
REMARK  0 active torsions:
REMARK  status: ('A' for Active; 'I' for Inactive)
ROOT
ATOM      1  C   UNL d   1       2.947   5.771  -5.910  0.00  0.00     0.020 A 
ATOM      2  C1  UNL d   1       4.301   5.998  -5.665  0.00  0.00     0.020 A 
ATOM      3  C2  UNL d   1       5.173   4.918  -5.510  0.00  0.00     0.034 A 
ATOM      4  C3  UNL d   1       4.692   3.607  -5.598  0.00  0.00     0.017 A 
ATOM      5  C4  UNL d   1       3.333   3.380  -5.844  0.00  0.00     0.017 A 
ATOM      6  C5  UNL d   1       2.464   4.465  -5.999  0.00  0.00     0.034 A 
ATOM      7 Cl   UNL d   1       2.665   1.790  -5.966  0.00  0.00    -0.070 Cl
ATOM      8 Cl1  UNL d   1       5.827   2.319  -5.396  0.00  0.00    -0.070 Cl
ENDROOT
TORSDOF 0
ENDMDL
