MODEL 1
REMARK minimizedAffinity 9.97988415
REMARK minimizedRMSD -1
REMARK  0 active torsions:
REMARK  status: ('A' for Active; 'I' for Inactive)
ROOT
ATOM      1  C   UNL d   1       3.694   5.594   5.062  0.00  0.00     0.020 A 
ATOM      2  C1  UNL d   1       2.727   5.973   5.992  0.00  0.00     0.020 A 
ATOM      3  C2  UNL d   1       1.380   5.999   5.627  0.00  0.00     0.034 A 
ATOM      4  C3  UNL d   1       0.995   5.647   4.328  0.00  0.00     0.017 A 
ATOM      5  C4  UNL d   1       1.967   5.267   3.395  0.00  0.00     0.017 A 
ATOM      6  C5  UNL d   1       3.315   5.242   3.766  0.00  0.00     0.034 A 
ATOM      7 Cl   UNL d   1       1.569   4.819   1.773  0.00  0.00    -0.070 Cl
ATOM      8 Cl1  UNL d   1      -0.689   5.702   3.945  0.00  0.00    -0.070 Cl
ENDROOT
TORSDOF 0
ENDMDL
