MODEL 1
REMARK minimizedAffinity -2.18568826
REMARK minimizedRMSD -1
REMARK  0 active torsions:
REMARK  status: ('A' for Active; 'I' for Inactive)
ROOT
ATOM      1  C   UNL d   1       1.538   3.656  -5.996  0.00  0.00     0.020 A 
ATOM      2  C1  UNL d   1       2.038   2.354  -5.997  0.00  0.00     0.020 A 
ATOM      3  C2  UNL d   1       3.418   2.137  -5.997  0.00  0.00     0.034 A 
ATOM      4  C3  UNL d   1       4.302   3.222  -5.997  0.00  0.00     0.017 A 
ATOM      5  C4  UNL d   1       3.798   4.528  -5.997  0.00  0.00     0.017 A 
ATOM      6  C5  UNL d   1       2.416   4.740  -5.997  0.00  0.00     0.034 A 
ATOM      7 Cl   UNL d   1       4.826   5.918  -5.998  0.00  0.00    -0.070 Cl
ATOM      8 Cl1  UNL d   1       5.995   2.879  -5.998  0.00  0.00    -0.070 Cl
ENDROOT
TORSDOF 0
ENDMDL
