MODEL 1
REMARK minimizedAffinity 9.58711529
REMARK minimizedRMSD -1
REMARK  0 active torsions:
REMARK  status: ('A' for Active; 'I' for Inactive)
ROOT
ATOM      1  C   UNL d   1       5.095  -3.467   6.000  0.00  0.00     0.020 A 
ATOM      2  C1  UNL d   1       4.974  -2.208   5.413  0.00  0.00     0.020 A 
ATOM      3  C2  UNL d   1       4.668  -2.098   4.055  0.00  0.00     0.034 A 
ATOM      4  C3  UNL d   1       4.484  -3.248   3.279  0.00  0.00     0.017 A 
ATOM      5  C4  UNL d   1       4.606  -4.511   3.869  0.00  0.00     0.017 A 
ATOM      6  C5  UNL d   1       4.912  -4.616   5.229  0.00  0.00     0.034 A 
ATOM      7 Cl   UNL d   1       4.392  -5.975   2.976  0.00  0.00    -0.070 Cl
ATOM      8 Cl1  UNL d   1       4.108  -3.036   1.606  0.00  0.00    -0.070 Cl
ENDROOT
TORSDOF 0
ENDMDL
