MODEL 1
REMARK minimizedAffinity -0.893352449
REMARK minimizedRMSD -1
REMARK  0 active torsions:
REMARK  status: ('A' for Active; 'I' for Inactive)
ROOT
ATOM      1  C   UNL d   1      -4.500  -1.127  -2.494  0.00  0.00     0.020 A 
ATOM      2  C1  UNL d   1      -3.685  -0.380  -1.643  0.00  0.00     0.020 A 
ATOM      3  C2  UNL d   1      -3.000   0.734  -2.133  0.00  0.00     0.034 A 
ATOM      4  C3  UNL d   1      -3.127   1.103  -3.477  0.00  0.00     0.017 A 
ATOM      5  C4  UNL d   1      -3.944   0.353  -4.330  0.00  0.00     0.017 A 
ATOM      6  C5  UNL d   1      -4.629  -0.761  -3.834  0.00  0.00     0.034 A 
ATOM      7 Cl   UNL d   1      -4.151   0.747  -6.000  0.00  0.00    -0.070 Cl
ATOM      8 Cl1  UNL d   1      -2.250   2.492  -4.015  0.00  0.00    -0.070 Cl
ENDROOT
TORSDOF 0
ENDMDL
