MODEL 1
REMARK minimizedAffinity -3.85084558
REMARK minimizedRMSD -1
REMARK  2 active torsions:
REMARK  status: ('A' for Active; 'I' for Inactive)
REMARK    1  A    between atoms: C1_2  and  C2_3 
REMARK    2  A    between atoms: C2_3  and  C3_4 
ROOT
ATOM      1  C3  UNL d   1       0.020  -0.894   0.448  0.00  0.00    -0.075 A 
ATOM      2  C4  UNL d   1       0.799   0.248   0.685  0.00  0.00     0.002 A 
ATOM      3  C5  UNL d   1       0.926   0.763   1.975  0.00  0.00     0.002 A 
ATOM      4  C6  UNL d   1       0.270   0.151   3.041  0.00  0.00    -0.004 A 
ATOM      5  C7  UNL d   1      -0.520  -0.974   2.814  0.00  0.00     0.002 A 
ATOM      6  C8  UNL d   1      -0.645  -1.494   1.525  0.00  0.00     0.002 A 
ENDROOT
BRANCH   1   7
ATOM      7  C2  UNL d   1      -0.098  -1.474  -0.941  0.00  0.00     0.056 C 
BRANCH   7   8
ATOM      8  C1  UNL d   1       0.455  -0.566  -2.045  0.00  0.00     0.007 C 
ATOM      9  C   UNL d   1       1.085  -1.337  -3.198  0.00  0.00     0.009 C 
ENDBRANCH   7   8
ENDBRANCH   1   7
TORSDOF 2
ENDMDL
