MODEL 1
REMARK minimizedAffinity -4.79916954
REMARK minimizedRMSD -1
REMARK  2 active torsions:
REMARK  status: ('A' for Active; 'I' for Inactive)
REMARK    1  A    between atoms: C1_2  and  C2_3 
REMARK    2  A    between atoms: C2_3  and  C3_4 
ROOT
ATOM      1  C3  UNL d   1      -0.530   0.180   0.283  0.00  0.00    -0.075 A 
ATOM      2  C4  UNL d   1      -1.578  -0.648   0.709  0.00  0.00     0.002 A 
ATOM      3  C5  UNL d   1      -1.598  -1.156   2.008  0.00  0.00     0.002 A 
ATOM      4  C6  UNL d   1      -0.566  -0.851   2.893  0.00  0.00    -0.004 A 
ATOM      5  C7  UNL d   1       0.489  -0.043   2.476  0.00  0.00     0.002 A 
ATOM      6  C8  UNL d   1       0.509   0.470   1.178  0.00  0.00     0.002 A 
ENDROOT
BRANCH   1   7
ATOM      7  C2  UNL d   1      -0.518   0.757  -1.112  0.00  0.00     0.056 C 
BRANCH   7   8
ATOM      8  C1  UNL d   1       0.826   0.613  -1.835  0.00  0.00     0.007 C 
ATOM      9  C   UNL d   1       0.843  -0.522  -2.850  0.00  0.00     0.009 C 
ENDBRANCH   7   8
ENDBRANCH   1   7
TORSDOF 2
ENDMDL
