MODEL 1
REMARK minimizedAffinity -4.34487104
REMARK minimizedRMSD -1
REMARK  2 active torsions:
REMARK  status: ('A' for Active; 'I' for Inactive)
REMARK    1  A    between atoms: C1_2  and  C2_3 
REMARK    2  A    between atoms: C2_3  and  C3_4 
ROOT
ATOM      1  C3  UNL d   1       1.340   0.029  -1.699  0.00  0.00    -0.075 A 
ATOM      2  C4  UNL d   1      -0.048   0.231  -1.656  0.00  0.00     0.002 A 
ATOM      3  C5  UNL d   1      -0.654   0.735  -0.505  0.00  0.00     0.002 A 
ATOM      4  C6  UNL d   1       0.114   1.034   0.618  0.00  0.00    -0.004 A 
ATOM      5  C7  UNL d   1       1.491   0.822   0.591  0.00  0.00     0.002 A 
ATOM      6  C8  UNL d   1       2.101   0.321  -0.560  0.00  0.00     0.002 A 
ENDROOT
BRANCH   1   7
ATOM      7  C2  UNL d   1       2.006  -0.488  -2.951  0.00  0.00     0.056 C 
BRANCH   7   8
ATOM      8  C1  UNL d   1       3.386   0.120  -3.220  0.00  0.00     0.007 C 
ATOM      9  C   UNL d   1       3.333   1.369  -4.090  0.00  0.00     0.009 C 
ENDBRANCH   7   8
ENDBRANCH   1   7
TORSDOF 2
ENDMDL
