MODEL 1
REMARK minimizedAffinity -4.01789141
REMARK minimizedRMSD -1
REMARK  2 active torsions:
REMARK  status: ('A' for Active; 'I' for Inactive)
REMARK    1  A    between atoms: C1_2  and  C2_3 
REMARK    2  A    between atoms: C2_3  and  C3_4 
ROOT
ATOM      1  C3  UNL d   1      -0.072   0.588  -0.900  0.00  0.00    -0.075 A 
ATOM      2  C4  UNL d   1       0.720   0.298   0.220  0.00  0.00     0.002 A 
ATOM      3  C5  UNL d   1       0.128  -0.013   1.445  0.00  0.00     0.002 A 
ATOM      4  C6  UNL d   1      -1.259  -0.027   1.568  0.00  0.00    -0.004 A 
ATOM      5  C7  UNL d   1      -2.056   0.276   0.466  0.00  0.00     0.002 A 
ATOM      6  C8  UNL d   1      -1.467   0.583  -0.761  0.00  0.00     0.002 A 
ENDROOT
BRANCH   1   7
ATOM      7  C2  UNL d   1       0.561   0.896  -2.235  0.00  0.00     0.056 C 
BRANCH   7   8
ATOM      8  C1  UNL d   1       0.371  -0.204  -3.284  0.00  0.00     0.007 C 
ATOM      9  C   UNL d   1      -0.773   0.077  -4.249  0.00  0.00     0.009 C 
ENDBRANCH   7   8
ENDBRANCH   1   7
TORSDOF 2
ENDMDL
