MODEL 1
REMARK minimizedAffinity -5.38958168
REMARK minimizedRMSD -1
REMARK  2 active torsions:
REMARK  status: ('A' for Active; 'I' for Inactive)
REMARK    1  A    between atoms: C1_2  and  C2_3 
REMARK    2  A    between atoms: C2_3  and  C3_4 
ROOT
ATOM      1  C3  UNL d   1       0.502   0.568  -1.391  0.00  0.00    -0.075 A 
ATOM      2  C4  UNL d   1       1.194   1.370  -0.471  0.00  0.00     0.002 A 
ATOM      3  C5  UNL d   1       0.855   1.350   0.882  0.00  0.00     0.002 A 
ATOM      4  C6  UNL d   1      -0.185   0.537   1.330  0.00  0.00    -0.004 A 
ATOM      5  C7  UNL d   1      -0.890  -0.250   0.423  0.00  0.00     0.002 A 
ATOM      6  C8  UNL d   1      -0.549  -0.235  -0.931  0.00  0.00     0.002 A 
ENDROOT
BRANCH   1   7
ATOM      7  C2  UNL d   1       0.884   0.564  -2.852  0.00  0.00     0.056 C 
BRANCH   7   8
ATOM      8  C1  UNL d   1       2.292   1.100  -3.130  0.00  0.00     0.007 C 
ATOM      9  C   UNL d   1       3.132   0.164  -3.988  0.00  0.00     0.009 C 
ENDBRANCH   7   8
ENDBRANCH   1   7
TORSDOF 2
ENDMDL
