MODEL 1
REMARK minimizedAffinity -4.38393068
REMARK minimizedRMSD -1
REMARK  2 active torsions:
REMARK  status: ('A' for Active; 'I' for Inactive)
REMARK    1  A    between atoms: C1_2  and  C2_3 
REMARK    2  A    between atoms: C2_3  and  C3_4 
ROOT
ATOM      1  C3  UNL d   1       0.486   1.219  -1.034  0.00  0.00    -0.075 A 
ATOM      2  C4  UNL d   1       1.022   0.938   0.232  0.00  0.00     0.002 A 
ATOM      3  C5  UNL d   1       0.184   0.769   1.334  0.00  0.00     0.002 A 
ATOM      4  C6  UNL d   1      -1.197   0.887   1.188  0.00  0.00    -0.004 A 
ATOM      5  C7  UNL d   1      -1.739   1.181  -0.061  0.00  0.00     0.002 A 
ATOM      6  C8  UNL d   1      -0.903   1.347  -1.167  0.00  0.00     0.002 A 
ENDROOT
BRANCH   1   7
ATOM      7  C2  UNL d   1       1.386   1.375  -2.236  0.00  0.00     0.056 C 
BRANCH   7   8
ATOM      8  C1  UNL d   1       1.614   0.076  -3.017  0.00  0.00     0.007 C 
ATOM      9  C   UNL d   1       0.320  -0.605  -3.442  0.00  0.00     0.009 C 
ENDBRANCH   7   8
ENDBRANCH   1   7
TORSDOF 2
ENDMDL
