MODEL 1
REMARK minimizedAffinity -2.51063728
REMARK minimizedRMSD -1
REMARK  2 active torsions:
REMARK  status: ('A' for Active; 'I' for Inactive)
REMARK    1  A    between atoms: C1_2  and  C2_3 
REMARK    2  A    between atoms: C2_3  and  C3_4 
ROOT
ATOM      1  C3  UNL d   1       2.568   0.201  -3.544  0.00  0.00    -0.075 A 
ATOM      2  C4  UNL d   1       3.170  -0.822  -4.291  0.00  0.00     0.002 A 
ATOM      3  C5  UNL d   1       2.441  -1.955  -4.655  0.00  0.00     0.002 A 
ATOM      4  C6  UNL d   1       1.109  -2.084  -4.268  0.00  0.00    -0.004 A 
ATOM      5  C7  UNL d   1       0.507  -1.082  -3.511  0.00  0.00     0.002 A 
ATOM      6  C8  UNL d   1       1.232   0.055  -3.150  0.00  0.00     0.002 A 
ENDROOT
BRANCH   1   7
ATOM      7  C2  UNL d   1       3.342   1.444  -3.172  0.00  0.00     0.056 C 
BRANCH   7   8
ATOM      8  C1  UNL d   1       4.130   2.058  -4.333  0.00  0.00     0.007 C 
ATOM      9  C   UNL d   1       3.401   3.211  -5.010  0.00  0.00     0.009 C 
ENDBRANCH   7   8
ENDBRANCH   1   7
TORSDOF 2
ENDMDL
