MODEL 1
REMARK minimizedAffinity 3.520751
REMARK minimizedRMSD -1
REMARK  2 active torsions:
REMARK  status: ('A' for Active; 'I' for Inactive)
REMARK    1  A    between atoms: C1_2  and  C2_3 
REMARK    2  A    between atoms: C2_3  and  C3_4 
ROOT
ATOM      1  C3  UNL d   1      -3.530   1.449   1.943  0.00  0.00    -0.075 A 
ATOM      2  C4  UNL d   1      -2.987   1.615   0.661  0.00  0.00     0.002 A 
ATOM      3  C5  UNL d   1      -3.093   0.600  -0.290  0.00  0.00     0.002 A 
ATOM      4  C6  UNL d   1      -3.733  -0.595   0.030  0.00  0.00    -0.004 A 
ATOM      5  C7  UNL d   1      -4.261  -0.778   1.306  0.00  0.00     0.002 A 
ATOM      6  C8  UNL d   1      -4.160   0.238   2.259  0.00  0.00     0.002 A 
ENDROOT
BRANCH   1   7
ATOM      7  C2  UNL d   1      -3.444   2.555   2.968  0.00  0.00     0.056 C 
BRANCH   7   8
ATOM      8  C1  UNL d   1      -3.519   2.068   4.419  0.00  0.00     0.007 C 
ATOM      9  C   UNL d   1      -4.552   2.816   5.251  0.00  0.00     0.009 C 
ENDBRANCH   7   8
ENDBRANCH   1   7
TORSDOF 2
ENDMDL
