MODEL 1
REMARK minimizedAffinity -5.20858765
REMARK minimizedRMSD -1
REMARK  2 active torsions:
REMARK  status: ('A' for Active; 'I' for Inactive)
REMARK    1  A    between atoms: C1_2  and  C2_3 
REMARK    2  A    between atoms: C2_3  and  C3_4 
ROOT
ATOM      1  C3  UNL d   1      -0.897  -0.181   1.212  0.00  0.00    -0.075 A 
ATOM      2  C4  UNL d   1      -0.733   0.561   2.390  0.00  0.00     0.002 A 
ATOM      3  C5  UNL d   1       0.512   0.631   3.016  0.00  0.00     0.002 A 
ATOM      4  C6  UNL d   1       1.604  -0.048   2.479  0.00  0.00    -0.004 A 
ATOM      5  C7  UNL d   1       1.448  -0.803   1.318  0.00  0.00     0.002 A 
ATOM      6  C8  UNL d   1       0.205  -0.870   0.687  0.00  0.00     0.002 A 
ENDROOT
BRANCH   1   7
ATOM      7  C2  UNL d   1      -2.235  -0.236   0.514  0.00  0.00     0.056 C 
BRANCH   7   8
ATOM      8  C1  UNL d   1      -2.469   0.909  -0.478  0.00  0.00     0.007 C 
ATOM      9  C   UNL d   1      -1.177   1.519  -1.006  0.00  0.00     0.009 C 
ENDBRANCH   7   8
ENDBRANCH   1   7
TORSDOF 2
ENDMDL
