MODEL 1
REMARK minimizedAffinity -4.81007195
REMARK minimizedRMSD -1
REMARK  2 active torsions:
REMARK  status: ('A' for Active; 'I' for Inactive)
REMARK    1  A    between atoms: C1_2  and  C2_3 
REMARK    2  A    between atoms: C2_3  and  C3_4 
ROOT
ATOM      1  C3  UNL d   1       1.813   0.239  -3.067  0.00  0.00    -0.075 A 
ATOM      2  C4  UNL d   1       2.365   1.529  -3.062  0.00  0.00     0.002 A 
ATOM      3  C5  UNL d   1       3.499   1.817  -3.822  0.00  0.00     0.002 A 
ATOM      4  C6  UNL d   1       4.101   0.819  -4.586  0.00  0.00    -0.004 A 
ATOM      5  C7  UNL d   1       3.571  -0.469  -4.585  0.00  0.00     0.002 A 
ATOM      6  C8  UNL d   1       2.434  -0.759  -3.830  0.00  0.00     0.002 A 
ENDROOT
BRANCH   1   7
ATOM      7  C2  UNL d   1       0.568  -0.071  -2.270  0.00  0.00     0.056 C 
BRANCH   7   8
ATOM      8  C1  UNL d   1       0.344   0.860  -1.075  0.00  0.00     0.007 C 
ATOM      9  C   UNL d   1       0.382   0.138   0.265  0.00  0.00     0.009 C 
ENDBRANCH   7   8
ENDBRANCH   1   7
TORSDOF 2
ENDMDL
