MODEL 1
REMARK minimizedAffinity -3.68696475
REMARK minimizedRMSD -1
REMARK  2 active torsions:
REMARK  status: ('A' for Active; 'I' for Inactive)
REMARK    1  A    between atoms: C1_2  and  C2_3 
REMARK    2  A    between atoms: C2_3  and  C3_4 
ROOT
ATOM      1  C3  UNL d   1       1.976   0.966   1.495  0.00  0.00    -0.075 A 
ATOM      2  C4  UNL d   1       1.184   0.546   0.416  0.00  0.00     0.002 A 
ATOM      3  C5  UNL d   1      -0.122   0.104   0.627  0.00  0.00     0.002 A 
ATOM      4  C6  UNL d   1      -0.648   0.065   1.916  0.00  0.00    -0.004 A 
ATOM      5  C7  UNL d   1       0.135   0.463   2.997  0.00  0.00     0.002 A 
ATOM      6  C8  UNL d   1       1.441   0.911   2.788  0.00  0.00     0.002 A 
ENDROOT
BRANCH   1   7
ATOM      7  C2  UNL d   1       3.381   1.474   1.270  0.00  0.00     0.056 C 
BRANCH   7   8
ATOM      8  C1  UNL d   1       3.470   2.990   1.068  0.00  0.00     0.007 C 
ATOM      9  C   UNL d   1       4.749   3.427   0.366  0.00  0.00     0.009 C 
ENDBRANCH   7   8
ENDBRANCH   1   7
TORSDOF 2
ENDMDL
