MODEL 1
REMARK minimizedAffinity -3.09593701
REMARK minimizedRMSD -1
REMARK  2 active torsions:
REMARK  status: ('A' for Active; 'I' for Inactive)
REMARK    1  A    between atoms: C1_2  and  C2_3 
REMARK    2  A    between atoms: C2_3  and  C3_4 
ROOT
ATOM      1  C3  UNL d   1       0.013  -0.112   0.164  0.00  0.00    -0.075 A 
ATOM      2  C4  UNL d   1       0.982   0.341   1.071  0.00  0.00     0.002 A 
ATOM      3  C5  UNL d   1       0.711   0.373   2.440  0.00  0.00     0.002 A 
ATOM      4  C6  UNL d   1      -0.532  -0.036   2.917  0.00  0.00    -0.004 A 
ATOM      5  C7  UNL d   1      -1.508  -0.472   2.023  0.00  0.00     0.002 A 
ATOM      6  C8  UNL d   1      -1.239  -0.510   0.654  0.00  0.00     0.002 A 
ENDROOT
BRANCH   1   7
ATOM      7  C2  UNL d   1       0.309  -0.177  -1.315  0.00  0.00     0.056 C 
BRANCH   7   8
ATOM      8  C1  UNL d   1       0.733  -1.566  -1.805  0.00  0.00     0.007 C 
ATOM      9  C   UNL d   1       1.054  -1.605  -3.293  0.00  0.00     0.009 C 
ENDBRANCH   7   8
ENDBRANCH   1   7
TORSDOF 2
ENDMDL
