MODEL 1
REMARK minimizedAffinity 1.56592298
REMARK minimizedRMSD -1
REMARK  0 active torsions:
REMARK  status: ('A' for Active; 'I' for Inactive)
ROOT
ATOM      1  C   UNL d   1       3.445   1.727  -5.570  0.00  0.00     0.172 C 
ATOM      2  N   UNL d   1       4.258   2.139  -4.450  0.00  0.00    -0.070 N 
ATOM      3  C1  UNL d   1       5.593   1.877  -4.294  0.00  0.00    -0.004 A 
ATOM      4  C2  UNL d   1       5.996   2.438  -3.101  0.00  0.00    -0.047 A 
ATOM      5  C3  UNL d   1       4.864   3.057  -2.520  0.00  0.00    -0.047 A 
ATOM      6  C4  UNL d   1       3.802   2.857  -3.377  0.00  0.00    -0.004 A 
ENDROOT
TORSDOF 0
ENDMDL
