MODEL 1
REMARK minimizedAffinity -2.49212909
REMARK minimizedRMSD -1
REMARK  0 active torsions:
REMARK  status: ('A' for Active; 'I' for Inactive)
ROOT
ATOM      1  C   UNL d   1      -2.948   3.289  -6.000  0.00  0.00     0.172 C 
ATOM      2  N   UNL d   1      -1.530   3.560  -5.999  0.00  0.00    -0.070 N 
ATOM      3  C1  UNL d   1      -0.536   2.618  -5.999  0.00  0.00    -0.004 A 
ATOM      4  C2  UNL d   1       0.673   3.279  -5.998  0.00  0.00    -0.047 A 
ATOM      5  C3  UNL d   1       0.397   4.667  -5.997  0.00  0.00    -0.047 A 
ATOM      6  C4  UNL d   1      -0.974   4.813  -5.997  0.00  0.00    -0.004 A 
ENDROOT
TORSDOF 0
ENDMDL
