MODEL 1
REMARK minimizedAffinity -2.0692513
REMARK minimizedRMSD -1
REMARK  0 active torsions:
REMARK  status: ('A' for Active; 'I' for Inactive)
ROOT
ATOM      1  C   UNL d   1      -2.991   3.004  -5.995  0.00  0.00     0.172 C 
ATOM      2  N   UNL d   1      -1.585   3.331  -5.996  0.00  0.00    -0.070 N 
ATOM      3  C1  UNL d   1      -1.059   4.595  -5.993  0.00  0.00    -0.004 A 
ATOM      4  C2  UNL d   1       0.314   4.481  -5.994  0.00  0.00    -0.047 A 
ATOM      5  C3  UNL d   1       0.625   3.100  -5.999  0.00  0.00    -0.047 A 
ATOM      6  C4  UNL d   1      -0.569   2.411  -6.000  0.00  0.00    -0.004 A 
ENDROOT
TORSDOF 0
ENDMDL
