MODEL 1
REMARK minimizedAffinity -2.16996884
REMARK minimizedRMSD -1
REMARK  0 active torsions:
REMARK  status: ('A' for Active; 'I' for Inactive)
ROOT
ATOM      1  C   UNL d   1      -4.611   4.760  -5.996  0.00  0.00     0.172 C 
ATOM      2  N   UNL d   1      -3.177   4.593  -5.997  0.00  0.00    -0.070 N 
ATOM      3  C1  UNL d   1      -2.255   5.606  -5.998  0.00  0.00    -0.004 A 
ATOM      4  C2  UNL d   1      -1.001   5.034  -5.999  0.00  0.00    -0.047 A 
ATOM      5  C3  UNL d   1      -1.175   3.630  -5.998  0.00  0.00    -0.047 A 
ATOM      6  C4  UNL d   1      -2.532   3.385  -5.997  0.00  0.00    -0.004 A 
ENDROOT
TORSDOF 0
ENDMDL
