MODEL 1
REMARK minimizedAffinity -2.14524078
REMARK minimizedRMSD -1
REMARK  0 active torsions:
REMARK  status: ('A' for Active; 'I' for Inactive)
ROOT
ATOM      1  C   UNL d   1      -2.481   3.414  -5.970  0.00  0.00     0.172 C 
ATOM      2  N   UNL d   1      -1.055   3.642  -5.980  0.00  0.00    -0.070 N 
ATOM      3  C1  UNL d   1      -0.091   2.670  -5.989  0.00  0.00    -0.004 A 
ATOM      4  C2  UNL d   1       1.138   3.294  -5.998  0.00  0.00    -0.047 A 
ATOM      5  C3  UNL d   1       0.904   4.689  -5.993  0.00  0.00    -0.047 A 
ATOM      6  C4  UNL d   1      -0.462   4.877  -5.982  0.00  0.00    -0.004 A 
ENDROOT
TORSDOF 0
ENDMDL
