MODEL 1
REMARK minimizedAffinity -2.14870906
REMARK minimizedRMSD -1
REMARK  0 active torsions:
REMARK  status: ('A' for Active; 'I' for Inactive)
ROOT
ATOM      1  C   UNL d   1      -2.278   6.000  -5.948  0.00  0.00     0.172 C 
ATOM      2  N   UNL d   1      -1.637   4.706  -5.966  0.00  0.00    -0.070 N 
ATOM      3  C1  UNL d   1      -2.279   3.497  -5.987  0.00  0.00    -0.004 A 
ATOM      4  C2  UNL d   1      -1.318   2.509  -6.000  0.00  0.00    -0.047 A 
ATOM      5  C3  UNL d   1      -0.055   3.147  -5.985  0.00  0.00    -0.047 A 
ATOM      6  C4  UNL d   1      -0.281   4.507  -5.964  0.00  0.00    -0.004 A 
ENDROOT
TORSDOF 0
ENDMDL
