MODEL 1
REMARK minimizedAffinity -2.00718594
REMARK minimizedRMSD -1
REMARK  0 active torsions:
REMARK  status: ('A' for Active; 'I' for Inactive)
ROOT
ATOM      1  C   UNL d   1      -0.275   2.670  -5.996  0.00  0.00     0.172 C 
ATOM      2  N   UNL d   1      -1.320   3.666  -5.997  0.00  0.00    -0.070 N 
ATOM      3  C1  UNL d   1      -1.131   5.023  -5.999  0.00  0.00    -0.004 A 
ATOM      4  C2  UNL d   1      -2.372   5.622  -5.999  0.00  0.00    -0.047 A 
ATOM      5  C3  UNL d   1      -3.341   4.591  -5.995  0.00  0.00    -0.047 A 
ATOM      6  C4  UNL d   1      -2.662   3.390  -5.994  0.00  0.00    -0.004 A 
ENDROOT
TORSDOF 0
ENDMDL
