MODEL 1
REMARK minimizedAffinity -1.97151053
REMARK minimizedRMSD -1
REMARK  0 active torsions:
REMARK  status: ('A' for Active; 'I' for Inactive)
ROOT
ATOM      1  C   UNL d   1      -0.122   4.348  -5.999  0.00  0.00     0.172 C 
ATOM      2  N   UNL d   1      -1.565   4.393  -5.999  0.00  0.00    -0.070 N 
ATOM      3  C1  UNL d   1      -2.329   5.530  -5.999  0.00  0.00    -0.004 A 
ATOM      4  C2  UNL d   1      -3.653   5.149  -6.000  0.00  0.00    -0.047 A 
ATOM      5  C3  UNL d   1      -3.687   3.734  -6.000  0.00  0.00    -0.047 A 
ATOM      6  C4  UNL d   1      -2.381   3.292  -5.999  0.00  0.00    -0.004 A 
ENDROOT
TORSDOF 0
ENDMDL
