MODEL 1
REMARK minimizedAffinity -2.51236653
REMARK minimizedRMSD -1
REMARK  0 active torsions:
REMARK  status: ('A' for Active; 'I' for Inactive)
ROOT
ATOM      1  C   UNL d   1      -3.034   5.931  -5.993  0.00  0.00     0.172 C 
ATOM      2  N   UNL d   1      -2.198   4.753  -5.992  0.00  0.00    -0.070 N 
ATOM      3  C1  UNL d   1      -0.829   4.746  -5.988  0.00  0.00    -0.004 A 
ATOM      4  C2  UNL d   1      -0.414   3.431  -5.987  0.00  0.00    -0.047 A 
ATOM      5  C3  UNL d   1      -1.574   2.621  -5.993  0.00  0.00    -0.047 A 
ATOM      6  C4  UNL d   1      -2.664   3.465  -5.995  0.00  0.00    -0.004 A 
ENDROOT
TORSDOF 0
ENDMDL
