MODEL 1
REMARK minimizedAffinity -2.55625486
REMARK minimizedRMSD -1
REMARK  0 active torsions:
REMARK  status: ('A' for Active; 'I' for Inactive)
ROOT
ATOM      1  C   UNL d   1      -3.577   3.007  -6.000  0.00  0.00     0.172 C 
ATOM      2  N   UNL d   1      -2.614   3.992  -5.566  0.00  0.00    -0.070 N 
ATOM      3  C1  UNL d   1      -2.548   5.289  -5.999  0.00  0.00    -0.004 A 
ATOM      4  C2  UNL d   1      -1.496   5.898  -5.349  0.00  0.00    -0.047 A 
ATOM      5  C3  UNL d   1      -0.908   4.932  -4.498  0.00  0.00    -0.047 A 
ATOM      6  C4  UNL d   1      -1.620   3.761  -4.652  0.00  0.00    -0.004 A 
ENDROOT
TORSDOF 0
ENDMDL
