MODEL 1
REMARK minimizedAffinity 0.169194832
REMARK minimizedRMSD -1
REMARK  0 active torsions:
REMARK  status: ('A' for Active; 'I' for Inactive)
ROOT
ATOM      1  C   UNL d   1      -2.950   5.968  -5.998  0.00  0.00     0.172 C 
ATOM      2  N   UNL d   1      -2.131   4.778  -5.988  0.00  0.00    -0.070 N 
ATOM      3  C1  UNL d   1      -0.762   4.752  -5.964  0.00  0.00    -0.004 A 
ATOM      4  C2  UNL d   1      -0.365   3.433  -5.961  0.00  0.00    -0.047 A 
ATOM      5  C3  UNL d   1      -1.536   2.638  -5.983  0.00  0.00    -0.047 A 
ATOM      6  C4  UNL d   1      -2.615   3.497  -6.000  0.00  0.00    -0.004 A 
ENDROOT
TORSDOF 0
ENDMDL
