MODEL 1
REMARK minimizedAffinity -1.93727446
REMARK minimizedRMSD -1
REMARK  0 active torsions:
REMARK  status: ('A' for Active; 'I' for Inactive)
ROOT
ATOM      1  C   UNL d   1      -0.365   5.997  -5.997  0.00  0.00     0.172 C 
ATOM      2  N   UNL d   1      -0.329   4.553  -5.998  0.00  0.00    -0.070 N 
ATOM      3  C1  UNL d   1       0.803   3.783  -5.998  0.00  0.00    -0.004 A 
ATOM      4  C2  UNL d   1       0.414   2.461  -5.998  0.00  0.00    -0.047 A 
ATOM      5  C3  UNL d   1      -1.001   2.436  -5.998  0.00  0.00    -0.047 A 
ATOM      6  C4  UNL d   1      -1.435   3.745  -5.998  0.00  0.00    -0.004 A 
ENDROOT
TORSDOF 0
ENDMDL
