MODEL 1
REMARK minimizedAffinity -6.61553574
REMARK minimizedRMSD -1
REMARK  3 active torsions:
REMARK  status: ('A' for Active; 'I' for Inactive)
REMARK    1  A    between atoms: C3'_2  and  C2'_3 
REMARK    2  A    between atoms: C2'_3  and  C1'_4 
REMARK    3  A    between atoms: C1'_4  and  C1_5 
ROOT
ATOM      1  C1  N4B d   1       0.254  -0.747  -0.485  0.00  0.00    -0.075 A 
ATOM      2  C2  N4B d   1       0.415  -1.760  -1.456  0.00  0.00     0.002 A 
ATOM      3  C3  N4B d   1       0.224  -3.076  -1.114  0.00  0.00     0.002 A 
ATOM      4  C4  N4B d   1      -0.109  -3.403   0.192  0.00  0.00    -0.004 A 
ATOM      5  C5  N4B d   1      -0.287  -2.417   1.118  0.00  0.00     0.002 A 
ATOM      6  C6  N4B d   1      -0.102  -1.090   0.787  0.00  0.00     0.002 A 
ENDROOT
BRANCH   1   7
ATOM      7  C1' N4B d   1       0.536   0.699  -0.791  0.00  0.00     0.057 C 
BRANCH   7   8
ATOM      8  C2' N4B d   1       1.087   1.377   0.459  0.00  0.00     0.009 C 
BRANCH   8   9
ATOM      9  C3' N4B d   1       2.037   2.512   0.119  0.00  0.00     0.004 C 
ATOM     10  C4' N4B d   1       1.824   3.725   0.974  0.00  0.00     0.003 C 
ENDBRANCH   8   9
ENDBRANCH   7   8
ENDBRANCH   1   7
TORSDOF 3
ENDMDL
