MODEL 1
REMARK minimizedAffinity -4.81406021
REMARK minimizedRMSD -1
REMARK  3 active torsions:
REMARK  status: ('A' for Active; 'I' for Inactive)
REMARK    1  A    between atoms: C3'_2  and  C2'_3 
REMARK    2  A    between atoms: C2'_3  and  C1'_4 
REMARK    3  A    between atoms: C1'_4  and  C1_5 
ROOT
ATOM      1  C1  N4B d   1       0.074  -0.243  -0.121  0.00  0.00    -0.075 A 
ATOM      2  C2  N4B d   1      -0.871  -0.548   0.883  0.00  0.00     0.002 A 
ATOM      3  C3  N4B d   1      -1.117  -1.857   1.219  0.00  0.00     0.002 A 
ATOM      4  C4  N4B d   1      -0.447  -2.873   0.554  0.00  0.00    -0.004 A 
ATOM      5  C5  N4B d   1       0.483  -2.569  -0.396  0.00  0.00     0.002 A 
ATOM      6  C6  N4B d   1       0.743  -1.258  -0.741  0.00  0.00     0.002 A 
ENDROOT
BRANCH   1   7
ATOM      7  C1' N4B d   1       0.315   1.169  -0.583  0.00  0.00     0.057 C 
BRANCH   7   8
ATOM      8  C2' N4B d   1       1.171   1.895   0.451  0.00  0.00     0.009 C 
BRANCH   8   9
ATOM      9  C3' N4B d   1       1.318   3.372   0.131  0.00  0.00     0.004 C 
ATOM     10  C4' N4B d   1       2.678   3.721  -0.395  0.00  0.00     0.003 C 
ENDBRANCH   8   9
ENDBRANCH   7   8
ENDBRANCH   1   7
TORSDOF 3
ENDMDL
