MODEL 1
REMARK minimizedAffinity -4.04728842
REMARK minimizedRMSD -1
REMARK  3 active torsions:
REMARK  status: ('A' for Active; 'I' for Inactive)
REMARK    1  A    between atoms: C3'_2  and  C2'_3 
REMARK    2  A    between atoms: C2'_3  and  C1'_4 
REMARK    3  A    between atoms: C1'_4  and  C1_5 
ROOT
ATOM      1  C1  N4B d   1      -0.297  -0.426   0.207  0.00  0.00    -0.075 A 
ATOM      2  C2  N4B d   1      -1.432  -1.149   0.638  0.00  0.00     0.002 A 
ATOM      3  C3  N4B d   1      -1.363  -2.513   0.782  0.00  0.00     0.002 A 
ATOM      4  C4  N4B d   1      -0.181  -3.175   0.485  0.00  0.00    -0.004 A 
ATOM      5  C5  N4B d   1       0.918  -2.467   0.095  0.00  0.00     0.002 A 
ATOM      6  C6  N4B d   1       0.864  -1.096  -0.051  0.00  0.00     0.002 A 
ENDROOT
BRANCH   1   7
ATOM      7  C1' N4B d   1      -0.349   1.055  -0.048  0.00  0.00     0.057 C 
BRANCH   7   8
ATOM      8  C2' N4B d   1       1.030   1.536  -0.490  0.00  0.00     0.009 C 
BRANCH   8   9
ATOM      9  C3' N4B d   1       1.357   2.911   0.066  0.00  0.00     0.004 C 
ATOM     10  C4' N4B d   1       2.829   3.198   0.078  0.00  0.00     0.003 C 
ENDBRANCH   8   9
ENDBRANCH   7   8
ENDBRANCH   1   7
TORSDOF 3
ENDMDL
