MODEL 1
REMARK minimizedAffinity -6.57194614
REMARK minimizedRMSD -1
REMARK  3 active torsions:
REMARK  status: ('A' for Active; 'I' for Inactive)
REMARK    1  A    between atoms: C3'_2  and  C2'_3 
REMARK    2  A    between atoms: C2'_3  and  C1'_4 
REMARK    3  A    between atoms: C1'_4  and  C1_5 
ROOT
ATOM      1  C1  N4B d   1      -0.317  -0.047  -0.111  0.00  0.00    -0.075 A 
ATOM      2  C2  N4B d   1       0.204  -1.294  -0.520  0.00  0.00     0.002 A 
ATOM      3  C3  N4B d   1       0.062  -2.396   0.289  0.00  0.00     0.002 A 
ATOM      4  C4  N4B d   1      -0.577  -2.270   1.513  0.00  0.00    -0.004 A 
ATOM      5  C5  N4B d   1      -1.100  -1.067   1.889  0.00  0.00     0.002 A 
ATOM      6  C6  N4B d   1      -0.969   0.047   1.084  0.00  0.00     0.002 A 
ENDROOT
BRANCH   1   7
ATOM      7  C1' N4B d   1      -0.112   1.203  -0.922  0.00  0.00     0.057 C 
BRANCH   7   8
ATOM      8  C2' N4B d   1       0.231   2.357   0.016  0.00  0.00     0.009 C 
BRANCH   8   9
ATOM      9  C3' N4B d   1       1.718   2.668   0.014  0.00  0.00     0.004 C 
ATOM     10  C4' N4B d   1       2.524   1.656   0.772  0.00  0.00     0.003 C 
ENDBRANCH   8   9
ENDBRANCH   7   8
ENDBRANCH   1   7
TORSDOF 3
ENDMDL
