MODEL 1
REMARK minimizedAffinity -6.25608683
REMARK minimizedRMSD -1
REMARK  3 active torsions:
REMARK  status: ('A' for Active; 'I' for Inactive)
REMARK    1  A    between atoms: C3'_2  and  C2'_3 
REMARK    2  A    between atoms: C2'_3  and  C1'_4 
REMARK    3  A    between atoms: C1'_4  and  C1_5 
ROOT
ATOM      1  C1  N4B d   1      -0.218   0.020   0.145  0.00  0.00    -0.075 A 
ATOM      2  C2  N4B d   1      -0.684   0.151   1.472  0.00  0.00     0.002 A 
ATOM      3  C3  N4B d   1      -0.954  -0.970   2.218  0.00  0.00     0.002 A 
ATOM      4  C4  N4B d   1      -0.785  -2.226   1.655  0.00  0.00    -0.004 A 
ATOM      5  C5  N4B d   1      -0.311  -2.344   0.381  0.00  0.00     0.002 A 
ATOM      6  C6  N4B d   1      -0.032  -1.226  -0.379  0.00  0.00     0.002 A 
ENDROOT
BRANCH   1   7
ATOM      7  C1' N4B d   1       0.009   1.217  -0.738  0.00  0.00     0.057 C 
BRANCH   7   8
ATOM      8  C2' N4B d   1       0.359   2.421   0.131  0.00  0.00     0.009 C 
BRANCH   8   9
ATOM      9  C3' N4B d   1       1.860   2.588   0.294  0.00  0.00     0.004 C 
ATOM     10  C4' N4B d   1       2.223   3.518   1.412  0.00  0.00     0.003 C 
ENDBRANCH   8   9
ENDBRANCH   7   8
ENDBRANCH   1   7
TORSDOF 3
ENDMDL
