MODEL 1
REMARK minimizedAffinity -6.61748314
REMARK minimizedRMSD -1
REMARK  3 active torsions:
REMARK  status: ('A' for Active; 'I' for Inactive)
REMARK    1  A    between atoms: C3'_2  and  C2'_3 
REMARK    2  A    between atoms: C2'_3  and  C1'_4 
REMARK    3  A    between atoms: C1'_4  and  C1_5 
ROOT
ATOM      1  C1  N4B d   1       0.194   0.269  -0.550  0.00  0.00    -0.075 A 
ATOM      2  C2  N4B d   1      -0.410   0.171   0.722  0.00  0.00     0.002 A 
ATOM      3  C3  N4B d   1      -0.606  -1.061   1.296  0.00  0.00     0.002 A 
ATOM      4  C4  N4B d   1      -0.225  -2.205   0.612  0.00  0.00    -0.004 A 
ATOM      5  C5  N4B d   1       0.381  -2.101  -0.606  0.00  0.00     0.002 A 
ATOM      6  C6  N4B d   1       0.588  -0.869  -1.193  0.00  0.00     0.002 A 
ENDROOT
BRANCH   1   7
ATOM      7  C1' N4B d   1       0.352   1.589  -1.255  0.00  0.00     0.057 C 
BRANCH   7   8
ATOM      8  C2' N4B d   1       0.384   2.709  -0.220  0.00  0.00     0.009 C 
BRANCH   8   9
ATOM      9  C3' N4B d   1       1.773   3.306  -0.072  0.00  0.00     0.004 C 
ATOM     10  C4' N4B d   1       2.158   3.533   1.359  0.00  0.00     0.003 C 
ENDBRANCH   8   9
ENDBRANCH   7   8
ENDBRANCH   1   7
TORSDOF 3
ENDMDL
