MODEL 1
REMARK minimizedAffinity -4.81826067
REMARK minimizedRMSD -1
REMARK  3 active torsions:
REMARK  status: ('A' for Active; 'I' for Inactive)
REMARK    1  A    between atoms: C3'_2  and  C2'_3 
REMARK    2  A    between atoms: C2'_3  and  C1'_4 
REMARK    3  A    between atoms: C1'_4  and  C1_5 
ROOT
ATOM      1  C1  N4B d   1       0.379   1.047  -0.206  0.00  0.00    -0.075 A 
ATOM      2  C2  N4B d   1       0.233   0.680  -1.562  0.00  0.00     0.002 A 
ATOM      3  C3  N4B d   1       0.238  -0.646  -1.919  0.00  0.00     0.002 A 
ATOM      4  C4  N4B d   1       0.407  -1.618  -0.944  0.00  0.00    -0.004 A 
ATOM      5  C5  N4B d   1       0.523  -1.257   0.366  0.00  0.00     0.002 A 
ATOM      6  C6  N4B d   1       0.515   0.072   0.740  0.00  0.00     0.002 A 
ENDROOT
BRANCH   1   7
ATOM      7  C1' N4B d   1       0.465   2.486   0.223  0.00  0.00     0.057 C 
BRANCH   7   8
ATOM      8  C2' N4B d   1       1.838   3.039  -0.151  0.00  0.00     0.009 C 
BRANCH   8   9
ATOM      9  C3' N4B d   1       2.677   3.353   1.076  0.00  0.00     0.004 C 
ATOM     10  C4' N4B d   1       1.883   3.999   2.172  0.00  0.00     0.003 C 
ENDBRANCH   8   9
ENDBRANCH   7   8
ENDBRANCH   1   7
TORSDOF 3
ENDMDL
