MODEL 1
REMARK minimizedAffinity -3.78676319
REMARK minimizedRMSD -1
REMARK  0 active torsions:
REMARK  status: ('A' for Active; 'I' for Inactive)
ROOT
ATOM      1  C1  BNZ d   1      -0.365   1.132  -0.526  0.00  0.00     0.000 A 
ATOM      2  C2  BNZ d   1       0.880   0.909   0.001  0.00  0.00     0.000 A 
ATOM      3  C3  BNZ d   1       1.415  -0.348   0.025  0.00  0.00     0.000 A 
ATOM      4  C4  BNZ d   1       0.691  -1.386  -0.441  0.00  0.00     0.000 A 
ATOM      5  C5  BNZ d   1      -0.569  -1.179  -0.967  0.00  0.00     0.000 A 
ATOM      6  C6  BNZ d   1      -1.089   0.093  -1.025  0.00  0.00     0.000 A 
ENDROOT
TORSDOF 0
ENDMDL
