MODEL 1
REMARK minimizedAffinity -3.00344324
REMARK minimizedRMSD -1
REMARK  0 active torsions:
REMARK  status: ('A' for Active; 'I' for Inactive)
ROOT
ATOM      1  C1  BNZ d   1       0.486   0.558   0.191  0.00  0.00     0.000 A 
ATOM      2  C2  BNZ d   1       1.802   0.202   0.324  0.00  0.00     0.000 A 
ATOM      3  C3  BNZ d   1       2.217  -1.068   0.037  0.00  0.00     0.000 A 
ATOM      4  C4  BNZ d   1       1.310  -1.991  -0.344  0.00  0.00     0.000 A 
ATOM      5  C5  BNZ d   1      -0.022  -1.651  -0.474  0.00  0.00     0.000 A 
ATOM      6  C6  BNZ d   1      -0.429  -0.361  -0.221  0.00  0.00     0.000 A 
ENDROOT
TORSDOF 0
ENDMDL
