MODEL 1
REMARK minimizedAffinity -3.51559114
REMARK minimizedRMSD -1
REMARK  0 active torsions:
REMARK  status: ('A' for Active; 'I' for Inactive)
ROOT
ATOM      1  C1  BNZ d   1       2.028  -1.231  -0.205  0.00  0.00     0.000 A 
ATOM      2  C2  BNZ d   1       0.750  -0.783   0.001  0.00  0.00     0.000 A 
ATOM      3  C3  BNZ d   1       0.488   0.553   0.122  0.00  0.00     0.000 A 
ATOM      4  C4  BNZ d   1       1.506   1.436   0.076  0.00  0.00     0.000 A 
ATOM      5  C5  BNZ d   1       2.801   0.999  -0.122  0.00  0.00     0.000 A 
ATOM      6  C6  BNZ d   1       3.057  -0.343  -0.282  0.00  0.00     0.000 A 
ENDROOT
TORSDOF 0
ENDMDL
