MODEL 1
REMARK minimizedAffinity -2.48892927
REMARK minimizedRMSD -1
REMARK  0 active torsions:
REMARK  status: ('A' for Active; 'I' for Inactive)
ROOT
ATOM      1  C1  BNZ d   1       0.417  -2.123  -0.184  0.00  0.00     0.000 A 
ATOM      2  C2  BNZ d   1      -0.473  -1.139   0.154  0.00  0.00     0.000 A 
ATOM      3  C3  BNZ d   1      -0.119   0.180   0.085  0.00  0.00     0.000 A 
ATOM      4  C4  BNZ d   1       1.136   0.511  -0.281  0.00  0.00     0.000 A 
ATOM      5  C5  BNZ d   1       2.048  -0.470  -0.616  0.00  0.00     0.000 A 
ATOM      6  C6  BNZ d   1       1.676  -1.795  -0.584  0.00  0.00     0.000 A 
ENDROOT
TORSDOF 0
ENDMDL
