MODEL 1
REMARK minimizedAffinity -4.30280495
REMARK minimizedRMSD -1
REMARK  0 active torsions:
REMARK  status: ('A' for Active; 'I' for Inactive)
ROOT
ATOM      1  C1  BNZ d   1       0.349   0.552  -0.028  0.00  0.00     0.000 A 
ATOM      2  C2  BNZ d   1       0.603  -0.792  -0.083  0.00  0.00     0.000 A 
ATOM      3  C3  BNZ d   1       1.886  -1.264  -0.062  0.00  0.00     0.000 A 
ATOM      4  C4  BNZ d   1       2.913  -0.391  -0.027  0.00  0.00     0.000 A 
ATOM      5  C5  BNZ d   1       2.674   0.968   0.019  0.00  0.00     0.000 A 
ATOM      6  C6  BNZ d   1       1.380   1.438   0.037  0.00  0.00     0.000 A 
ENDROOT
TORSDOF 0
ENDMDL
