MODEL 1
REMARK minimizedAffinity -0.97078687
REMARK minimizedRMSD -1
REMARK  0 active torsions:
REMARK  status: ('A' for Active; 'I' for Inactive)
ROOT
ATOM      1  C1  BNZ d   1       0.083  -0.819  -0.557  0.00  0.00     0.000 A 
ATOM      2  C2  BNZ d   1       0.719  -2.026  -0.674  0.00  0.00     0.000 A 
ATOM      3  C3  BNZ d   1       2.063  -2.133  -0.453  0.00  0.00     0.000 A 
ATOM      4  C4  BNZ d   1       2.776  -1.028  -0.154  0.00  0.00     0.000 A 
ATOM      5  C5  BNZ d   1       2.151   0.198  -0.041  0.00  0.00     0.000 A 
ATOM      6  C6  BNZ d   1       0.791   0.295  -0.226  0.00  0.00     0.000 A 
ENDROOT
TORSDOF 0
ENDMDL
