MODEL 1
REMARK minimizedAffinity -1.3836447
REMARK minimizedRMSD -1
REMARK  0 active torsions:
REMARK  status: ('A' for Active; 'I' for Inactive)
ROOT
ATOM      1  C1  BNZ d   1      -3.942   0.293   1.840  0.00  0.00     0.000 A 
ATOM      2  C2  BNZ d   1      -3.561   0.081   0.542  0.00  0.00     0.000 A 
ATOM      3  C3  BNZ d   1      -2.899   1.049  -0.160  0.00  0.00     0.000 A 
ATOM      4  C4  BNZ d   1      -2.655   2.241   0.423  0.00  0.00     0.000 A 
ATOM      5  C5  BNZ d   1      -3.041   2.473   1.727  0.00  0.00     0.000 A 
ATOM      6  C6  BNZ d   1      -3.673   1.482   2.444  0.00  0.00     0.000 A 
ENDROOT
TORSDOF 0
ENDMDL
