MODEL 1
REMARK minimizedAffinity -3.27306795
REMARK minimizedRMSD -1
REMARK  0 active torsions:
REMARK  status: ('A' for Active; 'I' for Inactive)
ROOT
ATOM      1  C1  BNZ d   1       1.923  -1.114  -0.705  0.00  0.00     0.000 A 
ATOM      2  C2  BNZ d   1       1.444   0.169  -0.676  0.00  0.00     0.000 A 
ATOM      3  C3  BNZ d   1       0.101   0.415  -0.734  0.00  0.00     0.000 A 
ATOM      4  C4  BNZ d   1      -0.758  -0.617  -0.861  0.00  0.00     0.000 A 
ATOM      5  C5  BNZ d   1      -0.290  -1.915  -0.901  0.00  0.00     0.000 A 
ATOM      6  C6  BNZ d   1       1.060  -2.162  -0.803  0.00  0.00     0.000 A 
ENDROOT
TORSDOF 0
ENDMDL
