MODEL 1
REMARK minimizedAffinity -1.78396773
REMARK minimizedRMSD -1
REMARK  0 active torsions:
REMARK  status: ('A' for Active; 'I' for Inactive)
ROOT
ATOM      1  C1  BNZ d   1      -4.471  -0.011   0.799  0.00  0.00     0.000 A 
ATOM      2  C2  BNZ d   1      -3.416  -0.001  -0.074  0.00  0.00     0.000 A 
ATOM      3  C3  BNZ d   1      -2.246   0.628   0.248  0.00  0.00     0.000 A 
ATOM      4  C4  BNZ d   1      -2.146   1.279   1.425  0.00  0.00     0.000 A 
ATOM      5  C5  BNZ d   1      -3.204   1.286   2.313  0.00  0.00     0.000 A 
ATOM      6  C6  BNZ d   1      -4.366   0.619   2.001  0.00  0.00     0.000 A 
ENDROOT
TORSDOF 0
ENDMDL
