MODEL 1
REMARK minimizedAffinity -3.20950365
REMARK minimizedRMSD -1
REMARK  0 active torsions:
REMARK  status: ('A' for Active; 'I' for Inactive)
ROOT
ATOM      1  C1  BNZ d   1      -0.575  -0.849  -1.155  0.00  0.00     0.000 A 
ATOM      2  C2  BNZ d   1      -0.639  -2.206  -1.325  0.00  0.00     0.000 A 
ATOM      3  C3  BNZ d   1       0.150  -3.042  -0.585  0.00  0.00     0.000 A 
ATOM      4  C4  BNZ d   1       1.029  -2.519   0.294  0.00  0.00     0.000 A 
ATOM      5  C5  BNZ d   1       1.112  -1.152   0.470  0.00  0.00     0.000 A 
ATOM      6  C6  BNZ d   1       0.289  -0.316  -0.248  0.00  0.00     0.000 A 
ENDROOT
TORSDOF 0
ENDMDL
