MODEL 1
REMARK minimizedAffinity -4.92643833
REMARK minimizedRMSD -1
REMARK  0 active torsions:
REMARK  status: ('A' for Active; 'I' for Inactive)
ROOT
ATOM      1  C1  BNZ d   1       3.440  -0.545  -0.052  0.00  0.00     0.000 A 
ATOM      2  C2  BNZ d   1       2.377  -1.409  -0.057  0.00  0.00     0.000 A 
ATOM      3  C3  BNZ d   1       1.095  -0.942   0.014  0.00  0.00     0.000 A 
ATOM      4  C4  BNZ d   1       0.878   0.384   0.131  0.00  0.00     0.000 A 
ATOM      5  C5  BNZ d   1       1.939   1.267   0.148  0.00  0.00     0.000 A 
ATOM      6  C6  BNZ d   1       3.227   0.796   0.036  0.00  0.00     0.000 A 
ENDROOT
TORSDOF 0
ENDMDL
