MODEL 1
REMARK minimizedAffinity 9.66825962
REMARK minimizedRMSD -1
REMARK  0 active torsions:
REMARK  status: ('A' for Active; 'I' for Inactive)
ROOT
ATOM      1  C4' PXY d   1       1.306   2.275  -0.030  0.00  0.00     0.077 C 
ATOM      2  C1' PXY d   1       6.000  -0.804   1.348  0.00  0.00     0.077 C 
ATOM      3  C1  PXY d   1       4.775   0.014   0.989  0.00  0.00    -0.082 A 
ATOM      4  C2  PXY d   1       3.579  -0.549   1.025  0.00  0.00     0.003 A 
ATOM      5  C3  PXY d   1       2.464   0.168   0.673  0.00  0.00     0.003 A 
ATOM      6  C4  PXY d   1       2.569   1.490   0.333  0.00  0.00    -0.082 A 
ATOM      7  C5  PXY d   1       3.786   2.075   0.304  0.00  0.00     0.003 A 
ATOM      8  C6  PXY d   1       4.909   1.319   0.625  0.00  0.00     0.003 A 
ENDROOT
TORSDOF 0
ENDMDL
