MODEL 1
REMARK minimizedAffinity 13.2528009
REMARK minimizedRMSD -1
REMARK  0 active torsions:
REMARK  status: ('A' for Active; 'I' for Inactive)
ROOT
ATOM      1  C4' PXY d   1       5.998  -0.813   1.602  0.00  0.00     0.077 C 
ATOM      2  C1' PXY d   1       1.232   2.189   0.302  0.00  0.00     0.077 C 
ATOM      3  C1  PXY d   1       2.475   1.391   0.644  0.00  0.00    -0.082 A 
ATOM      4  C2  PXY d   1       3.534   2.010   1.139  0.00  0.00     0.003 A 
ATOM      5  C3  PXY d   1       4.677   1.309   1.424  0.00  0.00     0.003 A 
ATOM      6  C4  PXY d   1       4.718  -0.049   1.251  0.00  0.00    -0.082 A 
ATOM      7  C5  PXY d   1       3.638  -0.690   0.757  0.00  0.00     0.003 A 
ATOM      8  C6  PXY d   1       2.501   0.047   0.435  0.00  0.00     0.003 A 
ENDROOT
TORSDOF 0
ENDMDL
