MODEL 1
REMARK minimizedAffinity 17.7271099
REMARK minimizedRMSD -1
REMARK  0 active torsions:
REMARK  status: ('A' for Active; 'I' for Inactive)
ROOT
ATOM      1  C4' PXY d   1      -1.952  -2.973  -5.999  0.00  0.00     0.077 C 
ATOM      2  C1' PXY d   1      -1.765  -2.929  -0.221  0.00  0.00     0.077 C 
ATOM      3  C1  PXY d   1      -1.825  -2.933  -1.736  0.00  0.00    -0.082 A 
ATOM      4  C2  PXY d   1      -1.268  -3.927  -2.410  0.00  0.00     0.003 A 
ATOM      5  C3  PXY d   1      -1.285  -3.930  -3.781  0.00  0.00     0.003 A 
ATOM      6  C4  PXY d   1      -1.924  -2.933  -4.469  0.00  0.00    -0.082 A 
ATOM      7  C5  PXY d   1      -2.504  -1.922  -3.788  0.00  0.00     0.003 A 
ATOM      8  C6  PXY d   1      -2.440  -1.916  -2.397  0.00  0.00     0.003 A 
ENDROOT
TORSDOF 0
ENDMDL
