MODEL 1
REMARK minimizedAffinity 5.79751825
REMARK minimizedRMSD -1
REMARK  0 active torsions:
REMARK  status: ('A' for Active; 'I' for Inactive)
ROOT
ATOM      1  C4' PXY d   1       4.270  -0.790   3.218  0.00  0.00     0.077 C 
ATOM      2  C1' PXY d   1       1.505   1.377  -1.372  0.00  0.00     0.077 C 
ATOM      3  C1  PXY d   1       2.232   0.798  -0.175  0.00  0.00    -0.082 A 
ATOM      4  C2  PXY d   1       1.988   1.277   1.034  0.00  0.00     0.003 A 
ATOM      5  C3  PXY d   1       2.660   0.787   2.124  0.00  0.00     0.003 A 
ATOM      6  C4  PXY d   1       3.552  -0.242   1.982  0.00  0.00    -0.082 A 
ATOM      7  C5  PXY d   1       3.799  -0.744   0.753  0.00  0.00     0.003 A 
ATOM      8  C6  PXY d   1       3.137  -0.204  -0.345  0.00  0.00     0.003 A 
ENDROOT
TORSDOF 0
ENDMDL
