MODEL 1
REMARK minimizedAffinity 7.07371855
REMARK minimizedRMSD -1
REMARK  0 active torsions:
REMARK  status: ('A' for Active; 'I' for Inactive)
ROOT
ATOM      1  C4' PXY d   1      -2.487  -3.569  -2.997  0.00  0.00     0.077 C 
ATOM      2  C1' PXY d   1      -0.365  -0.792   1.608  0.00  0.00     0.077 C 
ATOM      3  C1  PXY d   1      -0.931  -1.512   0.399  0.00  0.00    -0.082 A 
ATOM      4  C2  PXY d   1      -0.653  -2.791   0.211  0.00  0.00     0.003 A 
ATOM      5  C3  PXY d   1      -1.131  -3.449  -0.894  0.00  0.00     0.003 A 
ATOM      6  C4  PXY d   1      -1.945  -2.805  -1.786  0.00  0.00    -0.082 A 
ATOM      7  C5  PXY d   1      -2.242  -1.502  -1.594  0.00  0.00     0.003 A 
ATOM      8  C6  PXY d   1      -1.714  -0.841  -0.489  0.00  0.00     0.003 A 
ENDROOT
TORSDOF 0
ENDMDL
