MODEL 1
REMARK minimizedAffinity 5.09601736
REMARK minimizedRMSD -1
REMARK  0 active torsions:
REMARK  status: ('A' for Active; 'I' for Inactive)
ROOT
ATOM      1  C4' PXY d   1      -4.975  -3.188  -3.210  0.00  0.00     0.077 C 
ATOM      2  C1' PXY d   1      -0.285  -2.498   0.099  0.00  0.00     0.077 C 
ATOM      3  C1  PXY d   1      -1.515  -2.666  -0.771  0.00  0.00    -0.082 A 
ATOM      4  C2  PXY d   1      -2.297  -3.721  -0.602  0.00  0.00     0.003 A 
ATOM      5  C3  PXY d   1      -3.396  -3.905  -1.402  0.00  0.00     0.003 A 
ATOM      6  C4  PXY d   1      -3.727  -2.973  -2.348  0.00  0.00    -0.082 A 
ATOM      7  C5  PXY d   1      -2.941  -1.889  -2.520  0.00  0.00     0.003 A 
ATOM      8  C6  PXY d   1      -1.807  -1.742  -1.726  0.00  0.00     0.003 A 
ENDROOT
TORSDOF 0
ENDMDL
