MODEL 1
REMARK minimizedAffinity 8.35497952
REMARK minimizedRMSD -1
REMARK  0 active torsions:
REMARK  status: ('A' for Active; 'I' for Inactive)
ROOT
ATOM      1  C4' PXY d   1       0.751   1.057   4.232  0.00  0.00     0.077 C 
ATOM      2  C1' PXY d   1       3.751  -0.003  -0.594  0.00  0.00     0.077 C 
ATOM      3  C1  PXY d   1       2.968   0.263   0.677  0.00  0.00    -0.082 A 
ATOM      4  C2  PXY d   1       1.964   1.125   0.658  0.00  0.00     0.003 A 
ATOM      5  C3  PXY d   1       1.266   1.402   1.804  0.00  0.00     0.003 A 
ATOM      6  C4  PXY d   1       1.563   0.750   2.971  0.00  0.00    -0.082 A 
ATOM      7  C5  PXY d   1       2.579  -0.139   2.996  0.00  0.00     0.003 A 
ATOM      8  C6  PXY d   1       3.303  -0.375   1.831  0.00  0.00     0.003 A 
ENDROOT
TORSDOF 0
ENDMDL
