MODEL 1
REMARK minimizedAffinity -0.102725714
REMARK minimizedRMSD -1
REMARK  0 active torsions:
REMARK  status: ('A' for Active; 'I' for Inactive)
ROOT
ATOM      1  C4' PXY d   1       1.160   0.276   3.847  0.00  0.00     0.077 C 
ATOM      2  C1' PXY d   1       3.310   1.641  -1.342  0.00  0.00     0.077 C 
ATOM      3  C1  PXY d   1       2.746   1.271   0.016  0.00  0.00    -0.082 A 
ATOM      4  C2  PXY d   1       2.077   2.173   0.714  0.00  0.00     0.003 A 
ATOM      5  C3  PXY d   1       1.588   1.865   1.958  0.00  0.00     0.003 A 
ATOM      6  C4  PXY d   1       1.739   0.603   2.468  0.00  0.00    -0.082 A 
ATOM      7  C5  PXY d   1       2.412  -0.326   1.757  0.00  0.00     0.003 A 
ATOM      8  C6  PXY d   1       2.936   0.019   0.515  0.00  0.00     0.003 A 
ENDROOT
TORSDOF 0
ENDMDL
