MODEL 1
REMARK minimizedAffinity 8.30749798
REMARK minimizedRMSD -1
REMARK  0 active torsions:
REMARK  status: ('A' for Active; 'I' for Inactive)
ROOT
ATOM      1  C4' PXY d   1       0.791   0.709   2.098  0.00  0.00     0.077 C 
ATOM      2  C1' PXY d   1       5.999  -1.096   0.357  0.00  0.00     0.077 C 
ATOM      3  C1  PXY d   1       4.633  -0.614   0.803  0.00  0.00    -0.082 A 
ATOM      4  C2  PXY d   1       4.256  -0.790   2.060  0.00  0.00     0.003 A 
ATOM      5  C3  PXY d   1       3.012  -0.389   2.473  0.00  0.00     0.003 A 
ATOM      6  C4  PXY d   1       2.165   0.247   1.605  0.00  0.00    -0.082 A 
ATOM      7  C5  PXY d   1       2.546   0.439   0.324  0.00  0.00     0.003 A 
ATOM      8  C6  PXY d   1       3.797  -0.012  -0.086  0.00  0.00     0.003 A 
ENDROOT
TORSDOF 0
ENDMDL
