MODEL 1
REMARK minimizedAffinity 0.428530067
REMARK minimizedRMSD -1
REMARK  0 active torsions:
REMARK  status: ('A' for Active; 'I' for Inactive)
ROOT
ATOM      1  C4' PXY d   1       4.334  -1.156   0.047  0.00  0.00     0.077 C 
ATOM      2  C1' PXY d   1       0.837   0.894   4.168  0.00  0.00     0.077 C 
ATOM      3  C1  PXY d   1       1.745   0.358   3.078  0.00  0.00    -0.082 A 
ATOM      4  C2  PXY d   1       2.708  -0.494   3.389  0.00  0.00     0.003 A 
ATOM      5  C3  PXY d   1       3.558  -0.963   2.421  0.00  0.00     0.003 A 
ATOM      6  C4  PXY d   1       3.388  -0.597   1.113  0.00  0.00    -0.082 A 
ATOM      7  C5  PXY d   1       2.400   0.264   0.786  0.00  0.00     0.003 A 
ATOM      8  C6  PXY d   1       1.574   0.760   1.789  0.00  0.00     0.003 A 
ENDROOT
TORSDOF 0
ENDMDL
