MODEL 1
REMARK minimizedAffinity 10.2870359
REMARK minimizedRMSD -1
REMARK  0 active torsions:
REMARK  status: ('A' for Active; 'I' for Inactive)
ROOT
ATOM      1  C4' PXY d   1      -4.877  -0.174   3.658  0.00  0.00     0.077 C 
ATOM      2  C1' PXY d   1      -5.066   5.109   5.998  0.00  0.00     0.077 C 
ATOM      3  C1  PXY d   1      -5.019   3.718   5.396  0.00  0.00    -0.082 A 
ATOM      4  C2  PXY d   1      -4.343   3.512   4.277  0.00  0.00     0.003 A 
ATOM      5  C3  PXY d   1      -4.317   2.268   3.702  0.00  0.00     0.003 A 
ATOM      6  C4  PXY d   1      -4.944   1.212   4.307  0.00  0.00    -0.082 A 
ATOM      7  C5  PXY d   1      -5.627   1.412   5.454  0.00  0.00     0.003 A 
ATOM      8  C6  PXY d   1      -5.676   2.691   6.000  0.00  0.00     0.003 A 
ENDROOT
TORSDOF 0
ENDMDL
