MODEL 1
REMARK minimizedAffinity 7.85165644
REMARK minimizedRMSD -1
REMARK  0 active torsions:
REMARK  status: ('A' for Active; 'I' for Inactive)
ROOT
ATOM      1  C4' PXY d   1       4.879  -1.474   0.706  0.00  0.00     0.077 C 
ATOM      2  C1' PXY d   1       1.701   3.352   0.860  0.00  0.00     0.077 C 
ATOM      3  C1  PXY d   1       2.527   2.081   0.829  0.00  0.00    -0.082 A 
ATOM      4  C2  PXY d   1       3.771   2.121   0.382  0.00  0.00     0.003 A 
ATOM      5  C3  PXY d   1       4.522   0.975   0.317  0.00  0.00     0.003 A 
ATOM      6  C4  PXY d   1       4.011  -0.214   0.764  0.00  0.00    -0.082 A 
ATOM      7  C5  PXY d   1       2.745  -0.261   1.231  0.00  0.00     0.003 A 
ATOM      8  C6  PXY d   1       1.986   0.905   1.250  0.00  0.00     0.003 A 
ENDROOT
TORSDOF 0
ENDMDL
