MODEL 1
REMARK minimizedAffinity 13.5839491
REMARK minimizedRMSD -1
REMARK  0 active torsions:
REMARK  status: ('A' for Active; 'I' for Inactive)
ROOT
ATOM      1  C4' PXY d   1      -3.026  -2.985  -1.512  0.00  0.00     0.077 C 
ATOM      2  C1' PXY d   1      -1.539  -6.000   3.191  0.00  0.00     0.077 C 
ATOM      3  C1  PXY d   1      -1.927  -5.198   1.964  0.00  0.00    -0.082 A 
ATOM      4  C2  PXY d   1      -2.666  -5.761   1.022  0.00  0.00     0.003 A 
ATOM      5  C3  PXY d   1      -3.000  -5.060  -0.109  0.00  0.00     0.003 A 
ATOM      6  C4  PXY d   1      -2.618  -3.754  -0.252  0.00  0.00    -0.082 A 
ATOM      7  C5  PXY d   1      -1.872  -3.169   0.710  0.00  0.00     0.003 A 
ATOM      8  C6  PXY d   1      -1.510  -3.910   1.831  0.00  0.00     0.003 A 
ENDROOT
TORSDOF 0
ENDMDL
