MODEL 1
REMARK minimizedAffinity 6.11436749
REMARK minimizedRMSD -1
REMARK  0 active torsions:
REMARK  status: ('A' for Active; 'I' for Inactive)
ROOT
ATOM      1  C4' PXY d   1      -2.576  -2.203  -1.971  0.00  0.00     0.077 C 
ATOM      2  C1' PXY d   1      -1.844  -5.987   2.337  0.00  0.00     0.077 C 
ATOM      3  C1  PXY d   1      -2.041  -5.004   1.200  0.00  0.00    -0.082 A 
ATOM      4  C2  PXY d   1      -1.255  -3.944   1.107  0.00  0.00     0.003 A 
ATOM      5  C3  PXY d   1      -1.440  -3.028   0.104  0.00  0.00     0.003 A 
ATOM      6  C4  PXY d   1      -2.407  -3.227  -0.845  0.00  0.00    -0.082 A 
ATOM      7  C5  PXY d   1      -3.206  -4.311  -0.764  0.00  0.00     0.003 A 
ATOM      8  C6  PXY d   1      -3.029  -5.207   0.286  0.00  0.00     0.003 A 
ENDROOT
TORSDOF 0
ENDMDL
