MODEL 1
REMARK minimizedAffinity 10.5347977
REMARK minimizedRMSD -1
REMARK  0 active torsions:
REMARK  status: ('A' for Active; 'I' for Inactive)
ROOT
ATOM      1  C4' PXY d   1      -5.941   5.999   4.659  0.00  0.00     0.077 C 
ATOM      2  C1' PXY d   1      -3.941   0.791   3.146  0.00  0.00     0.077 C 
ATOM      3  C1  PXY d   1      -4.467   2.159   3.530  0.00  0.00    -0.082 A 
ATOM      4  C2  PXY d   1      -4.116   2.694   4.689  0.00  0.00     0.003 A 
ATOM      5  C3  PXY d   1      -4.608   3.917   5.066  0.00  0.00     0.003 A 
ATOM      6  C4  PXY d   1      -5.426   4.623   4.226  0.00  0.00    -0.082 A 
ATOM      7  C5  PXY d   1      -5.781   4.089   3.038  0.00  0.00     0.003 A 
ATOM      8  C6  PXY d   1      -5.303   2.829   2.691  0.00  0.00     0.003 A 
ENDROOT
TORSDOF 0
ENDMDL
