MODEL 1
REMARK minimizedAffinity 2.79397655
REMARK minimizedRMSD -1
REMARK  0 active torsions:
REMARK  status: ('A' for Active; 'I' for Inactive)
ROOT
ATOM      1  C4' PXY d   1       4.088   1.226  -1.487  0.00  0.00     0.077 C 
ATOM      2  C1' PXY d   1      -0.022  -0.327   2.269  0.00  0.00     0.077 C 
ATOM      3  C1  PXY d   1       1.064   0.071   1.289  0.00  0.00    -0.082 A 
ATOM      4  C2  PXY d   1       1.025   1.265   0.720  0.00  0.00     0.003 A 
ATOM      5  C3  PXY d   1       1.981   1.629  -0.193  0.00  0.00     0.003 A 
ATOM      6  C4  PXY d   1       3.018   0.784  -0.485  0.00  0.00    -0.082 A 
ATOM      7  C5  PXY d   1       3.071  -0.431   0.100  0.00  0.00     0.003 A 
ATOM      8  C6  PXY d   1       2.067  -0.798   0.992  0.00  0.00     0.003 A 
ENDROOT
TORSDOF 0
ENDMDL
