MODEL 1
REMARK minimizedAffinity 2.38680625
REMARK minimizedRMSD -1
REMARK  0 active torsions:
REMARK  status: ('A' for Active; 'I' for Inactive)
ROOT
ATOM      1  C4' PXY d   1       5.268  -1.160   0.329  0.00  0.00     0.077 C 
ATOM      2  C1' PXY d   1       0.751   1.817   2.366  0.00  0.00     0.077 C 
ATOM      3  C1  PXY d   1       1.942   1.038   1.843  0.00  0.00    -0.082 A 
ATOM      4  C2  PXY d   1       2.147   0.954   0.539  0.00  0.00     0.003 A 
ATOM      5  C3  PXY d   1       3.201   0.227   0.047  0.00  0.00     0.003 A 
ATOM      6  C4  PXY d   1       4.084  -0.376   0.902  0.00  0.00    -0.082 A 
ATOM      7  C5  PXY d   1       3.888  -0.286   2.234  0.00  0.00     0.003 A 
ATOM      8  C6  PXY d   1       2.789   0.422   2.712  0.00  0.00     0.003 A 
ENDROOT
TORSDOF 0
ENDMDL
