MODEL 1
REMARK minimizedAffinity 17.1932354
REMARK minimizedRMSD -1
REMARK  0 active torsions:
REMARK  status: ('A' for Active; 'I' for Inactive)
ROOT
ATOM      1  C4' PXY d   1      -1.788  -1.645  -2.501  0.00  0.00     0.077 C 
ATOM      2  C1' PXY d   1      -1.108  -4.050   2.711  0.00  0.00     0.077 C 
ATOM      3  C1  PXY d   1      -1.299  -3.422   1.344  0.00  0.00    -0.082 A 
ATOM      4  C2  PXY d   1      -0.271  -3.332   0.516  0.00  0.00     0.003 A 
ATOM      5  C3  PXY d   1      -0.418  -2.738  -0.711  0.00  0.00     0.003 A 
ATOM      6  C4  PXY d   1      -1.643  -2.279  -1.116  0.00  0.00    -0.082 A 
ATOM      7  C5  PXY d   1      -2.700  -2.377  -0.281  0.00  0.00     0.003 A 
ATOM      8  C6  PXY d   1      -2.519  -2.946   0.977  0.00  0.00     0.003 A 
ENDROOT
TORSDOF 0
ENDMDL
