MODEL 1
REMARK minimizedAffinity 3.27240467
REMARK minimizedRMSD -1
REMARK  0 active torsions:
REMARK  status: ('A' for Active; 'I' for Inactive)
ROOT
ATOM      1  C4' PXY d   1      -1.386  -2.957   0.438  0.00  0.00     0.077 C 
ATOM      2  C1' PXY d   1      -1.608  -4.050  -5.234  0.00  0.00     0.077 C 
ATOM      3  C1  PXY d   1      -1.560  -3.755  -3.748  0.00  0.00    -0.082 A 
ATOM      4  C2  PXY d   1      -0.431  -3.934  -3.082  0.00  0.00     0.003 A 
ATOM      5  C3  PXY d   1      -0.378  -3.703  -1.731  0.00  0.00     0.003 A 
ATOM      6  C4  PXY d   1      -1.478  -3.233  -1.065  0.00  0.00    -0.082 A 
ATOM      7  C5  PXY d   1      -2.631  -3.037  -1.740  0.00  0.00     0.003 A 
ATOM      8  C6  PXY d   1      -2.675  -3.317  -3.103  0.00  0.00     0.003 A 
ENDROOT
TORSDOF 0
ENDMDL
