MODEL 1
REMARK minimizedAffinity 12.34828
REMARK minimizedRMSD -1
REMARK  0 active torsions:
REMARK  status: ('A' for Active; 'I' for Inactive)
ROOT
ATOM      1  C4' PXY d   1      -5.121  -3.859  -3.642  0.00  0.00     0.077 C 
ATOM      2  C1' PXY d   1      -0.632  -3.061  -0.088  0.00  0.00     0.077 C 
ATOM      3  C1  PXY d   1      -1.808  -3.258  -1.024  0.00  0.00    -0.082 A 
ATOM      4  C2  PXY d   1      -2.700  -4.201  -0.765  0.00  0.00     0.003 A 
ATOM      5  C3  PXY d   1      -3.753  -4.413  -1.618  0.00  0.00     0.003 A 
ATOM      6  C4  PXY d   1      -3.923  -3.618  -2.719  0.00  0.00    -0.082 A 
ATOM      7  C5  PXY d   1      -3.023  -2.648  -2.985  0.00  0.00     0.003 A 
ATOM      8  C6  PXY d   1      -1.940  -2.475  -2.129  0.00  0.00     0.003 A 
ENDROOT
TORSDOF 0
ENDMDL
