MODEL 1
REMARK minimizedAffinity 0.556177616
REMARK minimizedRMSD -1
REMARK  0 active torsions:
REMARK  status: ('A' for Active; 'I' for Inactive)
ROOT
ATOM      1  C   UNL d   1      -5.640  -3.218   4.708  0.00  0.00     0.172 C 
ATOM      2  N   UNL d   1      -5.639  -4.122   3.582  0.00  0.00    -0.070 N 
ATOM      3  C1  UNL d   1      -5.995  -5.443   3.618  0.00  0.00    -0.004 A 
ATOM      4  C2  UNL d   1      -5.859  -5.953   2.345  0.00  0.00    -0.047 A 
ATOM      5  C3  UNL d   1      -5.404  -4.901   1.515  0.00  0.00    -0.047 A 
ATOM      6  C4  UNL d   1      -5.276  -3.779   2.306  0.00  0.00    -0.004 A 
ENDROOT
TORSDOF 0
ENDMDL
