MODEL 1
REMARK minimizedAffinity 7.21357775
REMARK minimizedRMSD -1
REMARK  0 active torsions:
REMARK  status: ('A' for Active; 'I' for Inactive)
ROOT
ATOM      1  C   UNL d   1      -2.638  -2.921   0.062  0.00  0.00     0.172 C 
ATOM      2  N   UNL d   1      -2.520  -1.583   0.593  0.00  0.00    -0.070 N 
ATOM      3  C1  UNL d   1      -3.444  -0.583   0.448  0.00  0.00    -0.004 A 
ATOM      4  C2  UNL d   1      -2.962   0.534   1.096  0.00  0.00    -0.047 A 
ATOM      5  C3  UNL d   1      -1.704   0.193   1.649  0.00  0.00    -0.047 A 
ATOM      6  C4  UNL d   1      -1.455  -1.124   1.322  0.00  0.00    -0.004 A 
ENDROOT
TORSDOF 0
ENDMDL
