MODEL 1
REMARK minimizedAffinity 0.583366454
REMARK minimizedRMSD -1
REMARK  0 active torsions:
REMARK  status: ('A' for Active; 'I' for Inactive)
ROOT
ATOM      1  C   UNL d   1      -5.836  -5.073   2.381  0.00  0.00     0.172 C 
ATOM      2  N   UNL d   1      -5.888  -4.948   3.819  0.00  0.00    -0.070 N 
ATOM      3  C1  UNL d   1      -5.862  -3.771   4.519  0.00  0.00    -0.004 A 
ATOM      4  C2  UNL d   1      -5.931  -4.077   5.861  0.00  0.00    -0.047 A 
ATOM      5  C3  UNL d   1      -6.000  -5.486   5.971  0.00  0.00    -0.047 A 
ATOM      6  C4  UNL d   1      -5.972  -6.000   4.692  0.00  0.00    -0.004 A 
ENDROOT
TORSDOF 0
ENDMDL
