MODEL 1
REMARK minimizedAffinity 4.08994246
REMARK minimizedRMSD -1
REMARK  0 active torsions:
REMARK  status: ('A' for Active; 'I' for Inactive)
ROOT
ATOM      1  C   UNL d   1       0.373  -1.811   2.902  0.00  0.00     0.172 C 
ATOM      2  N   UNL d   1      -0.798  -1.060   2.513  0.00  0.00    -0.070 N 
ATOM      3  C1  UNL d   1      -1.470  -1.186   1.326  0.00  0.00    -0.004 A 
ATOM      4  C2  UNL d   1      -2.525  -0.299   1.342  0.00  0.00    -0.047 A 
ATOM      5  C3  UNL d   1      -2.485   0.384   2.581  0.00  0.00    -0.047 A 
ATOM      6  C4  UNL d   1      -1.407  -0.106   3.286  0.00  0.00    -0.004 A 
ENDROOT
TORSDOF 0
ENDMDL
