MODEL 1
REMARK minimizedAffinity 7.09107018
REMARK minimizedRMSD -1
REMARK  0 active torsions:
REMARK  status: ('A' for Active; 'I' for Inactive)
ROOT
ATOM      1  C   UNL d   1       3.090   0.936  -0.725  0.00  0.00     0.172 C 
ATOM      2  N   UNL d   1       2.982   1.740  -1.920  0.00  0.00    -0.070 N 
ATOM      3  C1  UNL d   1       3.972   2.526  -2.446  0.00  0.00    -0.004 A 
ATOM      4  C2  UNL d   1       3.475   3.126  -3.582  0.00  0.00    -0.047 A 
ATOM      5  C3  UNL d   1       2.139   2.686  -3.744  0.00  0.00    -0.047 A 
ATOM      6  C4  UNL d   1       1.860   1.829  -2.701  0.00  0.00    -0.004 A 
ENDROOT
TORSDOF 0
ENDMDL
