MODEL 1
REMARK minimizedAffinity 8.50930405
REMARK minimizedRMSD -1
REMARK  0 active torsions:
REMARK  status: ('A' for Active; 'I' for Inactive)
ROOT
ATOM      1  C   UNL d   1      -1.534  -0.004   4.175  0.00  0.00     0.172 C 
ATOM      2  N   UNL d   1      -0.634  -0.996   3.637  0.00  0.00    -0.070 N 
ATOM      3  C1  UNL d   1      -0.638  -1.464   2.350  0.00  0.00    -0.004 A 
ATOM      4  C2  UNL d   1       0.371  -2.396   2.236  0.00  0.00    -0.047 A 
ATOM      5  C3  UNL d   1       1.003  -2.492   3.498  0.00  0.00    -0.047 A 
ATOM      6  C4  UNL d   1       0.361  -1.615   4.347  0.00  0.00    -0.004 A 
ENDROOT
TORSDOF 0
ENDMDL
