MODEL 1
REMARK minimizedAffinity 4.07731295
REMARK minimizedRMSD -1
REMARK  0 active torsions:
REMARK  status: ('A' for Active; 'I' for Inactive)
ROOT
ATOM      1  C   UNL d   1      -5.999  -6.000   4.560  0.00  0.00     0.172 C 
ATOM      2  N   UNL d   1      -5.767  -5.034   3.512  0.00  0.00    -0.070 N 
ATOM      3  C1  UNL d   1      -5.942  -5.253   2.171  0.00  0.00    -0.004 A 
ATOM      4  C2  UNL d   1      -5.616  -4.091   1.507  0.00  0.00    -0.047 A 
ATOM      5  C3  UNL d   1      -5.231  -3.140   2.482  0.00  0.00    -0.047 A 
ATOM      6  C4  UNL d   1      -5.333  -3.750   3.714  0.00  0.00    -0.004 A 
ENDROOT
TORSDOF 0
ENDMDL
