MODEL 1
REMARK minimizedAffinity 6.47319651
REMARK minimizedRMSD -1
REMARK  0 active torsions:
REMARK  status: ('A' for Active; 'I' for Inactive)
ROOT
ATOM      1  C   UNL d   1       3.190   1.509   0.151  0.00  0.00     0.172 C 
ATOM      2  N   UNL d   1       3.054   2.003  -1.199  0.00  0.00    -0.070 N 
ATOM      3  C1  UNL d   1       2.422   1.354  -2.226  0.00  0.00    -0.004 A 
ATOM      4  C2  UNL d   1       2.509   2.152  -3.346  0.00  0.00    -0.047 A 
ATOM      5  C3  UNL d   1       3.218   3.321  -2.980  0.00  0.00    -0.047 A 
ATOM      6  C4  UNL d   1       3.543   3.202  -1.645  0.00  0.00    -0.004 A 
ENDROOT
TORSDOF 0
ENDMDL
