MODEL 1
REMARK minimizedAffinity 0.273629755
REMARK minimizedRMSD -1
REMARK  0 active torsions:
REMARK  status: ('A' for Active; 'I' for Inactive)
ROOT
ATOM      1  C   UNL d   1       1.378   6.000  -2.645  0.00  0.00     0.172 C 
ATOM      2  N   UNL d   1       2.479   5.070  -2.733  0.00  0.00    -0.070 N 
ATOM      3  C1  UNL d   1       3.792   5.360  -2.470  0.00  0.00    -0.004 A 
ATOM      4  C2  UNL d   1       4.526   4.210  -2.668  0.00  0.00    -0.047 A 
ATOM      5  C3  UNL d   1       3.623   3.195  -3.064  0.00  0.00    -0.047 A 
ATOM      6  C4  UNL d   1       2.363   3.754  -3.096  0.00  0.00    -0.004 A 
ENDROOT
TORSDOF 0
ENDMDL
