MODEL 1
REMARK minimizedAffinity 5.67780352
REMARK minimizedRMSD -1
REMARK  0 active torsions:
REMARK  status: ('A' for Active; 'I' for Inactive)
ROOT
ATOM      1  C   UNL d   1      -4.709   4.247  -5.881  0.00  0.00     0.172 C 
ATOM      2  N   UNL d   1      -3.332   4.679  -5.929  0.00  0.00    -0.070 N 
ATOM      3  C1  UNL d   1      -2.237   3.857  -5.952  0.00  0.00    -0.004 A 
ATOM      4  C2  UNL d   1      -1.113   4.652  -5.997  0.00  0.00    -0.047 A 
ATOM      5  C3  UNL d   1      -1.546   5.999  -6.000  0.00  0.00    -0.047 A 
ATOM      6  C4  UNL d   1      -2.924   5.987  -5.957  0.00  0.00    -0.004 A 
ENDROOT
TORSDOF 0
ENDMDL
