MODEL 1
REMARK minimizedAffinity 6.33948803
REMARK minimizedRMSD -1
REMARK  0 active torsions:
REMARK  status: ('A' for Active; 'I' for Inactive)
ROOT
ATOM      1  C   UNL d   1      -3.270   5.089  -5.994  0.00  0.00     0.172 C 
ATOM      2  N   UNL d   1      -1.833   4.956  -5.925  0.00  0.00    -0.070 N 
ATOM      3  C1  UNL d   1      -1.147   3.780  -5.777  0.00  0.00    -0.004 A 
ATOM      4  C2  UNL d   1       0.199   4.077  -5.757  0.00  0.00    -0.047 A 
ATOM      5  C3  UNL d   1       0.325   5.480  -5.897  0.00  0.00    -0.047 A 
ATOM      6  C4  UNL d   1      -0.948   5.999  -5.999  0.00  0.00    -0.004 A 
ENDROOT
TORSDOF 0
ENDMDL
