MODEL 1
REMARK minimizedAffinity 1.95403051
REMARK minimizedRMSD -1
REMARK  0 active torsions:
REMARK  status: ('A' for Active; 'I' for Inactive)
ROOT
ATOM      1  C   UNL d   1      -2.689   0.226   3.968  0.00  0.00     0.172 C 
ATOM      2  N   UNL d   1      -2.384  -0.076   2.590  0.00  0.00    -0.070 N 
ATOM      3  C1  UNL d   1      -1.481  -1.010   2.158  0.00  0.00    -0.004 A 
ATOM      4  C2  UNL d   1      -1.483  -0.993   0.780  0.00  0.00    -0.047 A 
ATOM      5  C3  UNL d   1      -2.419  -0.015   0.369  0.00  0.00    -0.047 A 
ATOM      6  C4  UNL d   1      -2.962   0.538   1.510  0.00  0.00    -0.004 A 
ENDROOT
TORSDOF 0
ENDMDL
