MODEL 1
REMARK minimizedAffinity 4.32092333
REMARK minimizedRMSD -1
REMARK  0 active torsions:
REMARK  status: ('A' for Active; 'I' for Inactive)
ROOT
ATOM      1  C   UNL d   1      -0.775  -1.937   1.737  0.00  0.00     0.172 C 
ATOM      2  N   UNL d   1       0.453  -2.021   2.491  0.00  0.00    -0.070 N 
ATOM      3  C1  UNL d   1       1.633  -1.407   2.166  0.00  0.00    -0.004 A 
ATOM      4  C2  UNL d   1       2.559  -1.733   3.133  0.00  0.00    -0.047 A 
ATOM      5  C3  UNL d   1       1.914  -2.573   4.071  0.00  0.00    -0.047 A 
ATOM      6  C4  UNL d   1       0.611  -2.735   3.649  0.00  0.00    -0.004 A 
ENDROOT
TORSDOF 0
ENDMDL
