MODEL 1
REMARK minimizedAffinity 1.68074703
REMARK minimizedRMSD -1
REMARK  0 active torsions:
REMARK  status: ('A' for Active; 'I' for Inactive)
ROOT
ATOM      1  C   UNL d   1      -5.653   4.921   5.276  0.00  0.00     0.172 C 
ATOM      2  N   UNL d   1      -5.352   3.508   5.265  0.00  0.00    -0.070 N 
ATOM      3  C1  UNL d   1      -5.998   2.550   5.999  0.00  0.00    -0.004 A 
ATOM      4  C2  UNL d   1      -5.418   1.334   5.708  0.00  0.00    -0.047 A 
ATOM      5  C3  UNL d   1      -4.388   1.570   4.767  0.00  0.00    -0.047 A 
ATOM      6  C4  UNL d   1      -4.369   2.925   4.510  0.00  0.00    -0.004 A 
ENDROOT
TORSDOF 0
ENDMDL
