MODEL 1
REMARK minimizedAffinity 2.10518551
REMARK minimizedRMSD -1
REMARK  0 active torsions:
REMARK  status: ('A' for Active; 'I' for Inactive)
ROOT
ATOM      1  C   UNL d   1       0.403   4.116  -4.287  0.00  0.00     0.172 C 
ATOM      2  N   UNL d   1      -0.762   4.848  -4.723  0.00  0.00    -0.070 N 
ATOM      3  C1  UNL d   1      -0.983   5.316  -5.991  0.00  0.00    -0.004 A 
ATOM      4  C2  UNL d   1      -2.203   5.957  -5.998  0.00  0.00    -0.047 A 
ATOM      5  C3  UNL d   1      -2.733   5.873  -4.688  0.00  0.00    -0.047 A 
ATOM      6  C4  UNL d   1      -1.821   5.181  -3.919  0.00  0.00    -0.004 A 
ENDROOT
TORSDOF 0
ENDMDL
