MODEL 1
REMARK minimizedAffinity -0.495833844
REMARK minimizedRMSD -1
REMARK  0 active torsions:
REMARK  status: ('A' for Active; 'I' for Inactive)
ROOT
ATOM      1  C   UNL d   1      -5.618  -3.400   5.979  0.00  0.00     0.172 C 
ATOM      2  N   UNL d   1      -5.635  -4.240   4.804  0.00  0.00    -0.070 N 
ATOM      3  C1  UNL d   1      -5.988  -5.562   4.773  0.00  0.00    -0.004 A 
ATOM      4  C2  UNL d   1      -5.874  -5.999   3.471  0.00  0.00    -0.047 A 
ATOM      5  C3  UNL d   1      -5.436  -4.901   2.693  0.00  0.00    -0.047 A 
ATOM      6  C4  UNL d   1      -5.296  -3.825   3.543  0.00  0.00    -0.004 A 
ENDROOT
TORSDOF 0
ENDMDL
