MODEL 1
REMARK minimizedAffinity 11.1739779
REMARK minimizedRMSD -1
REMARK  0 active torsions:
REMARK  status: ('A' for Active; 'I' for Inactive)
ROOT
ATOM      1  C   UNL d   1      -0.239  -1.560   4.506  0.00  0.00     0.172 C 
ATOM      2  N   UNL d   1      -0.492  -1.724   3.094  0.00  0.00    -0.070 N 
ATOM      3  C1  UNL d   1      -0.567  -0.713   2.173  0.00  0.00    -0.004 A 
ATOM      4  C2  UNL d   1      -0.820  -1.280   0.943  0.00  0.00    -0.047 A 
ATOM      5  C3  UNL d   1      -0.900  -2.681   1.131  0.00  0.00    -0.047 A 
ATOM      6  C4  UNL d   1      -0.693  -2.928   2.471  0.00  0.00    -0.004 A 
ENDROOT
TORSDOF 0
ENDMDL
