MODEL 1
REMARK minimizedAffinity 9.24534035
REMARK minimizedRMSD -1
REMARK  0 active torsions:
REMARK  status: ('A' for Active; 'I' for Inactive)
ROOT
ATOM      1  C   UNL d   1      -3.709   5.132  -5.958  0.00  0.00     0.172 C 
ATOM      2  N   UNL d   1      -2.288   5.011  -5.733  0.00  0.00    -0.070 N 
ATOM      3  C1  UNL d   1      -1.360   5.996  -5.942  0.00  0.00    -0.004 A 
ATOM      4  C2  UNL d   1      -0.123   5.488  -5.609  0.00  0.00    -0.047 A 
ATOM      5  C3  UNL d   1      -0.314   4.150  -5.187  0.00  0.00    -0.047 A 
ATOM      6  C4  UNL d   1      -1.663   3.882  -5.274  0.00  0.00    -0.004 A 
ENDROOT
TORSDOF 0
ENDMDL
