MODEL 1
REMARK minimizedAffinity -4.57920694
REMARK minimizedRMSD -1
REMARK  0 active torsions:
REMARK  status: ('A' for Active; 'I' for Inactive)
ROOT
ATOM      1  C   UNL d   1       2.943  -0.035   0.665  0.00  0.00     0.023 A 
ATOM      2  C1  UNL d   1       2.216   1.149   0.538  0.00  0.00     0.003 A 
ATOM      3  C2  UNL d   1       0.958   1.136  -0.069  0.00  0.00     0.048 A 
ATOM      4  C3  UNL d   1       0.432  -0.065  -0.544  0.00  0.00     0.023 A 
ATOM      5  C4  UNL d   1       1.155  -1.252  -0.418  0.00  0.00     0.048 A 
ATOM      6  C5  UNL d   1       2.413  -1.234   0.188  0.00  0.00     0.003 A 
ATOM      7  I   UNL d   1      -1.440  -0.087  -1.447  0.00  0.00    -0.146 I 
ENDROOT
TORSDOF 0
ENDMDL
