MODEL 1
REMARK minimizedAffinity 1.19213212
REMARK minimizedRMSD -1
REMARK  0 active torsions:
REMARK  status: ('A' for Active; 'I' for Inactive)
ROOT
ATOM      1  C   UNL d   1      -1.411   0.034   0.149  0.00  0.00     0.023 A 
ATOM      2  C1  UNL d   1      -0.700   1.234   0.172  0.00  0.00     0.003 A 
ATOM      3  C2  UNL d   1       0.666   1.232   0.460  0.00  0.00     0.048 A 
ATOM      4  C3  UNL d   1       1.315   0.026   0.723  0.00  0.00     0.023 A 
ATOM      5  C4  UNL d   1       0.608  -1.177   0.700  0.00  0.00     0.048 A 
ATOM      6  C5  UNL d   1      -0.758  -1.170   0.413  0.00  0.00     0.003 A 
ATOM      7  I   UNL d   1       3.349   0.021   1.152  0.00  0.00    -0.146 I 
ENDROOT
TORSDOF 0
ENDMDL
