MODEL 1
REMARK minimizedAffinity -2.33506799
REMARK minimizedRMSD -1
REMARK  0 active torsions:
REMARK  status: ('A' for Active; 'I' for Inactive)
ROOT
ATOM      1  C   UNL d   1       3.131  -0.466   0.923  0.00  0.00     0.023 A 
ATOM      2  C1  UNL d   1       2.708   0.799   0.513  0.00  0.00     0.003 A 
ATOM      3  C2  UNL d   1       1.396   0.990   0.075  0.00  0.00     0.048 A 
ATOM      4  C3  UNL d   1       0.512  -0.088   0.050  0.00  0.00     0.023 A 
ATOM      5  C4  UNL d   1       0.930  -1.355   0.460  0.00  0.00     0.048 A 
ATOM      6  C5  UNL d   1       2.243  -1.541   0.896  0.00  0.00     0.003 A 
ATOM      7  I   UNL d   1      -1.441   0.194  -0.602  0.00  0.00    -0.146 I 
ENDROOT
TORSDOF 0
ENDMDL
