MODEL 1
REMARK minimizedAffinity -4.37344551
REMARK minimizedRMSD -1
REMARK  0 active torsions:
REMARK  status: ('A' for Active; 'I' for Inactive)
ROOT
ATOM      1  C   UNL d   1       2.803  -0.191   1.012  0.00  0.00     0.023 A 
ATOM      2  C1  UNL d   1       2.043  -1.348   0.835  0.00  0.00     0.003 A 
ATOM      3  C2  UNL d   1       0.769  -1.268   0.268  0.00  0.00     0.048 A 
ATOM      4  C3  UNL d   1       0.262  -0.029  -0.121  0.00  0.00     0.023 A 
ATOM      5  C4  UNL d   1       1.019   1.131   0.052  0.00  0.00     0.048 A 
ATOM      6  C5  UNL d   1       2.292   1.047   0.621  0.00  0.00     0.003 A 
ATOM      7  I   UNL d   1      -1.633   0.092  -0.966  0.00  0.00    -0.146 I 
ENDROOT
TORSDOF 0
ENDMDL
