MODEL 1
REMARK minimizedAffinity -4.72112322
REMARK minimizedRMSD -1
REMARK  0 active torsions:
REMARK  status: ('A' for Active; 'I' for Inactive)
ROOT
ATOM      1  C   UNL d   1       3.554  -0.730   1.572  0.00  0.00     0.023 A 
ATOM      2  C1  UNL d   1       3.155   0.499   1.045  0.00  0.00     0.003 A 
ATOM      3  C2  UNL d   1       1.859   0.660   0.552  0.00  0.00     0.048 A 
ATOM      4  C3  UNL d   1       0.966  -0.411   0.590  0.00  0.00     0.023 A 
ATOM      5  C4  UNL d   1       1.361  -1.642   1.117  0.00  0.00     0.048 A 
ATOM      6  C5  UNL d   1       2.659  -1.798   1.607  0.00  0.00     0.003 A 
ATOM      7  I   UNL d   1      -0.964  -0.173  -0.143  0.00  0.00    -0.146 I 
ENDROOT
TORSDOF 0
ENDMDL
