MODEL 1
REMARK minimizedAffinity -3.77398753
REMARK minimizedRMSD -1
REMARK  0 active torsions:
REMARK  status: ('A' for Active; 'I' for Inactive)
ROOT
ATOM      1  C   UNL d   1       2.246   0.036   1.100  0.00  0.00     0.023 A 
ATOM      2  C1  UNL d   1       1.835   1.166   0.394  0.00  0.00     0.003 A 
ATOM      3  C2  UNL d   1       0.638   1.146  -0.324  0.00  0.00     0.048 A 
ATOM      4  C3  UNL d   1      -0.145  -0.008  -0.331  0.00  0.00     0.023 A 
ATOM      5  C4  UNL d   1       0.262  -1.142   0.375  0.00  0.00     0.048 A 
ATOM      6  C5  UNL d   1       1.460  -1.117   1.090  0.00  0.00     0.003 A 
ATOM      7  I   UNL d   1      -1.928  -0.041  -1.398  0.00  0.00    -0.146 I 
ENDROOT
TORSDOF 0
ENDMDL
