MODEL 1
REMARK minimizedAffinity -4.71043491
REMARK minimizedRMSD -1
REMARK  0 active torsions:
REMARK  status: ('A' for Active; 'I' for Inactive)
ROOT
ATOM      1  C   UNL d   1       2.586   0.140   1.268  0.00  0.00     0.023 A 
ATOM      2  C1  UNL d   1       2.228  -1.037   0.611  0.00  0.00     0.003 A 
ATOM      3  C2  UNL d   1       0.993  -1.129  -0.034  0.00  0.00     0.048 A 
ATOM      4  C3  UNL d   1       0.122  -0.040  -0.020  0.00  0.00     0.023 A 
ATOM      5  C4  UNL d   1       0.477   1.140   0.636  0.00  0.00     0.048 A 
ATOM      6  C5  UNL d   1       1.712   1.227   1.281  0.00  0.00     0.003 A 
ATOM      7  I   UNL d   1      -1.717  -0.175  -0.980  0.00  0.00    -0.146 I 
ENDROOT
TORSDOF 0
ENDMDL
