MODEL 1
REMARK minimizedAffinity -4.38692093
REMARK minimizedRMSD -1
REMARK  0 active torsions:
REMARK  status: ('A' for Active; 'I' for Inactive)
ROOT
ATOM      1  O1  BZF d   1      -0.531  -2.175   1.446  0.00  0.00    -0.204 OA
ATOM      2  C2  BZF d   1      -1.679  -2.944   1.465  0.00  0.00     0.174 A 
ATOM      3  C3  BZF d   1      -2.574  -2.490   0.563  0.00  0.00    -0.012 A 
ATOM      4  C3A BZF d   1      -1.909  -1.425  -0.123  0.00  0.00    -0.107 A 
ATOM      5  C4  BZF d   1      -2.275  -0.591  -1.140  0.00  0.00     0.055 A 
ATOM      6  C5  BZF d   1      -1.420   0.392  -1.529  0.00  0.00    -0.016 A 
ATOM      7  C6  BZF d   1      -0.195   0.571  -0.920  0.00  0.00     0.022 A 
ATOM      8  C7  BZF d   1       0.214  -0.234   0.090  0.00  0.00     0.029 A 
ATOM      9  C7A BZF d   1      -0.634  -1.248   0.463  0.00  0.00     0.058 A 
ENDROOT
TORSDOF 0
ENDMDL
