MODEL 1
REMARK minimizedAffinity -4.88267469
REMARK minimizedRMSD -1
REMARK  0 active torsions:
REMARK  status: ('A' for Active; 'I' for Inactive)
ROOT
ATOM      1  O1  BZF d   1       0.781  -0.747   0.996  0.00  0.00    -0.204 OA
ATOM      2  C2  BZF d   1       0.928   0.279   0.083  0.00  0.00     0.174 A 
ATOM      3  C3  BZF d   1      -0.160   0.375  -0.708  0.00  0.00    -0.012 A 
ATOM      4  C3A BZF d   1      -1.080  -0.596  -0.201  0.00  0.00    -0.107 A 
ATOM      5  C4  BZF d   1      -2.345  -0.966  -0.558  0.00  0.00     0.055 A 
ATOM      6  C5  BZF d   1      -2.940  -1.999   0.094  0.00  0.00    -0.016 A 
ATOM      7  C6  BZF d   1      -2.298  -2.687   1.103  0.00  0.00     0.022 A 
ATOM      8  C7  BZF d   1      -1.044  -2.352   1.496  0.00  0.00     0.029 A 
ATOM      9  C7A BZF d   1      -0.453  -1.288   0.861  0.00  0.00     0.058 A 
ENDROOT
TORSDOF 0
ENDMDL
