MODEL 1
REMARK minimizedAffinity -2.04131413
REMARK minimizedRMSD -1
REMARK  0 active torsions:
REMARK  status: ('A' for Active; 'I' for Inactive)
ROOT
ATOM      1  O1  BZF d   1       0.628  -0.608   1.026  0.00  0.00    -0.204 OA
ATOM      2  C2  BZF d   1       0.521   0.438   0.130  0.00  0.00     0.174 A 
ATOM      3  C3  BZF d   1      -0.678   0.417  -0.488  0.00  0.00    -0.012 A 
ATOM      4  C3A BZF d   1      -1.397  -0.658   0.122  0.00  0.00    -0.107 A 
ATOM      5  C4  BZF d   1      -2.652  -1.168  -0.054  0.00  0.00     0.055 A 
ATOM      6  C5  BZF d   1      -3.022  -2.270   0.651  0.00  0.00    -0.016 A 
ATOM      7  C6  BZF d   1      -2.163  -2.889   1.534  0.00  0.00     0.022 A 
ATOM      8  C7  BZF d   1      -0.910  -2.418   1.746  0.00  0.00     0.029 A 
ATOM      9  C7A BZF d   1      -0.544  -1.285   1.060  0.00  0.00     0.058 A 
ENDROOT
TORSDOF 0
ENDMDL
