MODEL 1
REMARK minimizedAffinity -3.12929773
REMARK minimizedRMSD -1
REMARK  0 active torsions:
REMARK  status: ('A' for Active; 'I' for Inactive)
ROOT
ATOM      1  O1  BZF d   1       0.856  -1.452   1.262  0.00  0.00    -0.204 OA
ATOM      2  C2  BZF d   1       1.513  -0.370   0.708  0.00  0.00     0.174 A 
ATOM      3  C3  BZF d   1       0.774   0.187  -0.273  0.00  0.00    -0.012 A 
ATOM      4  C3A BZF d   1      -0.460  -0.537  -0.273  0.00  0.00    -0.107 A 
ATOM      5  C4  BZF d   1      -1.605  -0.441  -1.010  0.00  0.00     0.055 A 
ATOM      6  C5  BZF d   1      -2.597  -1.348  -0.811  0.00  0.00    -0.016 A 
ATOM      7  C6  BZF d   1      -2.475  -2.366   0.113  0.00  0.00     0.022 A 
ATOM      8  C7  BZF d   1      -1.360  -2.499   0.871  0.00  0.00     0.029 A 
ATOM      9  C7A BZF d   1      -0.369  -1.564   0.695  0.00  0.00     0.058 A 
ENDROOT
TORSDOF 0
ENDMDL
