MODEL 1
REMARK minimizedAffinity -3.13271737
REMARK minimizedRMSD -1
REMARK  0 active torsions:
REMARK  status: ('A' for Active; 'I' for Inactive)
ROOT
ATOM      1  O1  BZF d   1       2.983   1.336  -0.229  0.00  0.00    -0.204 OA
ATOM      2  C2  BZF d   1       3.349   2.365   0.618  0.00  0.00     0.174 A 
ATOM      3  C3  BZF d   1       2.335   2.686   1.447  0.00  0.00    -0.012 A 
ATOM      4  C3A BZF d   1       1.300   1.741   1.159  0.00  0.00    -0.107 A 
ATOM      5  C4  BZF d   1       0.049   1.536   1.666  0.00  0.00     0.055 A 
ATOM      6  C5  BZF d   1      -0.738   0.574   1.114  0.00  0.00    -0.016 A 
ATOM      7  C6  BZF d   1      -0.308  -0.195   0.053  0.00  0.00     0.022 A 
ATOM      8  C7  BZF d   1       0.927  -0.032  -0.480  0.00  0.00     0.029 A 
ATOM      9  C7A BZF d   1       1.737   0.917   0.096  0.00  0.00     0.058 A 
ENDROOT
TORSDOF 0
ENDMDL
