MODEL 1
REMARK minimizedAffinity -4.91448689
REMARK minimizedRMSD -1
REMARK  0 active torsions:
REMARK  status: ('A' for Active; 'I' for Inactive)
ROOT
ATOM      1  O1  BZF d   1      -0.466  -2.087   1.396  0.00  0.00    -0.204 OA
ATOM      2  C2  BZF d   1      -1.422  -3.059   1.619  0.00  0.00     0.174 A 
ATOM      3  C3  BZF d   1      -2.456  -2.918   0.765  0.00  0.00    -0.012 A 
ATOM      4  C3A BZF d   1      -2.083  -1.843  -0.104  0.00  0.00    -0.107 A 
ATOM      5  C4  BZF d   1      -2.690  -1.244  -1.170  0.00  0.00     0.055 A 
ATOM      6  C5  BZF d   1      -2.092  -0.173  -1.754  0.00  0.00    -0.016 A 
ATOM      7  C6  BZF d   1      -0.891   0.328  -1.296  0.00  0.00     0.022 A 
ATOM      8  C7  BZF d   1      -0.248  -0.237  -0.244  0.00  0.00     0.029 A 
ATOM      9  C7A BZF d   1      -0.834  -1.340   0.327  0.00  0.00     0.058 A 
ENDROOT
TORSDOF 0
ENDMDL
