MODEL 1
REMARK minimizedAffinity -5.27253532
REMARK minimizedRMSD -1
REMARK  0 active torsions:
REMARK  status: ('A' for Active; 'I' for Inactive)
ROOT
ATOM      1  O1  BZF d   1       0.412  -0.125   0.882  0.00  0.00    -0.204 OA
ATOM      2  C2  BZF d   1       0.469   0.731  -0.200  0.00  0.00     0.174 A 
ATOM      3  C3  BZF d   1      -0.535   0.479  -1.064  0.00  0.00    -0.012 A 
ATOM      4  C3A BZF d   1      -1.320  -0.542  -0.440  0.00  0.00    -0.107 A 
ATOM      5  C4  BZF d   1      -2.461  -1.201  -0.800  0.00  0.00     0.055 A 
ATOM      6  C5  BZF d   1      -2.929  -2.195  -0.001  0.00  0.00    -0.016 A 
ATOM      7  C6  BZF d   1      -2.281  -2.559   1.161  0.00  0.00     0.022 A 
ATOM      8  C7  BZF d   1      -1.149  -1.931   1.562  0.00  0.00     0.029 A 
ATOM      9  C7A BZF d   1      -0.691  -0.904   0.773  0.00  0.00     0.058 A 
ENDROOT
TORSDOF 0
ENDMDL
