MODEL 1
REMARK minimizedAffinity -3.85470033
REMARK minimizedRMSD -1
REMARK  0 active torsions:
REMARK  status: ('A' for Active; 'I' for Inactive)
ROOT
ATOM      1  O1  BZF d   1       1.091   0.553  -1.027  0.00  0.00    -0.204 OA
ATOM      2  C2  BZF d   1       1.623   0.400   0.238  0.00  0.00     0.174 A 
ATOM      3  C3  BZF d   1       0.679  -0.015   1.107  0.00  0.00    -0.012 A 
ATOM      4  C3A BZF d   1      -0.497  -0.218   0.317  0.00  0.00    -0.107 A 
ATOM      5  C4  BZF d   1      -1.762  -0.644   0.608  0.00  0.00     0.055 A 
ATOM      6  C5  BZF d   1      -2.696  -0.661  -0.379  0.00  0.00    -0.016 A 
ATOM      7  C6  BZF d   1      -2.402  -0.255  -1.664  0.00  0.00     0.022 A 
ATOM      8  C7  BZF d   1      -1.160   0.171  -2.002  0.00  0.00     0.029 A 
ATOM      9  C7A BZF d   1      -0.205   0.158  -1.015  0.00  0.00     0.058 A 
ENDROOT
TORSDOF 0
ENDMDL
