MODEL 1
REMARK minimizedAffinity -2.54303288
REMARK minimizedRMSD -1
REMARK  0 active torsions:
REMARK  status: ('A' for Active; 'I' for Inactive)
ROOT
ATOM      1  O1  BZF d   1       1.031   0.417  -0.567  0.00  0.00    -0.204 OA
ATOM      2  C2  BZF d   1       1.135   0.609   0.797  0.00  0.00     0.174 A 
ATOM      3  C3  BZF d   1      -0.065   0.458   1.394  0.00  0.00    -0.012 A 
ATOM      4  C3A BZF d   1      -0.958   0.062   0.349  0.00  0.00    -0.107 A 
ATOM      5  C4  BZF d   1      -2.287  -0.252   0.319  0.00  0.00     0.055 A 
ATOM      6  C5  BZF d   1      -2.873  -0.526  -0.876  0.00  0.00    -0.016 A 
ATOM      7  C6  BZF d   1      -2.164  -0.490  -2.059  0.00  0.00     0.022 A 
ATOM      8  C7  BZF d   1      -0.843  -0.188  -2.078  0.00  0.00     0.029 A 
ATOM      9  C7A BZF d   1      -0.239   0.057  -0.869  0.00  0.00     0.058 A 
ENDROOT
TORSDOF 0
ENDMDL
