MODEL 1
REMARK minimizedAffinity -3.59715962
REMARK minimizedRMSD -1
REMARK  0 active torsions:
REMARK  status: ('A' for Active; 'I' for Inactive)
ROOT
ATOM      1  O1  BZF d   1       0.815  -0.067   1.204  0.00  0.00    -0.204 OA
ATOM      2  C2  BZF d   1       1.702   0.414   0.260  0.00  0.00     0.174 A 
ATOM      3  C3  BZF d   1       1.090   0.583  -0.930  0.00  0.00    -0.012 A 
ATOM      4  C3A BZF d   1      -0.286   0.271  -0.693  0.00  0.00    -0.107 A 
ATOM      5  C4  BZF d   1      -1.398   0.268  -1.486  0.00  0.00     0.055 A 
ATOM      6  C5  BZF d   1      -2.579  -0.159  -0.965  0.00  0.00    -0.016 A 
ATOM      7  C6  BZF d   1      -2.682  -0.593   0.340  0.00  0.00     0.022 A 
ATOM      8  C7  BZF d   1      -1.608  -0.604   1.166  0.00  0.00     0.029 A 
ATOM      9  C7A BZF d   1      -0.420  -0.142   0.653  0.00  0.00     0.058 A 
ENDROOT
TORSDOF 0
ENDMDL
