MODEL 1
REMARK minimizedAffinity -2.28546882
REMARK minimizedRMSD -1
REMARK  0 active torsions:
REMARK  status: ('A' for Active; 'I' for Inactive)
ROOT
ATOM      1  O1  BZF d   1      -2.693  -1.029   1.072  0.00  0.00    -0.204 OA
ATOM      2  C2  BZF d   1      -3.442  -1.515   0.018  0.00  0.00     0.174 A 
ATOM      3  C3  BZF d   1      -2.830  -1.265  -1.158  0.00  0.00    -0.012 A 
ATOM      4  C3A BZF d   1      -1.580  -0.662  -0.811  0.00  0.00    -0.107 A 
ATOM      5  C4  BZF d   1      -0.523  -0.204  -1.545  0.00  0.00     0.055 A 
ATOM      6  C5  BZF d   1       0.515   0.396  -0.904  0.00  0.00    -0.016 A 
ATOM      7  C6  BZF d   1       0.527   0.558   0.465  0.00  0.00     0.022 A 
ATOM      8  C7  BZF d   1      -0.497   0.115   1.236  0.00  0.00     0.029 A 
ATOM      9  C7A BZF d   1      -1.532  -0.521   0.595  0.00  0.00     0.058 A 
ENDROOT
TORSDOF 0
ENDMDL
