MODEL 1
REMARK minimizedAffinity -4.71291447
REMARK minimizedRMSD -1
REMARK  0 active torsions:
REMARK  status: ('A' for Active; 'I' for Inactive)
ROOT
ATOM      1  O1  BZF d   1       3.066   1.894   0.820  0.00  0.00    -0.204 OA
ATOM      2  C2  BZF d   1       2.792   3.174   1.261  0.00  0.00     0.174 A 
ATOM      3  C3  BZF d   1       1.477   3.449   1.147  0.00  0.00    -0.012 A 
ATOM      4  C3A BZF d   1       0.878   2.234   0.687  0.00  0.00    -0.107 A 
ATOM      5  C4  BZF d   1      -0.407   1.871   0.399  0.00  0.00     0.055 A 
ATOM      6  C5  BZF d   1      -0.647   0.629  -0.099  0.00  0.00    -0.016 A 
ATOM      7  C6  BZF d   1       0.373  -0.271  -0.327  0.00  0.00     0.022 A 
ATOM      8  C7  BZF d   1       1.663   0.041  -0.052  0.00  0.00     0.029 A 
ATOM      9  C7A BZF d   1       1.905   1.283   0.483  0.00  0.00     0.058 A 
ENDROOT
TORSDOF 0
ENDMDL
