MODEL 1
REMARK minimizedAffinity -4.90804815
REMARK minimizedRMSD -1
REMARK  0 active torsions:
REMARK  status: ('A' for Active; 'I' for Inactive)
ROOT
ATOM      1  O1  BZF d   1      -2.313  -1.530   0.929  0.00  0.00    -0.204 OA
ATOM      2  C2  BZF d   1      -3.068  -1.045  -0.122  0.00  0.00     0.174 A 
ATOM      3  C3  BZF d   1      -2.299  -0.343  -0.979  0.00  0.00    -0.012 A 
ATOM      4  C3A BZF d   1      -0.964  -0.471  -0.479  0.00  0.00    -0.107 A 
ATOM      5  C4  BZF d   1       0.247  -0.009  -0.908  0.00  0.00     0.055 A 
ATOM      6  C5  BZF d   1       1.351  -0.249  -0.152  0.00  0.00    -0.016 A 
ATOM      7  C6  BZF d   1       1.278  -0.943   1.038  0.00  0.00     0.022 A 
ATOM      8  C7  BZF d   1       0.100  -1.426   1.501  0.00  0.00     0.029 A 
ATOM      9  C7A BZF d   1      -1.012  -1.213   0.724  0.00  0.00     0.058 A 
ENDROOT
TORSDOF 0
ENDMDL
