MODEL 1
REMARK minimizedAffinity -4.26367044
REMARK minimizedRMSD -1
REMARK  0 active torsions:
REMARK  status: ('A' for Active; 'I' for Inactive)
ROOT
ATOM      1  O1  BZF d   1       0.608  -0.938   0.943  0.00  0.00    -0.204 OA
ATOM      2  C2  BZF d   1       1.645  -0.077   0.642  0.00  0.00     0.174 A 
ATOM      3  C3  BZF d   1       1.321   0.718  -0.398  0.00  0.00    -0.012 A 
ATOM      4  C3A BZF d   1      -0.037   0.392  -0.712  0.00  0.00    -0.107 A 
ATOM      5  C4  BZF d   1      -0.923   0.855  -1.641  0.00  0.00     0.055 A 
ATOM      6  C5  BZF d   1      -2.148   0.275  -1.733  0.00  0.00    -0.016 A 
ATOM      7  C6  BZF d   1      -2.518  -0.773  -0.916  0.00  0.00     0.022 A 
ATOM      8  C7  BZF d   1      -1.675  -1.264   0.025  0.00  0.00     0.029 A 
ATOM      9  C7A BZF d   1      -0.448  -0.658   0.142  0.00  0.00     0.058 A 
ENDROOT
TORSDOF 0
ENDMDL
