MODEL 1
REMARK minimizedAffinity -0.0460455492
REMARK minimizedRMSD -1
REMARK  0 active torsions:
REMARK  status: ('A' for Active; 'I' for Inactive)
ROOT
ATOM      1  O1  BZF d   1       0.132  -0.126   1.362  0.00  0.00    -0.204 OA
ATOM      2  C2  BZF d   1       1.192   0.572   0.817  0.00  0.00     0.174 A 
ATOM      3  C3  BZF d   1       1.052   0.687  -0.520  0.00  0.00    -0.012 A 
ATOM      4  C3A BZF d   1      -0.218   0.099  -0.817  0.00  0.00    -0.107 A 
ATOM      5  C4  BZF d   1      -0.924  -0.075  -1.973  0.00  0.00     0.055 A 
ATOM      6  C5  BZF d   1      -2.101  -0.753  -1.931  0.00  0.00    -0.016 A 
ATOM      7  C6  BZF d   1      -2.598  -1.274  -0.755  0.00  0.00     0.022 A 
ATOM      8  C7  BZF d   1      -1.936  -1.122   0.418  0.00  0.00     0.029 A 
ATOM      9  C7A BZF d   1      -0.762  -0.409   0.385  0.00  0.00     0.058 A 
ENDROOT
TORSDOF 0
ENDMDL
