MODEL 1
REMARK minimizedAffinity -5.77463913
REMARK minimizedRMSD -1
REMARK  0 active torsions:
REMARK  status: ('A' for Active; 'I' for Inactive)
ROOT
ATOM      1  O1  BZF d   1      -1.100  -2.193   1.718  0.00  0.00    -0.204 OA
ATOM      2  C2  BZF d   1      -2.364  -2.712   1.518  0.00  0.00     0.174 A 
ATOM      3  C3  BZF d   1      -2.988  -2.077   0.505  0.00  0.00    -0.012 A 
ATOM      4  C3A BZF d   1      -2.020  -1.162  -0.018  0.00  0.00    -0.107 A 
ATOM      5  C4  BZF d   1      -2.038  -0.261  -1.044  0.00  0.00     0.055 A 
ATOM      6  C5  BZF d   1      -0.953   0.531  -1.246  0.00  0.00    -0.016 A 
ATOM      7  C6  BZF d   1       0.164   0.453  -0.440  0.00  0.00     0.022 A 
ATOM      8  C7  BZF d   1       0.231  -0.430   0.586  0.00  0.00     0.029 A 
ATOM      9  C7A BZF d   1      -0.851  -1.254   0.773  0.00  0.00     0.058 A 
ENDROOT
TORSDOF 0
ENDMDL
