MODEL 1
REMARK minimizedAffinity -4.50735474
REMARK minimizedRMSD -1
REMARK  0 active torsions:
REMARK  status: ('A' for Active; 'I' for Inactive)
ROOT
ATOM      1  O1  BZF d   1      -2.222   0.536  -0.435  0.00  0.00    -0.204 OA
ATOM      2  C2  BZF d   1      -1.043   1.151  -0.060  0.00  0.00     0.174 A 
ATOM      3  C3  BZF d   1      -0.299   0.330   0.709  0.00  0.00    -0.012 A 
ATOM      4  C3A BZF d   1      -1.019  -0.906   0.745  0.00  0.00    -0.107 A 
ATOM      5  C4  BZF d   1      -0.781  -2.114   1.336  0.00  0.00     0.055 A 
ATOM      6  C5  BZF d   1      -1.718  -3.093   1.239  0.00  0.00    -0.016 A 
ATOM      7  C6  BZF d   1      -2.905  -2.897   0.563  0.00  0.00     0.022 A 
ATOM      8  C7  BZF d   1      -3.184  -1.718  -0.044  0.00  0.00     0.029 A 
ATOM      9  C7A BZF d   1      -2.224  -0.738   0.025  0.00  0.00     0.058 A 
ENDROOT
TORSDOF 0
ENDMDL
