MODEL 1
REMARK minimizedAffinity -2.44868422
REMARK minimizedRMSD -1
REMARK  1 active torsions:
REMARK  status: ('A' for Active; 'I' for Inactive)
REMARK    1  A    between atoms: C3_4  and  O_7 
ROOT
ATOM      1  C   UNL d   1      -5.906  -3.813  -5.999  0.00  0.00    -0.033 A 
ATOM      2  C1  UNL d   1      -5.968  -5.208  -5.978  0.00  0.00     0.039 A 
ATOM      3  C2  UNL d   1      -4.793  -5.961  -5.960  0.00  0.00    -0.080 A 
ATOM      4  C3  UNL d   1      -3.563  -5.308  -5.962  0.00  0.00     0.150 A 
ATOM      5  C4  UNL d   1      -3.494  -3.918  -5.980  0.00  0.00    -0.007 A 
ATOM      6  C5  UNL d   1      -4.669  -3.168  -5.999  0.00  0.00     0.039 A 
ENDROOT
BRANCH   4   7
ATOM      7  O   UNL d   1      -2.389  -6.000  -5.950  0.00  0.00    -0.526 OA
ATOM      8  H5  UNL d   1      -2.591  -6.950  -5.968  0.00  0.00     0.418 HD
ENDBRANCH   4   7
TORSDOF 1
ENDMDL
