MODEL 1
REMARK minimizedAffinity 2.27152753
REMARK minimizedRMSD -1
REMARK  1 active torsions:
REMARK  status: ('A' for Active; 'I' for Inactive)
REMARK    1  A    between atoms: C3_4  and  O_7 
ROOT
ATOM      1  C   UNL d   1      -0.242   3.052  -0.131  0.00  0.00    -0.033 A 
ATOM      2  C1  UNL d   1       0.968   2.461   0.237  0.00  0.00     0.039 A 
ATOM      3  C2  UNL d   1       1.092   1.832   1.477  0.00  0.00    -0.080 A 
ATOM      4  C3  UNL d   1      -0.001   1.800   2.339  0.00  0.00     0.150 A 
ATOM      5  C4  UNL d   1      -1.211   2.382   1.977  0.00  0.00    -0.007 A 
ATOM      6  C5  UNL d   1      -1.333   3.011   0.739  0.00  0.00     0.039 A 
ENDROOT
BRANCH   4   7
ATOM      7  O   UNL d   1       0.073   1.201   3.562  0.00  0.00    -0.526 OA
ATOM      8  H5  UNL d   1       0.977   0.868   3.687  0.00  0.00     0.418 HD
ENDBRANCH   4   7
TORSDOF 1
ENDMDL
