MODEL 1
REMARK minimizedAffinity 4.95523357
REMARK minimizedRMSD -1
REMARK  1 active torsions:
REMARK  status: ('A' for Active; 'I' for Inactive)
REMARK    1  A    between atoms: C3_4  and  O_7 
ROOT
ATOM      1  C   UNL d   1       1.311  -4.651  -0.757  0.00  0.00    -0.033 A 
ATOM      2  C1  UNL d   1       2.452  -4.933  -1.510  0.00  0.00     0.039 A 
ATOM      3  C2  UNL d   1       2.620  -4.355  -2.770  0.00  0.00    -0.080 A 
ATOM      4  C3  UNL d   1       1.640  -3.498  -3.264  0.00  0.00     0.150 A 
ATOM      5  C4  UNL d   1       0.502  -3.210  -2.518  0.00  0.00    -0.007 A 
ATOM      6  C5  UNL d   1       0.336  -3.789  -1.261  0.00  0.00     0.039 A 
ENDROOT
BRANCH   4   7
ATOM      7  O   UNL d   1       1.758  -2.915  -4.491  0.00  0.00    -0.526 OA
ATOM      8  H5  UNL d   1       2.580  -3.228  -4.903  0.00  0.00     0.418 HD
ENDBRANCH   4   7
TORSDOF 1
ENDMDL
