MODEL 1
REMARK minimizedAffinity 4.82728291
REMARK minimizedRMSD -1
REMARK  1 active torsions:
REMARK  status: ('A' for Active; 'I' for Inactive)
REMARK    1  A    between atoms: C3_4  and  O_7 
ROOT
ATOM      1  C   UNL d   1      -0.762   4.145   0.013  0.00  0.00    -0.033 A 
ATOM      2  C1  UNL d   1      -1.337   2.874  -0.051  0.00  0.00     0.039 A 
ATOM      3  C2  UNL d   1      -0.538   1.756  -0.299  0.00  0.00    -0.080 A 
ATOM      4  C3  UNL d   1       0.833   1.922  -0.480  0.00  0.00     0.150 A 
ATOM      5  C4  UNL d   1       1.412   3.185  -0.413  0.00  0.00    -0.007 A 
ATOM      6  C5  UNL d   1       0.613   4.300  -0.167  0.00  0.00     0.039 A 
ENDROOT
BRANCH   4   7
ATOM      7  O   UNL d   1       1.652   0.862  -0.729  0.00  0.00    -0.526 OA
ATOM      8  H5  UNL d   1       1.109   0.057  -0.775  0.00  0.00     0.418 HD
ENDBRANCH   4   7
TORSDOF 1
ENDMDL
