MODEL 1
REMARK minimizedAffinity 4.44349003
REMARK minimizedRMSD -1
REMARK  1 active torsions:
REMARK  status: ('A' for Active; 'I' for Inactive)
REMARK    1  A    between atoms: C3_4  and  O_7 
ROOT
ATOM      1  C   UNL d   1      -1.316   2.095   0.966  0.00  0.00    -0.033 A 
ATOM      2  C1  UNL d   1      -1.772   3.165   0.192  0.00  0.00     0.039 A 
ATOM      3  C2  UNL d   1      -0.873   3.900  -0.583  0.00  0.00    -0.080 A 
ATOM      4  C3  UNL d   1       0.476   3.556  -0.576  0.00  0.00     0.150 A 
ATOM      5  C4  UNL d   1       0.936   2.490   0.189  0.00  0.00    -0.007 A 
ATOM      6  C5  UNL d   1       0.037   1.757   0.963  0.00  0.00     0.039 A 
ENDROOT
BRANCH   4   7
ATOM      7  O   UNL d   1       1.391   4.248  -1.313  0.00  0.00    -0.526 OA
ATOM      8  H5  UNL d   1       0.934   4.974  -1.768  0.00  0.00     0.418 HD
ENDBRANCH   4   7
TORSDOF 1
ENDMDL
