MODEL 1
REMARK minimizedAffinity -4.00648594
REMARK minimizedRMSD -1
REMARK  0 active torsions:
REMARK  status: ('A' for Active; 'I' for Inactive)
ROOT
ATOM      1  C   UNL d   1       1.388  -1.070   1.407  0.00  0.00     0.124 A 
ATOM      2  C1  UNL d   1       1.547  -1.360   0.059  0.00  0.00     0.062 A 
ATOM      3  C2  UNL d   1       0.873  -0.612  -0.902  0.00  0.00     0.162 A 
ATOM      4  C3  UNL d   1       0.034   0.434  -0.518  0.00  0.00    -0.034 A 
ATOM      5  C4  UNL d   1      -0.121   0.719   0.840  0.00  0.00     0.162 A 
ATOM      6  C5  UNL d   1       0.555  -0.031   1.796  0.00  0.00     0.062 A 
ATOM      7  F   UNL d   1       0.400   0.250   3.098  0.00  0.00    -0.097 F 
ATOM      8  F1  UNL d   1      -0.920   1.718   1.243  0.00  0.00    -0.096 F 
ATOM      9  I   UNL d   1      -0.975   1.555  -1.952  0.00  0.00    -0.060 I 
ATOM     10  F2  UNL d   1       1.045  -0.914  -2.197  0.00  0.00    -0.096 F 
ATOM     11  F3  UNL d   1       2.351  -2.364  -0.319  0.00  0.00    -0.097 F 
ATOM     12  F4  UNL d   1       2.037  -1.792   2.330  0.00  0.00    -0.092 F 
ENDROOT
TORSDOF 0
ENDMDL
