MODEL 1
REMARK minimizedAffinity 1.52287602
REMARK minimizedRMSD -1
REMARK  0 active torsions:
REMARK  status: ('A' for Active; 'I' for Inactive)
ROOT
ATOM      1  C   UNL d   1       0.084  -0.668   1.668  0.00  0.00     0.124 A 
ATOM      2  C1  UNL d   1       0.484  -0.699   0.339  0.00  0.00     0.062 A 
ATOM      3  C2  UNL d   1      -0.075   0.183  -0.581  0.00  0.00     0.162 A 
ATOM      4  C3  UNL d   1      -1.041   1.104  -0.176  0.00  0.00    -0.034 A 
ATOM      5  C4  UNL d   1      -1.439   1.129   1.162  0.00  0.00     0.162 A 
ATOM      6  C5  UNL d   1      -0.877   0.246   2.078  0.00  0.00     0.062 A 
ATOM      7  F   UNL d   1      -1.265   0.277   3.361  0.00  0.00    -0.097 F 
ATOM      8  F1  UNL d   1      -2.365   2.002   1.585  0.00  0.00    -0.096 F 
ATOM      9  I   UNL d   1      -1.880   2.424  -1.550  0.00  0.00    -0.060 I 
ATOM     10  F2  UNL d   1       0.330   0.130  -1.859  0.00  0.00    -0.096 F 
ATOM     11  F3  UNL d   1       1.412  -1.581  -0.060  0.00  0.00    -0.097 F 
ATOM     12  F4  UNL d   1       0.623  -1.518   2.551  0.00  0.00    -0.092 F 
ENDROOT
TORSDOF 0
ENDMDL
