MODEL 1
REMARK minimizedAffinity 1.33992815
REMARK minimizedRMSD -1
REMARK  0 active torsions:
REMARK  status: ('A' for Active; 'I' for Inactive)
ROOT
ATOM      1  C   UNL d   1      -2.143   2.469  -2.746  0.00  0.00     0.124 A 
ATOM      2  C1  UNL d   1      -2.524   1.190  -2.365  0.00  0.00     0.062 A 
ATOM      3  C2  UNL d   1      -1.576   0.290  -1.888  0.00  0.00     0.162 A 
ATOM      4  C3  UNL d   1      -0.236   0.666  -1.788  0.00  0.00    -0.034 A 
ATOM      5  C4  UNL d   1       0.139   1.954  -2.173  0.00  0.00     0.162 A 
ATOM      6  C5  UNL d   1      -0.812   2.850  -2.650  0.00  0.00     0.062 A 
ATOM      7  F   UNL d   1      -0.442   4.085  -3.017  0.00  0.00    -0.097 F 
ATOM      8  F1  UNL d   1       1.419   2.349  -2.090  0.00  0.00    -0.096 F 
ATOM      9  I   UNL d   1       1.185  -0.677  -1.075  0.00  0.00    -0.060 I 
ATOM     10  F2  UNL d   1      -1.973  -0.939  -1.527  0.00  0.00    -0.096 F 
ATOM     11  F3  UNL d   1      -3.810   0.819  -2.458  0.00  0.00    -0.097 F 
ATOM     12  F4  UNL d   1      -3.058   3.333  -3.205  0.00  0.00    -0.092 F 
ENDROOT
TORSDOF 0
ENDMDL
