MODEL 1
REMARK minimizedAffinity -1.52842939
REMARK minimizedRMSD -1
REMARK  0 active torsions:
REMARK  status: ('A' for Active; 'I' for Inactive)
ROOT
ATOM      1  C   UNL d   1       1.315  -1.906   1.577  0.00  0.00     0.124 A 
ATOM      2  C1  UNL d   1       0.253  -1.057   1.857  0.00  0.00     0.062 A 
ATOM      3  C2  UNL d   1      -0.279  -0.248   0.857  0.00  0.00     0.162 A 
ATOM      4  C3  UNL d   1       0.250  -0.284  -0.433  0.00  0.00    -0.034 A 
ATOM      5  C4  UNL d   1       1.319  -1.140  -0.707  0.00  0.00     0.162 A 
ATOM      6  C5  UNL d   1       1.847  -1.946   0.296  0.00  0.00     0.062 A 
ATOM      7  F   UNL d   1       2.873  -2.765   0.024  0.00  0.00    -0.097 F 
ATOM      8  F1  UNL d   1       1.851  -1.199  -1.936  0.00  0.00    -0.096 F 
ATOM      9  I   UNL d   1      -0.542   0.924  -1.931  0.00  0.00    -0.060 I 
ATOM     10  F2  UNL d   1      -1.305   0.562   1.156  0.00  0.00    -0.096 F 
ATOM     11  F3  UNL d   1      -0.262  -1.016   3.095  0.00  0.00    -0.097 F 
ATOM     12  F4  UNL d   1       1.826  -2.683   2.541  0.00  0.00    -0.092 F 
ENDROOT
TORSDOF 0
ENDMDL
