MODEL 1
REMARK minimizedAffinity 1.40146863
REMARK minimizedRMSD -1
REMARK  0 active torsions:
REMARK  status: ('A' for Active; 'I' for Inactive)
ROOT
ATOM      1  C   UNL d   1       0.197  -0.681   0.011  0.00  0.00     0.124 A 
ATOM      2  C1  UNL d   1      -0.104   0.406   0.821  0.00  0.00     0.062 A 
ATOM      3  C2  UNL d   1      -0.705   1.538   0.278  0.00  0.00     0.162 A 
ATOM      4  C3  UNL d   1      -1.010   1.589  -1.082  0.00  0.00    -0.034 A 
ATOM      5  C4  UNL d   1      -0.704   0.492  -1.890  0.00  0.00     0.162 A 
ATOM      6  C5  UNL d   1      -0.103  -0.637  -1.343  0.00  0.00     0.062 A 
ATOM      7  F   UNL d   1       0.187  -1.685  -2.126  0.00  0.00    -0.097 F 
ATOM      8  F1  UNL d   1      -0.983   0.508  -3.202  0.00  0.00    -0.096 F 
ATOM      9  I   UNL d   1      -1.909   3.280  -1.898  0.00  0.00    -0.060 I 
ATOM     10  F2  UNL d   1      -0.985   2.573   1.084  0.00  0.00    -0.096 F 
ATOM     11  F3  UNL d   1       0.185   0.366   2.129  0.00  0.00    -0.097 F 
ATOM     12  F4  UNL d   1       0.776  -1.769   0.536  0.00  0.00    -0.092 F 
ENDROOT
TORSDOF 0
ENDMDL
