MODEL 1
REMARK minimizedAffinity -5.15313005
REMARK minimizedRMSD -1
REMARK  0 active torsions:
REMARK  status: ('A' for Active; 'I' for Inactive)
ROOT
ATOM      1  C   UNL d   1      -0.821   1.274  -0.669  0.00  0.00     0.078 C 
ATOM      2  C1  UNL d   1      -0.281   0.105   0.100  0.00  0.00    -0.077 A 
ATOM      3  C2  UNL d   1      -1.013  -0.472   1.145  0.00  0.00    -0.001 A 
ATOM      4  C3  UNL d   1      -0.494  -1.553   1.858  0.00  0.00     0.003 A 
ATOM      5  C4  UNL d   1       0.760  -2.067   1.534  0.00  0.00    -0.005 A 
ATOM      6  C5  UNL d   1       1.497  -1.498   0.498  0.00  0.00     0.003 A 
ATOM      7  C6  UNL d   1       0.980  -0.417  -0.217  0.00  0.00    -0.001 A 
ENDROOT
TORSDOF 0
ENDMDL
