MODEL 1
REMARK minimizedAffinity -6.39953804
REMARK minimizedRMSD -1
REMARK  0 active torsions:
REMARK  status: ('A' for Active; 'I' for Inactive)
ROOT
ATOM      1  C   UNL d   1      -0.671   0.822   0.196  0.00  0.00     0.078 C 
ATOM      2  C1  UNL d   1      -0.095  -0.448   0.745  0.00  0.00    -0.077 A 
ATOM      3  C2  UNL d   1      -0.714  -1.122   1.805  0.00  0.00    -0.001 A 
ATOM      4  C3  UNL d   1      -0.161  -2.299   2.313  0.00  0.00     0.003 A 
ATOM      5  C4  UNL d   1       1.015  -2.811   1.767  0.00  0.00    -0.005 A 
ATOM      6  C5  UNL d   1       1.639  -2.147   0.714  0.00  0.00     0.003 A 
ATOM      7  C6  UNL d   1       1.088  -0.970   0.205  0.00  0.00    -0.001 A 
ENDROOT
TORSDOF 0
ENDMDL
