MODEL 1
REMARK minimizedAffinity -4.49608707
REMARK minimizedRMSD -1
REMARK  0 active torsions:
REMARK  status: ('A' for Active; 'I' for Inactive)
ROOT
ATOM      1  C   UNL d   1      -0.385   1.039  -0.802  0.00  0.00     0.078 C 
ATOM      2  C1  UNL d   1       0.321  -0.108  -0.143  0.00  0.00    -0.077 A 
ATOM      3  C2  UNL d   1       1.686  -0.333  -0.357  0.00  0.00    -0.001 A 
ATOM      4  C3  UNL d   1       2.328  -1.410   0.256  0.00  0.00     0.003 A 
ATOM      5  C4  UNL d   1       1.613  -2.271   1.086  0.00  0.00    -0.005 A 
ATOM      6  C5  UNL d   1       0.254  -2.056   1.304  0.00  0.00     0.003 A 
ATOM      7  C6  UNL d   1      -0.390  -0.979   0.692  0.00  0.00    -0.001 A 
ENDROOT
TORSDOF 0
ENDMDL
