MODEL 1
REMARK minimizedAffinity -4.63576126
REMARK minimizedRMSD -1
REMARK  0 active torsions:
REMARK  status: ('A' for Active; 'I' for Inactive)
ROOT
ATOM      1  C   UNL d   1      -0.654   1.351  -0.518  0.00  0.00     0.078 C 
ATOM      2  C1  UNL d   1       0.155   0.179  -0.048  0.00  0.00    -0.077 A 
ATOM      3  C2  UNL d   1       1.481   0.005  -0.463  0.00  0.00    -0.001 A 
ATOM      4  C3  UNL d   1       2.219  -1.096  -0.026  0.00  0.00     0.003 A 
ATOM      5  C4  UNL d   1       1.640  -2.032   0.829  0.00  0.00    -0.005 A 
ATOM      6  C5  UNL d   1       0.320  -1.868   1.246  0.00  0.00     0.003 A 
ATOM      7  C6  UNL d   1      -0.419  -0.768   0.809  0.00  0.00    -0.001 A 
ENDROOT
TORSDOF 0
ENDMDL
