MODEL 1
REMARK minimizedAffinity -5.79319096
REMARK minimizedRMSD -1
REMARK  0 active torsions:
REMARK  status: ('A' for Active; 'I' for Inactive)
ROOT
ATOM      1  C   UNL d   1       1.473   0.150  -0.766  0.00  0.00     0.078 C 
ATOM      2  C1  UNL d   1       1.085  -0.825   0.305  0.00  0.00    -0.077 A 
ATOM      3  C2  UNL d   1      -0.173  -0.761   0.918  0.00  0.00    -0.001 A 
ATOM      4  C3  UNL d   1      -0.517  -1.669   1.920  0.00  0.00     0.003 A 
ATOM      5  C4  UNL d   1       0.391  -2.647   2.319  0.00  0.00    -0.005 A 
ATOM      6  C5  UNL d   1       1.645  -2.718   1.717  0.00  0.00     0.003 A 
ATOM      7  C6  UNL d   1       1.991  -1.810   0.715  0.00  0.00    -0.001 A 
ENDROOT
TORSDOF 0
ENDMDL
