MODEL 1
REMARK minimizedAffinity -4.84902763
REMARK minimizedRMSD -1
REMARK  0 active torsions:
REMARK  status: ('A' for Active; 'I' for Inactive)
ROOT
ATOM      1  C   UNL d   1       1.431  -2.722   1.076  0.00  0.00     0.078 C 
ATOM      2  C1  UNL d   1       1.013  -1.417   0.467  0.00  0.00    -0.077 A 
ATOM      3  C2  UNL d   1       1.936  -0.605  -0.202  0.00  0.00    -0.001 A 
ATOM      4  C3  UNL d   1       1.534   0.612  -0.756  0.00  0.00     0.003 A 
ATOM      5  C4  UNL d   1       0.209   1.028  -0.645  0.00  0.00    -0.005 A 
ATOM      6  C5  UNL d   1      -0.717   0.227   0.021  0.00  0.00     0.003 A 
ATOM      7  C6  UNL d   1      -0.317  -0.990   0.575  0.00  0.00    -0.001 A 
ENDROOT
TORSDOF 0
ENDMDL
