MODEL 1
REMARK minimizedAffinity -3.39483047
REMARK minimizedRMSD -1
REMARK  0 active torsions:
REMARK  status: ('A' for Active; 'I' for Inactive)
ROOT
ATOM      1  C   UNL d   1      -1.707  -1.902   2.477  0.00  0.00     0.078 C 
ATOM      2  C1  UNL d   1      -0.335  -1.786   1.883  0.00  0.00    -0.077 A 
ATOM      3  C2  UNL d   1       0.767  -2.401   2.488  0.00  0.00    -0.001 A 
ATOM      4  C3  UNL d   1       2.040  -2.277   1.929  0.00  0.00     0.003 A 
ATOM      5  C4  UNL d   1       2.223  -1.537   0.763  0.00  0.00    -0.005 A 
ATOM      6  C5  UNL d   1       1.132  -0.919   0.154  0.00  0.00     0.003 A 
ATOM      7  C6  UNL d   1      -0.141  -1.042   0.712  0.00  0.00    -0.001 A 
ENDROOT
TORSDOF 0
ENDMDL
