MODEL 1
REMARK minimizedAffinity -4.5248518
REMARK minimizedRMSD -1
REMARK  0 active torsions:
REMARK  status: ('A' for Active; 'I' for Inactive)
ROOT
ATOM      1  C   UNL d   1      -1.111   0.620   0.324  0.00  0.00     0.078 C 
ATOM      2  C1  UNL d   1      -0.377  -0.498   1.003  0.00  0.00    -0.077 A 
ATOM      3  C2  UNL d   1       0.807  -1.016   0.464  0.00  0.00    -0.001 A 
ATOM      4  C3  UNL d   1       1.474  -2.063   1.102  0.00  0.00     0.003 A 
ATOM      5  C4  UNL d   1       0.965  -2.602   2.281  0.00  0.00    -0.005 A 
ATOM      6  C5  UNL d   1      -0.214  -2.095   2.824  0.00  0.00     0.003 A 
ATOM      7  C6  UNL d   1      -0.883  -1.048   2.188  0.00  0.00    -0.001 A 
ENDROOT
TORSDOF 0
ENDMDL
