MODEL 1
REMARK minimizedAffinity -4.02131414
REMARK minimizedRMSD -1
REMARK  0 active torsions:
REMARK  status: ('A' for Active; 'I' for Inactive)
ROOT
ATOM      1  C   UNL d   1      -0.157   0.799  -0.352  0.00  0.00     0.078 C 
ATOM      2  C1  UNL d   1       0.470  -0.411   0.273  0.00  0.00    -0.077 A 
ATOM      3  C2  UNL d   1       1.675  -0.932  -0.215  0.00  0.00    -0.001 A 
ATOM      4  C3  UNL d   1       2.242  -2.065   0.371  0.00  0.00     0.003 A 
ATOM      5  C4  UNL d   1       1.612  -2.688   1.446  0.00  0.00    -0.005 A 
ATOM      6  C5  UNL d   1       0.411  -2.178   1.937  0.00  0.00     0.003 A 
ATOM      7  C6  UNL d   1      -0.158  -1.045   1.353  0.00  0.00    -0.001 A 
ENDROOT
TORSDOF 0
ENDMDL
