MODEL 1
REMARK minimizedAffinity -5.32919598
REMARK minimizedRMSD -1
REMARK  0 active torsions:
REMARK  status: ('A' for Active; 'I' for Inactive)
ROOT
ATOM      1  C   UNL d   1      -0.723  -2.302   2.780  0.00  0.00     0.078 C 
ATOM      2  C1  UNL d   1       0.100  -1.910   1.589  0.00  0.00    -0.077 A 
ATOM      3  C2  UNL d   1       1.185  -2.692   1.174  0.00  0.00    -0.001 A 
ATOM      4  C3  UNL d   1       1.949  -2.310   0.070  0.00  0.00     0.003 A 
ATOM      5  C4  UNL d   1       1.636  -1.145  -0.628  0.00  0.00    -0.005 A 
ATOM      6  C5  UNL d   1       0.559  -0.359  -0.221  0.00  0.00     0.003 A 
ATOM      7  C6  UNL d   1      -0.205  -0.740   0.883  0.00  0.00    -0.001 A 
ENDROOT
TORSDOF 0
ENDMDL
