MODEL 1
REMARK minimizedAffinity -2.60771251
REMARK minimizedRMSD -1
REMARK  0 active torsions:
REMARK  status: ('A' for Active; 'I' for Inactive)
ROOT
ATOM      1  C   UNL d   1      -0.456   0.564  -0.345  0.00  0.00     0.078 C 
ATOM      2  C1  UNL d   1       0.287  -0.441   0.483  0.00  0.00    -0.077 A 
ATOM      3  C2  UNL d   1      -0.269  -0.958   1.660  0.00  0.00    -0.001 A 
ATOM      4  C3  UNL d   1       0.438  -1.886   2.426  0.00  0.00     0.003 A 
ATOM      5  C4  UNL d   1       1.706  -2.304   2.026  0.00  0.00    -0.005 A 
ATOM      6  C5  UNL d   1       2.268  -1.793   0.858  0.00  0.00     0.003 A 
ATOM      7  C6  UNL d   1       1.563  -0.865   0.090  0.00  0.00    -0.001 A 
ENDROOT
TORSDOF 0
ENDMDL
