MODEL 1
REMARK minimizedAffinity -5.85300779
REMARK minimizedRMSD -1
REMARK  0 active torsions:
REMARK  status: ('A' for Active; 'I' for Inactive)
ROOT
ATOM      1  C   UNL d   1      -0.411   0.387  -0.032  0.00  0.00     0.078 C 
ATOM      2  C1  UNL d   1       0.136  -0.849   0.616  0.00  0.00    -0.077 A 
ATOM      3  C2  UNL d   1      -0.383  -1.318   1.829  0.00  0.00    -0.001 A 
ATOM      4  C3  UNL d   1       0.143  -2.465   2.426  0.00  0.00     0.003 A 
ATOM      5  C4  UNL d   1       1.191  -3.153   1.817  0.00  0.00    -0.005 A 
ATOM      6  C5  UNL d   1       1.715  -2.693   0.611  0.00  0.00     0.003 A 
ATOM      7  C6  UNL d   1       1.190  -1.546   0.012  0.00  0.00    -0.001 A 
ENDROOT
TORSDOF 0
ENDMDL
