MODEL 1
REMARK minimizedAffinity -3.08697701
REMARK minimizedRMSD -1
REMARK  0 active torsions:
REMARK  status: ('A' for Active; 'I' for Inactive)
ROOT
ATOM      1  C   UNL d   1      -0.737   1.090  -0.423  0.00  0.00     0.078 C 
ATOM      2  C1  UNL d   1       0.134  -0.065  -0.028  0.00  0.00    -0.077 A 
ATOM      3  C2  UNL d   1       1.504  -0.068  -0.315  0.00  0.00    -0.001 A 
ATOM      4  C3  UNL d   1       2.300  -1.154   0.051  0.00  0.00     0.003 A 
ATOM      5  C4  UNL d   1       1.735  -2.247   0.705  0.00  0.00    -0.005 A 
ATOM      6  C5  UNL d   1       0.372  -2.255   0.993  0.00  0.00     0.003 A 
ATOM      7  C6  UNL d   1      -0.426  -1.169   0.628  0.00  0.00    -0.001 A 
ENDROOT
TORSDOF 0
ENDMDL
