MODEL 1
REMARK minimizedAffinity -1.22853577
REMARK minimizedRMSD -1
REMARK  0 active torsions:
REMARK  status: ('A' for Active; 'I' for Inactive)
ROOT
ATOM      1  C   UNL d   1       2.153  -1.919   0.784  0.00  0.00     0.078 C 
ATOM      2  C1  UNL d   1       1.075  -0.937   0.433  0.00  0.00    -0.077 A 
ATOM      3  C2  UNL d   1      -0.179  -0.990   1.054  0.00  0.00    -0.001 A 
ATOM      4  C3  UNL d   1      -1.177  -0.076   0.710  0.00  0.00     0.003 A 
ATOM      5  C4  UNL d   1      -0.931   0.897  -0.256  0.00  0.00    -0.005 A 
ATOM      6  C5  UNL d   1       0.313   0.957  -0.881  0.00  0.00     0.003 A 
ATOM      7  C6  UNL d   1       1.312   0.043  -0.539  0.00  0.00    -0.001 A 
ENDROOT
TORSDOF 0
ENDMDL
