MODEL 1
REMARK minimizedAffinity -2.18541169
REMARK minimizedRMSD -1
REMARK  0 active torsions:
REMARK  status: ('A' for Active; 'I' for Inactive)
ROOT
ATOM      1  C   UNL d   1       2.312  -1.909   0.966  0.00  0.00     0.078 C 
ATOM      2  C1  UNL d   1       1.401  -0.808   0.510  0.00  0.00    -0.077 A 
ATOM      3  C2  UNL d   1       1.897   0.290  -0.202  0.00  0.00    -0.001 A 
ATOM      4  C3  UNL d   1       1.039   1.312  -0.612  0.00  0.00     0.003 A 
ATOM      5  C4  UNL d   1      -0.321   1.246  -0.312  0.00  0.00    -0.005 A 
ATOM      6  C5  UNL d   1      -0.823   0.158   0.399  0.00  0.00     0.003 A 
ATOM      7  C6  UNL d   1       0.034  -0.865   0.809  0.00  0.00    -0.001 A 
ENDROOT
TORSDOF 0
ENDMDL
