MODEL 1
REMARK minimizedAffinity 7.53620481
REMARK minimizedRMSD -1
REMARK  0 active torsions:
REMARK  status: ('A' for Active; 'I' for Inactive)
ROOT
ATOM      1  O1  BZF d   1       4.620   0.250  -1.987  0.00  0.00    -0.204 OA
ATOM      2  C2  BZF d   1       4.263   0.811  -0.776  0.00  0.00     0.174 A 
ATOM      3  C3  BZF d   1       3.376   0.029  -0.128  0.00  0.00    -0.012 A 
ATOM      4  C3A BZF d   1       3.236  -1.137  -0.946  0.00  0.00    -0.107 A 
ATOM      5  C4  BZF d   1       2.506  -2.285  -0.826  0.00  0.00     0.055 A 
ATOM      6  C5  BZF d   1       2.536  -3.195  -1.835  0.00  0.00    -0.016 A 
ATOM      7  C6  BZF d   1       3.280  -2.987  -2.978  0.00  0.00     0.022 A 
ATOM      8  C7  BZF d   1       4.025  -1.866  -3.140  0.00  0.00     0.029 A 
ATOM      9  C7A BZF d   1       4.022  -0.960  -2.107  0.00  0.00     0.058 A 
ENDROOT
TORSDOF 0
ENDMDL
