MODEL 1
REMARK minimizedAffinity 11.9129791
REMARK minimizedRMSD -1
REMARK  0 active torsions:
REMARK  status: ('A' for Active; 'I' for Inactive)
ROOT
ATOM      1  O1  BZF d   1       1.398   3.462   2.971  0.00  0.00    -0.204 OA
ATOM      2  C2  BZF d   1       1.025   4.789   2.868  0.00  0.00     0.174 A 
ATOM      3  C3  BZF d   1      -0.083   4.917   2.110  0.00  0.00    -0.012 A 
ATOM      4  C3A BZF d   1      -0.477   3.579   1.790  0.00  0.00    -0.107 A 
ATOM      5  C4  BZF d   1      -1.513   3.051   1.075  0.00  0.00     0.055 A 
ATOM      6  C5  BZF d   1      -1.571   1.706   0.890  0.00  0.00    -0.016 A 
ATOM      7  C6  BZF d   1      -0.608   0.861   1.401  0.00  0.00     0.022 A 
ATOM      8  C7  BZF d   1       0.436   1.338   2.121  0.00  0.00     0.029 A 
ATOM      9  C7A BZF d   1       0.480   2.693   2.338  0.00  0.00     0.058 A 
ENDROOT
TORSDOF 0
ENDMDL
