MODEL 1
REMARK minimizedAffinity 5.85782671
REMARK minimizedRMSD -1
REMARK  0 active torsions:
REMARK  status: ('A' for Active; 'I' for Inactive)
ROOT
ATOM      1  O1  BZF d   1       4.734   0.424  -2.291  0.00  0.00    -0.204 OA
ATOM      2  C2  BZF d   1       4.676   1.077  -1.075  0.00  0.00     0.174 A 
ATOM      3  C3  BZF d   1       3.937   0.376  -0.190  0.00  0.00    -0.012 A 
ATOM      4  C3A BZF d   1       3.584  -0.833  -0.869  0.00  0.00    -0.107 A 
ATOM      5  C4  BZF d   1       2.869  -1.938  -0.507  0.00  0.00     0.055 A 
ATOM      6  C5  BZF d   1       2.645  -2.911  -1.429  0.00  0.00    -0.016 A 
ATOM      7  C6  BZF d   1       3.118  -2.810  -2.721  0.00  0.00     0.022 A 
ATOM      8  C7  BZF d   1       3.837  -1.735  -3.125  0.00  0.00     0.029 A 
ATOM      9  C7A BZF d   1       4.092  -0.765  -2.187  0.00  0.00     0.058 A 
ENDROOT
TORSDOF 0
ENDMDL
