MODEL 1
REMARK minimizedAffinity 15.4406395
REMARK minimizedRMSD -1
REMARK  0 active torsions:
REMARK  status: ('A' for Active; 'I' for Inactive)
ROOT
ATOM      1  C1  DEN d   1      -2.243   2.732  -0.741  0.00  0.00     0.130 A 
ATOM      2  C2  DEN d   1      -1.830   1.488  -0.095  0.00  0.00    -0.031 A 
ATOM      3  C3  DEN d   1      -2.881   1.105   0.870  0.00  0.00     0.027 A 
ATOM      4  C4  DEN d   1      -5.096   2.307   1.420  0.00  0.00     0.027 A 
ATOM      5  C5  DEN d   1      -5.877   3.405   1.136  0.00  0.00    -0.003 A 
ATOM      6  C6  DEN d   1      -5.490   4.365   0.239  0.00  0.00     0.001 A 
ATOM      7  C7  DEN d   1      -4.309   4.223  -0.440  0.00  0.00     0.017 A 
ATOM      8  C8  DEN d   1      -3.512   3.122  -0.154  0.00  0.00    -0.094 A 
ATOM      9  C9  DEN d   1      -3.927   2.156   0.747  0.00  0.00    -0.072 A 
ENDROOT
TORSDOF 0
ENDMDL
