MODEL 1
REMARK minimizedAffinity 1.87751627
REMARK minimizedRMSD -1
REMARK  0 active torsions:
REMARK  status: ('A' for Active; 'I' for Inactive)
ROOT
ATOM      1  C1  DEN d   1       5.363  -5.257  -2.321  0.00  0.00     0.130 A 
ATOM      2  C2  DEN d   1       4.180  -5.081  -1.482  0.00  0.00    -0.031 A 
ATOM      3  C3  DEN d   1       2.987  -5.252  -2.335  0.00  0.00     0.027 A 
ATOM      4  C4  DEN d   1       2.856  -5.773  -4.858  0.00  0.00     0.027 A 
ATOM      5  C5  DEN d   1       3.596  -5.998  -5.997  0.00  0.00    -0.003 A 
ATOM      6  C6  DEN d   1       4.965  -5.958  -5.998  0.00  0.00     0.001 A 
ATOM      7  C7  DEN d   1       5.639  -5.732  -4.827  0.00  0.00     0.017 A 
ATOM      8  C8  DEN d   1       4.899  -5.497  -3.676  0.00  0.00    -0.094 A 
ATOM      9  C9  DEN d   1       3.516  -5.554  -3.692  0.00  0.00    -0.072 A 
ENDROOT
TORSDOF 0
ENDMDL
