MODEL 1
REMARK minimizedAffinity 2.61604619
REMARK minimizedRMSD -1
REMARK  0 active torsions:
REMARK  status: ('A' for Active; 'I' for Inactive)
ROOT
ATOM      1  C1  DEN d   1       0.991  -0.639   2.669  0.00  0.00     0.130 A 
ATOM      2  C2  DEN d   1       2.047  -0.037   1.861  0.00  0.00    -0.031 A 
ATOM      3  C3  DEN d   1       3.238  -0.905   1.946  0.00  0.00     0.027 A 
ATOM      4  C4  DEN d   1       3.547  -3.114   3.241  0.00  0.00     0.027 A 
ATOM      5  C5  DEN d   1       2.934  -4.018   4.082  0.00  0.00    -0.003 A 
ATOM      6  C6  DEN d   1       1.653  -3.843   4.533  0.00  0.00     0.001 A 
ATOM      7  C7  DEN d   1       0.927  -2.761   4.111  0.00  0.00     0.017 A 
ATOM      8  C8  DEN d   1       1.540  -1.842   3.270  0.00  0.00    -0.094 A 
ATOM      9  C9  DEN d   1       2.832  -2.043   2.814  0.00  0.00    -0.072 A 
ENDROOT
TORSDOF 0
ENDMDL
