MODEL 1
REMARK minimizedAffinity 1.91536951
REMARK minimizedRMSD -1
REMARK  0 active torsions:
REMARK  status: ('A' for Active; 'I' for Inactive)
ROOT
ATOM      1  C1  DEN d   1       3.091  -5.985  -2.158  0.00  0.00     0.130 A 
ATOM      2  C2  DEN d   1       1.725  -5.987  -2.675  0.00  0.00    -0.031 A 
ATOM      3  C3  DEN d   1       1.796  -5.980  -4.150  0.00  0.00     0.027 A 
ATOM      4  C4  DEN d   1       3.876  -5.971  -5.675  0.00  0.00     0.027 A 
ATOM      5  C5  DEN d   1       5.253  -5.955  -5.695  0.00  0.00    -0.003 A 
ATOM      6  C6  DEN d   1       5.999  -5.914  -4.548  0.00  0.00     0.001 A 
ATOM      7  C7  DEN d   1       5.373  -5.933  -3.330  0.00  0.00     0.017 A 
ATOM      8  C8  DEN d   1       3.985  -5.941  -3.301  0.00  0.00    -0.094 A 
ATOM      9  C9  DEN d   1       3.248  -5.995  -4.472  0.00  0.00    -0.072 A 
ENDROOT
TORSDOF 0
ENDMDL
