MODEL 1
REMARK minimizedAffinity 10.4769688
REMARK minimizedRMSD -1
REMARK  0 active torsions:
REMARK  status: ('A' for Active; 'I' for Inactive)
ROOT
ATOM      1  C1  DEN d   1       3.699  -5.669  -5.673  0.00  0.00     0.130 A 
ATOM      2  C2  DEN d   1       5.156  -5.733  -5.593  0.00  0.00    -0.031 A 
ATOM      3  C3  DEN d   1       5.529  -5.871  -4.170  0.00  0.00     0.027 A 
ATOM      4  C4  DEN d   1       4.001  -5.996  -2.097  0.00  0.00     0.027 A 
ATOM      5  C5  DEN d   1       2.694  -5.972  -1.663  0.00  0.00    -0.003 A 
ATOM      6  C6  DEN d   1       1.641  -5.813  -2.524  0.00  0.00     0.001 A 
ATOM      7  C7  DEN d   1       1.874  -5.716  -3.870  0.00  0.00     0.017 A 
ATOM      8  C8  DEN d   1       3.190  -5.732  -4.315  0.00  0.00    -0.094 A 
ATOM      9  C9  DEN d   1       4.240  -5.907  -3.430  0.00  0.00    -0.072 A 
ENDROOT
TORSDOF 0
ENDMDL
