MODEL 1
REMARK minimizedAffinity 12.0977755
REMARK minimizedRMSD -1
REMARK  0 active torsions:
REMARK  status: ('A' for Active; 'I' for Inactive)
ROOT
ATOM      1  C1  DEN d   1       0.529  -2.260   2.651  0.00  0.00     0.130 A 
ATOM      2  C2  DEN d   1       1.207  -0.986   2.430  0.00  0.00    -0.031 A 
ATOM      3  C3  DEN d   1       2.538  -1.061   3.065  0.00  0.00     0.027 A 
ATOM      4  C4  DEN d   1       3.610  -3.017   4.359  0.00  0.00     0.027 A 
ATOM      5  C5  DEN d   1       3.415  -4.302   4.816  0.00  0.00    -0.003 A 
ATOM      6  C6  DEN d   1       2.241  -4.978   4.615  0.00  0.00     0.001 A 
ATOM      7  C7  DEN d   1       1.232  -4.388   3.900  0.00  0.00     0.017 A 
ATOM      8  C8  DEN d   1       1.419  -3.091   3.442  0.00  0.00    -0.094 A 
ATOM      9  C9  DEN d   1       2.618  -2.429   3.644  0.00  0.00    -0.072 A 
ENDROOT
TORSDOF 0
ENDMDL
