MODEL 1
REMARK minimizedAffinity 3.25181532
REMARK minimizedRMSD -1
REMARK  0 active torsions:
REMARK  status: ('A' for Active; 'I' for Inactive)
ROOT
ATOM      1  C1  DEN d   1       4.592  -3.921   3.838  0.00  0.00     0.130 A 
ATOM      2  C2  DEN d   1       5.789  -3.151   3.513  0.00  0.00    -0.031 A 
ATOM      3  C3  DEN d   1       5.361  -1.870   2.917  0.00  0.00     0.027 A 
ATOM      4  C4  DEN d   1       2.972  -1.005   2.473  0.00  0.00     0.027 A 
ATOM      5  C5  DEN d   1       1.632  -1.309   2.570  0.00  0.00    -0.003 A 
ATOM      6  C6  DEN d   1       1.189  -2.509   3.060  0.00  0.00     0.001 A 
ATOM      7  C7  DEN d   1       2.094  -3.432   3.515  0.00  0.00     0.017 A 
ATOM      8  C8  DEN d   1       3.446  -3.135   3.414  0.00  0.00    -0.094 A 
ATOM      9  C9  DEN d   1       3.874  -1.912   2.927  0.00  0.00    -0.072 A 
ENDROOT
TORSDOF 0
ENDMDL
