MODEL 1
REMARK minimizedAffinity 5.67118883
REMARK minimizedRMSD -1
REMARK  0 active torsions:
REMARK  status: ('A' for Active; 'I' for Inactive)
ROOT
ATOM      1  C1  DEN d   1       3.437  -1.082   2.326  0.00  0.00     0.130 A 
ATOM      2  C2  DEN d   1       2.359  -0.107   2.185  0.00  0.00    -0.031 A 
ATOM      3  C3  DEN d   1       1.098  -0.759   2.592  0.00  0.00     0.027 A 
ATOM      4  C4  DEN d   1       0.714  -3.169   3.427  0.00  0.00     0.027 A 
ATOM      5  C5  DEN d   1       1.325  -4.373   3.702  0.00  0.00    -0.003 A 
ATOM      6  C6  DEN d   1       2.666  -4.572   3.508  0.00  0.00     0.001 A 
ATOM      7  C7  DEN d   1       3.449  -3.538   3.067  0.00  0.00     0.017 A 
ATOM      8  C8  DEN d   1       2.839  -2.324   2.779  0.00  0.00    -0.094 A 
ATOM      9  C9  DEN d   1       1.484  -2.139   2.994  0.00  0.00    -0.072 A 
ENDROOT
TORSDOF 0
ENDMDL
