MODEL 1
REMARK minimizedAffinity -0.391523123
REMARK minimizedRMSD -1
REMARK  0 active torsions:
REMARK  status: ('A' for Active; 'I' for Inactive)
ROOT
ATOM      1  C1  DEN d   1       2.651  -1.073   1.513  0.00  0.00     0.130 A 
ATOM      2  C2  DEN d   1       1.265  -1.267   1.095  0.00  0.00    -0.031 A 
ATOM      3  C3  DEN d   1       0.626  -2.196   2.049  0.00  0.00     0.027 A 
ATOM      4  C4  DEN d   1       1.641  -3.341   4.125  0.00  0.00     0.027 A 
ATOM      5  C5  DEN d   1       2.785  -3.492   4.877  0.00  0.00    -0.003 A 
ATOM      6  C6  DEN d   1       3.964  -2.879   4.544  0.00  0.00     0.001 A 
ATOM      7  C7  DEN d   1       4.014  -2.050   3.455  0.00  0.00     0.017 A 
ATOM      8  C8  DEN d   1       2.866  -1.899   2.687  0.00  0.00    -0.094 A 
ATOM      9  C9  DEN d   1       1.681  -2.517   3.047  0.00  0.00    -0.072 A 
ENDROOT
TORSDOF 0
ENDMDL
