MODEL 1
REMARK minimizedAffinity -4.60842466
REMARK minimizedRMSD -1
REMARK  1 active torsions:
REMARK  status: ('A' for Active; 'I' for Inactive)
REMARK    1  A    between atoms: C1_2  and  C2_3 
ROOT
ATOM      1  C2  UNL d   1       0.089   0.435   1.062  0.00  0.00    -0.081 A 
ATOM      2  C3  UNL d   1       0.451  -0.149  -0.158  0.00  0.00     0.006 A 
ATOM      3  C4  UNL d   1       0.010   0.399  -1.365  0.00  0.00     0.002 A 
ATOM      4  C5  UNL d   1      -0.793   1.544  -1.372  0.00  0.00    -0.080 A 
ATOM      5  C6  UNL d   1      -1.249   2.161  -2.661  0.00  0.00     0.076 C 
ATOM      6  C7  UNL d   1      -1.170   2.118  -0.153  0.00  0.00     0.002 A 
ATOM      7  C8  UNL d   1      -0.729   1.570   1.054  0.00  0.00     0.006 A 
ENDROOT
BRANCH   1   8
ATOM      8  C1  UNL d   1       0.616  -0.116   2.362  0.00  0.00     0.054 C 
ATOM      9  C   UNL d   1       2.078  -0.519   2.240  0.00  0.00     0.018 C 
ENDBRANCH   1   8
TORSDOF 1
ENDMDL
