MODEL 1
REMARK minimizedAffinity -3.96415758
REMARK minimizedRMSD -1
REMARK  1 active torsions:
REMARK  status: ('A' for Active; 'I' for Inactive)
REMARK    1  A    between atoms: C1_2  and  C2_3 
ROOT
ATOM      1  C2  UNL d   1       0.135   0.229   0.534  0.00  0.00    -0.081 A 
ATOM      2  C3  UNL d   1       0.652   0.471  -0.745  0.00  0.00     0.006 A 
ATOM      3  C4  UNL d   1       0.726  -0.559  -1.686  0.00  0.00     0.002 A 
ATOM      4  C5  UNL d   1       0.278  -1.845  -1.367  0.00  0.00    -0.080 A 
ATOM      5  C6  UNL d   1       0.323  -2.952  -2.378  0.00  0.00     0.076 C 
ATOM      6  C7  UNL d   1      -0.223  -2.091  -0.084  0.00  0.00     0.002 A 
ATOM      7  C8  UNL d   1      -0.296  -1.062   0.857  0.00  0.00     0.006 A 
ENDROOT
BRANCH   1   8
ATOM      8  C1  UNL d   1      -0.006   1.352   1.529  0.00  0.00     0.054 C 
ATOM      9  C   UNL d   1      -1.450   1.820   1.635  0.00  0.00     0.018 C 
ENDBRANCH   1   8
TORSDOF 1
ENDMDL
