MODEL 1
REMARK minimizedAffinity 2.13157272
REMARK minimizedRMSD -1
REMARK  1 active torsions:
REMARK  status: ('A' for Active; 'I' for Inactive)
REMARK    1  A    between atoms: C1_2  and  C2_3 
ROOT
ATOM      1  C2  UNL d   1       0.593   0.455   0.737  0.00  0.00    -0.081 A 
ATOM      2  C3  UNL d   1      -0.655   0.458   1.371  0.00  0.00     0.006 A 
ATOM      3  C4  UNL d   1      -0.796  -0.062   2.660  0.00  0.00     0.002 A 
ATOM      4  C5  UNL d   1       0.310  -0.585   3.339  0.00  0.00    -0.080 A 
ATOM      5  C6  UNL d   1       0.179  -1.119   4.734  0.00  0.00     0.076 C 
ATOM      6  C7  UNL d   1       1.554  -0.604   2.698  0.00  0.00     0.002 A 
ATOM      7  C8  UNL d   1       1.695  -0.085   1.409  0.00  0.00     0.006 A 
ENDROOT
BRANCH   1   8
ATOM      8  C1  UNL d   1       0.761   1.074  -0.627  0.00  0.00     0.054 C 
ATOM      9  C   UNL d   1      -0.440   1.933  -0.997  0.00  0.00     0.018 C 
ENDBRANCH   1   8
TORSDOF 1
ENDMDL
