MODEL 1
REMARK minimizedAffinity -0.109803267
REMARK minimizedRMSD -1
REMARK  1 active torsions:
REMARK  status: ('A' for Active; 'I' for Inactive)
REMARK    1  A    between atoms: C1_2  and  C2_3 
ROOT
ATOM      1  C2  UNL d   1       0.886  -0.374   3.091  0.00  0.00    -0.081 A 
ATOM      2  C3  UNL d   1       0.161   0.818   3.205  0.00  0.00     0.006 A 
ATOM      3  C4  UNL d   1      -0.175   1.554   2.065  0.00  0.00     0.002 A 
ATOM      4  C5  UNL d   1       0.201   1.105   0.795  0.00  0.00    -0.080 A 
ATOM      5  C6  UNL d   1      -0.180   1.869  -0.439  0.00  0.00     0.076 C 
ATOM      6  C7  UNL d   1       0.940  -0.078   0.683  0.00  0.00     0.002 A 
ATOM      7  C8  UNL d   1       1.277  -0.813   1.821  0.00  0.00     0.006 A 
ENDROOT
BRANCH   1   8
ATOM      8  C1  UNL d   1       1.194  -1.203   4.312  0.00  0.00     0.054 C 
ATOM      9  C   UNL d   1       0.478  -0.663   5.542  0.00  0.00     0.018 C 
ENDBRANCH   1   8
TORSDOF 1
ENDMDL
