MODEL 1
REMARK minimizedAffinity -3.64555883
REMARK minimizedRMSD -1
REMARK  1 active torsions:
REMARK  status: ('A' for Active; 'I' for Inactive)
REMARK    1  A    between atoms: C1_2  and  C2_3 
ROOT
ATOM      1  C2  UNL d   1       0.122  -1.258  -0.609  0.00  0.00    -0.081 A 
ATOM      2  C3  UNL d   1      -0.296  -0.044  -1.167  0.00  0.00     0.006 A 
ATOM      3  C4  UNL d   1      -0.417   1.097  -0.370  0.00  0.00     0.002 A 
ATOM      4  C5  UNL d   1      -0.116   1.044   0.995  0.00  0.00    -0.080 A 
ATOM      5  C6  UNL d   1      -0.213   2.269   1.856  0.00  0.00     0.076 C 
ATOM      6  C7  UNL d   1       0.285  -0.173   1.556  0.00  0.00     0.002 A 
ATOM      7  C8  UNL d   1       0.406  -1.314   0.760  0.00  0.00     0.006 A 
ENDROOT
BRANCH   1   8
ATOM      8  C1  UNL d   1       0.316  -2.474  -1.479  0.00  0.00     0.054 C 
ATOM      9  C   UNL d   1      -1.019  -3.063  -1.913  0.00  0.00     0.018 C 
ENDBRANCH   1   8
TORSDOF 1
ENDMDL
