MODEL 1
REMARK minimizedAffinity 0.99677217
REMARK minimizedRMSD -1
REMARK  1 active torsions:
REMARK  status: ('A' for Active; 'I' for Inactive)
REMARK    1  A    between atoms: C1_2  and  C2_3 
ROOT
ATOM      1  C2  UNL d   1       0.696   0.303   1.586  0.00  0.00    -0.081 A 
ATOM      2  C3  UNL d   1       1.473   0.445   0.430  0.00  0.00     0.006 A 
ATOM      3  C4  UNL d   1       1.779  -0.668  -0.358  0.00  0.00     0.002 A 
ATOM      4  C5  UNL d   1       1.308  -1.937  -0.007  0.00  0.00    -0.080 A 
ATOM      5  C6  UNL d   1       1.605  -3.135  -0.860  0.00  0.00     0.076 C 
ATOM      6  C7  UNL d   1       0.547  -2.081   1.158  0.00  0.00     0.002 A 
ATOM      7  C8  UNL d   1       0.241  -0.970   1.946  0.00  0.00     0.006 A 
ENDROOT
BRANCH   1   8
ATOM      8  C1  UNL d   1       0.310   1.510   2.402  0.00  0.00     0.054 C 
ATOM      9  C   UNL d   1      -0.005   2.703   1.511  0.00  0.00     0.018 C 
ENDBRANCH   1   8
TORSDOF 1
ENDMDL
