MODEL 1
REMARK minimizedAffinity -4.60476303
REMARK minimizedRMSD -1
REMARK  1 active torsions:
REMARK  status: ('A' for Active; 'I' for Inactive)
REMARK    1  A    between atoms: C1_2  and  C2_3 
ROOT
ATOM      1  C2  UNL d   1       0.361  -1.262  -0.527  0.00  0.00    -0.081 A 
ATOM      2  C3  UNL d   1       0.605  -1.080   0.840  0.00  0.00     0.006 A 
ATOM      3  C4  UNL d   1       0.137   0.059   1.498  0.00  0.00     0.002 A 
ATOM      4  C5  UNL d   1      -0.590   1.032   0.802  0.00  0.00    -0.080 A 
ATOM      5  C6  UNL d   1      -1.125   2.245   1.503  0.00  0.00     0.076 C 
ATOM      6  C7  UNL d   1      -0.819   0.859  -0.567  0.00  0.00     0.002 A 
ATOM      7  C8  UNL d   1      -0.350  -0.280  -1.225  0.00  0.00     0.006 A 
ENDROOT
BRANCH   1   8
ATOM      8  C1  UNL d   1       0.810  -2.520  -1.225  0.00  0.00     0.054 C 
ATOM      9  C   UNL d   1      -0.357  -3.470  -1.456  0.00  0.00     0.018 C 
ENDBRANCH   1   8
TORSDOF 1
ENDMDL
