MODEL 1
REMARK minimizedAffinity -1.06086493
REMARK minimizedRMSD -1
REMARK  1 active torsions:
REMARK  status: ('A' for Active; 'I' for Inactive)
REMARK    1  A    between atoms: C1_2  and  C2_3 
ROOT
ATOM      1  C2  UNL d   1       0.274  -2.014  -0.964  0.00  0.00    -0.081 A 
ATOM      2  C3  UNL d   1       0.242  -1.778   0.416  0.00  0.00     0.006 A 
ATOM      3  C4  UNL d   1      -0.125  -0.525   0.912  0.00  0.00     0.002 A 
ATOM      4  C5  UNL d   1      -0.473   0.510   0.038  0.00  0.00    -0.080 A 
ATOM      5  C6  UNL d   1      -0.897   1.851   0.558  0.00  0.00     0.076 C 
ATOM      6  C7  UNL d   1      -0.423   0.281  -1.341  0.00  0.00     0.002 A 
ATOM      7  C8  UNL d   1      -0.056  -0.972  -1.838  0.00  0.00     0.006 A 
ENDROOT
BRANCH   1   8
ATOM      8  C1  UNL d   1       0.607  -3.383  -1.501  0.00  0.00     0.054 C 
ATOM      9  C   UNL d   1      -0.549  -3.957  -2.306  0.00  0.00     0.018 C 
ENDBRANCH   1   8
TORSDOF 1
ENDMDL
