MODEL 1
REMARK minimizedAffinity 4.49361992
REMARK minimizedRMSD -1
REMARK  0 active torsions:
REMARK  status: ('A' for Active; 'I' for Inactive)
ROOT
ATOM      1  C   UNL d   1      -5.870  -0.012   5.968  0.00  0.00     0.078 C 
ATOM      2  C1  UNL d   1      -5.908  -1.120   4.958  0.00  0.00    -0.077 A 
ATOM      3  C2  UNL d   1      -5.915  -0.844   3.585  0.00  0.00    -0.001 A 
ATOM      4  C3  UNL d   1      -5.960  -1.885   2.656  0.00  0.00     0.003 A 
ATOM      5  C4  UNL d   1      -6.000  -3.209   3.090  0.00  0.00    -0.005 A 
ATOM      6  C5  UNL d   1      -5.995  -3.493   4.454  0.00  0.00     0.003 A 
ATOM      7  C6  UNL d   1      -5.950  -2.453   5.384  0.00  0.00    -0.001 A 
ENDROOT
TORSDOF 0
ENDMDL
