MODEL 1
REMARK minimizedAffinity 9.91078949
REMARK minimizedRMSD -1
REMARK  0 active torsions:
REMARK  status: ('A' for Active; 'I' for Inactive)
ROOT
ATOM      1  C   UNL d   1      -5.994  -2.580   1.947  0.00  0.00     0.078 C 
ATOM      2  C1  UNL d   1      -5.575  -2.282   3.356  0.00  0.00    -0.077 A 
ATOM      3  C2  UNL d   1      -4.756  -1.184   3.648  0.00  0.00    -0.001 A 
ATOM      4  C3  UNL d   1      -4.366  -0.925   4.963  0.00  0.00     0.003 A 
ATOM      5  C4  UNL d   1      -4.788  -1.759   5.996  0.00  0.00    -0.005 A 
ATOM      6  C5  UNL d   1      -5.601  -2.856   5.714  0.00  0.00     0.003 A 
ATOM      7  C6  UNL d   1      -5.992  -3.117   4.400  0.00  0.00    -0.001 A 
ENDROOT
TORSDOF 0
ENDMDL
