MODEL 1
REMARK minimizedAffinity 5.50529194
REMARK minimizedRMSD -1
REMARK  0 active torsions:
REMARK  status: ('A' for Active; 'I' for Inactive)
ROOT
ATOM      1  C   UNL d   1       0.010  -1.342   1.737  0.00  0.00     0.078 C 
ATOM      2  C1  UNL d   1       0.097   0.154   1.783  0.00  0.00    -0.077 A 
ATOM      3  C2  UNL d   1       0.866   0.803   2.756  0.00  0.00    -0.001 A 
ATOM      4  C3  UNL d   1       0.929   2.197   2.792  0.00  0.00     0.003 A 
ATOM      5  C4  UNL d   1       0.225   2.954   1.858  0.00  0.00    -0.005 A 
ATOM      6  C5  UNL d   1      -0.545   2.317   0.887  0.00  0.00     0.003 A 
ATOM      7  C6  UNL d   1      -0.610   0.923   0.849  0.00  0.00    -0.001 A 
ENDROOT
TORSDOF 0
ENDMDL
