MODEL 1
REMARK minimizedAffinity 9.32131767
REMARK minimizedRMSD -1
REMARK  0 active torsions:
REMARK  status: ('A' for Active; 'I' for Inactive)
ROOT
ATOM      1  C   UNL d   1      -0.133   1.575   0.840  0.00  0.00     0.078 C 
ATOM      2  C1  UNL d   1       0.682   2.608   1.560  0.00  0.00    -0.077 A 
ATOM      3  C2  UNL d   1       0.721   3.935   1.114  0.00  0.00    -0.001 A 
ATOM      4  C3  UNL d   1       1.491   4.884   1.788  0.00  0.00     0.003 A 
ATOM      5  C4  UNL d   1       2.228   4.516   2.912  0.00  0.00    -0.005 A 
ATOM      6  C5  UNL d   1       2.197   3.198   3.362  0.00  0.00     0.003 A 
ATOM      7  C6  UNL d   1       1.427   2.248   2.689  0.00  0.00    -0.001 A 
ENDROOT
TORSDOF 0
ENDMDL
