MODEL 1
REMARK minimizedAffinity -5.62549257
REMARK minimizedRMSD -1
REMARK  0 active torsions:
REMARK  status: ('A' for Active; 'I' for Inactive)
ROOT
ATOM      1  C   UNL d   1      -1.451  -0.685  -1.501  0.00  0.00     0.078 C 
ATOM      2  C1  UNL d   1      -1.492   0.732  -1.012  0.00  0.00    -0.077 A 
ATOM      3  C2  UNL d   1      -1.038   1.786  -1.814  0.00  0.00    -0.001 A 
ATOM      4  C3  UNL d   1      -1.073   3.099  -1.341  0.00  0.00     0.003 A 
ATOM      5  C4  UNL d   1      -1.561   3.370  -0.064  0.00  0.00    -0.005 A 
ATOM      6  C5  UNL d   1      -2.014   2.327   0.742  0.00  0.00     0.003 A 
ATOM      7  C6  UNL d   1      -1.979   1.014   0.271  0.00  0.00    -0.001 A 
ENDROOT
TORSDOF 0
ENDMDL
