MODEL 1
REMARK minimizedAffinity -4.52421427
REMARK minimizedRMSD -1
REMARK  0 active torsions:
REMARK  status: ('A' for Active; 'I' for Inactive)
ROOT
ATOM      1  C   UNL d   1      -0.004  -0.801  -0.309  0.00  0.00     0.078 C 
ATOM      2  C1  UNL d   1      -0.161   0.578   0.258  0.00  0.00    -0.077 A 
ATOM      3  C2  UNL d   1      -1.086   1.480  -0.282  0.00  0.00    -0.001 A 
ATOM      4  C3  UNL d   1      -1.214   2.763   0.250  0.00  0.00     0.003 A 
ATOM      5  C4  UNL d   1      -0.420   3.158   1.325  0.00  0.00    -0.005 A 
ATOM      6  C5  UNL d   1       0.505   2.269   1.868  0.00  0.00     0.003 A 
ATOM      7  C6  UNL d   1       0.635   0.985   1.337  0.00  0.00    -0.001 A 
ENDROOT
TORSDOF 0
ENDMDL
