MODEL 1
REMARK minimizedAffinity -2.93615484
REMARK minimizedRMSD -1
REMARK  0 active torsions:
REMARK  status: ('A' for Active; 'I' for Inactive)
ROOT
ATOM      1  C   UNL d   1       0.475   0.567  -1.522  0.00  0.00     0.078 C 
ATOM      2  C1  UNL d   1       0.769   0.882  -0.086  0.00  0.00    -0.077 A 
ATOM      3  C2  UNL d   1       1.396  -0.054   0.744  0.00  0.00    -0.001 A 
ATOM      4  C3  UNL d   1       1.655   0.250   2.082  0.00  0.00     0.003 A 
ATOM      5  C4  UNL d   1       1.288   1.490   2.601  0.00  0.00    -0.005 A 
ATOM      6  C5  UNL d   1       0.661   2.427   1.783  0.00  0.00     0.003 A 
ATOM      7  C6  UNL d   1       0.401   2.125   0.445  0.00  0.00    -0.001 A 
ENDROOT
TORSDOF 0
ENDMDL
