MODEL 1
REMARK minimizedAffinity -2.36853647
REMARK minimizedRMSD -1
REMARK  0 active torsions:
REMARK  status: ('A' for Active; 'I' for Inactive)
ROOT
ATOM      1  C   UNL d   1      -0.244   0.815  -0.669  0.00  0.00     0.078 C 
ATOM      2  C1  UNL d   1       0.307   0.580   0.705  0.00  0.00    -0.077 A 
ATOM      3  C2  UNL d   1       0.338   1.608   1.656  0.00  0.00    -0.001 A 
ATOM      4  C3  UNL d   1       0.863   1.377   2.928  0.00  0.00     0.003 A 
ATOM      5  C4  UNL d   1       1.363   0.120   3.262  0.00  0.00    -0.005 A 
ATOM      6  C5  UNL d   1       1.339  -0.908   2.322  0.00  0.00     0.003 A 
ATOM      7  C6  UNL d   1       0.814  -0.680   1.049  0.00  0.00    -0.001 A 
ENDROOT
TORSDOF 0
ENDMDL
