MODEL 1
REMARK minimizedAffinity -2.73284984
REMARK minimizedRMSD -1
REMARK  0 active torsions:
REMARK  status: ('A' for Active; 'I' for Inactive)
ROOT
ATOM      1  C   UNL d   1       2.518   3.309   3.433  0.00  0.00     0.078 C 
ATOM      2  C1  UNL d   1       2.083   3.904   2.127  0.00  0.00    -0.077 A 
ATOM      3  C2  UNL d   1       2.864   4.869   1.479  0.00  0.00    -0.001 A 
ATOM      4  C3  UNL d   1       2.442   5.422   0.269  0.00  0.00     0.003 A 
ATOM      5  C4  UNL d   1       1.238   5.016  -0.304  0.00  0.00    -0.005 A 
ATOM      6  C5  UNL d   1       0.454   4.058   0.335  0.00  0.00     0.003 A 
ATOM      7  C6  UNL d   1       0.874   3.504   1.545  0.00  0.00    -0.001 A 
ENDROOT
TORSDOF 0
ENDMDL
