MODEL 1
REMARK minimizedAffinity 1.04634929
REMARK minimizedRMSD -1
REMARK  0 active torsions:
REMARK  status: ('A' for Active; 'I' for Inactive)
ROOT
ATOM      1  C   UNL d   1       1.478   5.614  -0.968  0.00  0.00     0.078 C 
ATOM      2  C1  UNL d   1       1.485   4.787   0.283  0.00  0.00    -0.077 A 
ATOM      3  C2  UNL d   1       2.652   4.638   1.042  0.00  0.00    -0.001 A 
ATOM      4  C3  UNL d   1       2.646   3.857   2.199  0.00  0.00     0.003 A 
ATOM      5  C4  UNL d   1       1.477   3.217   2.606  0.00  0.00    -0.005 A 
ATOM      6  C5  UNL d   1       0.312   3.358   1.855  0.00  0.00     0.003 A 
ATOM      7  C6  UNL d   1       0.315   4.139   0.698  0.00  0.00    -0.001 A 
ENDROOT
TORSDOF 0
ENDMDL
