MODEL 1
REMARK minimizedAffinity -1.05917931
REMARK minimizedRMSD -1
REMARK  0 active torsions:
REMARK  status: ('A' for Active; 'I' for Inactive)
ROOT
ATOM      1  C2' OXE d   1      -0.464  -5.199  -2.399  0.00  0.00     0.078 C 
ATOM      2  C1' OXE d   1      -1.819  -3.627  -4.289  0.00  0.00     0.078 C 
ATOM      3  C1  OXE d   1      -1.491  -2.999  -2.958  0.00  0.00    -0.078 A 
ATOM      4  C2  OXE d   1      -0.869  -3.790  -2.022  0.00  0.00    -0.078 A 
ATOM      5  C3  OXE d   1      -0.495  -3.245  -0.797  0.00  0.00     0.003 A 
ATOM      6  C4  OXE d   1      -0.883  -1.944  -0.452  0.00  0.00    -0.002 A 
ATOM      7  C5  OXE d   1      -1.552  -1.134  -1.376  0.00  0.00    -0.002 A 
ATOM      8  C6  OXE d   1      -1.825  -1.631  -2.646  0.00  0.00     0.003 A 
ENDROOT
TORSDOF 0
ENDMDL
