MODEL 1
REMARK minimizedAffinity 4.32237577
REMARK minimizedRMSD -1
REMARK  0 active torsions:
REMARK  status: ('A' for Active; 'I' for Inactive)
ROOT
ATOM      1  C2' OXE d   1       3.847  -1.961  -4.456  0.00  0.00     0.078 C 
ATOM      2  C1' OXE d   1       1.067  -1.617  -4.645  0.00  0.00     0.078 C 
ATOM      3  C1  OXE d   1       1.931  -0.380  -4.645  0.00  0.00    -0.078 A 
ATOM      4  C2  OXE d   1       3.287  -0.556  -4.506  0.00  0.00    -0.078 A 
ATOM      5  C3  OXE d   1       4.133   0.548  -4.555  0.00  0.00     0.003 A 
ATOM      6  C4  OXE d   1       3.606   1.845  -4.591  0.00  0.00    -0.002 A 
ATOM      7  C5  OXE d   1       2.226   2.047  -4.694  0.00  0.00    -0.002 A 
ATOM      8  C6  OXE d   1       1.379   0.947  -4.765  0.00  0.00     0.003 A 
ENDROOT
TORSDOF 0
ENDMDL
