MODEL 1
REMARK minimizedAffinity 4.79628277
REMARK minimizedRMSD -1
REMARK  0 active torsions:
REMARK  status: ('A' for Active; 'I' for Inactive)
ROOT
ATOM      1  C2' OXE d   1       1.056   0.836  -0.842  0.00  0.00     0.078 C 
ATOM      2  C1' OXE d   1       2.402  -1.173   0.582  0.00  0.00     0.078 C 
ATOM      3  C1  OXE d   1       1.112  -1.543  -0.106  0.00  0.00    -0.078 A 
ATOM      4  C2  OXE d   1       0.436  -0.543  -0.762  0.00  0.00    -0.078 A 
ATOM      5  C3  OXE d   1      -0.731  -0.842  -1.459  0.00  0.00     0.003 A 
ATOM      6  C4  OXE d   1      -1.302  -2.117  -1.371  0.00  0.00    -0.002 A 
ATOM      7  C5  OXE d   1      -0.650  -3.140  -0.676  0.00  0.00    -0.002 A 
ATOM      8  C6  OXE d   1       0.576  -2.882  -0.074  0.00  0.00     0.003 A 
ENDROOT
TORSDOF 0
ENDMDL
