MODEL 1
REMARK minimizedAffinity 2.07071376
REMARK minimizedRMSD -1
REMARK  0 active torsions:
REMARK  status: ('A' for Active; 'I' for Inactive)
ROOT
ATOM      1  C2' OXE d   1       0.275  -1.553  -0.624  0.00  0.00     0.078 C 
ATOM      2  C1' OXE d   1       3.069  -1.452  -0.876  0.00  0.00     0.078 C 
ATOM      3  C1  OXE d   1       2.424  -0.570   0.164  0.00  0.00    -0.078 A 
ATOM      4  C2  OXE d   1       1.053  -0.592   0.249  0.00  0.00    -0.078 A 
ATOM      5  C3  OXE d   1       0.411   0.161   1.228  0.00  0.00     0.003 A 
ATOM      6  C4  OXE d   1       1.137   1.056   2.024  0.00  0.00    -0.002 A 
ATOM      7  C5  OXE d   1       2.531   1.123   1.926  0.00  0.00    -0.002 A 
ATOM      8  C6  OXE d   1       3.192   0.287   1.033  0.00  0.00     0.003 A 
ENDROOT
TORSDOF 0
ENDMDL
