MODEL 1
REMARK minimizedAffinity 2.50211143
REMARK minimizedRMSD -1
REMARK  0 active torsions:
REMARK  status: ('A' for Active; 'I' for Inactive)
ROOT
ATOM      1  C2' OXE d   1       2.629   0.809   1.645  0.00  0.00     0.078 C 
ATOM      2  C1' OXE d   1       3.312  -1.016  -0.375  0.00  0.00     0.078 C 
ATOM      3  C1  OXE d   1       1.858  -0.643  -0.227  0.00  0.00    -0.078 A 
ATOM      4  C2  OXE d   1       1.527   0.215   0.795  0.00  0.00    -0.078 A 
ATOM      5  C3  OXE d   1       0.208   0.634   0.942  0.00  0.00     0.003 A 
ATOM      6  C4  OXE d   1      -0.807   0.072   0.158  0.00  0.00    -0.002 A 
ATOM      7  C5  OXE d   1      -0.496  -0.833  -0.862  0.00  0.00    -0.002 A 
ATOM      8  C6  OXE d   1       0.833  -1.168  -1.095  0.00  0.00     0.003 A 
ENDROOT
TORSDOF 0
ENDMDL
