MODEL 1
REMARK minimizedAffinity 4.81431437
REMARK minimizedRMSD -1
REMARK  0 active torsions:
REMARK  status: ('A' for Active; 'I' for Inactive)
ROOT
ATOM      1  C2' OXE d   1       0.642  -1.352  -0.004  0.00  0.00     0.078 C 
ATOM      2  C1' OXE d   1       3.264  -0.664  -0.734  0.00  0.00     0.078 C 
ATOM      3  C1  OXE d   1       2.518   0.277   0.179  0.00  0.00    -0.078 A 
ATOM      4  C2  OXE d   1       1.219  -0.044   0.493  0.00  0.00    -0.078 A 
ATOM      5  C3  OXE d   1       0.504   0.761   1.375  0.00  0.00     0.003 A 
ATOM      6  C4  OXE d   1       1.042   1.974   1.823  0.00  0.00    -0.002 A 
ATOM      7  C5  OXE d   1       2.348   2.340   1.482  0.00  0.00    -0.002 A 
ATOM      8  C6  OXE d   1       3.113   1.484   0.697  0.00  0.00     0.003 A 
ENDROOT
TORSDOF 0
ENDMDL
