MODEL 1
REMARK minimizedAffinity 1.65191698
REMARK minimizedRMSD -1
REMARK  0 active torsions:
REMARK  status: ('A' for Active; 'I' for Inactive)
ROOT
ATOM      1  C2' OXE d   1       2.358   1.141   1.494  0.00  0.00     0.078 C 
ATOM      2  C1' OXE d   1       3.121  -1.159   0.077  0.00  0.00     0.078 C 
ATOM      3  C1  OXE d   1       1.658  -0.791   0.086  0.00  0.00    -0.078 A 
ATOM      4  C2  OXE d   1       1.288   0.310   0.820  0.00  0.00    -0.078 A 
ATOM      5  C3  OXE d   1      -0.041   0.725   0.818  0.00  0.00     0.003 A 
ATOM      6  C4  OXE d   1      -1.026  -0.055   0.201  0.00  0.00    -0.002 A 
ATOM      7  C5  OXE d   1      -0.676  -1.202  -0.520  0.00  0.00    -0.002 A 
ATOM      8  C6  OXE d   1       0.664  -1.559  -0.623  0.00  0.00     0.003 A 
ENDROOT
TORSDOF 0
ENDMDL
