MODEL 1
REMARK minimizedAffinity 7.12015009
REMARK minimizedRMSD -1
REMARK  0 active torsions:
REMARK  status: ('A' for Active; 'I' for Inactive)
ROOT
ATOM      1  C2' OXE d   1       3.110  -0.915  -0.293  0.00  0.00     0.078 C 
ATOM      2  C1' OXE d   1       0.329  -0.551  -0.166  0.00  0.00     0.078 C 
ATOM      3  C1  OXE d   1       1.201   0.420   0.591  0.00  0.00    -0.078 A 
ATOM      4  C2  OXE d   1       2.558   0.206   0.561  0.00  0.00    -0.078 A 
ATOM      5  C3  OXE d   1       3.411   1.103   1.197  0.00  0.00     0.003 A 
ATOM      6  C4  OXE d   1       2.893   2.132   1.993  0.00  0.00    -0.002 A 
ATOM      7  C5  OXE d   1       1.512   2.343   2.070  0.00  0.00    -0.002 A 
ATOM      8  C6  OXE d   1       0.656   1.523   1.342  0.00  0.00     0.003 A 
ENDROOT
TORSDOF 0
ENDMDL
