MODEL 1
REMARK minimizedAffinity 14.5839243
REMARK minimizedRMSD -1
REMARK  0 active torsions:
REMARK  status: ('A' for Active; 'I' for Inactive)
ROOT
ATOM      1  C2' OXE d   1       2.482   1.593  -5.494  0.00  0.00     0.078 C 
ATOM      2  C1' OXE d   1       1.565  -0.873  -4.516  0.00  0.00     0.078 C 
ATOM      3  C1  OXE d   1       2.487  -0.067  -3.636  0.00  0.00    -0.078 A 
ATOM      4  C2  OXE d   1       2.969   1.117  -4.142  0.00  0.00    -0.078 A 
ATOM      5  C3  OXE d   1       3.780   1.925  -3.351  0.00  0.00     0.003 A 
ATOM      6  C4  OXE d   1       4.233   1.473  -2.106  0.00  0.00    -0.002 A 
ATOM      7  C5  OXE d   1       3.787   0.252  -1.588  0.00  0.00    -0.002 A 
ATOM      8  C6  OXE d   1       2.882  -0.508  -2.321  0.00  0.00     0.003 A 
ENDROOT
TORSDOF 0
ENDMDL
