MODEL 1
REMARK minimizedAffinity 6.63894415
REMARK minimizedRMSD -1
REMARK  0 active torsions:
REMARK  status: ('A' for Active; 'I' for Inactive)
ROOT
ATOM      1  C2' OXE d   1      -1.106  -6.000  -2.332  0.00  0.00     0.078 C 
ATOM      2  C1' OXE d   1       1.467  -6.000  -3.455  0.00  0.00     0.078 C 
ATOM      3  C1  OXE d   1       0.398  -5.190  -4.146  0.00  0.00    -0.078 A 
ATOM      4  C2  OXE d   1      -0.869  -5.234  -3.616  0.00  0.00    -0.078 A 
ATOM      5  C3  OXE d   1      -1.880  -4.462  -4.182  0.00  0.00     0.003 A 
ATOM      6  C4  OXE d   1      -1.655  -3.764  -5.375  0.00  0.00    -0.002 A 
ATOM      7  C5  OXE d   1      -0.382  -3.739  -5.953  0.00  0.00    -0.002 A 
ATOM      8  C6  OXE d   1       0.664  -4.411  -5.329  0.00  0.00     0.003 A 
ENDROOT
TORSDOF 0
ENDMDL
