MODEL 1
REMARK minimizedAffinity 4.03559065
REMARK minimizedRMSD -1
REMARK  0 active torsions:
REMARK  status: ('A' for Active; 'I' for Inactive)
ROOT
ATOM      1  C2' OXE d   1       2.496   0.788   0.701  0.00  0.00     0.078 C 
ATOM      2  C1' OXE d   1       0.258  -0.787   0.075  0.00  0.00     0.078 C 
ATOM      3  C1  OXE d   1       0.401  -0.302   1.496  0.00  0.00    -0.078 A 
ATOM      4  C2  OXE d   1       1.524   0.429   1.804  0.00  0.00    -0.078 A 
ATOM      5  C3  OXE d   1       1.678   0.947   3.087  0.00  0.00     0.003 A 
ATOM      6  C4  OXE d   1       0.780   0.602   4.104  0.00  0.00    -0.002 A 
ATOM      7  C5  OXE d   1      -0.349  -0.174   3.821  0.00  0.00    -0.002 A 
ATOM      8  C6  OXE d   1      -0.575  -0.598   2.516  0.00  0.00     0.003 A 
ENDROOT
TORSDOF 0
ENDMDL
