MODEL 1
REMARK minimizedAffinity -5.74561787
REMARK minimizedRMSD -1
REMARK  3 active torsions:
REMARK  status: ('A' for Active; 'I' for Inactive)
REMARK    1  A    between atoms: C3'_2  and  C2'_3 
REMARK    2  A    between atoms: C2'_3  and  C1'_4 
REMARK    3  A    between atoms: C1'_4  and  C1_5 
ROOT
ATOM      1  C1  N4B d   1       0.628   0.145  -0.628  0.00  0.00    -0.075 A 
ATOM      2  C2  N4B d   1       0.792  -1.249  -0.782  0.00  0.00     0.002 A 
ATOM      3  C3  N4B d   1       1.413  -1.748  -1.901  0.00  0.00     0.002 A 
ATOM      4  C4  N4B d   1       1.860  -0.877  -2.883  0.00  0.00    -0.004 A 
ATOM      5  C5  N4B d   1       1.720   0.470  -2.715  0.00  0.00     0.002 A 
ATOM      6  C6  N4B d   1       1.101   0.985  -1.594  0.00  0.00     0.002 A 
ENDROOT
BRANCH   1   7
ATOM      7  C1' N4B d   1      -0.121   0.732   0.537  0.00  0.00     0.057 C 
BRANCH   7   8
ATOM      8  C2' N4B d   1      -1.047  -0.329   1.124  0.00  0.00     0.009 C 
BRANCH   8   9
ATOM      9  C3' N4B d   1      -2.148   0.283   1.972  0.00  0.00     0.004 C 
ATOM     10  C4' N4B d   1      -3.513   0.086   1.383  0.00  0.00     0.003 C 
ENDBRANCH   8   9
ENDBRANCH   7   8
ENDBRANCH   1   7
TORSDOF 3
ENDMDL
