MODEL 1
REMARK minimizedAffinity -7.01141548
REMARK minimizedRMSD -1
REMARK  3 active torsions:
REMARK  status: ('A' for Active; 'I' for Inactive)
REMARK    1  A    between atoms: C3'_2  and  C2'_3 
REMARK    2  A    between atoms: C2'_3  and  C1'_4 
REMARK    3  A    between atoms: C1'_4  and  C1_5 
ROOT
ATOM      1  C1  N4B d   1       0.317  -0.190  -0.774  0.00  0.00    -0.075 A 
ATOM      2  C2  N4B d   1       1.134   0.418  -1.752  0.00  0.00     0.002 A 
ATOM      3  C3  N4B d   1       1.907  -0.358  -2.580  0.00  0.00     0.002 A 
ATOM      4  C4  N4B d   1       1.894  -1.738  -2.436  0.00  0.00    -0.004 A 
ATOM      5  C5  N4B d   1       1.083  -2.319  -1.506  0.00  0.00     0.002 A 
ATOM      6  C6  N4B d   1       0.297  -1.551  -0.670  0.00  0.00     0.002 A 
ENDROOT
BRANCH   1   7
ATOM      7  C1' N4B d   1      -0.481   0.621   0.211  0.00  0.00     0.057 C 
BRANCH   7   8
ATOM      8  C2' N4B d   1      -0.938  -0.285   1.351  0.00  0.00     0.009 C 
BRANCH   8   9
ATOM      9  C3' N4B d   1      -2.065   0.340   2.155  0.00  0.00     0.004 C 
ATOM     10  C4' N4B d   1      -3.423  -0.057   1.657  0.00  0.00     0.003 C 
ENDBRANCH   8   9
ENDBRANCH   7   8
ENDBRANCH   1   7
TORSDOF 3
ENDMDL
