MODEL 1
REMARK minimizedAffinity -5.38556862
REMARK minimizedRMSD -1
REMARK  3 active torsions:
REMARK  status: ('A' for Active; 'I' for Inactive)
REMARK    1  A    between atoms: C3'_2  and  C2'_3 
REMARK    2  A    between atoms: C2'_3  and  C1'_4 
REMARK    3  A    between atoms: C1'_4  and  C1_5 
ROOT
ATOM      1  C1  N4B d   1       0.508  -0.141  -0.565  0.00  0.00    -0.075 A 
ATOM      2  C2  N4B d   1       1.286   0.629  -1.459  0.00  0.00     0.002 A 
ATOM      3  C3  N4B d   1       1.981   0.012  -2.470  0.00  0.00     0.002 A 
ATOM      4  C4  N4B d   1       1.930  -1.368  -2.595  0.00  0.00    -0.004 A 
ATOM      5  C5  N4B d   1       1.156  -2.102  -1.744  0.00  0.00     0.002 A 
ATOM      6  C6  N4B d   1       0.448  -1.495  -0.726  0.00  0.00     0.002 A 
ENDROOT
BRANCH   1   7
ATOM      7  C1' N4B d   1      -0.201   0.479   0.607  0.00  0.00     0.057 C 
BRANCH   7   8
ATOM      8  C2' N4B d   1      -0.944  -0.609   1.376  0.00  0.00     0.009 C 
BRANCH   8   9
ATOM      9  C3' N4B d   1      -2.145  -0.057   2.125  0.00  0.00     0.004 C 
ATOM     10  C4' N4B d   1      -3.414  -0.793   1.812  0.00  0.00     0.003 C 
ENDBRANCH   8   9
ENDBRANCH   7   8
ENDBRANCH   1   7
TORSDOF 3
ENDMDL
