MODEL 1
REMARK minimizedAffinity -2.18086791
REMARK minimizedRMSD -1
REMARK  3 active torsions:
REMARK  status: ('A' for Active; 'I' for Inactive)
REMARK    1  A    between atoms: C3'_2  and  C2'_3 
REMARK    2  A    between atoms: C2'_3  and  C1'_4 
REMARK    3  A    between atoms: C1'_4  and  C1_5 
ROOT
ATOM      1  C1  N4B d   1       0.841   0.514  -1.019  0.00  0.00    -0.075 A 
ATOM      2  C2  N4B d   1       0.413  -0.787  -0.677  0.00  0.00     0.002 A 
ATOM      3  C3  N4B d   1      -0.148  -1.024   0.555  0.00  0.00     0.002 A 
ATOM      4  C4  N4B d   1      -0.272   0.016   1.463  0.00  0.00    -0.004 A 
ATOM      5  C5  N4B d   1       0.122   1.276   1.116  0.00  0.00     0.002 A 
ATOM      6  C6  N4B d   1       0.683   1.529  -0.120  0.00  0.00     0.002 A 
ENDROOT
BRANCH   1   7
ATOM      7  C1' N4B d   1       1.538   0.805  -2.320  0.00  0.00     0.057 C 
BRANCH   7   8
ATOM      8  C2' N4B d   1       2.889   0.095  -2.334  0.00  0.00     0.009 C 
BRANCH   8   9
ATOM      9  C3' N4B d   1       3.941   0.861  -1.552  0.00  0.00     0.004 C 
ATOM     10  C4' N4B d   1       5.027  -0.025  -1.017  0.00  0.00     0.003 C 
ENDBRANCH   8   9
ENDBRANCH   7   8
ENDBRANCH   1   7
TORSDOF 3
ENDMDL
