MODEL 1
REMARK minimizedAffinity -0.755562186
REMARK minimizedRMSD -1
REMARK  3 active torsions:
REMARK  status: ('A' for Active; 'I' for Inactive)
REMARK    1  A    between atoms: C3'_2  and  C2'_3 
REMARK    2  A    between atoms: C2'_3  and  C1'_4 
REMARK    3  A    between atoms: C1'_4  and  C1_5 
ROOT
ATOM      1  C1  N4B d   1       0.621  -0.558  -1.526  0.00  0.00    -0.075 A 
ATOM      2  C2  N4B d   1       0.023   0.256  -0.540  0.00  0.00     0.002 A 
ATOM      3  C3  N4B d   1      -0.593  -0.320   0.545  0.00  0.00     0.002 A 
ATOM      4  C4  N4B d   1      -0.638  -1.702   0.654  0.00  0.00    -0.004 A 
ATOM      5  C5  N4B d   1      -0.036  -2.480  -0.290  0.00  0.00     0.002 A 
ATOM      6  C6  N4B d   1       0.590  -1.915  -1.383  0.00  0.00     0.002 A 
ENDROOT
BRANCH   1   7
ATOM      7  C1' N4B d   1       1.231   0.023  -2.773  0.00  0.00     0.057 C 
BRANCH   7   8
ATOM      8  C2' N4B d   1       2.751   0.008  -2.641  0.00  0.00     0.009 C 
BRANCH   8   9
ATOM      9  C3' N4B d   1       3.216   0.688  -1.365  0.00  0.00     0.004 C 
ATOM     10  C4' N4B d   1       4.699   0.591  -1.163  0.00  0.00     0.003 C 
ENDBRANCH   8   9
ENDBRANCH   7   8
ENDBRANCH   1   7
TORSDOF 3
ENDMDL
