MODEL 1
REMARK minimizedAffinity -2.66273117
REMARK minimizedRMSD -1
REMARK  3 active torsions:
REMARK  status: ('A' for Active; 'I' for Inactive)
REMARK    1  A    between atoms: C3'_2  and  C2'_3 
REMARK    2  A    between atoms: C2'_3  and  C1'_4 
REMARK    3  A    between atoms: C1'_4  and  C1_5 
ROOT
ATOM      1  C1  N4B d   1      -0.378   0.651   1.171  0.00  0.00    -0.075 A 
ATOM      2  C2  N4B d   1      -1.039   1.295   2.240  0.00  0.00     0.002 A 
ATOM      3  C3  N4B d   1      -2.348   0.990   2.521  0.00  0.00     0.002 A 
ATOM      4  C4  N4B d   1      -3.020   0.064   1.738  0.00  0.00    -0.004 A 
ATOM      5  C5  N4B d   1      -2.367  -0.573   0.724  0.00  0.00     0.002 A 
ATOM      6  C6  N4B d   1      -1.050  -0.280   0.433  0.00  0.00     0.002 A 
ENDROOT
BRANCH   1   7
ATOM      7  C1' N4B d   1       1.026   1.013   0.772  0.00  0.00     0.057 C 
BRANCH   7   8
ATOM      8  C2' N4B d   1       1.107   1.104  -0.749  0.00  0.00     0.009 C 
BRANCH   8   9
ATOM      9  C3' N4B d   1       2.513   0.839  -1.260  0.00  0.00     0.004 C 
ATOM     10  C4' N4B d   1       2.545  -0.158  -2.380  0.00  0.00     0.003 C 
ENDBRANCH   8   9
ENDBRANCH   7   8
ENDBRANCH   1   7
TORSDOF 3
ENDMDL
