MODEL 1
REMARK minimizedAffinity -4.49032354
REMARK minimizedRMSD -1
REMARK  3 active torsions:
REMARK  status: ('A' for Active; 'I' for Inactive)
REMARK    1  A    between atoms: C3'_2  and  C2'_3 
REMARK    2  A    between atoms: C2'_3  and  C1'_4 
REMARK    3  A    between atoms: C1'_4  and  C1_5 
ROOT
ATOM      1  C1  N4B d   1       0.605  -0.109  -0.778  0.00  0.00    -0.075 A 
ATOM      2  C2  N4B d   1       1.412   0.498  -1.765  0.00  0.00     0.002 A 
ATOM      3  C3  N4B d   1       2.098  -0.280  -2.665  0.00  0.00     0.002 A 
ATOM      4  C4  N4B d   1       2.007  -1.661  -2.587  0.00  0.00    -0.004 A 
ATOM      5  C5  N4B d   1       1.204  -2.239  -1.647  0.00  0.00     0.002 A 
ATOM      6  C6  N4B d   1       0.506  -1.470  -0.738  0.00  0.00     0.002 A 
ENDROOT
BRANCH   1   7
ATOM      7  C1' N4B d   1      -0.096   0.697   0.282  0.00  0.00     0.057 C 
BRANCH   7   8
ATOM      8  C2' N4B d   1      -1.012  -0.221   1.085  0.00  0.00     0.009 C 
BRANCH   8   9
ATOM      9  C3' N4B d   1      -2.077   0.557   1.839  0.00  0.00     0.004 C 
ATOM     10  C4' N4B d   1      -3.385  -0.172   1.915  0.00  0.00     0.003 C 
ENDBRANCH   8   9
ENDBRANCH   7   8
ENDBRANCH   1   7
TORSDOF 3
ENDMDL
