MODEL 1
REMARK minimizedAffinity 1.72955406
REMARK minimizedRMSD -1
REMARK  0 active torsions:
REMARK  status: ('A' for Active; 'I' for Inactive)
ROOT
ATOM      1  C1  DEN d   1       4.501   4.505  -4.742  0.00  0.00     0.130 A 
ATOM      2  C2  DEN d   1       4.804   3.227  -5.380  0.00  0.00    -0.031 A 
ATOM      3  C3  DEN d   1       3.560   2.713  -5.986  0.00  0.00     0.027 A 
ATOM      4  C4  DEN d   1       1.206   3.767  -6.000  0.00  0.00     0.027 A 
ATOM      5  C5  DEN d   1       0.455   4.841  -5.577  0.00  0.00    -0.003 A 
ATOM      6  C6  DEN d   1       0.987   5.853  -4.823  0.00  0.00     0.001 A 
ATOM      7  C7  DEN d   1       2.320   5.835  -4.507  0.00  0.00     0.017 A 
ATOM      8  C8  DEN d   1       3.082   4.752  -4.924  0.00  0.00    -0.094 A 
ATOM      9  C9  DEN d   1       2.528   3.745  -5.695  0.00  0.00    -0.072 A 
ENDROOT
TORSDOF 0
ENDMDL
