MODEL 1
REMARK minimizedAffinity 3.41895175
REMARK minimizedRMSD -1
REMARK  0 active torsions:
REMARK  status: ('A' for Active; 'I' for Inactive)
ROOT
ATOM      1  C1  DEN d   1       6.000   1.610   1.856  0.00  0.00     0.130 A 
ATOM      2  C2  DEN d   1       6.000   0.207   2.261  0.00  0.00    -0.031 A 
ATOM      3  C3  DEN d   1       4.693  -0.375   1.893  0.00  0.00     0.027 A 
ATOM      4  C4  DEN d   1       2.683   0.753   0.737  0.00  0.00     0.027 A 
ATOM      5  C5  DEN d   1       2.207   1.935   0.212  0.00  0.00    -0.003 A 
ATOM      6  C6  DEN d   1       2.944   3.090   0.229  0.00  0.00     0.001 A 
ATOM      7  C7  DEN d   1       4.214   3.077   0.742  0.00  0.00     0.017 A 
ATOM      8  C8  DEN d   1       4.697   1.891   1.279  0.00  0.00    -0.094 A 
ATOM      9  C9  DEN d   1       3.942   0.732   1.241  0.00  0.00    -0.072 A 
ENDROOT
TORSDOF 0
ENDMDL
