MODEL 1
REMARK minimizedAffinity -1.38313258
REMARK minimizedRMSD -1
REMARK  0 active torsions:
REMARK  status: ('A' for Active; 'I' for Inactive)
ROOT
ATOM      1  C1  DEN d   1       2.297   2.914  -4.974  0.00  0.00     0.130 A 
ATOM      2  C2  DEN d   1       1.443   4.086  -5.139  0.00  0.00    -0.031 A 
ATOM      3  C3  DEN d   1       2.293   5.214  -5.570  0.00  0.00     0.027 A 
ATOM      4  C4  DEN d   1       4.836   5.257  -6.000  0.00  0.00     0.027 A 
ATOM      5  C5  DEN d   1       5.990   4.505  -5.982  0.00  0.00    -0.003 A 
ATOM      6  C6  DEN d   1       6.000   3.191  -5.597  0.00  0.00     0.001 A 
ATOM      7  C7  DEN d   1       4.824   2.574  -5.258  0.00  0.00     0.017 A 
ATOM      8  C8  DEN d   1       3.658   3.327  -5.266  0.00  0.00    -0.094 A 
ATOM      9  C9  DEN d   1       3.667   4.652  -5.670  0.00  0.00    -0.072 A 
ENDROOT
TORSDOF 0
ENDMDL
