MODEL 1
REMARK minimizedAffinity 0.221320748
REMARK minimizedRMSD -1
REMARK  0 active torsions:
REMARK  status: ('A' for Active; 'I' for Inactive)
ROOT
ATOM      1  C1  DEN d   1       1.508   2.870  -5.907  0.00  0.00     0.130 A 
ATOM      2  C2  DEN d   1       0.748   4.114  -5.828  0.00  0.00    -0.031 A 
ATOM      3  C3  DEN d   1       1.708   5.236  -5.821  0.00  0.00     0.027 A 
ATOM      4  C4  DEN d   1       4.284   5.168  -5.930  0.00  0.00     0.027 A 
ATOM      5  C5  DEN d   1       5.383   4.341  -5.994  0.00  0.00    -0.003 A 
ATOM      6  C6  DEN d   1       5.271   2.976  -6.000  0.00  0.00     0.001 A 
ATOM      7  C7  DEN d   1       4.029   2.397  -5.985  0.00  0.00     0.017 A 
ATOM      8  C8  DEN d   1       2.916   3.225  -5.913  0.00  0.00    -0.094 A 
ATOM      9  C9  DEN d   1       3.050   4.603  -5.920  0.00  0.00    -0.072 A 
ENDROOT
TORSDOF 0
ENDMDL
