MODEL 1
REMARK minimizedAffinity -1.7382822
REMARK minimizedRMSD -1
REMARK  0 active torsions:
REMARK  status: ('A' for Active; 'I' for Inactive)
ROOT
ATOM      1  C1  DEN d   1       2.305   5.197  -5.563  0.00  0.00     0.130 A 
ATOM      2  C2  DEN d   1       1.437   4.090  -5.172  0.00  0.00    -0.031 A 
ATOM      3  C3  DEN d   1       2.278   2.889  -4.999  0.00  0.00     0.027 A 
ATOM      4  C4  DEN d   1       4.828   2.638  -5.294  0.00  0.00     0.027 A 
ATOM      5  C5  DEN d   1       5.989   3.298  -5.629  0.00  0.00    -0.003 A 
ATOM      6  C6  DEN d   1       6.000   4.617  -5.996  0.00  0.00     0.001 A 
ATOM      7  C7  DEN d   1       4.831   5.332  -5.993  0.00  0.00     0.017 A 
ATOM      8  C8  DEN d   1       3.655   4.672  -5.663  0.00  0.00    -0.094 A 
ATOM      9  C9  DEN d   1       3.667   3.340  -5.283  0.00  0.00    -0.072 A 
ENDROOT
TORSDOF 0
ENDMDL
