MODEL 1
REMARK minimizedAffinity 3.31241035
REMARK minimizedRMSD -1
REMARK  0 active torsions:
REMARK  status: ('A' for Active; 'I' for Inactive)
ROOT
ATOM      1  C1  DEN d   1       1.497   3.217  -4.159  0.00  0.00     0.130 A 
ATOM      2  C2  DEN d   1       0.949   4.530  -4.487  0.00  0.00    -0.031 A 
ATOM      3  C3  DEN d   1       1.964   5.266  -5.268  0.00  0.00     0.027 A 
ATOM      4  C4  DEN d   1       4.316   4.502  -6.000  0.00  0.00     0.027 A 
ATOM      5  C5  DEN d   1       5.229   3.472  -5.947  0.00  0.00    -0.003 A 
ATOM      6  C6  DEN d   1       4.977   2.307  -5.271  0.00  0.00     0.001 A 
ATOM      7  C7  DEN d   1       3.766   2.126  -4.658  0.00  0.00     0.017 A 
ATOM      8  C8  DEN d   1       2.843   3.163  -4.701  0.00  0.00    -0.094 A 
ATOM      9  C9  DEN d   1       3.112   4.328  -5.400  0.00  0.00    -0.072 A 
ENDROOT
TORSDOF 0
ENDMDL
