MODEL 1
REMARK minimizedAffinity -2.01684189
REMARK minimizedRMSD -1
REMARK  0 active torsions:
REMARK  status: ('A' for Active; 'I' for Inactive)
ROOT
ATOM      1  C1  DEN d   1       1.150   3.755  -5.965  0.00  0.00     0.130 A 
ATOM      2  C2  DEN d   1       0.741   5.157  -5.993  0.00  0.00    -0.031 A 
ATOM      3  C3  DEN d   1       1.961   5.988  -6.000  0.00  0.00     0.027 A 
ATOM      4  C4  DEN d   1       4.431   5.246  -5.975  0.00  0.00     0.027 A 
ATOM      5  C5  DEN d   1       5.276   4.159  -5.940  0.00  0.00    -0.003 A 
ATOM      6  C6  DEN d   1       4.809   2.873  -5.876  0.00  0.00     0.001 A 
ATOM      7  C7  DEN d   1       3.459   2.639  -5.892  0.00  0.00     0.017 A 
ATOM      8  C8  DEN d   1       2.601   3.730  -5.920  0.00  0.00    -0.094 A 
ATOM      9  C9  DEN d   1       3.093   5.023  -5.997  0.00  0.00    -0.072 A 
ENDROOT
TORSDOF 0
ENDMDL
