MODEL 1
REMARK minimizedAffinity -1.83724368
REMARK minimizedRMSD -1
REMARK  0 active torsions:
REMARK  status: ('A' for Active; 'I' for Inactive)
ROOT
ATOM      1  C1  DEN d   1       3.731   2.097  -5.246  0.00  0.00     0.130 A 
ATOM      2  C2  DEN d   1       5.130   2.255  -5.633  0.00  0.00    -0.031 A 
ATOM      3  C3  DEN d   1       5.345   3.670  -6.000  0.00  0.00     0.027 A 
ATOM      4  C4  DEN d   1       3.657   5.620  -5.999  0.00  0.00     0.027 A 
ATOM      5  C5  DEN d   1       2.348   5.971  -5.758  0.00  0.00    -0.003 A 
ATOM      6  C6  DEN d   1       1.407   5.056  -5.365  0.00  0.00     0.001 A 
ATOM      7  C7  DEN d   1       1.773   3.752  -5.158  0.00  0.00     0.017 A 
ATOM      8  C8  DEN d   1       3.090   3.390  -5.406  0.00  0.00    -0.094 A 
ATOM      9  C9  DEN d   1       4.029   4.332  -5.791  0.00  0.00    -0.072 A 
ENDROOT
TORSDOF 0
ENDMDL
