MODEL 1
REMARK minimizedAffinity -1.1151607
REMARK minimizedRMSD -1
REMARK  0 active torsions:
REMARK  status: ('A' for Active; 'I' for Inactive)
ROOT
ATOM      1  C1  DEN d   1       4.986   4.337  -5.982  0.00  0.00     0.130 A 
ATOM      2  C2  DEN d   1       5.154   2.930  -5.630  0.00  0.00    -0.031 A 
ATOM      3  C3  DEN d   1       3.831   2.393  -5.253  0.00  0.00     0.027 A 
ATOM      4  C4  DEN d   1       1.550   3.596  -5.187  0.00  0.00     0.027 A 
ATOM      5  C5  DEN d   1       0.909   4.798  -5.389  0.00  0.00    -0.003 A 
ATOM      6  C6  DEN d   1       1.581   5.929  -5.767  0.00  0.00     0.001 A 
ATOM      7  C7  DEN d   1       2.930   5.872  -5.999  0.00  0.00     0.017 A 
ATOM      8  C8  DEN d   1       3.585   4.666  -5.790  0.00  0.00    -0.094 A 
ATOM      9  C9  DEN d   1       2.885   3.530  -5.419  0.00  0.00    -0.072 A 
ENDROOT
TORSDOF 0
ENDMDL
