MODEL 1
REMARK minimizedAffinity 6.13106203
REMARK minimizedRMSD -1
REMARK  0 active torsions:
REMARK  status: ('A' for Active; 'I' for Inactive)
ROOT
ATOM      1  C1  DEN d   1       4.610  -0.668   2.583  0.00  0.00     0.130 A 
ATOM      2  C2  DEN d   1       5.996  -0.302   2.308  0.00  0.00    -0.031 A 
ATOM      3  C3  DEN d   1       5.989   0.890   1.437  0.00  0.00     0.027 A 
ATOM      4  C4  DEN d   1       3.977   2.201   0.496  0.00  0.00     0.027 A 
ATOM      5  C5  DEN d   1       2.602   2.262   0.445  0.00  0.00    -0.003 A 
ATOM      6  C6  DEN d   1       1.806   1.339   1.070  0.00  0.00     0.001 A 
ATOM      7  C7  DEN d   1       2.380   0.339   1.811  0.00  0.00     0.017 A 
ATOM      8  C8  DEN d   1       3.766   0.267   1.861  0.00  0.00    -0.094 A 
ATOM      9  C9  DEN d   1       4.552   1.217   1.233  0.00  0.00    -0.072 A 
ENDROOT
TORSDOF 0
ENDMDL
