MODEL 1
REMARK minimizedAffinity 2.21753383
REMARK minimizedRMSD -1
REMARK  0 active torsions:
REMARK  status: ('A' for Active; 'I' for Inactive)
ROOT
ATOM      1  C1  DEN d   1       4.074   2.998  -4.017  0.00  0.00     0.130 A 
ATOM      2  C2  DEN d   1       4.129   1.904  -4.983  0.00  0.00    -0.031 A 
ATOM      3  C3  DEN d   1       3.008   2.073  -5.929  0.00  0.00     0.027 A 
ATOM      4  C4  DEN d   1       1.203   3.915  -5.993  0.00  0.00     0.027 A 
ATOM      5  C5  DEN d   1       0.738   5.053  -5.371  0.00  0.00    -0.003 A 
ATOM      6  C6  DEN d   1       1.326   5.562  -4.244  0.00  0.00     0.001 A 
ATOM      7  C7  DEN d   1       2.442   4.957  -3.729  0.00  0.00     0.017 A 
ATOM      8  C8  DEN d   1       2.913   3.805  -4.346  0.00  0.00    -0.094 A 
ATOM      9  C9  DEN d   1       2.312   3.314  -5.492  0.00  0.00    -0.072 A 
ENDROOT
TORSDOF 0
ENDMDL
