MODEL 1
REMARK minimizedAffinity -2.61517382
REMARK minimizedRMSD -1
REMARK  0 active torsions:
REMARK  status: ('A' for Active; 'I' for Inactive)
ROOT
ATOM      1  C1  DEN d   1       2.433   5.848  -5.964  0.00  0.00     0.130 A 
ATOM      2  C2  DEN d   1       1.171   5.113  -5.986  0.00  0.00    -0.031 A 
ATOM      3  C3  DEN d   1       1.485   3.670  -5.999  0.00  0.00     0.027 A 
ATOM      4  C4  DEN d   1       3.788   2.509  -5.983  0.00  0.00     0.027 A 
ATOM      5  C5  DEN d   1       5.149   2.717  -5.977  0.00  0.00    -0.003 A 
ATOM      6  C6  DEN d   1       5.697   3.972  -6.000  0.00  0.00     0.001 A 
ATOM      7  C7  DEN d   1       4.878   5.070  -5.985  0.00  0.00     0.017 A 
ATOM      8  C8  DEN d   1       3.504   4.869  -5.998  0.00  0.00    -0.094 A 
ATOM      9  C9  DEN d   1       2.970   3.592  -5.963  0.00  0.00    -0.072 A 
ENDROOT
TORSDOF 0
ENDMDL
