MODEL 1
REMARK minimizedAffinity 0.102279648
REMARK minimizedRMSD -1
REMARK  0 active torsions:
REMARK  status: ('A' for Active; 'I' for Inactive)
ROOT
ATOM      1  C1  DEN d   1       4.580   1.859  -5.071  0.00  0.00     0.130 A 
ATOM      2  C2  DEN d   1       3.141   1.677  -4.898  0.00  0.00    -0.031 A 
ATOM      3  C3  DEN d   1       2.485   2.979  -5.135  0.00  0.00     0.027 A 
ATOM      4  C4  DEN d   1       3.550   5.245  -5.754  0.00  0.00     0.027 A 
ATOM      5  C5  DEN d   1       4.738   5.897  -6.000  0.00  0.00    -0.003 A 
ATOM      6  C6  DEN d   1       5.950   5.262  -5.921  0.00  0.00     0.001 A 
ATOM      7  C7  DEN d   1       5.997   3.924  -5.631  0.00  0.00     0.017 A 
ATOM      8  C8  DEN d   1       4.804   3.261  -5.375  0.00  0.00    -0.094 A 
ATOM      9  C9  DEN d   1       3.588   3.918  -5.472  0.00  0.00    -0.072 A 
ENDROOT
TORSDOF 0
ENDMDL
