MODEL 1
REMARK minimizedAffinity -1.85042679
REMARK minimizedRMSD -1
REMARK  0 active torsions:
REMARK  status: ('A' for Active; 'I' for Inactive)
ROOT
ATOM      1  C1  DEN d   1       4.607   5.929  -5.999  0.00  0.00     0.130 A 
ATOM      2  C2  DEN d   1       5.995   5.475  -5.999  0.00  0.00    -0.031 A 
ATOM      3  C3  DEN d   1       5.995   4.004  -5.867  0.00  0.00     0.027 A 
ATOM      4  C4  DEN d   1       3.991   2.393  -5.667  0.00  0.00     0.027 A 
ATOM      5  C5  DEN d   1       2.617   2.313  -5.608  0.00  0.00    -0.003 A 
ATOM      6  C6  DEN d   1       1.818   3.425  -5.640  0.00  0.00     0.001 A 
ATOM      7  C7  DEN d   1       2.385   4.664  -5.780  0.00  0.00     0.017 A 
ATOM      8  C8  DEN d   1       3.770   4.754  -5.833  0.00  0.00    -0.094 A 
ATOM      9  C9  DEN d   1       4.560   3.617  -5.811  0.00  0.00    -0.072 A 
ENDROOT
TORSDOF 0
ENDMDL
