MODEL 1
REMARK minimizedAffinity -2.7851789
REMARK minimizedRMSD -1
REMARK  0 active torsions:
REMARK  status: ('A' for Active; 'I' for Inactive)
ROOT
ATOM      1  C1  DEN d   1       2.761   6.000  -5.851  0.00  0.00     0.130 A 
ATOM      2  C2  DEN d   1       1.338   5.714  -5.683  0.00  0.00    -0.031 A 
ATOM      3  C3  DEN d   1       1.178   4.251  -5.567  0.00  0.00     0.027 A 
ATOM      4  C4  DEN d   1       2.984   2.410  -5.625  0.00  0.00     0.027 A 
ATOM      5  C5  DEN d   1       4.332   2.165  -5.760  0.00  0.00    -0.003 A 
ATOM      6  C6  DEN d   1       5.240   3.169  -5.967  0.00  0.00     0.001 A 
ATOM      7  C7  DEN d   1       4.816   4.471  -6.000  0.00  0.00     0.017 A 
ATOM      8  C8  DEN d   1       3.457   4.726  -5.872  0.00  0.00    -0.094 A 
ATOM      9  C9  DEN d   1       2.556   3.698  -5.651  0.00  0.00    -0.072 A 
ENDROOT
TORSDOF 0
ENDMDL
