MODEL 1
REMARK minimizedAffinity -0.138836116
REMARK minimizedRMSD -1
REMARK  0 active torsions:
REMARK  status: ('A' for Active; 'I' for Inactive)
ROOT
ATOM      1  C1  DEN d   1       1.881   5.579  -5.865  0.00  0.00     0.130 A 
ATOM      2  C2  DEN d   1       0.819   4.652  -5.484  0.00  0.00    -0.031 A 
ATOM      3  C3  DEN d   1       1.445   3.369  -5.108  0.00  0.00     0.027 A 
ATOM      4  C4  DEN d   1       3.945   2.733  -5.073  0.00  0.00     0.027 A 
ATOM      5  C5  DEN d   1       5.222   3.184  -5.324  0.00  0.00    -0.003 A 
ATOM      6  C6  DEN d   1       5.470   4.444  -5.801  0.00  0.00     0.001 A 
ATOM      7  C7  DEN d   1       4.429   5.312  -6.000  0.00  0.00     0.017 A 
ATOM      8  C8  DEN d   1       3.138   4.861  -5.756  0.00  0.00    -0.094 A 
ATOM      9  C9  DEN d   1       2.909   3.589  -5.262  0.00  0.00    -0.072 A 
ENDROOT
TORSDOF 0
ENDMDL
