MODEL 1
REMARK minimizedAffinity -4.38358593
REMARK minimizedRMSD -1
REMARK  3 active torsions:
REMARK  status: ('A' for Active; 'I' for Inactive)
REMARK    1  A    between atoms: C3'_2  and  C2'_3 
REMARK    2  A    between atoms: C2'_3  and  C1'_4 
REMARK    3  A    between atoms: C1'_4  and  C1_5 
ROOT
ATOM      1  C1  N4B d   1       1.158   1.910  -0.883  0.00  0.00    -0.075 A 
ATOM      2  C2  N4B d   1       1.060   2.132   0.509  0.00  0.00     0.002 A 
ATOM      3  C3  N4B d   1       1.065   3.413   1.001  0.00  0.00     0.002 A 
ATOM      4  C4  N4B d   1       1.187   4.484   0.128  0.00  0.00    -0.004 A 
ATOM      5  C5  N4B d   1       1.257   4.262  -1.216  0.00  0.00     0.002 A 
ATOM      6  C6  N4B d   1       1.248   2.979  -1.726  0.00  0.00     0.002 A 
ENDROOT
BRANCH   1   7
ATOM      7  C1' N4B d   1       1.243   0.524  -1.462  0.00  0.00     0.057 C 
BRANCH   7   8
ATOM      8  C2' N4B d   1       1.404  -0.484  -0.327  0.00  0.00     0.009 C 
BRANCH   8   9
ATOM      9  C3' N4B d   1       1.316  -1.917  -0.824  0.00  0.00     0.004 C 
ATOM     10  C4' N4B d   1       0.445  -2.778   0.042  0.00  0.00     0.003 C 
ENDBRANCH   8   9
ENDBRANCH   7   8
ENDBRANCH   1   7
TORSDOF 3
ENDMDL
