MODEL 1
REMARK minimizedAffinity -2.07881951
REMARK minimizedRMSD -1
REMARK  3 active torsions:
REMARK  status: ('A' for Active; 'I' for Inactive)
REMARK    1  A    between atoms: C3'_2  and  C2'_3 
REMARK    2  A    between atoms: C2'_3  and  C1'_4 
REMARK    3  A    between atoms: C1'_4  and  C1_5 
ROOT
ATOM      1  C1  N4B d   1       1.174   1.415  -1.124  0.00  0.00    -0.075 A 
ATOM      2  C2  N4B d   1       1.362   1.618   0.261  0.00  0.00     0.002 A 
ATOM      3  C3  N4B d   1       1.315   2.888   0.780  0.00  0.00     0.002 A 
ATOM      4  C4  N4B d   1       1.103   3.968  -0.064  0.00  0.00    -0.004 A 
ATOM      5  C5  N4B d   1       0.898   3.760  -1.397  0.00  0.00     0.002 A 
ATOM      6  C6  N4B d   1       0.938   2.489  -1.932  0.00  0.00     0.002 A 
ENDROOT
BRANCH   1   7
ATOM      7  C1' N4B d   1       1.302   0.053  -1.751  0.00  0.00     0.057 C 
BRANCH   7   8
ATOM      8  C2' N4B d   1       1.567  -0.978  -0.659  0.00  0.00     0.009 C 
BRANCH   8   9
ATOM      9  C3' N4B d   1       0.932  -2.321  -0.979  0.00  0.00     0.004 C 
ATOM     10  C4' N4B d   1       0.982  -3.277   0.175  0.00  0.00     0.003 C 
ENDBRANCH   8   9
ENDBRANCH   7   8
ENDBRANCH   1   7
TORSDOF 3
ENDMDL
