MODEL 1
REMARK minimizedAffinity -0.293810427
REMARK minimizedRMSD -1
REMARK  3 active torsions:
REMARK  status: ('A' for Active; 'I' for Inactive)
REMARK    1  A    between atoms: C3'_2  and  C2'_3 
REMARK    2  A    between atoms: C2'_3  and  C1'_4 
REMARK    3  A    between atoms: C1'_4  and  C1_5 
ROOT
ATOM      1  C1  N4B d   1       1.171   1.920   0.222  0.00  0.00    -0.075 A 
ATOM      2  C2  N4B d   1       1.560   0.572   0.383  0.00  0.00     0.002 A 
ATOM      3  C3  N4B d   1       1.536  -0.283  -0.692  0.00  0.00     0.002 A 
ATOM      4  C4  N4B d   1       1.111   0.181  -1.928  0.00  0.00    -0.004 A 
ATOM      5  C5  N4B d   1       0.762   1.491  -2.081  0.00  0.00     0.002 A 
ATOM      6  C6  N4B d   1       0.785   2.362  -1.010  0.00  0.00     0.002 A 
ENDROOT
BRANCH   1   7
ATOM      7  C1' N4B d   1       1.099   2.870   1.386  0.00  0.00     0.057 C 
BRANCH   7   8
ATOM      8  C2' N4B d   1       1.793   4.176   1.010  0.00  0.00     0.009 C 
BRANCH   8   9
ATOM      9  C3' N4B d   1       1.165   4.822  -0.214  0.00  0.00     0.004 C 
ATOM     10  C4' N4B d   1       1.946   6.000  -0.715  0.00  0.00     0.003 C 
ENDBRANCH   8   9
ENDBRANCH   7   8
ENDBRANCH   1   7
TORSDOF 3
ENDMDL
