MODEL 1
REMARK minimizedAffinity -0.853873014
REMARK minimizedRMSD -1
REMARK  3 active torsions:
REMARK  status: ('A' for Active; 'I' for Inactive)
REMARK    1  A    between atoms: C3'_2  and  C2'_3 
REMARK    2  A    between atoms: C2'_3  and  C1'_4 
REMARK    3  A    between atoms: C1'_4  and  C1_5 
ROOT
ATOM      1  C1  N4B d   1       1.647  -0.498  -1.087  0.00  0.00    -0.075 A 
ATOM      2  C2  N4B d   1       1.276   0.332  -0.006  0.00  0.00     0.002 A 
ATOM      3  C3  N4B d   1       1.072   1.675  -0.210  0.00  0.00     0.002 A 
ATOM      4  C4  N4B d   1       1.251   2.211  -1.476  0.00  0.00    -0.004 A 
ATOM      5  C5  N4B d   1       1.586   1.398  -2.520  0.00  0.00     0.002 A 
ATOM      6  C6  N4B d   1       1.790   0.046  -2.330  0.00  0.00     0.002 A 
ENDROOT
BRANCH   1   7
ATOM      7  C1' N4B d   1       1.965  -1.956  -0.896  0.00  0.00     0.057 C 
BRANCH   7   8
ATOM      8  C2' N4B d   1       0.703  -2.689  -0.449  0.00  0.00     0.009 C 
BRANCH   8   9
ATOM      9  C3' N4B d   1      -0.302  -2.829  -1.579  0.00  0.00     0.004 C 
ATOM     10  C4' N4B d   1      -1.017  -4.147  -1.560  0.00  0.00     0.003 C 
ENDBRANCH   8   9
ENDBRANCH   7   8
ENDBRANCH   1   7
TORSDOF 3
ENDMDL
