MODEL 1
REMARK minimizedAffinity 6.15667629
REMARK minimizedRMSD -1
REMARK  3 active torsions:
REMARK  status: ('A' for Active; 'I' for Inactive)
REMARK    1  A    between atoms: C3'_2  and  C2'_3 
REMARK    2  A    between atoms: C2'_3  and  C1'_4 
REMARK    3  A    between atoms: C1'_4  and  C1_5 
ROOT
ATOM      1  C1  N4B d   1       1.098   2.304  -0.853  0.00  0.00    -0.075 A 
ATOM      2  C2  N4B d   1       1.141   1.151  -1.667  0.00  0.00     0.002 A 
ATOM      3  C3  N4B d   1       1.472  -0.064  -1.120  0.00  0.00     0.002 A 
ATOM      4  C4  N4B d   1       1.781  -0.148   0.229  0.00  0.00    -0.004 A 
ATOM      5  C5  N4B d   1       1.711   0.966   1.014  0.00  0.00     0.002 A 
ATOM      6  C6  N4B d   1       1.376   2.193   0.479  0.00  0.00     0.002 A 
ENDROOT
BRANCH   1   7
ATOM      7  C1' N4B d   1       0.825   3.669  -1.423  0.00  0.00     0.057 C 
BRANCH   7   8
ATOM      8  C2' N4B d   1       1.179   4.726  -0.381  0.00  0.00     0.009 C 
BRANCH   8   9
ATOM      9  C3' N4B d   1       1.708   5.999  -1.020  0.00  0.00     0.004 C 
ATOM     10  C4' N4B d   1       3.199   5.995  -1.175  0.00  0.00     0.003 C 
ENDBRANCH   8   9
ENDBRANCH   7   8
ENDBRANCH   1   7
TORSDOF 3
ENDMDL
