MODEL 1
REMARK minimizedAffinity -0.518256068
REMARK minimizedRMSD -1
REMARK  3 active torsions:
REMARK  status: ('A' for Active; 'I' for Inactive)
REMARK    1  A    between atoms: C3'_2  and  C2'_3 
REMARK    2  A    between atoms: C2'_3  and  C1'_4 
REMARK    3  A    between atoms: C1'_4  and  C1_5 
ROOT
ATOM      1  C1  N4B d   1       2.650   2.015  -0.716  0.00  0.00    -0.075 A 
ATOM      2  C2  N4B d   1       2.335   1.500   0.561  0.00  0.00     0.002 A 
ATOM      3  C3  N4B d   1       3.328   1.322   1.494  0.00  0.00     0.002 A 
ATOM      4  C4  N4B d   1       4.639   1.633   1.167  0.00  0.00    -0.004 A 
ATOM      5  C5  N4B d   1       4.931   2.153  -0.060  0.00  0.00     0.002 A 
ATOM      6  C6  N4B d   1       3.943   2.341  -1.005  0.00  0.00     0.002 A 
ENDROOT
BRANCH   1   7
ATOM      7  C1' N4B d   1       1.612   2.146  -1.797  0.00  0.00     0.057 C 
BRANCH   7   8
ATOM      8  C2' N4B d   1       1.229   0.755  -2.295  0.00  0.00     0.009 C 
BRANCH   8   9
ATOM      9  C3' N4B d   1       1.146   0.698  -3.811  0.00  0.00     0.004 C 
ATOM     10  C4' N4B d   1       1.457  -0.663  -4.358  0.00  0.00     0.003 C 
ENDBRANCH   8   9
ENDBRANCH   7   8
ENDBRANCH   1   7
TORSDOF 3
ENDMDL
