MODEL 1
REMARK minimizedAffinity 0.263369769
REMARK minimizedRMSD -1
REMARK  3 active torsions:
REMARK  status: ('A' for Active; 'I' for Inactive)
REMARK    1  A    between atoms: C3'_2  and  C2'_3 
REMARK    2  A    between atoms: C2'_3  and  C1'_4 
REMARK    3  A    between atoms: C1'_4  and  C1_5 
ROOT
ATOM      1  C1  N4B d   1       1.214   2.186   0.290  0.00  0.00    -0.075 A 
ATOM      2  C2  N4B d   1       1.187   3.280  -0.603  0.00  0.00     0.002 A 
ATOM      3  C3  N4B d   1       1.125   3.059  -1.957  0.00  0.00     0.002 A 
ATOM      4  C4  N4B d   1       1.108   1.760  -2.440  0.00  0.00    -0.004 A 
ATOM      5  C5  N4B d   1       1.109   0.709  -1.571  0.00  0.00     0.002 A 
ATOM      6  C6  N4B d   1       1.167   0.915  -0.207  0.00  0.00     0.002 A 
ENDROOT
BRANCH   1   7
ATOM      7  C1' N4B d   1       1.369   2.375   1.774  0.00  0.00     0.057 C 
BRANCH   7   8
ATOM      8  C2' N4B d   1       1.847   1.068   2.399  0.00  0.00     0.009 C 
BRANCH   8   9
ATOM      9  C3' N4B d   1       0.966   0.637   3.559  0.00  0.00     0.004 C 
ATOM     10  C4' N4B d   1      -0.344   1.365   3.595  0.00  0.00     0.003 C 
ENDBRANCH   8   9
ENDBRANCH   7   8
ENDBRANCH   1   7
TORSDOF 3
ENDMDL
