MODEL 1
REMARK minimizedAffinity 0.56869173
REMARK minimizedRMSD -1
REMARK  3 active torsions:
REMARK  status: ('A' for Active; 'I' for Inactive)
REMARK    1  A    between atoms: C3'_2  and  C2'_3 
REMARK    2  A    between atoms: C2'_3  and  C1'_4 
REMARK    3  A    between atoms: C1'_4  and  C1_5 
ROOT
ATOM      1  C1  N4B d   1       1.146   2.158   0.284  0.00  0.00    -0.075 A 
ATOM      2  C2  N4B d   1       1.131   1.078   1.194  0.00  0.00     0.002 A 
ATOM      3  C3  N4B d   1       1.082  -0.213   0.727  0.00  0.00     0.002 A 
ATOM      4  C4  N4B d   1       1.029  -0.446  -0.639  0.00  0.00    -0.004 A 
ATOM      5  C5  N4B d   1       1.070   0.602  -1.512  0.00  0.00     0.002 A 
ATOM      6  C6  N4B d   1       1.123   1.904  -1.057  0.00  0.00     0.002 A 
ENDROOT
BRANCH   1   7
ATOM      7  C1' N4B d   1       1.112   3.588   0.749  0.00  0.00     0.057 C 
BRANCH   7   8
ATOM      8  C2' N4B d   1       1.073   4.509  -0.467  0.00  0.00     0.009 C 
BRANCH   8   9
ATOM      9  C3' N4B d   1       1.877   5.778  -0.245  0.00  0.00     0.004 C 
ATOM     10  C4' N4B d   1       2.917   6.000  -1.302  0.00  0.00     0.003 C 
ENDBRANCH   8   9
ENDBRANCH   7   8
ENDBRANCH   1   7
TORSDOF 3
ENDMDL
