MODEL 1
REMARK minimizedAffinity 6.74073601
REMARK minimizedRMSD -1
REMARK  3 active torsions:
REMARK  status: ('A' for Active; 'I' for Inactive)
REMARK    1  A    between atoms: C3'_2  and  C2'_3 
REMARK    2  A    between atoms: C2'_3  and  C1'_4 
REMARK    3  A    between atoms: C1'_4  and  C1_5 
ROOT
ATOM      1  C1  N4B d   1       1.654  -0.506  -0.362  0.00  0.00    -0.075 A 
ATOM      2  C2  N4B d   1       2.965  -0.890  -0.002  0.00  0.00     0.002 A 
ATOM      3  C3  N4B d   1       3.770  -0.018   0.690  0.00  0.00     0.002 A 
ATOM      4  C4  N4B d   1       3.294   1.244   1.014  0.00  0.00    -0.004 A 
ATOM      5  C5  N4B d   1       2.019   1.597   0.685  0.00  0.00     0.002 A 
ATOM      6  C6  N4B d   1       1.197   0.730  -0.007  0.00  0.00     0.002 A 
ENDROOT
BRANCH   1   7
ATOM      7  C1' N4B d   1       0.767  -1.393  -1.193  0.00  0.00     0.057 C 
BRANCH   7   8
ATOM      8  C2' N4B d   1       0.472  -2.674  -0.417  0.00  0.00     0.009 C 
BRANCH   8   9
ATOM      9  C3' N4B d   1      -0.657  -3.471  -1.046  0.00  0.00     0.004 C 
ATOM     10  C4' N4B d   1      -1.073  -2.934  -2.383  0.00  0.00     0.003 C 
ENDBRANCH   8   9
ENDBRANCH   7   8
ENDBRANCH   1   7
TORSDOF 3
ENDMDL
