MODEL 1
REMARK minimizedAffinity 5.91541338
REMARK minimizedRMSD -1
REMARK  3 active torsions:
REMARK  status: ('A' for Active; 'I' for Inactive)
REMARK    1  A    between atoms: C3'_2  and  C2'_3 
REMARK    2  A    between atoms: C2'_3  and  C1'_4 
REMARK    3  A    between atoms: C1'_4  and  C1_5 
ROOT
ATOM      1  C1  N4B d   1       0.719   2.146  -1.180  0.00  0.00    -0.075 A 
ATOM      2  C2  N4B d   1       0.918   0.955  -1.912  0.00  0.00     0.002 A 
ATOM      3  C3  N4B d   1       1.255  -0.205  -1.258  0.00  0.00     0.002 A 
ATOM      4  C4  N4B d   1       1.416  -0.193   0.120  0.00  0.00    -0.004 A 
ATOM      5  C5  N4B d   1       1.196   0.956   0.822  0.00  0.00     0.002 A 
ATOM      6  C6  N4B d   1       0.853   2.128   0.178  0.00  0.00     0.002 A 
ENDROOT
BRANCH   1   7
ATOM      7  C1' N4B d   1       0.433   3.457  -1.860  0.00  0.00     0.057 C 
BRANCH   7   8
ATOM      8  C2' N4B d   1      -0.118   3.188  -3.257  0.00  0.00     0.009 C 
BRANCH   8   9
ATOM      9  C3' N4B d   1      -1.436   3.906  -3.496  0.00  0.00     0.004 C 
ATOM     10  C4' N4B d   1      -2.488   3.010  -4.078  0.00  0.00     0.003 C 
ENDBRANCH   8   9
ENDBRANCH   7   8
ENDBRANCH   1   7
TORSDOF 3
ENDMDL
