MODEL 1
REMARK minimizedAffinity 2.39339828
REMARK minimizedRMSD -1
REMARK  3 active torsions:
REMARK  status: ('A' for Active; 'I' for Inactive)
REMARK    1  A    between atoms: C3'_2  and  C2'_3 
REMARK    2  A    between atoms: C2'_3  and  C1'_4 
REMARK    3  A    between atoms: C1'_4  and  C1_5 
ROOT
ATOM      1  C1  N4B d   1       1.088   1.208  -0.479  0.00  0.00    -0.075 A 
ATOM      2  C2  N4B d   1       0.990   2.379   0.306  0.00  0.00     0.002 A 
ATOM      3  C3  N4B d   1       1.054   3.613  -0.292  0.00  0.00     0.002 A 
ATOM      4  C4  N4B d   1       1.234   3.702  -1.664  0.00  0.00    -0.004 A 
ATOM      5  C5  N4B d   1       1.303   2.567  -2.418  0.00  0.00     0.002 A 
ATOM      6  C6  N4B d   1       1.236   1.320  -1.831  0.00  0.00     0.002 A 
ENDROOT
BRANCH   1   7
ATOM      7  C1' N4B d   1       1.110  -0.163   0.140  0.00  0.00     0.057 C 
BRANCH   7   8
ATOM      8  C2' N4B d   1       0.365  -1.135  -0.771  0.00  0.00     0.009 C 
BRANCH   8   9
ATOM      9  C3' N4B d   1       0.108  -2.468  -0.089  0.00  0.00     0.004 C 
ATOM     10  C4' N4B d   1      -0.782  -3.368  -0.892  0.00  0.00     0.003 C 
ENDBRANCH   8   9
ENDBRANCH   7   8
ENDBRANCH   1   7
TORSDOF 3
ENDMDL
