MODEL 1
REMARK minimizedAffinity -5.36786222
REMARK minimizedRMSD -1
REMARK  2 active torsions:
REMARK  status: ('A' for Active; 'I' for Inactive)
REMARK    1  A    between atoms: C2'_3  and  C1'_4 
REMARK    2  A    between atoms: C1'_4  and  C1_5 
ROOT
ATOM      1  C1  I4B d   1       0.251   1.193   1.054  0.00  0.00    -0.075 A 
ATOM      2  C2  I4B d   1      -0.333  -0.016   0.769  0.00  0.00     0.003 A 
ATOM      3  C3  I4B d   1      -1.614  -0.329   1.284  0.00  0.00     0.002 A 
ATOM      4  C4  I4B d   1      -2.250   0.570   2.116  0.00  0.00    -0.004 A 
ATOM      5  C5  I4B d   1      -1.667   1.805   2.386  0.00  0.00     0.002 A 
ATOM      6  C6  I4B d   1      -0.414   2.124   1.842  0.00  0.00     0.003 A 
ENDROOT
BRANCH   1   7
ATOM      7  C1' I4B d   1       1.619   1.477   0.521  0.00  0.00     0.060 C 
BRANCH   7   8
ATOM      8  C2' I4B d   1       2.149   0.204  -0.106  0.00  0.00    -0.013 C 
ATOM      9  C4' I4B d   1       2.634   0.448  -1.511  0.00  0.00     0.013 C 
ATOM     10  C3' I4B d   1       3.254  -0.316   0.765  0.00  0.00     0.013 C 
ENDBRANCH   7   8
ENDBRANCH   1   7
TORSDOF 2
ENDMDL
