MODEL 1
REMARK minimizedAffinity 3.16407251
REMARK minimizedRMSD -1
REMARK  2 active torsions:
REMARK  status: ('A' for Active; 'I' for Inactive)
REMARK    1  A    between atoms: C2'_3  and  C1'_4 
REMARK    2  A    between atoms: C1'_4  and  C1_5 
ROOT
ATOM      1  C1  I4B d   1      -3.402   1.488   2.914  0.00  0.00    -0.075 A 
ATOM      2  C2  I4B d   1      -2.591   2.498   2.460  0.00  0.00     0.003 A 
ATOM      3  C3  I4B d   1      -1.406   2.194   1.747  0.00  0.00     0.002 A 
ATOM      4  C4  I4B d   1      -1.047   0.875   1.555  0.00  0.00    -0.004 A 
ATOM      5  C5  I4B d   1      -1.883  -0.147   1.996  0.00  0.00     0.002 A 
ATOM      6  C6  I4B d   1      -3.074   0.161   2.669  0.00  0.00     0.003 A 
ENDROOT
BRANCH   1   7
ATOM      7  C1' I4B d   1      -4.629   1.844   3.692  0.00  0.00     0.060 C 
BRANCH   7   8
ATOM      8  C2' I4B d   1      -4.200   2.206   5.100  0.00  0.00    -0.013 C 
ATOM      9  C4' I4B d   1      -4.860   3.479   5.560  0.00  0.00     0.013 C 
ATOM     10  C3' I4B d   1      -4.549   1.059   6.000  0.00  0.00     0.013 C 
ENDBRANCH   7   8
ENDBRANCH   1   7
TORSDOF 2
ENDMDL
