MODEL 1
REMARK minimizedAffinity -1.12759554
REMARK minimizedRMSD -1
REMARK  2 active torsions:
REMARK  status: ('A' for Active; 'I' for Inactive)
REMARK    1  A    between atoms: C2'_3  and  C1'_4 
REMARK    2  A    between atoms: C1'_4  and  C1_5 
ROOT
ATOM      1  C1  I4B d   1      -1.667  -0.031   1.876  0.00  0.00    -0.075 A 
ATOM      2  C2  I4B d   1      -1.839   1.254   2.324  0.00  0.00     0.003 A 
ATOM      3  C3  I4B d   1      -0.876   2.249   2.026  0.00  0.00     0.002 A 
ATOM      4  C4  I4B d   1       0.261   1.904   1.325  0.00  0.00    -0.004 A 
ATOM      5  C5  I4B d   1       0.423   0.605   0.852  0.00  0.00     0.002 A 
ATOM      6  C6  I4B d   1      -0.552  -0.366   1.118  0.00  0.00     0.003 A 
ENDROOT
BRANCH   1   7
ATOM      7  C1' I4B d   1      -2.687  -1.064   2.238  0.00  0.00     0.060 C 
BRANCH   7   8
ATOM      8  C2' I4B d   1      -2.270  -1.692   3.552  0.00  0.00    -0.013 C 
ATOM      9  C4' I4B d   1      -3.286  -2.701   4.020  0.00  0.00     0.013 C 
ATOM     10  C3' I4B d   1      -0.926  -2.328   3.355  0.00  0.00     0.013 C 
ENDBRANCH   7   8
ENDBRANCH   1   7
TORSDOF 2
ENDMDL
