MODEL 1
REMARK minimizedAffinity -0.545835376
REMARK minimizedRMSD -1
REMARK  2 active torsions:
REMARK  status: ('A' for Active; 'I' for Inactive)
REMARK    1  A    between atoms: C2'_3  and  C1'_4 
REMARK    2  A    between atoms: C1'_4  and  C1_5 
ROOT
ATOM      1  C1  I4B d   1      -0.731   0.949   0.662  0.00  0.00    -0.075 A 
ATOM      2  C2  I4B d   1      -1.599   0.047   1.225  0.00  0.00     0.003 A 
ATOM      3  C3  I4B d   1      -1.128  -1.209   1.679  0.00  0.00     0.002 A 
ATOM      4  C4  I4B d   1       0.201  -1.539   1.504  0.00  0.00    -0.004 A 
ATOM      5  C5  I4B d   1       1.084  -0.615   0.953  0.00  0.00     0.002 A 
ATOM      6  C6  I4B d   1       0.618   0.641   0.540  0.00  0.00     0.003 A 
ENDROOT
BRANCH   1   7
ATOM      7  C1' I4B d   1      -1.269   2.252   0.164  0.00  0.00     0.060 C 
BRANCH   7   8
ATOM      8  C2' I4B d   1      -1.290   3.223   1.326  0.00  0.00    -0.013 C 
ATOM      9  C4' I4B d   1      -1.716   2.541   2.599  0.00  0.00     0.013 C 
ATOM     10  C3' I4B d   1       0.082   3.813   1.462  0.00  0.00     0.013 C 
ENDBRANCH   7   8
ENDBRANCH   1   7
TORSDOF 2
ENDMDL
