MODEL 1
REMARK minimizedAffinity -2.95266819
REMARK minimizedRMSD -1
REMARK  2 active torsions:
REMARK  status: ('A' for Active; 'I' for Inactive)
REMARK    1  A    between atoms: C2'_3  and  C1'_4 
REMARK    2  A    between atoms: C1'_4  and  C1_5 
ROOT
ATOM      1  C1  I4B d   1      -1.813   1.509   1.838  0.00  0.00    -0.075 A 
ATOM      2  C2  I4B d   1      -0.813   2.410   2.108  0.00  0.00     0.003 A 
ATOM      3  C3  I4B d   1       0.528   2.112   1.765  0.00  0.00     0.002 A 
ATOM      4  C4  I4B d   1       0.829   0.889   1.203  0.00  0.00    -0.004 A 
ATOM      5  C5  I4B d   1      -0.188  -0.015   0.909  0.00  0.00     0.002 A 
ATOM      6  C6  I4B d   1      -1.519   0.302   1.217  0.00  0.00     0.003 A 
ENDROOT
BRANCH   1   7
ATOM      7  C1' I4B d   1      -3.213   1.842   2.244  0.00  0.00     0.060 C 
BRANCH   7   8
ATOM      8  C2' I4B d   1      -3.477   1.193   3.588  0.00  0.00    -0.013 C 
ATOM      9  C4' I4B d   1      -4.731   1.738   4.219  0.00  0.00     0.013 C 
ATOM     10  C3' I4B d   1      -3.577  -0.288   3.375  0.00  0.00     0.013 C 
ENDBRANCH   7   8
ENDBRANCH   1   7
TORSDOF 2
ENDMDL
