MODEL 1
REMARK minimizedAffinity 2.12983847
REMARK minimizedRMSD -1
REMARK  2 active torsions:
REMARK  status: ('A' for Active; 'I' for Inactive)
REMARK    1  A    between atoms: C2'_3  and  C1'_4 
REMARK    2  A    between atoms: C1'_4  and  C1_5 
ROOT
ATOM      1  C1  I4B d   1      -1.727   1.535   2.879  0.00  0.00    -0.075 A 
ATOM      2  C2  I4B d   1      -1.272   2.394   1.910  0.00  0.00     0.003 A 
ATOM      3  C3  I4B d   1      -0.468   1.910   0.849  0.00  0.00     0.002 A 
ATOM      4  C4  I4B d   1      -0.104   0.579   0.825  0.00  0.00    -0.004 A 
ATOM      5  C5  I4B d   1      -0.585  -0.294   1.796  0.00  0.00     0.002 A 
ATOM      6  C6  I4B d   1      -1.412   0.184   2.823  0.00  0.00     0.003 A 
ENDROOT
BRANCH   1   7
ATOM      7  C1' I4B d   1      -2.547   2.086   4.002  0.00  0.00     0.060 C 
BRANCH   7   8
ATOM      8  C2' I4B d   1      -3.987   1.670   3.777  0.00  0.00    -0.013 C 
ATOM      9  C4' I4B d   1      -4.138   0.173   3.840  0.00  0.00     0.013 C 
ATOM     10  C3' I4B d   1      -4.831   2.343   4.818  0.00  0.00     0.013 C 
ENDBRANCH   7   8
ENDBRANCH   1   7
TORSDOF 2
ENDMDL
