MODEL 1
REMARK minimizedAffinity 1.86230123
REMARK minimizedRMSD -1
REMARK  2 active torsions:
REMARK  status: ('A' for Active; 'I' for Inactive)
REMARK    1  A    between atoms: C2'_3  and  C1'_4 
REMARK    2  A    between atoms: C1'_4  and  C1_5 
ROOT
ATOM      1  C1  I4B d   1      -1.417   0.479   1.961  0.00  0.00    -0.075 A 
ATOM      2  C2  I4B d   1      -0.875   1.479   1.192  0.00  0.00     0.003 A 
ATOM      3  C3  I4B d   1       0.414   1.323   0.625  0.00  0.00     0.002 A 
ATOM      4  C4  I4B d   1       1.140   0.181   0.893  0.00  0.00    -0.004 A 
ATOM      5  C5  I4B d   1       0.580  -0.841   1.654  0.00  0.00     0.002 A 
ATOM      6  C6  I4B d   1      -0.711  -0.697   2.182  0.00  0.00     0.003 A 
ENDROOT
BRANCH   1   7
ATOM      7  C1' I4B d   1      -2.766   0.690   2.571  0.00  0.00     0.060 C 
BRANCH   7   8
ATOM      8  C2' I4B d   1      -2.773   2.056   3.227  0.00  0.00    -0.013 C 
ATOM      9  C4' I4B d   1      -2.457   3.141   2.232  0.00  0.00     0.013 C 
ATOM     10  C3' I4B d   1      -4.123   2.265   3.846  0.00  0.00     0.013 C 
ENDBRANCH   7   8
ENDBRANCH   1   7
TORSDOF 2
ENDMDL
