MODEL 1
REMARK minimizedAffinity -4.07642365
REMARK minimizedRMSD -1
REMARK  2 active torsions:
REMARK  status: ('A' for Active; 'I' for Inactive)
REMARK    1  A    between atoms: C2'_3  and  C1'_4 
REMARK    2  A    between atoms: C1'_4  and  C1_5 
ROOT
ATOM      1  C1  I4B d   1      -1.358   0.855   1.985  0.00  0.00    -0.075 A 
ATOM      2  C2  I4B d   1      -0.961  -0.381   1.539  0.00  0.00     0.003 A 
ATOM      3  C3  I4B d   1       0.177  -0.507   0.707  0.00  0.00     0.002 A 
ATOM      4  C4  I4B d   1       0.855   0.627   0.306  0.00  0.00    -0.004 A 
ATOM      5  C5  I4B d   1       0.464   1.877   0.777  0.00  0.00     0.002 A 
ATOM      6  C6  I4B d   1      -0.642   1.991   1.632  0.00  0.00     0.003 A 
ENDROOT
BRANCH   1   7
ATOM      7  C1' I4B d   1      -2.585   0.955   2.836  0.00  0.00     0.060 C 
BRANCH   7   8
ATOM      8  C2' I4B d   1      -2.673   2.373   3.362  0.00  0.00    -0.013 C 
ATOM      9  C4' I4B d   1      -2.729   3.371   2.235  0.00  0.00     0.013 C 
ATOM     10  C3' I4B d   1      -3.892   2.469   4.231  0.00  0.00     0.013 C 
ENDBRANCH   7   8
ENDBRANCH   1   7
TORSDOF 2
ENDMDL
