MODEL 1
REMARK minimizedAffinity 0.651445091
REMARK minimizedRMSD -1
REMARK  2 active torsions:
REMARK  status: ('A' for Active; 'I' for Inactive)
REMARK    1  A    between atoms: C2'_3  and  C1'_4 
REMARK    2  A    between atoms: C1'_4  and  C1_5 
ROOT
ATOM      1  C1  I4B d   1      -2.107   1.790   2.545  0.00  0.00    -0.075 A 
ATOM      2  C2  I4B d   1      -2.233   0.459   2.235  0.00  0.00     0.003 A 
ATOM      3  C3  I4B d   1      -1.146  -0.245   1.663  0.00  0.00     0.002 A 
ATOM      4  C4  I4B d   1       0.023   0.429   1.373  0.00  0.00    -0.004 A 
ATOM      5  C5  I4B d   1       0.157   1.773   1.710  0.00  0.00     0.002 A 
ATOM      6  C6  I4B d   1      -0.911   2.455   2.311  0.00  0.00     0.003 A 
ENDROOT
BRANCH   1   7
ATOM      7  C1' I4B d   1      -3.287   2.511   3.118  0.00  0.00     0.060 C 
BRANCH   7   8
ATOM      8  C2' I4B d   1      -3.781   1.722   4.313  0.00  0.00    -0.013 C 
ATOM      9  C4' I4B d   1      -4.435   2.622   5.328  0.00  0.00     0.013 C 
ATOM     10  C3' I4B d   1      -4.738   0.680   3.817  0.00  0.00     0.013 C 
ENDBRANCH   7   8
ENDBRANCH   1   7
TORSDOF 2
ENDMDL
