MODEL 1
REMARK minimizedAffinity 8.67834377
REMARK minimizedRMSD -1
REMARK  2 active torsions:
REMARK  status: ('A' for Active; 'I' for Inactive)
REMARK    1  A    between atoms: C2'_3  and  C1'_4 
REMARK    2  A    between atoms: C1'_4  and  C1_5 
ROOT
ATOM      1  C1  I4B d   1       0.553   2.838   0.744  0.00  0.00    -0.075 A 
ATOM      2  C2  I4B d   1       0.416   1.502   1.030  0.00  0.00     0.003 A 
ATOM      3  C3  I4B d   1      -0.698   1.042   1.774  0.00  0.00     0.002 A 
ATOM      4  C4  I4B d   1      -1.617   1.953   2.253  0.00  0.00    -0.004 A 
ATOM      5  C5  I4B d   1      -1.490   3.304   1.943  0.00  0.00     0.002 A 
ATOM      6  C6  I4B d   1      -0.405   3.748   1.174  0.00  0.00     0.003 A 
ENDROOT
BRANCH   1   7
ATOM      7  C1' I4B d   1       1.758   3.293  -0.015  0.00  0.00     0.060 C 
BRANCH   7   8
ATOM      8  C2' I4B d   1       2.473   4.333   0.823  0.00  0.00    -0.013 C 
ATOM      9  C4' I4B d   1       3.879   3.900   1.147  0.00  0.00     0.013 C 
ATOM     10  C3' I4B d   1       2.466   5.625   0.063  0.00  0.00     0.013 C 
ENDBRANCH   7   8
ENDBRANCH   1   7
TORSDOF 2
ENDMDL
