MODEL 1
REMARK minimizedAffinity 3.64165115
REMARK minimizedRMSD -1
REMARK  2 active torsions:
REMARK  status: ('A' for Active; 'I' for Inactive)
REMARK    1  A    between atoms: C2'_3  and  C1'_4 
REMARK    2  A    between atoms: C1'_4  and  C1_5 
ROOT
ATOM      1  C1  I4B d   1      -1.034   0.640   2.256  0.00  0.00    -0.075 A 
ATOM      2  C2  I4B d   1       0.116   1.344   2.516  0.00  0.00     0.003 A 
ATOM      3  C3  I4B d   1       1.220   1.258   1.633  0.00  0.00     0.002 A 
ATOM      4  C4  I4B d   1       1.150   0.423   0.537  0.00  0.00    -0.004 A 
ATOM      5  C5  I4B d   1      -0.024  -0.273   0.263  0.00  0.00     0.002 A 
ATOM      6  C6  I4B d   1      -1.127  -0.154   1.120  0.00  0.00     0.003 A 
ENDROOT
BRANCH   1   7
ATOM      7  C1' I4B d   1      -2.168   0.729   3.226  0.00  0.00     0.060 C 
BRANCH   7   8
ATOM      8  C2' I4B d   1      -2.271   2.166   3.694  0.00  0.00    -0.013 C 
ATOM      9  C4' I4B d   1      -2.079   3.127   2.550  0.00  0.00     0.013 C 
ATOM     10  C3' I4B d   1      -3.615   2.349   4.335  0.00  0.00     0.013 C 
ENDBRANCH   7   8
ENDBRANCH   1   7
TORSDOF 2
ENDMDL
