MODEL 1
REMARK minimizedAffinity 7.70786524
REMARK minimizedRMSD -1
REMARK  1 active torsions:
REMARK  status: ('A' for Active; 'I' for Inactive)
REMARK    1  A    between atoms: C1_2  and  C2_3 
ROOT
ATOM      1  C2  UNL d   1      -2.241  -3.764  -4.633  0.00  0.00    -0.077 A 
ATOM      2  C3  UNL d   1      -0.843  -3.815  -4.539  0.00  0.00     0.002 A 
ATOM      3  C4  UNL d   1      -0.229  -4.245  -3.361  0.00  0.00     0.002 A 
ATOM      4  C5  UNL d   1      -1.005  -4.632  -2.270  0.00  0.00    -0.004 A 
ATOM      5  C6  UNL d   1      -2.396  -4.583  -2.352  0.00  0.00     0.002 A 
ATOM      6  C7  UNL d   1      -3.011  -4.152  -3.529  0.00  0.00     0.002 A 
ENDROOT
BRANCH   1   7
ATOM      7  C1  UNL d   1      -2.906  -3.348  -5.919  0.00  0.00     0.055 C 
ATOM      8  C   UNL d   1      -4.334  -3.867  -5.997  0.00  0.00     0.019 C 
ENDBRANCH   1   7
TORSDOF 1
ENDMDL
