MODEL 1
REMARK minimizedAffinity 5.598948
REMARK minimizedRMSD -1
REMARK  1 active torsions:
REMARK  status: ('A' for Active; 'I' for Inactive)
REMARK    1  A    between atoms: C1_2  and  C2_3 
ROOT
ATOM      1  C2  UNL d   1       2.139  -0.008  -3.204  0.00  0.00    -0.077 A 
ATOM      2  C3  UNL d   1       1.332  -0.888  -2.469  0.00  0.00     0.002 A 
ATOM      3  C4  UNL d   1       1.209  -0.745  -1.086  0.00  0.00     0.002 A 
ATOM      4  C5  UNL d   1       1.886   0.278  -0.426  0.00  0.00    -0.004 A 
ATOM      5  C6  UNL d   1       2.693   1.157  -1.147  0.00  0.00     0.002 A 
ATOM      6  C7  UNL d   1       2.818   1.015  -2.530  0.00  0.00     0.002 A 
ENDROOT
BRANCH   1   7
ATOM      7  C1  UNL d   1       2.235  -0.129  -4.702  0.00  0.00     0.055 C 
ATOM      8  C   UNL d   1       3.294  -1.143  -5.109  0.00  0.00     0.019 C 
ENDBRANCH   1   7
TORSDOF 1
ENDMDL
