MODEL 1
REMARK minimizedAffinity 8.95041943
REMARK minimizedRMSD -1
REMARK  1 active torsions:
REMARK  status: ('A' for Active; 'I' for Inactive)
REMARK    1  A    between atoms: C1_2  and  C2_3 
ROOT
ATOM      1  C2  UNL d   1      -1.001   1.481   2.863  0.00  0.00    -0.077 A 
ATOM      2  C3  UNL d   1       0.037   0.664   2.394  0.00  0.00     0.002 A 
ATOM      3  C4  UNL d   1       1.264   0.628   3.060  0.00  0.00     0.002 A 
ATOM      4  C5  UNL d   1       1.462   1.403   4.200  0.00  0.00    -0.004 A 
ATOM      5  C6  UNL d   1       0.437   2.221   4.674  0.00  0.00     0.002 A 
ATOM      6  C7  UNL d   1      -0.789   2.259   4.009  0.00  0.00     0.002 A 
ENDROOT
BRANCH   1   7
ATOM      7  C1  UNL d   1      -2.341   1.484   2.175  0.00  0.00     0.055 C 
ATOM      8  C   UNL d   1      -3.429   0.926   3.081  0.00  0.00     0.019 C 
ENDBRANCH   1   7
TORSDOF 1
ENDMDL
