MODEL 1
REMARK minimizedAffinity 12.6128941
REMARK minimizedRMSD -1
REMARK  1 active torsions:
REMARK  status: ('A' for Active; 'I' for Inactive)
REMARK    1  A    between atoms: C1_2  and  C2_3 
ROOT
ATOM      1  C2  UNL d   1      -2.582  -3.881  -3.852  0.00  0.00    -0.077 A 
ATOM      2  C3  UNL d   1      -2.813  -2.498  -3.863  0.00  0.00     0.002 A 
ATOM      3  C4  UNL d   1      -3.481  -1.901  -4.934  0.00  0.00     0.002 A 
ATOM      4  C5  UNL d   1      -3.927  -2.680  -6.000  0.00  0.00    -0.004 A 
ATOM      5  C6  UNL d   1      -3.700  -4.056  -6.000  0.00  0.00     0.002 A 
ATOM      6  C7  UNL d   1      -3.032  -4.653  -4.931  0.00  0.00     0.002 A 
ENDROOT
BRANCH   1   7
ATOM      7  C1  UNL d   1      -1.906  -4.533  -2.675  0.00  0.00     0.055 C 
ATOM      8  C   UNL d   1      -0.472  -4.923  -3.006  0.00  0.00     0.019 C 
ENDBRANCH   1   7
TORSDOF 1
ENDMDL
