MODEL 1
REMARK minimizedAffinity 0.935800135
REMARK minimizedRMSD -1
REMARK  1 active torsions:
REMARK  status: ('A' for Active; 'I' for Inactive)
REMARK    1  A    between atoms: C1_2  and  C2_3 
ROOT
ATOM      1  C2  UNL d   1      -1.872  -4.004  -4.525  0.00  0.00    -0.077 A 
ATOM      2  C3  UNL d   1      -0.483  -4.036  -4.342  0.00  0.00     0.002 A 
ATOM      3  C4  UNL d   1       0.069  -4.694  -3.241  0.00  0.00     0.002 A 
ATOM      4  C5  UNL d   1      -0.760  -5.329  -2.319  0.00  0.00    -0.004 A 
ATOM      5  C6  UNL d   1      -2.143  -5.301  -2.491  0.00  0.00     0.002 A 
ATOM      6  C7  UNL d   1      -2.697  -4.642  -3.590  0.00  0.00     0.002 A 
ENDROOT
BRANCH   1   7
ATOM      7  C1  UNL d   1      -2.467  -3.337  -5.738  0.00  0.00     0.055 C 
ATOM      8  C   UNL d   1      -3.947  -3.044  -5.539  0.00  0.00     0.019 C 
ENDBRANCH   1   7
TORSDOF 1
ENDMDL
