MODEL 1
REMARK minimizedAffinity 4.22911024
REMARK minimizedRMSD -1
REMARK  1 active torsions:
REMARK  status: ('A' for Active; 'I' for Inactive)
REMARK    1  A    between atoms: C1_2  and  C2_3 
ROOT
ATOM      1  C2  UNL d   1       0.769  -3.635  -2.241  0.00  0.00    -0.077 A 
ATOM      2  C3  UNL d   1       0.693  -2.273  -2.562  0.00  0.00     0.002 A 
ATOM      3  C4  UNL d   1       1.605  -1.366  -2.020  0.00  0.00     0.002 A 
ATOM      4  C5  UNL d   1       2.604  -1.813  -1.156  0.00  0.00    -0.004 A 
ATOM      5  C6  UNL d   1       2.687  -3.166  -0.829  0.00  0.00     0.002 A 
ATOM      6  C7  UNL d   1       1.775  -4.073  -1.370  0.00  0.00     0.002 A 
ENDROOT
BRANCH   1   7
ATOM      7  C1  UNL d   1      -0.184  -4.621  -2.864  0.00  0.00     0.055 C 
ATOM      8  C   UNL d   1      -1.612  -4.095  -2.852  0.00  0.00     0.019 C 
ENDBRANCH   1   7
TORSDOF 1
ENDMDL
