MODEL 1
REMARK minimizedAffinity 8.03727531
REMARK minimizedRMSD -1
REMARK  1 active torsions:
REMARK  status: ('A' for Active; 'I' for Inactive)
REMARK    1  A    between atoms: C1_2  and  C2_3 
ROOT
ATOM      1  C2  UNL d   1       1.245  -3.139  -2.279  0.00  0.00    -0.077 A 
ATOM      2  C3  UNL d   1       1.195  -1.878  -2.890  0.00  0.00     0.002 A 
ATOM      3  C4  UNL d   1       1.907  -0.804  -2.353  0.00  0.00     0.002 A 
ATOM      4  C5  UNL d   1       2.677  -0.980  -1.206  0.00  0.00    -0.004 A 
ATOM      5  C6  UNL d   1       2.732  -2.230  -0.589  0.00  0.00     0.002 A 
ATOM      6  C7  UNL d   1       2.020  -3.304  -1.123  0.00  0.00     0.002 A 
ENDROOT
BRANCH   1   7
ATOM      7  C1  UNL d   1       0.517  -4.311  -2.884  0.00  0.00     0.055 C 
ATOM      8  C   UNL d   1      -0.963  -4.284  -2.533  0.00  0.00     0.019 C 
ENDBRANCH   1   7
TORSDOF 1
ENDMDL
