MODEL 1
REMARK minimizedAffinity 11.6802902
REMARK minimizedRMSD -1
REMARK  1 active torsions:
REMARK  status: ('A' for Active; 'I' for Inactive)
REMARK    1  A    between atoms: C1_2  and  C2_3 
ROOT
ATOM      1  C2  UNL d   1      -3.587   1.524   3.751  0.00  0.00    -0.077 A 
ATOM      2  C3  UNL d   1      -4.841   2.106   3.516  0.00  0.00     0.002 A 
ATOM      3  C4  UNL d   1      -5.475   2.845   4.517  0.00  0.00     0.002 A 
ATOM      4  C5  UNL d   1      -4.861   3.013   5.756  0.00  0.00    -0.004 A 
ATOM      5  C6  UNL d   1      -3.615   2.437   6.000  0.00  0.00     0.002 A 
ATOM      6  C7  UNL d   1      -2.981   1.696   5.002  0.00  0.00     0.002 A 
ENDROOT
BRANCH   1   7
ATOM      7  C1  UNL d   1      -2.880   0.767   2.657  0.00  0.00     0.055 C 
ATOM      8  C   UNL d   1      -1.396   1.102   2.623  0.00  0.00     0.019 C 
ENDBRANCH   1   7
TORSDOF 1
ENDMDL
