MODEL 1
REMARK minimizedAffinity 9.41990471
REMARK minimizedRMSD -1
REMARK  1 active torsions:
REMARK  status: ('A' for Active; 'I' for Inactive)
REMARK    1  A    between atoms: C1_2  and  C2_3 
ROOT
ATOM      1  C2  UNL d   1       3.160   0.282  -0.788  0.00  0.00    -0.077 A 
ATOM      2  C3  UNL d   1       2.732   0.823  -2.009  0.00  0.00     0.002 A 
ATOM      3  C4  UNL d   1       2.086   0.018  -2.950  0.00  0.00     0.002 A 
ATOM      4  C5  UNL d   1       1.860  -1.329  -2.679  0.00  0.00    -0.004 A 
ATOM      5  C6  UNL d   1       2.284  -1.877  -1.469  0.00  0.00     0.002 A 
ATOM      6  C7  UNL d   1       2.931  -1.075  -0.527  0.00  0.00     0.002 A 
ENDROOT
BRANCH   1   7
ATOM      7  C1  UNL d   1       3.813   1.159   0.248  0.00  0.00     0.055 C 
ATOM      8  C   UNL d   1       5.212   1.576  -0.180  0.00  0.00     0.019 C 
ENDBRANCH   1   7
TORSDOF 1
ENDMDL
