MODEL 1
REMARK minimizedAffinity 15.4211035
REMARK minimizedRMSD -1
REMARK  1 active torsions:
REMARK  status: ('A' for Active; 'I' for Inactive)
REMARK    1  A    between atoms: C1_2  and  C2_3 
ROOT
ATOM      1  C2  UNL d   1       1.093   1.489   3.276  0.00  0.00    -0.077 A 
ATOM      2  C3  UNL d   1       0.038   0.590   3.485  0.00  0.00     0.002 A 
ATOM      3  C4  UNL d   1      -0.306   0.194   4.779  0.00  0.00     0.002 A 
ATOM      4  C5  UNL d   1       0.397   0.694   5.873  0.00  0.00    -0.004 A 
ATOM      5  C6  UNL d   1       1.450   1.586   5.675  0.00  0.00     0.002 A 
ATOM      6  C7  UNL d   1       1.796   1.983   4.382  0.00  0.00     0.002 A 
ENDROOT
BRANCH   1   7
ATOM      7  C1  UNL d   1       1.434   1.955   1.885  0.00  0.00     0.055 C 
ATOM      8  C   UNL d   1       2.925   1.828   1.608  0.00  0.00     0.019 C 
ENDBRANCH   1   7
TORSDOF 1
ENDMDL
