MODEL 1
REMARK minimizedAffinity 9.80375385
REMARK minimizedRMSD -1
REMARK  1 active torsions:
REMARK  status: ('A' for Active; 'I' for Inactive)
REMARK    1  A    between atoms: C1_2  and  C2_3 
ROOT
ATOM      1  C2  UNL d   1      -1.754  -3.254  -2.763  0.00  0.00    -0.077 A 
ATOM      2  C3  UNL d   1      -2.939  -3.338  -3.507  0.00  0.00     0.002 A 
ATOM      3  C4  UNL d   1      -3.759  -4.463  -3.403  0.00  0.00     0.002 A 
ATOM      4  C5  UNL d   1      -3.405  -5.510  -2.555  0.00  0.00    -0.004 A 
ATOM      5  C6  UNL d   1      -2.227  -5.436  -1.813  0.00  0.00     0.002 A 
ATOM      6  C7  UNL d   1      -1.406  -4.313  -1.915  0.00  0.00     0.002 A 
ENDROOT
BRANCH   1   7
ATOM      7  C1  UNL d   1      -0.893  -2.019  -2.836  0.00  0.00     0.055 C 
ATOM      8  C   UNL d   1      -1.720  -0.756  -2.648  0.00  0.00     0.019 C 
ENDBRANCH   1   7
TORSDOF 1
ENDMDL
