MODEL 1
REMARK minimizedAffinity 4.34155273
REMARK minimizedRMSD -1
REMARK  1 active torsions:
REMARK  status: ('A' for Active; 'I' for Inactive)
REMARK    1  A    between atoms: C1_2  and  C2_3 
ROOT
ATOM      1  C2  UNL d   1       2.741   0.427  -1.551  0.00  0.00    -0.077 A 
ATOM      2  C3  UNL d   1       2.802  -0.671  -0.682  0.00  0.00     0.002 A 
ATOM      3  C4  UNL d   1       2.410  -1.938  -1.117  0.00  0.00     0.002 A 
ATOM      4  C5  UNL d   1       1.957  -2.119  -2.423  0.00  0.00    -0.004 A 
ATOM      5  C6  UNL d   1       1.890  -1.032  -3.293  0.00  0.00     0.002 A 
ATOM      6  C7  UNL d   1       2.281   0.235  -2.860  0.00  0.00     0.002 A 
ENDROOT
BRANCH   1   7
ATOM      7  C1  UNL d   1       3.211   1.785  -1.098  0.00  0.00     0.055 C 
ATOM      8  C   UNL d   1       4.388   1.673  -0.140  0.00  0.00     0.019 C 
ENDBRANCH   1   7
TORSDOF 1
ENDMDL
