MODEL 1
REMARK minimizedAffinity 15.7348757
REMARK minimizedRMSD -1
REMARK  1 active torsions:
REMARK  status: ('A' for Active; 'I' for Inactive)
REMARK    1  A    between atoms: C1_2  and  C2_3 
ROOT
ATOM      1  C2  UNL d   1      -2.062   1.144   3.490  0.00  0.00    -0.077 A 
ATOM      2  C3  UNL d   1      -1.402   1.042   2.258  0.00  0.00     0.002 A 
ATOM      3  C4  UNL d   1      -0.008   0.979   2.206  0.00  0.00     0.002 A 
ATOM      4  C5  UNL d   1       0.736   1.013   3.384  0.00  0.00    -0.004 A 
ATOM      5  C6  UNL d   1       0.089   1.116   4.614  0.00  0.00     0.002 A 
ATOM      6  C7  UNL d   1      -1.304   1.181   4.668  0.00  0.00     0.002 A 
ENDROOT
BRANCH   1   7
ATOM      7  C1  UNL d   1      -3.567   1.163   3.551  0.00  0.00     0.055 C 
ATOM      8  C   UNL d   1      -4.065   2.039   4.692  0.00  0.00     0.019 C 
ENDBRANCH   1   7
TORSDOF 1
ENDMDL
