MODEL 1
REMARK minimizedAffinity -3.6002419
REMARK minimizedRMSD -1
REMARK  1 active torsions:
REMARK  status: ('A' for Active; 'I' for Inactive)
REMARK    1  A    between atoms: C1_2  and  C2_3 
ROOT
ATOM      1  C2  UNL d   1       2.530  -2.951  -1.579  0.00  0.00    -0.077 A 
ATOM      2  C3  UNL d   1       2.889  -3.568  -2.786  0.00  0.00     0.002 A 
ATOM      3  C4  UNL d   1       2.820  -2.861  -3.988  0.00  0.00     0.002 A 
ATOM      4  C5  UNL d   1       2.397  -1.534  -3.994  0.00  0.00    -0.004 A 
ATOM      5  C6  UNL d   1       2.036  -0.912  -2.799  0.00  0.00     0.002 A 
ATOM      6  C7  UNL d   1       2.103  -1.617  -1.597  0.00  0.00     0.002 A 
ENDROOT
BRANCH   1   7
ATOM      7  C1  UNL d   1       2.651  -3.697  -0.275  0.00  0.00     0.055 C 
ATOM      8  C   UNL d   1       3.028  -5.153  -0.503  0.00  0.00     0.019 C 
ENDBRANCH   1   7
TORSDOF 1
ENDMDL
