MODEL 1
REMARK minimizedAffinity 10.9596949
REMARK minimizedRMSD -1
REMARK  1 active torsions:
REMARK  status: ('A' for Active; 'I' for Inactive)
REMARK    1  A    between atoms: C1_2  and  C2_3 
ROOT
ATOM      1  C2  UNL d   1       0.327   1.167   3.755  0.00  0.00    -0.077 A 
ATOM      2  C3  UNL d   1      -0.669   2.131   3.547  0.00  0.00     0.002 A 
ATOM      3  C4  UNL d   1      -1.851   1.794   2.885  0.00  0.00     0.002 A 
ATOM      4  C5  UNL d   1      -2.050   0.493   2.429  0.00  0.00    -0.004 A 
ATOM      5  C6  UNL d   1      -1.064  -0.473   2.629  0.00  0.00     0.002 A 
ATOM      6  C7  UNL d   1       0.118  -0.138   3.290  0.00  0.00     0.002 A 
ENDROOT
BRANCH   1   7
ATOM      7  C1  UNL d   1       1.582   1.515   4.512  0.00  0.00     0.055 C 
ATOM      8  C   UNL d   1       1.438   1.205   5.995  0.00  0.00     0.019 C 
ENDBRANCH   1   7
TORSDOF 1
ENDMDL
