MODEL 1
REMARK minimizedAffinity 5.78379393
REMARK minimizedRMSD -1
REMARK  0 active torsions:
REMARK  status: ('A' for Active; 'I' for Inactive)
ROOT
ATOM      1  C   UNL d   1      -0.372   1.063   3.394  0.00  0.00     0.078 C 
ATOM      2  C1  UNL d   1      -0.151   1.768   2.089  0.00  0.00    -0.077 A 
ATOM      3  C2  UNL d   1       0.746   1.263   1.139  0.00  0.00    -0.001 A 
ATOM      4  C3  UNL d   1       0.949   1.935  -0.067  0.00  0.00     0.003 A 
ATOM      5  C4  UNL d   1       0.260   3.117  -0.335  0.00  0.00    -0.005 A 
ATOM      6  C5  UNL d   1      -0.633   3.628   0.605  0.00  0.00     0.003 A 
ATOM      7  C6  UNL d   1      -0.837   2.957   1.812  0.00  0.00    -0.001 A 
ENDROOT
TORSDOF 0
ENDMDL
