MODEL 1
REMARK minimizedAffinity 0.60978353
REMARK minimizedRMSD -1
REMARK  0 active torsions:
REMARK  status: ('A' for Active; 'I' for Inactive)
ROOT
ATOM      1  C   UNL d   1      -0.668   0.561  -1.536  0.00  0.00     0.078 C 
ATOM      2  C1  UNL d   1       0.650   0.380  -0.845  0.00  0.00    -0.077 A 
ATOM      3  C2  UNL d   1       1.170   1.379  -0.013  0.00  0.00    -0.001 A 
ATOM      4  C3  UNL d   1       2.403   1.201   0.617  0.00  0.00     0.003 A 
ATOM      5  C4  UNL d   1       3.127   0.027   0.420  0.00  0.00    -0.005 A 
ATOM      6  C5  UNL d   1       2.618  -0.971  -0.408  0.00  0.00     0.003 A 
ATOM      7  C6  UNL d   1       1.385  -0.796  -1.038  0.00  0.00    -0.001 A 
ENDROOT
TORSDOF 0
ENDMDL
