MODEL 1
REMARK minimizedAffinity 0.723234892
REMARK minimizedRMSD -1
REMARK  0 active torsions:
REMARK  status: ('A' for Active; 'I' for Inactive)
ROOT
ATOM      1  C   UNL d   1       2.544  -1.078  -0.313  0.00  0.00     0.078 C 
ATOM      2  C1  UNL d   1       1.375  -0.274  -0.799  0.00  0.00    -0.077 A 
ATOM      3  C2  UNL d   1       0.619  -0.694  -1.900  0.00  0.00    -0.001 A 
ATOM      4  C3  UNL d   1      -0.460   0.069  -2.348  0.00  0.00     0.003 A 
ATOM      5  C4  UNL d   1      -0.793   1.257  -1.701  0.00  0.00    -0.005 A 
ATOM      6  C5  UNL d   1      -0.046   1.684  -0.605  0.00  0.00     0.003 A 
ATOM      7  C6  UNL d   1       1.034   0.923  -0.156  0.00  0.00    -0.001 A 
ENDROOT
TORSDOF 0
ENDMDL
