MODEL 1
REMARK minimizedAffinity -5.79710913
REMARK minimizedRMSD -1
REMARK  0 active torsions:
REMARK  status: ('A' for Active; 'I' for Inactive)
ROOT
ATOM      1  C   UNL d   1       3.286  -1.454   1.049  0.00  0.00     0.078 C 
ATOM      2  C1  UNL d   1       1.973  -1.091   0.421  0.00  0.00    -0.077 A 
ATOM      3  C2  UNL d   1       1.188  -0.054   0.939  0.00  0.00    -0.001 A 
ATOM      4  C3  UNL d   1      -0.036   0.267   0.350  0.00  0.00     0.003 A 
ATOM      5  C4  UNL d   1      -0.486  -0.445  -0.760  0.00  0.00    -0.005 A 
ATOM      6  C5  UNL d   1       0.288  -1.479  -1.282  0.00  0.00     0.003 A 
ATOM      7  C6  UNL d   1       1.512  -1.802  -0.694  0.00  0.00    -0.001 A 
ENDROOT
TORSDOF 0
ENDMDL
