MODEL 1
REMARK minimizedAffinity -1.20383251
REMARK minimizedRMSD -1
REMARK  1 active torsions:
REMARK  status: ('A' for Active; 'I' for Inactive)
REMARK    1  A    between atoms: N_2  and  C1_3 
ROOT
ATOM      1  C1  UNL d   1      -0.799   0.070   0.697  0.00  0.00     0.143 A 
ATOM      2  C2  UNL d   1      -1.409  -0.313  -0.502  0.00  0.00    -0.057 A 
ATOM      3  C3  UNL d   1      -0.662  -0.845  -1.560  0.00  0.00     0.033 A 
ATOM      4  C4  UNL d   1       0.718  -0.977  -1.446  0.00  0.00    -0.042 A 
ATOM      5  C5  UNL d   1       1.349  -0.580  -0.273  0.00  0.00     0.033 A 
ATOM      6  C6  UNL d   1       0.596  -0.055   0.782  0.00  0.00    -0.057 A 
ENDROOT
BRANCH   1   7
ATOM      7  N   UNL d   1      -1.474   0.697   1.748  0.00  0.00    -0.732 N 
ATOM      8  C   UNL d   1      -2.920   0.709   1.792  0.00  0.00     0.284 C 
ATOM      9  H3  UNL d   1      -1.032   0.527   2.649  0.00  0.00     0.395 HD
ENDBRANCH   1   7
TORSDOF 1
ENDMDL
