MODEL 1
REMARK minimizedAffinity -2.00377631
REMARK minimizedRMSD -1
REMARK  1 active torsions:
REMARK  status: ('A' for Active; 'I' for Inactive)
REMARK    1  A    between atoms: N_2  and  C1_3 
ROOT
ATOM      1  C1  UNL d   1      -1.440   0.542   0.210  0.00  0.00     0.143 A 
ATOM      2  C2  UNL d   1      -2.522   0.523  -0.677  0.00  0.00    -0.057 A 
ATOM      3  C3  UNL d   1      -3.822   0.809  -0.243  0.00  0.00     0.033 A 
ATOM      4  C4  UNL d   1      -4.068   1.091   1.096  0.00  0.00    -0.042 A 
ATOM      5  C5  UNL d   1      -3.012   1.091   2.001  0.00  0.00     0.033 A 
ATOM      6  C6  UNL d   1      -1.715   0.811   1.560  0.00  0.00    -0.057 A 
ENDROOT
BRANCH   1   7
ATOM      7  N   UNL d   1      -0.140   0.170  -0.140  0.00  0.00    -0.732 N 
ATOM      8  C   UNL d   1       0.167  -1.202  -0.482  0.00  0.00     0.284 C 
ATOM      9  H3  UNL d   1       0.314   0.858  -0.736  0.00  0.00     0.395 HD
ENDBRANCH   1   7
TORSDOF 1
ENDMDL
