MODEL 1
REMARK minimizedAffinity -4.67686844
REMARK minimizedRMSD -1
REMARK  1 active torsions:
REMARK  status: ('A' for Active; 'I' for Inactive)
REMARK    1  A    between atoms: N_2  and  C1_3 
ROOT
ATOM      1  C1  UNL d   1       1.403  -1.545  -0.272  0.00  0.00     0.143 A 
ATOM      2  C2  UNL d   1       2.668  -0.959  -0.160  0.00  0.00    -0.057 A 
ATOM      3  C3  UNL d   1       2.819   0.431  -0.079  0.00  0.00     0.033 A 
ATOM      4  C4  UNL d   1       1.706   1.263  -0.137  0.00  0.00    -0.042 A 
ATOM      5  C5  UNL d   1       0.441   0.703  -0.273  0.00  0.00     0.033 A 
ATOM      6  C6  UNL d   1       0.295  -0.686  -0.347  0.00  0.00    -0.057 A 
ENDROOT
BRANCH   1   7
ATOM      7  N   UNL d   1       1.193  -2.914  -0.455  0.00  0.00    -0.732 N 
ATOM      8  C   UNL d   1      -0.107  -3.415  -0.847  0.00  0.00     0.284 C 
ATOM      9  H3  UNL d   1       1.972  -3.366  -0.928  0.00  0.00     0.395 HD
ENDBRANCH   1   7
TORSDOF 1
ENDMDL
