MODEL 1
REMARK minimizedAffinity 0.218403414
REMARK minimizedRMSD -1
REMARK  1 active torsions:
REMARK  status: ('A' for Active; 'I' for Inactive)
REMARK    1  A    between atoms: N_2  and  C1_3 
ROOT
ATOM      1  C1  UNL d   1       0.704   1.096  -0.708  0.00  0.00     0.143 A 
ATOM      2  C2  UNL d   1      -0.579   0.552  -0.586  0.00  0.00    -0.057 A 
ATOM      3  C3  UNL d   1      -0.782  -0.834  -0.584  0.00  0.00     0.033 A 
ATOM      4  C4  UNL d   1       0.295  -1.701  -0.732  0.00  0.00    -0.042 A 
ATOM      5  C5  UNL d   1       1.576  -1.181  -0.880  0.00  0.00     0.033 A 
ATOM      6  C6  UNL d   1       1.773   0.203  -0.875  0.00  0.00    -0.057 A 
ENDROOT
BRANCH   1   7
ATOM      7  N   UNL d   1       0.961   2.465  -0.816  0.00  0.00    -0.732 N 
ATOM      8  C   UNL d   1       0.582   3.373   0.245  0.00  0.00     0.284 C 
ATOM      9  H3  UNL d   1       1.873   2.658  -1.222  0.00  0.00     0.395 HD
ENDBRANCH   1   7
TORSDOF 1
ENDMDL
