MODEL 1
REMARK minimizedAffinity -2.19279981
REMARK minimizedRMSD -1
REMARK  0 active torsions:
REMARK  status: ('A' for Active; 'I' for Inactive)
ROOT
ATOM      1  C   UNL d   1      -2.457   0.420   2.696  0.00  0.00    -0.002 A 
ATOM      2  C1  UNL d   1      -3.084   0.302   1.464  0.00  0.00     0.010 A 
ATOM      3  C2  UNL d   1      -2.334   0.229   0.289  0.00  0.00     0.041 A 
ATOM      4  C3  UNL d   1      -0.928   0.276   0.374  0.00  0.00    -0.075 A 
ATOM      5  S   UNL d   1       0.195   0.202  -0.932  0.00  0.00     0.015 SA
ATOM      6  C4  UNL d   1       1.534   0.325   0.115  0.00  0.00     0.022 A 
ATOM      7  C5  UNL d   1       1.152   0.421   1.433  0.00  0.00     0.026 A 
ATOM      8  C6  UNL d   1      -0.273   0.394   1.604  0.00  0.00    -0.082 A 
ATOM      9  C7  UNL d   1      -1.062   0.466   2.777  0.00  0.00     0.045 A 
ENDROOT
TORSDOF 0
ENDMDL
