MODEL 1
REMARK minimizedAffinity -1.86172986
REMARK minimizedRMSD -1
REMARK  0 active torsions:
REMARK  status: ('A' for Active; 'I' for Inactive)
ROOT
ATOM      1  C   UNL d   1      -0.154   0.032   3.180  0.00  0.00    -0.002 A 
ATOM      2  C1  UNL d   1       1.183  -0.084   2.828  0.00  0.00     0.010 A 
ATOM      3  C2  UNL d   1       1.568  -0.076   1.486  0.00  0.00     0.041 A 
ATOM      4  C3  UNL d   1       0.576   0.052   0.493  0.00  0.00    -0.075 A 
ATOM      5  S   UNL d   1       0.813   0.087  -1.214  0.00  0.00     0.015 SA
ATOM      6  C4  UNL d   1      -0.856   0.257  -1.517  0.00  0.00     0.022 A 
ATOM      7  C5  UNL d   1      -1.590   0.288  -0.355  0.00  0.00     0.026 A 
ATOM      8  C6  UNL d   1      -0.777   0.171   0.823  0.00  0.00    -0.082 A 
ATOM      9  C7  UNL d   1      -1.135   0.159   2.192  0.00  0.00     0.045 A 
ENDROOT
TORSDOF 0
ENDMDL
