MODEL 1
REMARK minimizedAffinity -0.824950457
REMARK minimizedRMSD -1
REMARK  0 active torsions:
REMARK  status: ('A' for Active; 'I' for Inactive)
ROOT
ATOM      1  C   UNL d   1       1.669  -0.252  -3.574  0.00  0.00    -0.002 A 
ATOM      2  C1  UNL d   1       0.395  -0.797  -3.644  0.00  0.00     0.010 A 
ATOM      3  C2  UNL d   1      -0.436  -0.808  -2.522  0.00  0.00     0.041 A 
ATOM      4  C3  UNL d   1       0.039  -0.254  -1.317  0.00  0.00    -0.075 A 
ATOM      5  S   UNL d   1      -0.802  -0.156   0.185  0.00  0.00     0.015 SA
ATOM      6  C4  UNL d   1       0.509   0.613   0.955  0.00  0.00     0.022 A 
ATOM      7  C5  UNL d   1       1.572   0.798   0.102  0.00  0.00     0.026 A 
ATOM      8  C6  UNL d   1       1.318   0.301  -1.221  0.00  0.00    -0.082 A 
ATOM      9  C7  UNL d   1       2.137   0.296  -2.376  0.00  0.00     0.045 A 
ENDROOT
TORSDOF 0
ENDMDL
