MODEL 1
REMARK minimizedAffinity -1.74008274
REMARK minimizedRMSD -1
REMARK  0 active torsions:
REMARK  status: ('A' for Active; 'I' for Inactive)
ROOT
ATOM      1  C   UNL d   1      -0.808   0.296   3.090  0.00  0.00    -0.002 A 
ATOM      2  C1  UNL d   1      -2.126   0.512   2.714  0.00  0.00     0.010 A 
ATOM      3  C2  UNL d   1      -2.456   0.734   1.375  0.00  0.00     0.041 A 
ATOM      4  C3  UNL d   1      -1.428   0.733   0.412  0.00  0.00    -0.075 A 
ATOM      5  S   UNL d   1      -1.595   0.982  -1.286  0.00  0.00     0.015 SA
ATOM      6  C4  UNL d   1       0.079   0.807  -1.552  0.00  0.00     0.022 A 
ATOM      7  C5  UNL d   1       0.764   0.564  -0.385  0.00  0.00     0.026 A 
ATOM      8  C6  UNL d   1      -0.093   0.517   0.766  0.00  0.00    -0.082 A 
ATOM      9  C7  UNL d   1       0.208   0.296   2.131  0.00  0.00     0.045 A 
ENDROOT
TORSDOF 0
ENDMDL
