MODEL 1
REMARK minimizedAffinity -2.0826447
REMARK minimizedRMSD -1
REMARK  0 active torsions:
REMARK  status: ('A' for Active; 'I' for Inactive)
ROOT
ATOM      1  C   UNL d   1       1.371  -0.938  -3.534  0.00  0.00    -0.002 A 
ATOM      2  C1  UNL d   1       0.048  -1.352  -3.486  0.00  0.00     0.010 A 
ATOM      3  C2  UNL d   1      -0.722  -1.140  -2.340  0.00  0.00     0.041 A 
ATOM      4  C3  UNL d   1      -0.134  -0.497  -1.233  0.00  0.00    -0.075 A 
ATOM      5  S   UNL d   1      -0.883  -0.130   0.275  0.00  0.00     0.015 SA
ATOM      6  C4  UNL d   1       0.535   0.585   0.891  0.00  0.00     0.022 A 
ATOM      7  C5  UNL d   1       1.566   0.553  -0.018  0.00  0.00     0.026 A 
ATOM      8  C6  UNL d   1       1.197  -0.070  -1.258  0.00  0.00    -0.082 A 
ATOM      9  C7  UNL d   1       1.951  -0.301  -2.434  0.00  0.00     0.045 A 
ENDROOT
TORSDOF 0
ENDMDL
