MODEL 1
REMARK minimizedAffinity -0.957462549
REMARK minimizedRMSD -1
REMARK  0 active torsions:
REMARK  status: ('A' for Active; 'I' for Inactive)
ROOT
ATOM      1  C   UNL d   1       2.029  -0.317  -3.473  0.00  0.00    -0.002 A 
ATOM      2  C1  UNL d   1       0.919  -1.001  -3.947  0.00  0.00     0.010 A 
ATOM      3  C2  UNL d   1      -0.238  -1.101  -3.171  0.00  0.00     0.041 A 
ATOM      4  C3  UNL d   1      -0.260  -0.495  -1.900  0.00  0.00    -0.075 A 
ATOM      5  S   UNL d   1      -1.567  -0.487  -0.775  0.00  0.00     0.015 SA
ATOM      6  C4  UNL d   1      -0.682   0.425   0.361  0.00  0.00     0.022 A 
ATOM      7  C5  UNL d   1       0.581   0.724  -0.091  0.00  0.00     0.026 A 
ATOM      8  C6  UNL d   1       0.845   0.200  -1.401  0.00  0.00    -0.082 A 
ATOM      9  C7  UNL d   1       2.003   0.283  -2.211  0.00  0.00     0.045 A 
ENDROOT
TORSDOF 0
ENDMDL
