MODEL 1
REMARK minimizedAffinity -2.99696112
REMARK minimizedRMSD -1
REMARK  0 active torsions:
REMARK  status: ('A' for Active; 'I' for Inactive)
ROOT
ATOM      1  C   UNL d   1       0.721  -0.167   2.552  0.00  0.00    -0.002 A 
ATOM      2  C1  UNL d   1      -0.656  -0.296   2.432  0.00  0.00     0.010 A 
ATOM      3  C2  UNL d   1      -1.275  -0.170   1.187  0.00  0.00     0.041 A 
ATOM      4  C3  UNL d   1      -0.479   0.088   0.053  0.00  0.00    -0.075 A 
ATOM      5  S   UNL d   1      -1.018   0.280  -1.573  0.00  0.00     0.015 SA
ATOM      6  C4  UNL d   1       0.567   0.535  -2.147  0.00  0.00     0.022 A 
ATOM      7  C5  UNL d   1       1.496   0.479  -1.136  0.00  0.00     0.026 A 
ATOM      8  C6  UNL d   1       0.909   0.220   0.149  0.00  0.00    -0.082 A 
ATOM      9  C7  UNL d   1       1.507   0.088   1.425  0.00  0.00     0.045 A 
ENDROOT
TORSDOF 0
ENDMDL
