MODEL 1
REMARK minimizedAffinity -3.11285877
REMARK minimizedRMSD -1
REMARK  0 active torsions:
REMARK  status: ('A' for Active; 'I' for Inactive)
ROOT
ATOM      1  C   UNL d   1       1.487   0.716   1.322  0.00  0.00    -0.002 A 
ATOM      2  C1  UNL d   1       1.290   0.729  -0.052  0.00  0.00     0.010 A 
ATOM      3  C2  UNL d   1       0.003   0.827  -0.584  0.00  0.00     0.041 A 
ATOM      4  C3  UNL d   1      -1.093   0.914   0.296  0.00  0.00    -0.075 A 
ATOM      5  S   UNL d   1      -2.759   1.043  -0.129  0.00  0.00     0.015 SA
ATOM      6  C4  UNL d   1      -3.249   1.084   1.502  0.00  0.00     0.022 A 
ATOM      7  C5  UNL d   1      -2.181   1.002   2.364  0.00  0.00     0.026 A 
ATOM      8  C6  UNL d   1      -0.921   0.904   1.683  0.00  0.00    -0.082 A 
ATOM      9  C7  UNL d   1       0.396   0.802   2.191  0.00  0.00     0.045 A 
ENDROOT
TORSDOF 0
ENDMDL
