MODEL 1
REMARK minimizedAffinity 1.57206404
REMARK minimizedRMSD -1
REMARK  0 active torsions:
REMARK  status: ('A' for Active; 'I' for Inactive)
ROOT
ATOM      1  C   UNL d   1      -0.323  -0.051   0.430  0.00  0.00    -0.002 A 
ATOM      2  C1  UNL d   1       0.964   0.454   0.556  0.00  0.00     0.010 A 
ATOM      3  C2  UNL d   1       1.871   0.359  -0.500  0.00  0.00     0.041 A 
ATOM      4  C3  UNL d   1       1.459  -0.257  -1.699  0.00  0.00    -0.075 A 
ATOM      5  S   UNL d   1       2.399  -0.485  -3.126  0.00  0.00     0.015 SA
ATOM      6  C4  UNL d   1       1.115  -1.257  -3.938  0.00  0.00     0.022 A 
ATOM      7  C5  UNL d   1      -0.011  -1.347  -3.154  0.00  0.00     0.026 A 
ATOM      8  C6  UNL d   1       0.169  -0.771  -1.851  0.00  0.00    -0.082 A 
ATOM      9  C7  UNL d   1      -0.728  -0.660  -0.761  0.00  0.00     0.045 A 
ENDROOT
TORSDOF 0
ENDMDL
