MODEL 1
REMARK minimizedAffinity 1.21769643
REMARK minimizedRMSD -1
REMARK  0 active torsions:
REMARK  status: ('A' for Active; 'I' for Inactive)
ROOT
ATOM      1  C   UNL d   1      -3.050   0.859   2.591  0.00  0.00    -0.002 A 
ATOM      2  C1  UNL d   1      -1.976   1.273   3.367  0.00  0.00     0.010 A 
ATOM      3  C2  UNL d   1      -0.680   1.268   2.848  0.00  0.00     0.041 A 
ATOM      4  C3  UNL d   1      -0.479   0.837   1.522  0.00  0.00    -0.075 A 
ATOM      5  S   UNL d   1       1.019   0.746   0.674  0.00  0.00     0.015 SA
ATOM      6  C4  UNL d   1       0.270   0.156  -0.739  0.00  0.00     0.022 A 
ATOM      7  C5  UNL d   1      -1.090   0.025  -0.585  0.00  0.00     0.026 A 
ATOM      8  C6  UNL d   1      -1.544   0.416   0.720  0.00  0.00    -0.082 A 
ATOM      9  C7  UNL d   1      -2.846   0.432   1.276  0.00  0.00     0.045 A 
ENDROOT
TORSDOF 0
ENDMDL
