MODEL 1
REMARK minimizedAffinity -0.413535684
REMARK minimizedRMSD -1
REMARK  0 active torsions:
REMARK  status: ('A' for Active; 'I' for Inactive)
ROOT
ATOM      1  C   UNL d   1      -2.617   0.768   2.393  0.00  0.00    -0.002 A 
ATOM      2  C1  UNL d   1      -2.968   0.795   1.051  0.00  0.00     0.010 A 
ATOM      3  C2  UNL d   1      -2.013   0.552   0.062  0.00  0.00     0.041 A 
ATOM      4  C3  UNL d   1      -0.686   0.277   0.449  0.00  0.00    -0.075 A 
ATOM      5  S   UNL d   1       0.651  -0.052  -0.588  0.00  0.00     0.015 SA
ATOM      6  C4  UNL d   1       1.720  -0.238   0.727  0.00  0.00     0.022 A 
ATOM      7  C5  UNL d   1       1.088  -0.056   1.934  0.00  0.00     0.026 A 
ATOM      8  C6  UNL d   1      -0.309   0.243   1.794  0.00  0.00    -0.082 A 
ATOM      9  C7  UNL d   1      -1.300   0.494   2.773  0.00  0.00     0.045 A 
ENDROOT
TORSDOF 0
ENDMDL
