MODEL 1
REMARK minimizedAffinity -2.60528255
REMARK minimizedRMSD -1
REMARK  0 active torsions:
REMARK  status: ('A' for Active; 'I' for Inactive)
ROOT
ATOM      1  C   UNL d   1      -0.825   0.979   3.127  0.00  0.00     0.023 A 
ATOM      2  C1  UNL d   1      -1.749   0.316   2.319  0.00  0.00     0.003 A 
ATOM      3  C2  UNL d   1      -1.422  -0.001   0.998  0.00  0.00     0.048 A 
ATOM      4  C3  UNL d   1      -0.170   0.347   0.493  0.00  0.00     0.023 A 
ATOM      5  C4  UNL d   1       0.757   1.010   1.299  0.00  0.00     0.048 A 
ATOM      6  C5  UNL d   1       0.426   1.326   2.617  0.00  0.00     0.003 A 
ATOM      7  I   UNL d   1       0.319  -0.124  -1.471  0.00  0.00    -0.146 I 
ENDROOT
TORSDOF 0
ENDMDL
