MODEL 1
REMARK minimizedAffinity -2.81849909
REMARK minimizedRMSD -1
REMARK  0 active torsions:
REMARK  status: ('A' for Active; 'I' for Inactive)
ROOT
ATOM      1  C   UNL d   1       0.385   0.024  -1.430  0.00  0.00     0.023 A 
ATOM      2  C1  UNL d   1      -0.817   0.714  -1.277  0.00  0.00     0.003 A 
ATOM      3  C2  UNL d   1      -1.279   1.041  -0.000  0.00  0.00     0.048 A 
ATOM      4  C3  UNL d   1      -0.533   0.675   1.119  0.00  0.00     0.023 A 
ATOM      5  C4  UNL d   1       0.672  -0.015   0.971  0.00  0.00     0.048 A 
ATOM      6  C5  UNL d   1       1.129  -0.340  -0.307  0.00  0.00     0.003 A 
ATOM      7  I   UNL d   1      -1.218   1.161   3.021  0.00  0.00    -0.146 I 
ENDROOT
TORSDOF 0
ENDMDL
