MODEL 1
REMARK minimizedAffinity -3.50398278
REMARK minimizedRMSD -1
REMARK  0 active torsions:
REMARK  status: ('A' for Active; 'I' for Inactive)
ROOT
ATOM      1  C   UNL d   1      -1.388   0.332   2.385  0.00  0.00     0.023 A 
ATOM      2  C1  UNL d   1      -0.123   0.842   2.090  0.00  0.00     0.003 A 
ATOM      3  C2  UNL d   1       0.416   0.678   0.812  0.00  0.00     0.048 A 
ATOM      4  C3  UNL d   1      -0.315   0.004  -0.165  0.00  0.00     0.023 A 
ATOM      5  C4  UNL d   1      -1.581  -0.507   0.125  0.00  0.00     0.048 A 
ATOM      6  C5  UNL d   1      -2.116  -0.341   1.404  0.00  0.00     0.003 A 
ATOM      7  I   UNL d   1       0.486  -0.241  -2.068  0.00  0.00    -0.146 I 
ENDROOT
TORSDOF 0
ENDMDL
