MODEL 1
REMARK minimizedAffinity -4.66677666
REMARK minimizedRMSD -1
REMARK  0 active torsions:
REMARK  status: ('A' for Active; 'I' for Inactive)
ROOT
ATOM      1  C   UNL d   1      -1.128   0.913   1.772  0.00  0.00     0.023 A 
ATOM      2  C1  UNL d   1      -0.639  -0.357   1.464  0.00  0.00     0.003 A 
ATOM      3  C2  UNL d   1      -0.008  -0.586   0.239  0.00  0.00     0.048 A 
ATOM      4  C3  UNL d   1       0.132   0.460  -0.672  0.00  0.00     0.023 A 
ATOM      5  C4  UNL d   1      -0.355   1.733  -0.368  0.00  0.00     0.048 A 
ATOM      6  C5  UNL d   1      -0.986   1.956   0.858  0.00  0.00     0.003 A 
ATOM      7  I   UNL d   1       1.071   0.123  -2.495  0.00  0.00    -0.146 I 
ENDROOT
TORSDOF 0
ENDMDL
