MODEL 1
REMARK minimizedAffinity -3.49951553
REMARK minimizedRMSD -1
REMARK  0 active torsions:
REMARK  status: ('A' for Active; 'I' for Inactive)
ROOT
ATOM      1  C   UNL d   1      -0.084  -0.086   3.252  0.00  0.00     0.023 A 
ATOM      2  C1  UNL d   1       1.134  -0.447   2.676  0.00  0.00     0.003 A 
ATOM      3  C2  UNL d   1       1.295  -0.394   1.289  0.00  0.00     0.048 A 
ATOM      4  C3  UNL d   1       0.234   0.021   0.485  0.00  0.00     0.023 A 
ATOM      5  C4  UNL d   1      -0.987   0.383   1.057  0.00  0.00     0.048 A 
ATOM      6  C5  UNL d   1      -1.143   0.328   2.444  0.00  0.00     0.003 A 
ATOM      7  I   UNL d   1       0.471   0.100  -1.578  0.00  0.00    -0.146 I 
ENDROOT
TORSDOF 0
ENDMDL
