MODEL 1
REMARK minimizedAffinity -0.764980495
REMARK minimizedRMSD -1
REMARK  0 active torsions:
REMARK  status: ('A' for Active; 'I' for Inactive)
ROOT
ATOM      1  C   UNL d   1      -1.253   0.598   2.190  0.00  0.00     0.023 A 
ATOM      2  C1  UNL d   1      -0.053  -0.108   2.118  0.00  0.00     0.003 A 
ATOM      3  C2  UNL d   1       0.531  -0.370   0.877  0.00  0.00     0.048 A 
ATOM      4  C3  UNL d   1      -0.090   0.078  -0.288  0.00  0.00     0.023 A 
ATOM      5  C4  UNL d   1      -1.291   0.786  -0.221  0.00  0.00     0.048 A 
ATOM      6  C5  UNL d   1      -1.872   1.045   1.022  0.00  0.00     0.003 A 
ATOM      7  I   UNL d   1       0.778  -0.310  -2.137  0.00  0.00    -0.146 I 
ENDROOT
TORSDOF 0
ENDMDL
