MODEL 1
REMARK minimizedAffinity 0.218228817
REMARK minimizedRMSD -1
REMARK  0 active torsions:
REMARK  status: ('A' for Active; 'I' for Inactive)
ROOT
ATOM      1  C   UNL d   1       0.074  -0.241  -1.292  0.00  0.00     0.023 A 
ATOM      2  C1  UNL d   1      -1.176   0.341  -1.078  0.00  0.00     0.003 A 
ATOM      3  C2  UNL d   1      -1.543   0.759   0.203  0.00  0.00     0.048 A 
ATOM      4  C3  UNL d   1      -0.655   0.592   1.265  0.00  0.00     0.023 A 
ATOM      5  C4  UNL d   1       0.597   0.011   1.056  0.00  0.00     0.048 A 
ATOM      6  C5  UNL d   1       0.959  -0.406  -0.227  0.00  0.00     0.003 A 
ATOM      7  I   UNL d   1      -1.199   1.213   3.173  0.00  0.00    -0.146 I 
ENDROOT
TORSDOF 0
ENDMDL
