MODEL 1
REMARK minimizedAffinity 8.93001842
REMARK minimizedRMSD -1
REMARK  1 active torsions:
REMARK  status: ('A' for Active; 'I' for Inactive)
REMARK    1  A    between atoms: C1_2  and  C2_3 
ROOT
ATOM      1  C2  UNL d   1       1.579   1.160   1.395  0.00  0.00    -0.076 A 
ATOM      2  C3  UNL d   1       1.366   2.011   0.296  0.00  0.00     0.004 A 
ATOM      3  C4  UNL d   1       0.190   2.749   0.178  0.00  0.00    -0.003 A 
ATOM      4  C5  UNL d   1      -0.793   2.650   1.157  0.00  0.00     0.000 A 
ATOM      5  C6  UNL d   1      -0.591   1.824   2.262  0.00  0.00     0.000 A 
ATOM      6  C7  UNL d   1       0.596   1.085   2.405  0.00  0.00    -0.073 A 
ATOM      7  C8  UNL d   1       0.758   0.206   3.614  0.00  0.00     0.078 C 
ENDROOT
BRANCH   1   8
ATOM      8  C1  UNL d   1       2.862   0.363   1.455  0.00  0.00     0.053 C 
ATOM      9  C   UNL d   1       3.421   0.052   0.076  0.00  0.00     0.018 C 
ENDBRANCH   1   8
TORSDOF 1
ENDMDL
