MODEL 1
REMARK minimizedAffinity 4.28564548
REMARK minimizedRMSD -1
REMARK  1 active torsions:
REMARK  status: ('A' for Active; 'I' for Inactive)
REMARK    1  A    between atoms: C1_2  and  C2_3 
ROOT
ATOM      1  C2  UNL d   1       1.599   0.845  -0.111  0.00  0.00    -0.076 A 
ATOM      2  C3  UNL d   1       1.605  -0.559  -0.042  0.00  0.00     0.004 A 
ATOM      3  C4  UNL d   1       2.797  -1.265   0.109  0.00  0.00    -0.003 A 
ATOM      4  C5  UNL d   1       4.003  -0.578   0.194  0.00  0.00     0.000 A 
ATOM      5  C6  UNL d   1       4.014   0.815   0.145  0.00  0.00     0.000 A 
ATOM      6  C7  UNL d   1       2.819   1.543   0.010  0.00  0.00    -0.073 A 
ATOM      7  C8  UNL d   1       2.891   3.044  -0.043  0.00  0.00     0.078 C 
ENDROOT
BRANCH   1   8
ATOM      8  C1  UNL d   1       0.278   1.555  -0.302  0.00  0.00     0.053 C 
ATOM      9  C   UNL d   1      -0.577   1.545   0.956  0.00  0.00     0.018 C 
ENDBRANCH   1   8
TORSDOF 1
ENDMDL
