MODEL 1
REMARK minimizedAffinity -0.0907685012
REMARK minimizedRMSD -1
REMARK  1 active torsions:
REMARK  status: ('A' for Active; 'I' for Inactive)
REMARK    1  A    between atoms: C1_2  and  C2_3 
ROOT
ATOM      1  C2  UNL d   1       2.093   1.214   0.691  0.00  0.00    -0.076 A 
ATOM      2  C3  UNL d   1       2.317   2.596   0.565  0.00  0.00     0.004 A 
ATOM      3  C4  UNL d   1       3.350   3.085  -0.232  0.00  0.00    -0.003 A 
ATOM      4  C5  UNL d   1       4.175   2.201  -0.918  0.00  0.00     0.000 A 
ATOM      5  C6  UNL d   1       3.955   0.827  -0.820  0.00  0.00     0.000 A 
ATOM      6  C7  UNL d   1       2.908   0.318  -0.033  0.00  0.00    -0.073 A 
ATOM      7  C8  UNL d   1       2.721  -1.173   0.043  0.00  0.00     0.078 C 
ENDROOT
BRANCH   1   8
ATOM      8  C1  UNL d   1       0.974   0.741   1.592  0.00  0.00     0.053 C 
ATOM      9  C   UNL d   1      -0.316   1.517   1.376  0.00  0.00     0.018 C 
ENDBRANCH   1   8
TORSDOF 1
ENDMDL
