MODEL 1
REMARK minimizedAffinity -0.721053123
REMARK minimizedRMSD -1
REMARK  1 active torsions:
REMARK  status: ('A' for Active; 'I' for Inactive)
REMARK    1  A    between atoms: C1_2  and  C2_3 
ROOT
ATOM      1  C2  UNL d   1       2.003  -0.797  -0.727  0.00  0.00    -0.076 A 
ATOM      2  C3  UNL d   1       0.795  -0.297  -1.244  0.00  0.00     0.004 A 
ATOM      3  C4  UNL d   1       0.312   0.952  -0.857  0.00  0.00    -0.003 A 
ATOM      4  C5  UNL d   1       1.029   1.722   0.052  0.00  0.00     0.000 A 
ATOM      5  C6  UNL d   1       2.238   1.249   0.562  0.00  0.00     0.000 A 
ATOM      6  C7  UNL d   1       2.747  -0.001   0.169  0.00  0.00    -0.073 A 
ATOM      7  C8  UNL d   1       4.053  -0.464   0.755  0.00  0.00     0.078 C 
ENDROOT
BRANCH   1   8
ATOM      8  C1  UNL d   1       2.464  -2.170  -1.163  0.00  0.00     0.053 C 
ATOM      9  C   UNL d   1       1.560  -3.278  -0.646  0.00  0.00     0.018 C 
ENDBRANCH   1   8
TORSDOF 1
ENDMDL
