MODEL 1
REMARK minimizedAffinity 4.53966427
REMARK minimizedRMSD -1
REMARK  1 active torsions:
REMARK  status: ('A' for Active; 'I' for Inactive)
REMARK    1  A    between atoms: C1_2  and  C2_3 
ROOT
ATOM      1  C2  UNL d   1       1.782  -1.740  -0.741  0.00  0.00    -0.076 A 
ATOM      2  C3  UNL d   1       0.482  -2.226  -0.519  0.00  0.00     0.004 A 
ATOM      3  C4  UNL d   1      -0.596  -1.353  -0.381  0.00  0.00    -0.003 A 
ATOM      4  C5  UNL d   1      -0.392   0.020  -0.464  0.00  0.00     0.000 A 
ATOM      5  C6  UNL d   1       0.889   0.519  -0.702  0.00  0.00     0.000 A 
ATOM      6  C7  UNL d   1       1.984  -0.348  -0.860  0.00  0.00    -0.073 A 
ATOM      7  C8  UNL d   1       3.343   0.245  -1.109  0.00  0.00     0.078 C 
ENDROOT
BRANCH   1   8
ATOM      8  C1  UNL d   1       2.917  -2.733  -0.856  0.00  0.00     0.053 C 
ATOM      9  C   UNL d   1       3.096  -3.252  -2.274  0.00  0.00     0.018 C 
ENDBRANCH   1   8
TORSDOF 1
ENDMDL
