MODEL 1
REMARK minimizedAffinity 0.356236041
REMARK minimizedRMSD -1
REMARK  0 active torsions:
REMARK  status: ('A' for Active; 'I' for Inactive)
ROOT
ATOM      1  O1  BZF d   1       3.186  -0.361  -2.006  0.00  0.00    -0.204 OA
ATOM      2  C2  BZF d   1       2.966  -0.617  -3.346  0.00  0.00     0.174 A 
ATOM      3  C3  BZF d   1       1.655  -0.512  -3.644  0.00  0.00    -0.012 A 
ATOM      4  C3A BZF d   1       1.027  -0.079  -2.433  0.00  0.00    -0.107 A 
ATOM      5  C4  BZF d   1      -0.263   0.217  -2.098  0.00  0.00     0.055 A 
ATOM      6  C5  BZF d   1      -0.554   0.539  -0.811  0.00  0.00    -0.016 A 
ATOM      7  C6  BZF d   1       0.418   0.570   0.168  0.00  0.00     0.022 A 
ATOM      8  C7  BZF d   1       1.713   0.289  -0.117  0.00  0.00     0.029 A 
ATOM      9  C7A BZF d   1       2.016  -0.005  -1.424  0.00  0.00     0.058 A 
ENDROOT
TORSDOF 0
ENDMDL
