MODEL 1
REMARK minimizedAffinity -2.09178138
REMARK minimizedRMSD -1
REMARK  0 active torsions:
REMARK  status: ('A' for Active; 'I' for Inactive)
ROOT
ATOM      1  O1  BZF d   1       0.895   0.106  -0.085  0.00  0.00    -0.204 OA
ATOM      2  C2  BZF d   1       0.631   0.802  -1.249  0.00  0.00     0.174 A 
ATOM      3  C3  BZF d   1      -0.620   0.550  -1.684  0.00  0.00    -0.012 A 
ATOM      4  C3A BZF d   1      -1.205  -0.289  -0.683  0.00  0.00    -0.107 A 
ATOM      5  C4  BZF d   1      -2.436  -0.861  -0.539  0.00  0.00     0.055 A 
ATOM      6  C5  BZF d   1      -2.663  -1.685   0.518  0.00  0.00    -0.016 A 
ATOM      7  C6  BZF d   1      -1.680  -1.962   1.446  0.00  0.00     0.022 A 
ATOM      8  C7  BZF d   1      -0.445  -1.414   1.348  0.00  0.00     0.029 A 
ATOM      9  C7A BZF d   1      -0.223  -0.555   0.300  0.00  0.00     0.058 A 
ENDROOT
TORSDOF 0
ENDMDL
