MODEL 1
REMARK minimizedAffinity -0.610710919
REMARK minimizedRMSD -1
REMARK  0 active torsions:
REMARK  status: ('A' for Active; 'I' for Inactive)
ROOT
ATOM      1  O1  BZF d   1       1.360  -0.947   1.123  0.00  0.00    -0.204 OA
ATOM      2  C2  BZF d   1       1.539  -0.066   0.074  0.00  0.00     0.174 A 
ATOM      3  C3  BZF d   1       0.350   0.322  -0.433  0.00  0.00    -0.012 A 
ATOM      4  C3A BZF d   1      -0.634  -0.288   0.407  0.00  0.00    -0.107 A 
ATOM      5  C4  BZF d   1      -2.000  -0.265   0.422  0.00  0.00     0.055 A 
ATOM      6  C5  BZF d   1      -2.663  -1.028   1.330  0.00  0.00    -0.016 A 
ATOM      7  C6  BZF d   1      -1.994  -1.828   2.234  0.00  0.00     0.022 A 
ATOM      8  C7  BZF d   1      -0.640  -1.879   2.260  0.00  0.00     0.029 A 
ATOM      9  C7A BZF d   1       0.034  -1.084   1.365  0.00  0.00     0.058 A 
ENDROOT
TORSDOF 0
ENDMDL
