MODEL 1
REMARK minimizedAffinity 2.63364887
REMARK minimizedRMSD -1
REMARK  0 active torsions:
REMARK  status: ('A' for Active; 'I' for Inactive)
ROOT
ATOM      1  O1  BZF d   1       3.100  -0.632  -2.151  0.00  0.00    -0.204 OA
ATOM      2  C2  BZF d   1       2.683  -0.600  -3.468  0.00  0.00     0.174 A 
ATOM      3  C3  BZF d   1       1.350  -0.409  -3.543  0.00  0.00    -0.012 A 
ATOM      4  C3A BZF d   1       0.920  -0.223  -2.191  0.00  0.00    -0.107 A 
ATOM      5  C4  BZF d   1      -0.295   0.025  -1.618  0.00  0.00     0.055 A 
ATOM      6  C5  BZF d   1      -0.387   0.080  -0.263  0.00  0.00    -0.016 A 
ATOM      7  C6  BZF d   1       0.713  -0.112   0.548  0.00  0.00     0.022 A 
ATOM      8  C7  BZF d   1       1.939  -0.355   0.025  0.00  0.00     0.029 A 
ATOM      9  C7A BZF d   1       2.042  -0.379  -1.344  0.00  0.00     0.058 A 
ENDROOT
TORSDOF 0
ENDMDL
