MODEL 1
REMARK minimizedAffinity 0.418652982
REMARK minimizedRMSD -1
REMARK  0 active torsions:
REMARK  status: ('A' for Active; 'I' for Inactive)
ROOT
ATOM      1  O1  BZF d   1       0.808   0.648  -0.568  0.00  0.00    -0.204 OA
ATOM      2  C2  BZF d   1       0.090  -0.149   0.302  0.00  0.00     0.174 A 
ATOM      3  C3  BZF d   1       0.506   0.034   1.572  0.00  0.00    -0.012 A 
ATOM      4  C3A BZF d   1       1.487   1.073   1.501  0.00  0.00    -0.107 A 
ATOM      5  C4  BZF d   1       2.252   1.708   2.438  0.00  0.00     0.055 A 
ATOM      6  C5  BZF d   1       3.165   2.628   2.031  0.00  0.00    -0.016 A 
ATOM      7  C6  BZF d   1       3.344   2.933   0.697  0.00  0.00     0.022 A 
ATOM      8  C7  BZF d   1       2.606   2.333  -0.268  0.00  0.00     0.029 A 
ATOM      9  C7A BZF d   1       1.658   1.427   0.143  0.00  0.00     0.058 A 
ENDROOT
TORSDOF 0
ENDMDL
