MODEL 1
REMARK minimizedAffinity 0.240605757
REMARK minimizedRMSD -1
REMARK  0 active torsions:
REMARK  status: ('A' for Active; 'I' for Inactive)
ROOT
ATOM      1  O1  BZF d   1       1.845   0.266  -1.410  0.00  0.00    -0.204 OA
ATOM      2  C2  BZF d   1       1.698   0.130  -2.777  0.00  0.00     0.174 A 
ATOM      3  C3  BZF d   1       0.491  -0.388  -3.080  0.00  0.00    -0.012 A 
ATOM      4  C3A BZF d   1      -0.194  -0.503  -1.828  0.00  0.00    -0.107 A 
ATOM      5  C4  BZF d   1      -1.439  -0.938  -1.476  0.00  0.00     0.055 A 
ATOM      6  C5  BZF d   1      -1.772  -0.992  -0.159  0.00  0.00    -0.016 A 
ATOM      7  C6  BZF d   1      -0.884  -0.623   0.830  0.00  0.00     0.022 A 
ATOM      8  C7  BZF d   1       0.361  -0.180   0.529  0.00  0.00     0.029 A 
ATOM      9  C7A BZF d   1       0.689  -0.094  -0.802  0.00  0.00     0.058 A 
ENDROOT
TORSDOF 0
ENDMDL
