MODEL 1
REMARK minimizedAffinity -2.6416328
REMARK minimizedRMSD -1
REMARK  0 active torsions:
REMARK  status: ('A' for Active; 'I' for Inactive)
ROOT
ATOM      1  O1  BZF d   1      -2.094  -0.886  -1.369  0.00  0.00    -0.204 OA
ATOM      2  C2  BZF d   1      -2.672  -0.849  -0.115  0.00  0.00     0.174 A 
ATOM      3  C3  BZF d   1      -1.737  -0.658   0.837  0.00  0.00    -0.012 A 
ATOM      4  C3A BZF d   1      -0.508  -0.479   0.128  0.00  0.00    -0.107 A 
ATOM      5  C4  BZF d   1       0.777  -0.235   0.522  0.00  0.00     0.055 A 
ATOM      6  C5  BZF d   1       1.757  -0.186  -0.418  0.00  0.00    -0.016 A 
ATOM      7  C6  BZF d   1       1.491  -0.381  -1.757  0.00  0.00     0.022 A 
ATOM      8  C7  BZF d   1       0.231  -0.621  -2.196  0.00  0.00     0.029 A 
ATOM      9  C7A BZF d   1      -0.767  -0.638  -1.253  0.00  0.00     0.058 A 
ENDROOT
TORSDOF 0
ENDMDL
