MODEL 1
REMARK minimizedAffinity -3.53918362
REMARK minimizedRMSD -1
REMARK  0 active torsions:
REMARK  status: ('A' for Active; 'I' for Inactive)
ROOT
ATOM      1  O1  BZF d   1       4.252   5.371   1.089  0.00  0.00    -0.204 OA
ATOM      2  C2  BZF d   1       4.414   5.605  -0.263  0.00  0.00     0.174 A 
ATOM      3  C3  BZF d   1       4.021   4.534  -0.984  0.00  0.00    -0.012 A 
ATOM      4  C3A BZF d   1       3.501   3.607  -0.027  0.00  0.00    -0.107 A 
ATOM      5  C4  BZF d   1       2.945   2.364  -0.130  0.00  0.00     0.055 A 
ATOM      6  C5  BZF d   1       2.606   1.695   1.003  0.00  0.00    -0.016 A 
ATOM      7  C6  BZF d   1       2.814   2.236   2.255  0.00  0.00     0.022 A 
ATOM      8  C7  BZF d   1       3.358   3.468   2.408  0.00  0.00     0.029 A 
ATOM      9  C7A BZF d   1       3.671   4.160   1.263  0.00  0.00     0.058 A 
ENDROOT
TORSDOF 0
ENDMDL
