MODEL 1
REMARK minimizedAffinity -1.85136437
REMARK minimizedRMSD -1
REMARK  0 active torsions:
REMARK  status: ('A' for Active; 'I' for Inactive)
ROOT
ATOM      1  O1  BZF d   1       1.720   0.357  -0.362  0.00  0.00    -0.204 OA
ATOM      2  C2  BZF d   1       0.867  -0.296   0.507  0.00  0.00     0.174 A 
ATOM      3  C3  BZF d   1       0.767   0.374   1.673  0.00  0.00    -0.012 A 
ATOM      4  C3A BZF d   1       1.537   1.566   1.490  0.00  0.00    -0.107 A 
ATOM      5  C4  BZF d   1       1.808   2.640   2.288  0.00  0.00     0.055 A 
ATOM      6  C5  BZF d   1       2.656   3.602   1.836  0.00  0.00    -0.016 A 
ATOM      7  C6  BZF d   1       3.253   3.518   0.595  0.00  0.00     0.022 A 
ATOM      8  C7  BZF d   1       3.010   2.474  -0.234  0.00  0.00     0.029 A 
ATOM      9  C7A BZF d   1       2.129   1.517   0.207  0.00  0.00     0.058 A 
ENDROOT
TORSDOF 0
ENDMDL
