MODEL 1
REMARK minimizedAffinity -5.64451933
REMARK minimizedRMSD -1
REMARK  0 active torsions:
REMARK  status: ('A' for Active; 'I' for Inactive)
ROOT
ATOM      1  O1  BZF d   1       2.008   3.733   0.687  0.00  0.00    -0.204 OA
ATOM      2  C2  BZF d   1       3.337   3.533   1.006  0.00  0.00     0.174 A 
ATOM      3  C3  BZF d   1       3.557   2.250   1.360  0.00  0.00    -0.012 A 
ATOM      4  C3A BZF d   1       2.304   1.587   1.167  0.00  0.00    -0.107 A 
ATOM      5  C4  BZF d   1       1.889   0.296   1.333  0.00  0.00     0.055 A 
ATOM      6  C5  BZF d   1       0.581  -0.009   1.127  0.00  0.00    -0.016 A 
ATOM      7  C6  BZF d   1      -0.339   0.951   0.760  0.00  0.00     0.022 A 
ATOM      8  C7  BZF d   1       0.026   2.243   0.579  0.00  0.00     0.029 A 
ATOM      9  C7A BZF d   1       1.353   2.549   0.754  0.00  0.00     0.058 A 
ENDROOT
TORSDOF 0
ENDMDL
