MODEL 1
REMARK minimizedAffinity -1.54672837
REMARK minimizedRMSD -1
REMARK  0 active torsions:
REMARK  status: ('A' for Active; 'I' for Inactive)
ROOT
ATOM      1  O1  BZF d   1       1.058   0.086  -0.876  0.00  0.00    -0.204 OA
ATOM      2  C2  BZF d   1      -0.295   0.338  -0.989  0.00  0.00     0.174 A 
ATOM      3  C3  BZF d   1      -0.656   0.446  -2.284  0.00  0.00    -0.012 A 
ATOM      4  C3A BZF d   1       0.531   0.157  -3.030  0.00  0.00    -0.107 A 
ATOM      5  C4  BZF d   1       0.807   0.089  -4.365  0.00  0.00     0.055 A 
ATOM      6  C5  BZF d   1       2.085  -0.145  -4.765  0.00  0.00    -0.016 A 
ATOM      7  C6  BZF d   1       3.110  -0.311  -3.857  0.00  0.00     0.022 A 
ATOM      8  C7  BZF d   1       2.884  -0.258  -2.522  0.00  0.00     0.029 A 
ATOM      9  C7A BZF d   1       1.588  -0.054  -2.115  0.00  0.00     0.058 A 
ENDROOT
TORSDOF 0
ENDMDL
