MODEL 1
REMARK minimizedAffinity -2.2031951
REMARK minimizedRMSD -1
REMARK  0 active torsions:
REMARK  status: ('A' for Active; 'I' for Inactive)
ROOT
ATOM      1  O1  BZF d   1       0.634  -0.555   0.496  0.00  0.00    -0.204 OA
ATOM      2  C2  BZF d   1       0.612  -1.556   1.447  0.00  0.00     0.174 A 
ATOM      3  C3  BZF d   1      -0.606  -2.133   1.506  0.00  0.00    -0.012 A 
ATOM      4  C3A BZF d   1      -1.368  -1.511   0.467  0.00  0.00    -0.107 A 
ATOM      5  C4  BZF d   1      -2.647  -1.670   0.017  0.00  0.00     0.055 A 
ATOM      6  C5  BZF d   1      -3.107  -0.856  -0.969  0.00  0.00    -0.016 A 
ATOM      7  C6  BZF d   1      -2.318   0.131  -1.522  0.00  0.00     0.022 A 
ATOM      8  C7  BZF d   1      -1.040   0.324  -1.112  0.00  0.00     0.029 A 
ATOM      9  C7A BZF d   1      -0.562  -0.520  -0.140  0.00  0.00     0.058 A 
ENDROOT
TORSDOF 0
ENDMDL
