MODEL 1
REMARK minimizedAffinity -1.85663998
REMARK minimizedRMSD -1
REMARK  0 active torsions:
REMARK  status: ('A' for Active; 'I' for Inactive)
ROOT
ATOM      1  O1  BZF d   1       4.373   4.593  -0.006  0.00  0.00    -0.204 OA
ATOM      2  C2  BZF d   1       4.546   3.808  -1.130  0.00  0.00     0.174 A 
ATOM      3  C3  BZF d   1       4.171   2.536  -0.888  0.00  0.00    -0.012 A 
ATOM      4  C3A BZF d   1       3.650   2.544   0.445  0.00  0.00    -0.107 A 
ATOM      5  C4  BZF d   1       3.108   1.582   1.247  0.00  0.00     0.055 A 
ATOM      6  C5  BZF d   1       2.765   1.901   2.523  0.00  0.00    -0.016 A 
ATOM      7  C6  BZF d   1       2.956   3.169   3.030  0.00  0.00     0.022 A 
ATOM      8  C7  BZF d   1       3.486   4.159   2.271  0.00  0.00     0.029 A 
ATOM      9  C7A BZF d   1       3.802   3.848   0.971  0.00  0.00     0.058 A 
ENDROOT
TORSDOF 0
ENDMDL
