MODEL 1
REMARK minimizedAffinity -6.19687986
REMARK minimizedRMSD -1
REMARK  0 active torsions:
REMARK  status: ('A' for Active; 'I' for Inactive)
ROOT
ATOM      1  O1  BZF d   1       0.269  -1.291   0.639  0.00  0.00    -0.204 OA
ATOM      2  C2  BZF d   1       0.548  -0.201  -0.162  0.00  0.00     0.174 A 
ATOM      3  C3  BZF d   1      -0.567   0.233  -0.784  0.00  0.00    -0.012 A 
ATOM      4  C3A BZF d   1      -1.625  -0.584  -0.273  0.00  0.00    -0.107 A 
ATOM      5  C4  BZF d   1      -2.972  -0.625  -0.498  0.00  0.00     0.055 A 
ATOM      6  C5  BZF d   1      -3.713  -1.591   0.106  0.00  0.00    -0.016 A 
ATOM      7  C6  BZF d   1      -3.140  -2.534   0.934  0.00  0.00     0.022 A 
ATOM      8  C7  BZF d   1      -1.809  -2.530   1.191  0.00  0.00     0.029 A 
ATOM      9  C7A BZF d   1      -1.063  -1.535   0.609  0.00  0.00     0.058 A 
ENDROOT
TORSDOF 0
ENDMDL
