MODEL 1
REMARK minimizedAffinity -3.15871406
REMARK minimizedRMSD -1
REMARK  0 active torsions:
REMARK  status: ('A' for Active; 'I' for Inactive)
ROOT
ATOM      1  O1  BZF d   1       0.727  -0.326   0.537  0.00  0.00    -0.204 OA
ATOM      2  C2  BZF d   1       1.101   0.416  -0.566  0.00  0.00     0.174 A 
ATOM      3  C3  BZF d   1       0.061   0.577  -1.410  0.00  0.00    -0.012 A 
ATOM      4  C3A BZF d   1      -1.055  -0.029  -0.751  0.00  0.00    -0.107 A 
ATOM      5  C4  BZF d   1      -2.372  -0.177  -1.080  0.00  0.00     0.055 A 
ATOM      6  C5  BZF d   1      -3.185  -0.883  -0.250  0.00  0.00    -0.016 A 
ATOM      7  C6  BZF d   1      -2.713  -1.459   0.911  0.00  0.00     0.022 A 
ATOM      8  C7  BZF d   1      -1.415  -1.335   1.282  0.00  0.00     0.029 A 
ATOM      9  C7A BZF d   1      -0.599  -0.594   0.463  0.00  0.00     0.058 A 
ENDROOT
TORSDOF 0
ENDMDL
