MODEL 1
REMARK minimizedAffinity -3.37340736
REMARK minimizedRMSD -1
REMARK  0 active torsions:
REMARK  status: ('A' for Active; 'I' for Inactive)
ROOT
ATOM      1  O1  BZF d   1       0.391   0.015  -1.594  0.00  0.00    -0.204 OA
ATOM      2  C2  BZF d   1       1.365   0.211  -0.634  0.00  0.00     0.174 A 
ATOM      3  C3  BZF d   1       0.845   0.097   0.605  0.00  0.00    -0.012 A 
ATOM      4  C3A BZF d   1      -0.521  -0.281   0.406  0.00  0.00    -0.107 A 
ATOM      5  C4  BZF d   1      -1.552  -0.559   1.258  0.00  0.00     0.055 A 
ATOM      6  C5  BZF d   1      -2.781  -0.823   0.743  0.00  0.00    -0.016 A 
ATOM      7  C6  BZF d   1      -3.017  -0.813  -0.616  0.00  0.00     0.022 A 
ATOM      8  C7  BZF d   1      -2.024  -0.548  -1.501  0.00  0.00     0.029 A 
ATOM      9  C7A BZF d   1      -0.773  -0.313  -0.985  0.00  0.00     0.058 A 
ENDROOT
TORSDOF 0
ENDMDL
