MODEL 1
REMARK minimizedAffinity -4.91049099
REMARK minimizedRMSD -1
REMARK  0 active torsions:
REMARK  status: ('A' for Active; 'I' for Inactive)
ROOT
ATOM      1  O1  BZF d   1       0.091  -0.535   0.702  0.00  0.00    -0.204 OA
ATOM      2  C2  BZF d   1       0.314  -1.525   1.639  0.00  0.00     0.174 A 
ATOM      3  C3  BZF d   1      -0.789  -2.283   1.806  0.00  0.00    -0.012 A 
ATOM      4  C3A BZF d   1      -1.733  -1.789   0.851  0.00  0.00    -0.107 A 
ATOM      5  C4  BZF d   1      -3.010  -2.145   0.522  0.00  0.00     0.055 A 
ATOM      6  C5  BZF d   1      -3.681  -1.414  -0.406  0.00  0.00    -0.016 A 
ATOM      7  C6  BZF d   1      -3.110  -0.319  -1.020  0.00  0.00     0.022 A 
ATOM      8  C7  BZF d   1      -1.844   0.070  -0.730  0.00  0.00     0.029 A 
ATOM      9  C7A BZF d   1      -1.151  -0.687   0.183  0.00  0.00     0.058 A 
ENDROOT
TORSDOF 0
ENDMDL
