MODEL 1
REMARK minimizedAffinity -3.58646965
REMARK minimizedRMSD -1
REMARK  0 active torsions:
REMARK  status: ('A' for Active; 'I' for Inactive)
ROOT
ATOM      1  O1  BZF d   1       0.666   0.092  -0.340  0.00  0.00    -0.204 OA
ATOM      2  C2  BZF d   1       0.433   0.462  -1.650  0.00  0.00     0.174 A 
ATOM      3  C3  BZF d   1      -0.851   0.233  -1.991  0.00  0.00    -0.012 A 
ATOM      4  C3A BZF d   1      -1.482  -0.229  -0.792  0.00  0.00    -0.107 A 
ATOM      5  C4  BZF d   1      -2.759  -0.605  -0.488  0.00  0.00     0.055 A 
ATOM      6  C5  BZF d   1      -3.030  -1.075   0.758  0.00  0.00    -0.016 A 
ATOM      7  C6  BZF d   1      -2.049  -1.187   1.721  0.00  0.00     0.022 A 
ATOM      8  C7  BZF d   1      -0.769  -0.821   1.468  0.00  0.00     0.029 A 
ATOM      9  C7A BZF d   1      -0.498  -0.315   0.220  0.00  0.00     0.058 A 
ENDROOT
TORSDOF 0
ENDMDL
