MODEL 1
REMARK minimizedAffinity -4.49072313
REMARK minimizedRMSD -1
REMARK  0 active torsions:
REMARK  status: ('A' for Active; 'I' for Inactive)
ROOT
ATOM      1  O1  BZF d   1       0.502   0.083  -1.661  0.00  0.00    -0.204 OA
ATOM      2  C2  BZF d   1       1.509  -0.297  -0.794  0.00  0.00     0.174 A 
ATOM      3  C3  BZF d   1       1.001  -0.641   0.407  0.00  0.00    -0.012 A 
ATOM      4  C3A BZF d   1      -0.419  -0.553   0.254  0.00  0.00    -0.107 A 
ATOM      5  C4  BZF d   1      -1.469  -0.789   1.094  0.00  0.00     0.055 A 
ATOM      6  C5  BZF d   1      -2.732  -0.538   0.659  0.00  0.00    -0.016 A 
ATOM      7  C6  BZF d   1      -2.980  -0.047  -0.606  0.00  0.00     0.022 A 
ATOM      8  C7  BZF d   1      -1.970   0.197  -1.477  0.00  0.00     0.029 A 
ATOM      9  C7A BZF d   1      -0.695  -0.087  -1.051  0.00  0.00     0.058 A 
ENDROOT
TORSDOF 0
ENDMDL
