MODEL 1
REMARK minimizedAffinity 10.3430529
REMARK minimizedRMSD -1
REMARK  0 active torsions:
REMARK  status: ('A' for Active; 'I' for Inactive)
ROOT
ATOM      1  N1  IND d   1       1.784  -1.621   0.741  0.00  0.00    -0.196 N 
ATOM      2  C2  IND d   1       2.177  -1.243   1.995  0.00  0.00     0.054 A 
ATOM      3  C3  IND d   1       2.513   0.066   2.008  0.00  0.00    -0.031 A 
ATOM      4  C4  IND d   1       2.396   1.804   0.112  0.00  0.00     0.051 A 
ATOM      5  C5  IND d   1       2.133   1.925  -1.224  0.00  0.00    -0.031 A 
ATOM      6  C6  IND d   1       1.730   0.849  -1.988  0.00  0.00     0.015 A 
ATOM      7  C7  IND d   1       1.562  -0.391  -1.439  0.00  0.00    -0.016 A 
ATOM      8  C8  IND d   1       1.835  -0.519  -0.085  0.00  0.00    -0.047 A 
ATOM      9  C9  IND d   1       2.286   0.560   0.687  0.00  0.00    -0.096 A 
ATOM     10  HN1 IND d   1       1.545  -2.413   0.508  0.00  0.00     0.298 HD
ENDROOT
TORSDOF 0
ENDMDL
