MODEL 1
REMARK minimizedAffinity 8.38046646
REMARK minimizedRMSD -1
REMARK  0 active torsions:
REMARK  status: ('A' for Active; 'I' for Inactive)
ROOT
ATOM      1  N1  IND d   1      -2.904  -0.238   1.922  0.00  0.00    -0.196 N 
ATOM      2  C2  IND d   1      -3.156   0.776   2.804  0.00  0.00     0.054 A 
ATOM      3  C3  IND d   1      -2.088   0.975   3.609  0.00  0.00    -0.031 A 
ATOM      4  C4  IND d   1       0.213  -0.178   3.589  0.00  0.00     0.051 A 
ATOM      5  C5  IND d   1       0.904  -1.193   2.988  0.00  0.00    -0.031 A 
ATOM      6  C6  IND d   1       0.351  -1.955   1.980  0.00  0.00     0.015 A 
ATOM      7  C7  IND d   1      -0.916  -1.722   1.524  0.00  0.00    -0.016 A 
ATOM      8  C8  IND d   1      -1.623  -0.697   2.136  0.00  0.00    -0.047 A 
ATOM      9  C9  IND d   1      -1.082   0.052   3.189  0.00  0.00    -0.096 A 
ATOM     10  HN1 IND d   1      -3.454  -0.538   1.333  0.00  0.00     0.298 HD
ENDROOT
TORSDOF 0
ENDMDL
