MODEL 1
REMARK minimizedAffinity -1.41121316
REMARK minimizedRMSD -1
REMARK  0 active torsions:
REMARK  status: ('A' for Active; 'I' for Inactive)
ROOT
ATOM      1  N1  IND d   1      -2.312  -2.460  -4.195  0.00  0.00    -0.196 N 
ATOM      2  C2  IND d   1      -3.448  -2.082  -4.855  0.00  0.00     0.054 A 
ATOM      3  C3  IND d   1      -3.771  -0.807  -4.543  0.00  0.00    -0.031 A 
ATOM      4  C4  IND d   1      -2.520   0.879  -3.053  0.00  0.00     0.051 A 
ATOM      5  C5  IND d   1      -1.452   0.984  -2.207  0.00  0.00    -0.031 A 
ATOM      6  C6  IND d   1      -0.597  -0.075  -1.978  0.00  0.00     0.015 A 
ATOM      7  C7  IND d   1      -0.773  -1.279  -2.598  0.00  0.00    -0.016 A 
ATOM      8  C8  IND d   1      -1.860  -1.391  -3.452  0.00  0.00    -0.047 A 
ATOM      9  C9  IND d   1      -2.756  -0.334  -3.656  0.00  0.00    -0.096 A 
ATOM     10  HN1 IND d   1      -1.942  -3.235  -4.237  0.00  0.00     0.298 HD
ENDROOT
TORSDOF 0
ENDMDL
