MODEL 1
REMARK minimizedAffinity -0.0359459631
REMARK minimizedRMSD -1
REMARK  0 active torsions:
REMARK  status: ('A' for Active; 'I' for Inactive)
ROOT
ATOM      1  N1  IND d   1      -3.196   0.537   2.302  0.00  0.00    -0.196 N 
ATOM      2  C2  IND d   1      -3.272   1.375   3.380  0.00  0.00     0.054 A 
ATOM      3  C3  IND d   1      -2.155   1.271   4.135  0.00  0.00    -0.031 A 
ATOM      4  C4  IND d   1      -0.035  -0.133   3.736  0.00  0.00     0.051 A 
ATOM      5  C5  IND d   1       0.487  -1.084   2.904  0.00  0.00    -0.031 A 
ATOM      6  C6  IND d   1      -0.205  -1.549   1.805  0.00  0.00     0.015 A 
ATOM      7  C7  IND d   1      -1.445  -1.072   1.489  0.00  0.00    -0.016 A 
ATOM      8  C8  IND d   1      -1.981  -0.112   2.336  0.00  0.00    -0.047 A 
ATOM      9  C9  IND d   1      -1.302   0.333   3.477  0.00  0.00    -0.096 A 
ATOM     10  HN1 IND d   1      -3.804   0.434   1.703  0.00  0.00     0.298 HD
ENDROOT
TORSDOF 0
ENDMDL
