MODEL 1
REMARK minimizedAffinity 5.76755381
REMARK minimizedRMSD -1
REMARK  0 active torsions:
REMARK  status: ('A' for Active; 'I' for Inactive)
ROOT
ATOM      1  N1  IND d   1      -2.017   1.456   3.079  0.00  0.00    -0.196 N 
ATOM      2  C2  IND d   1      -3.260   1.099   2.638  0.00  0.00     0.054 A 
ATOM      3  C3  IND d   1      -3.206  -0.084   1.984  0.00  0.00    -0.031 A 
ATOM      4  C4  IND d   1      -1.201  -1.654   1.609  0.00  0.00     0.051 A 
ATOM      5  C5  IND d   1       0.150  -1.740   1.797  0.00  0.00    -0.031 A 
ATOM      6  C6  IND d   1       0.862  -0.745   2.436  0.00  0.00     0.015 A 
ATOM      7  C7  IND d   1       0.245   0.371   2.925  0.00  0.00    -0.016 A 
ATOM      8  C8  IND d   1      -1.126   0.465   2.730  0.00  0.00    -0.047 A 
ATOM      9  C9  IND d   1      -1.847  -0.521   2.044  0.00  0.00    -0.096 A 
ATOM     10  HN1 IND d   1      -1.823   2.179   3.502  0.00  0.00     0.298 HD
ENDROOT
TORSDOF 0
ENDMDL
