MODEL 1
REMARK minimizedAffinity 4.68346119
REMARK minimizedRMSD -1
REMARK  0 active torsions:
REMARK  status: ('A' for Active; 'I' for Inactive)
ROOT
ATOM      1  N1  IND d   1       2.592  -1.868  -0.010  0.00  0.00    -0.196 N 
ATOM      2  C2  IND d   1       2.359  -1.170  -1.162  0.00  0.00     0.054 A 
ATOM      3  C3  IND d   1       1.202  -0.477  -1.065  0.00  0.00    -0.031 A 
ATOM      4  C4  IND d   1      -0.415  -0.263   0.926  0.00  0.00     0.051 A 
ATOM      5  C5  IND d   1      -0.645  -0.745   2.184  0.00  0.00    -0.031 A 
ATOM      6  C6  IND d   1       0.212  -1.642   2.788  0.00  0.00     0.015 A 
ATOM      7  C7  IND d   1       1.341  -2.084   2.158  0.00  0.00    -0.016 A 
ATOM      8  C8  IND d   1       1.573  -1.602   0.878  0.00  0.00    -0.047 A 
ATOM      9  C9  IND d   1       0.685  -0.724   0.243  0.00  0.00    -0.096 A 
ATOM     10  HN1 IND d   1       3.263  -2.387   0.135  0.00  0.00     0.298 HD
ENDROOT
TORSDOF 0
ENDMDL
