MODEL 1
REMARK minimizedAffinity -5.11263609
REMARK minimizedRMSD -1
REMARK  2 active torsions:
REMARK  status: ('A' for Active; 'I' for Inactive)
REMARK    1  A    between atoms: C2'_3  and  C1'_4 
REMARK    2  A    between atoms: C1'_4  and  C1_5 
ROOT
ATOM      1  C1  I4B d   1      -0.265   0.509   0.606  0.00  0.00    -0.075 A 
ATOM      2  C2  I4B d   1      -0.378   1.473  -0.365  0.00  0.00     0.003 A 
ATOM      3  C3  I4B d   1      -1.262   2.564  -0.187  0.00  0.00     0.002 A 
ATOM      4  C4  I4B d   1      -2.048   2.624   0.946  0.00  0.00    -0.004 A 
ATOM      5  C5  I4B d   1      -1.916   1.658   1.940  0.00  0.00     0.002 A 
ATOM      6  C6  I4B d   1      -1.010   0.600   1.775  0.00  0.00     0.003 A 
ENDROOT
BRANCH   1   7
ATOM      7  C1' I4B d   1       0.654  -0.647   0.371  0.00  0.00     0.060 C 
BRANCH   7   8
ATOM      8  C2' I4B d   1       1.170  -0.552  -1.051  0.00  0.00    -0.013 C 
ATOM      9  C4' I4B d   1       2.632  -0.190  -1.078  0.00  0.00     0.013 C 
ATOM     10  C3' I4B d   1       0.926  -1.871  -1.721  0.00  0.00     0.013 C 
ENDBRANCH   7   8
ENDBRANCH   1   7
TORSDOF 2
ENDMDL
