MODEL 1
REMARK minimizedAffinity -3.44506001
REMARK minimizedRMSD -1
REMARK  2 active torsions:
REMARK  status: ('A' for Active; 'I' for Inactive)
REMARK    1  A    between atoms: C2'_3  and  C1'_4 
REMARK    2  A    between atoms: C1'_4  and  C1_5 
ROOT
ATOM      1  C1  I4B d   1       0.037  -0.281  -0.287  0.00  0.00    -0.075 A 
ATOM      2  C2  I4B d   1       0.024  -0.612   1.045  0.00  0.00     0.003 A 
ATOM      3  C3  I4B d   1      -0.772   0.126   1.955  0.00  0.00     0.002 A 
ATOM      4  C4  I4B d   1      -1.493   1.211   1.501  0.00  0.00    -0.004 A 
ATOM      5  C5  I4B d   1      -1.497   1.531   0.147  0.00  0.00     0.002 A 
ATOM      6  C6  I4B d   1      -0.736   0.773  -0.756  0.00  0.00     0.003 A 
ENDROOT
BRANCH   1   7
ATOM      7  C1' I4B d   1       0.914  -1.061  -1.215  0.00  0.00     0.060 C 
BRANCH   7   8
ATOM      8  C2' I4B d   1       0.037  -2.032  -1.979  0.00  0.00    -0.013 C 
ATOM      9  C4' I4B d   1      -0.102  -1.623  -3.422  0.00  0.00     0.013 C 
ATOM     10  C3' I4B d   1       0.647  -3.397  -1.860  0.00  0.00     0.013 C 
ENDBRANCH   7   8
ENDBRANCH   1   7
TORSDOF 2
ENDMDL
