MODEL 1
REMARK minimizedAffinity -4.39698315
REMARK minimizedRMSD -1
REMARK  2 active torsions:
REMARK  status: ('A' for Active; 'I' for Inactive)
REMARK    1  A    between atoms: C2'_3  and  C1'_4 
REMARK    2  A    between atoms: C1'_4  and  C1_5 
ROOT
ATOM      1  C1  I4B d   1       0.587   0.001  -0.158  0.00  0.00    -0.075 A 
ATOM      2  C2  I4B d   1      -0.081   1.154  -0.485  0.00  0.00     0.003 A 
ATOM      3  C3  I4B d   1      -1.007   1.724   0.423  0.00  0.00     0.002 A 
ATOM      4  C4  I4B d   1      -1.269   1.084   1.616  0.00  0.00    -0.004 A 
ATOM      5  C5  I4B d   1      -0.574  -0.073   1.956  0.00  0.00     0.002 A 
ATOM      6  C6  I4B d   1       0.369  -0.612   1.069  0.00  0.00     0.003 A 
ENDROOT
BRANCH   1   7
ATOM      7  C1' I4B d   1       1.533  -0.592  -1.153  0.00  0.00     0.060 C 
BRANCH   7   8
ATOM      8  C2' I4B d   1       0.862  -1.800  -1.774  0.00  0.00    -0.013 C 
ATOM      9  C4' I4B d   1       0.797  -1.677  -3.274  0.00  0.00     0.013 C 
ATOM     10  C3' I4B d   1       1.632  -3.019  -1.363  0.00  0.00     0.013 C 
ENDBRANCH   7   8
ENDBRANCH   1   7
TORSDOF 2
ENDMDL
