MODEL 1
REMARK minimizedAffinity -3.39447904
REMARK minimizedRMSD -1
REMARK  2 active torsions:
REMARK  status: ('A' for Active; 'I' for Inactive)
REMARK    1  A    between atoms: C2'_3  and  C1'_4 
REMARK    2  A    between atoms: C1'_4  and  C1_5 
ROOT
ATOM      1  C1  I4B d   1      -0.035   0.401   0.166  0.00  0.00    -0.075 A 
ATOM      2  C2  I4B d   1      -0.698  -0.257   1.171  0.00  0.00     0.003 A 
ATOM      3  C3  I4B d   1      -1.587   0.447   2.019  0.00  0.00     0.002 A 
ATOM      4  C4  I4B d   1      -1.743   1.809   1.860  0.00  0.00    -0.004 A 
ATOM      5  C5  I4B d   1      -1.087   2.471   0.826  0.00  0.00     0.002 A 
ATOM      6  C6  I4B d   1      -0.237   1.761  -0.034  0.00  0.00     0.003 A 
ENDROOT
BRANCH   1   7
ATOM      7  C1' I4B d   1       0.922  -0.367  -0.690  0.00  0.00     0.060 C 
BRANCH   7   8
ATOM      8  C2' I4B d   1       0.291  -1.707  -1.008  0.00  0.00    -0.013 C 
ATOM      9  C4' I4B d   1      -0.144  -1.777  -2.448  0.00  0.00     0.013 C 
ATOM     10  C3' I4B d   1       1.294  -2.777  -0.693  0.00  0.00     0.013 C 
ENDBRANCH   7   8
ENDBRANCH   1   7
TORSDOF 2
ENDMDL
