MODEL 1
REMARK minimizedAffinity -1.49938977
REMARK minimizedRMSD -1
REMARK  2 active torsions:
REMARK  status: ('A' for Active; 'I' for Inactive)
REMARK    1  A    between atoms: C2'_3  and  C1'_4 
REMARK    2  A    between atoms: C1'_4  and  C1_5 
ROOT
ATOM      1  C1  I4B d   1       0.354  -0.491   0.003  0.00  0.00    -0.075 A 
ATOM      2  C2  I4B d   1      -0.237   0.730  -0.206  0.00  0.00     0.003 A 
ATOM      3  C3  I4B d   1      -1.092   1.286   0.776  0.00  0.00     0.002 A 
ATOM      4  C4  I4B d   1      -1.366   0.569   1.923  0.00  0.00    -0.004 A 
ATOM      5  C5  I4B d   1      -0.748  -0.658   2.144  0.00  0.00     0.002 A 
ATOM      6  C6  I4B d   1       0.127  -1.187   1.184  0.00  0.00     0.003 A 
ENDROOT
BRANCH   1   7
ATOM      7  C1' I4B d   1       1.225  -1.064  -1.069  0.00  0.00     0.060 C 
BRANCH   7   8
ATOM      8  C2' I4B d   1       0.551  -2.311  -1.602  0.00  0.00    -0.013 C 
ATOM      9  C4' I4B d   1       0.216  -2.168  -3.063  0.00  0.00     0.013 C 
ATOM     10  C3' I4B d   1       1.472  -3.471  -1.369  0.00  0.00     0.013 C 
ENDBRANCH   7   8
ENDBRANCH   1   7
TORSDOF 2
ENDMDL
