MODEL 1
REMARK minimizedAffinity -5.4133606
REMARK minimizedRMSD -1
REMARK  2 active torsions:
REMARK  status: ('A' for Active; 'I' for Inactive)
REMARK    1  A    between atoms: C2'_3  and  C1'_4 
REMARK    2  A    between atoms: C1'_4  and  C1_5 
ROOT
ATOM      1  C1  I4B d   1      -0.685   0.804  -0.096  0.00  0.00    -0.075 A 
ATOM      2  C2  I4B d   1      -0.849   1.995  -0.758  0.00  0.00     0.003 A 
ATOM      3  C3  I4B d   1      -1.087   3.187  -0.032  0.00  0.00     0.002 A 
ATOM      4  C4  I4B d   1      -1.205   3.134   1.341  0.00  0.00    -0.004 A 
ATOM      5  C5  I4B d   1      -1.016   1.929   2.013  0.00  0.00     0.002 A 
ATOM      6  C6  I4B d   1      -0.743   0.759   1.291  0.00  0.00     0.003 A 
ENDROOT
BRANCH   1   7
ATOM      7  C1' I4B d   1      -0.468  -0.442  -0.896  0.00  0.00     0.060 C 
BRANCH   7   8
ATOM      8  C2' I4B d   1       0.935  -0.940  -0.611  0.00  0.00    -0.013 C 
ATOM      9  C4' I4B d   1       1.134  -2.337  -1.136  0.00  0.00     0.013 C 
ATOM     10  C3' I4B d   1       1.903   0.018  -1.238  0.00  0.00     0.013 C 
ENDBRANCH   7   8
ENDBRANCH   1   7
TORSDOF 2
ENDMDL
