MODEL 1
REMARK minimizedAffinity -5.25766611
REMARK minimizedRMSD -1
REMARK  2 active torsions:
REMARK  status: ('A' for Active; 'I' for Inactive)
REMARK    1  A    between atoms: C2'_3  and  C1'_4 
REMARK    2  A    between atoms: C1'_4  and  C1_5 
ROOT
ATOM      1  C1  I4B d   1      -0.142   0.590   0.566  0.00  0.00    -0.075 A 
ATOM      2  C2  I4B d   1      -1.018   0.620   1.623  0.00  0.00     0.003 A 
ATOM      3  C3  I4B d   1      -1.837   1.754   1.838  0.00  0.00     0.002 A 
ATOM      4  C4  I4B d   1      -1.712   2.849   1.007  0.00  0.00    -0.004 A 
ATOM      5  C5  I4B d   1      -0.840   2.808  -0.077  0.00  0.00     0.002 A 
ATOM      6  C6  I4B d   1      -0.058   1.667  -0.306  0.00  0.00     0.003 A 
ENDROOT
BRANCH   1   7
ATOM      7  C1' I4B d   1       0.732  -0.612   0.389  0.00  0.00     0.060 C 
BRANCH   7   8
ATOM      8  C2' I4B d   1       1.109  -0.701  -1.076  0.00  0.00    -0.013 C 
ATOM      9  C4' I4B d   1       2.412   0.003  -1.348  0.00  0.00     0.013 C 
ATOM     10  C3' I4B d   1       1.192  -2.153  -1.445  0.00  0.00     0.013 C 
ENDBRANCH   7   8
ENDBRANCH   1   7
TORSDOF 2
ENDMDL
