MODEL 1
REMARK minimizedAffinity -4.92976046
REMARK minimizedRMSD -1
REMARK  2 active torsions:
REMARK  status: ('A' for Active; 'I' for Inactive)
REMARK    1  A    between atoms: C2'_3  and  C1'_4 
REMARK    2  A    between atoms: C1'_4  and  C1_5 
ROOT
ATOM      1  C1  I4B d   1       0.212  -0.221  -0.162  0.00  0.00    -0.075 A 
ATOM      2  C2  I4B d   1       0.531  -0.319   1.170  0.00  0.00     0.003 A 
ATOM      3  C3  I4B d   1      -0.263   0.335   2.143  0.00  0.00     0.002 A 
ATOM      4  C4  I4B d   1      -1.330   1.113   1.739  0.00  0.00    -0.004 A 
ATOM      5  C5  I4B d   1      -1.665   1.192   0.391  0.00  0.00     0.002 A 
ATOM      6  C6  I4B d   1      -0.897   0.511  -0.565  0.00  0.00     0.003 A 
ENDROOT
BRANCH   1   7
ATOM      7  C1' I4B d   1       1.091  -0.898  -1.165  0.00  0.00     0.060 C 
BRANCH   7   8
ATOM      8  C2' I4B d   1       0.363  -2.127  -1.670  0.00  0.00    -0.013 C 
ATOM      9  C4' I4B d   1      -0.069  -1.955  -3.102  0.00  0.00     0.013 C 
ATOM     10  C3' I4B d   1       1.280  -3.303  -1.518  0.00  0.00     0.013 C 
ENDBRANCH   7   8
ENDBRANCH   1   7
TORSDOF 2
ENDMDL
