MODEL 1
REMARK minimizedAffinity -5.91400623
REMARK minimizedRMSD -1
REMARK  2 active torsions:
REMARK  status: ('A' for Active; 'I' for Inactive)
REMARK    1  A    between atoms: C2'_3  and  C1'_4 
REMARK    2  A    between atoms: C1'_4  and  C1_5 
ROOT
ATOM      1  C1  I4B d   1      -0.454   1.480  -0.634  0.00  0.00    -0.075 A 
ATOM      2  C2  I4B d   1      -1.447   1.182   0.266  0.00  0.00     0.003 A 
ATOM      3  C3  I4B d   1      -2.305   2.203   0.744  0.00  0.00     0.002 A 
ATOM      4  C4  I4B d   1      -2.103   3.506   0.337  0.00  0.00    -0.004 A 
ATOM      5  C5  I4B d   1      -1.110   3.802  -0.593  0.00  0.00     0.002 A 
ATOM      6  C6  I4B d   1      -0.289   2.780  -1.091  0.00  0.00     0.003 A 
ENDROOT
BRANCH   1   7
ATOM      7  C1' I4B d   1       0.454   0.383  -1.093  0.00  0.00     0.060 C 
BRANCH   7   8
ATOM      8  C2' I4B d   1      -0.044  -0.917  -0.495  0.00  0.00    -0.013 C 
ATOM      9  C4' I4B d   1       0.117  -2.059  -1.463  0.00  0.00     0.013 C 
ATOM     10  C3' I4B d   1       0.721  -1.167   0.771  0.00  0.00     0.013 C 
ENDBRANCH   7   8
ENDBRANCH   1   7
TORSDOF 2
ENDMDL
