MODEL 1
REMARK minimizedAffinity -4.53335142
REMARK minimizedRMSD -1
REMARK  2 active torsions:
REMARK  status: ('A' for Active; 'I' for Inactive)
REMARK    1  A    between atoms: C2'_3  and  C1'_4 
REMARK    2  A    between atoms: C1'_4  and  C1_5 
ROOT
ATOM      1  C1  I4B d   1       0.439  -1.102  -0.916  0.00  0.00    -0.075 A 
ATOM      2  C2  I4B d   1       1.387  -2.091  -0.826  0.00  0.00     0.003 A 
ATOM      3  C3  I4B d   1       1.394  -3.158  -1.756  0.00  0.00     0.002 A 
ATOM      4  C4  I4B d   1       0.411  -3.224  -2.723  0.00  0.00    -0.004 A 
ATOM      5  C5  I4B d   1      -0.536  -2.208  -2.826  0.00  0.00     0.002 A 
ATOM      6  C6  I4B d   1      -0.514  -1.134  -1.925  0.00  0.00     0.003 A 
ENDROOT
BRANCH   1   7
ATOM      7  C1' I4B d   1       0.442  -0.007   0.103  0.00  0.00     0.060 C 
BRANCH   7   8
ATOM      8  C2' I4B d   1      -0.635  -0.316   1.123  0.00  0.00    -0.013 C 
ATOM      9  C4' I4B d   1      -0.159  -1.334   2.126  0.00  0.00     0.013 C 
ATOM     10  C3' I4B d   1      -1.019   0.968   1.795  0.00  0.00     0.013 C 
ENDBRANCH   7   8
ENDBRANCH   1   7
TORSDOF 2
ENDMDL
