MODEL 1
REMARK minimizedAffinity -5.57754326
REMARK minimizedRMSD -1
REMARK  2 active torsions:
REMARK  status: ('A' for Active; 'I' for Inactive)
REMARK    1  A    between atoms: C2'_3  and  C1'_4 
REMARK    2  A    between atoms: C1'_4  and  C1_5 
ROOT
ATOM      1  C1  I4B d   1      -0.300   0.995   0.551  0.00  0.00    -0.075 A 
ATOM      2  C2  I4B d   1      -1.425   0.957   1.337  0.00  0.00     0.003 A 
ATOM      3  C3  I4B d   1      -2.289   2.076   1.399  0.00  0.00     0.002 A 
ATOM      4  C4  I4B d   1      -1.967   3.224   0.704  0.00  0.00    -0.004 A 
ATOM      5  C5  I4B d   1      -0.838   3.253  -0.110  0.00  0.00     0.002 A 
ATOM      6  C6  I4B d   1      -0.006   2.128  -0.197  0.00  0.00     0.003 A 
ENDROOT
BRANCH   1   7
ATOM      7  C1' I4B d   1       0.609  -0.193   0.534  0.00  0.00     0.060 C 
BRANCH   7   8
ATOM      8  C2' I4B d   1       1.081  -0.399  -0.891  0.00  0.00    -0.013 C 
ATOM      9  C4' I4B d   1       2.400   0.288  -1.132  0.00  0.00     0.013 C 
ATOM     10  C3' I4B d   1       1.187  -1.875  -1.135  0.00  0.00     0.013 C 
ENDBRANCH   7   8
ENDBRANCH   1   7
TORSDOF 2
ENDMDL
