MODEL 1
REMARK minimizedAffinity -5.62687349
REMARK minimizedRMSD -1
REMARK  2 active torsions:
REMARK  status: ('A' for Active; 'I' for Inactive)
REMARK    1  A    between atoms: C2'_3  and  C1'_4 
REMARK    2  A    between atoms: C1'_4  and  C1_5 
ROOT
ATOM      1  C1  I4B d   1       0.141  -0.013  -0.151  0.00  0.00    -0.075 A 
ATOM      2  C2  I4B d   1      -0.596   1.032  -0.652  0.00  0.00     0.003 A 
ATOM      3  C3  I4B d   1      -1.583   1.656   0.148  0.00  0.00     0.002 A 
ATOM      4  C4  I4B d   1      -1.833   1.174   1.417  0.00  0.00    -0.004 A 
ATOM      5  C5  I4B d   1      -1.070   0.130   1.931  0.00  0.00     0.002 A 
ATOM      6  C6  I4B d   1      -0.068  -0.459   1.147  0.00  0.00     0.003 A 
ENDROOT
BRANCH   1   7
ATOM      7  C1' I4B d   1       1.153  -0.670  -1.036  0.00  0.00     0.060 C 
BRANCH   7   8
ATOM      8  C2' I4B d   1       0.665  -2.072  -1.341  0.00  0.00    -0.013 C 
ATOM      9  C4' I4B d   1       0.099  -2.160  -2.734  0.00  0.00     0.013 C 
ATOM     10  C3' I4B d   1       1.820  -3.012  -1.165  0.00  0.00     0.013 C 
ENDBRANCH   7   8
ENDBRANCH   1   7
TORSDOF 2
ENDMDL
