MODEL 1
REMARK minimizedAffinity 7.8193841
REMARK minimizedRMSD -1
REMARK  0 active torsions:
REMARK  status: ('A' for Active; 'I' for Inactive)
ROOT
ATOM      1  C   UNL d   1       5.798   1.017   5.522  0.00  0.00     0.020 A 
ATOM      2  C1  UNL d   1       4.950   0.379   4.617  0.00  0.00     0.020 A 
ATOM      3  C2  UNL d   1       4.304   1.119   3.625  0.00  0.00     0.034 A 
ATOM      4  C3  UNL d   1       4.504   2.501   3.535  0.00  0.00     0.017 A 
ATOM      5  C4  UNL d   1       5.354   3.141   4.444  0.00  0.00     0.017 A 
ATOM      6  C5  UNL d   1       5.999   2.395   5.435  0.00  0.00     0.034 A 
ATOM      7 Cl   UNL d   1       5.650   4.843   4.396  0.00  0.00    -0.070 Cl
ATOM      8 Cl1  UNL d   1       3.673   3.353   2.282  0.00  0.00    -0.070 Cl
ENDROOT
TORSDOF 0
ENDMDL
