MODEL 1
REMARK minimizedAffinity 4.52393866
REMARK minimizedRMSD -1
REMARK  0 active torsions:
REMARK  status: ('A' for Active; 'I' for Inactive)
ROOT
ATOM      1  C   UNL d   1      -1.563  -1.404   0.459  0.00  0.00     0.020 A 
ATOM      2  C1  UNL d   1      -0.994  -1.841  -0.737  0.00  0.00     0.020 A 
ATOM      3  C2  UNL d   1      -0.529  -0.911  -1.670  0.00  0.00     0.034 A 
ATOM      4  C3  UNL d   1      -0.632   0.460  -1.408  0.00  0.00     0.017 A 
ATOM      5  C4  UNL d   1      -1.203   0.897  -0.207  0.00  0.00     0.017 A 
ATOM      6  C5  UNL d   1      -1.667  -0.038   0.723  0.00  0.00     0.034 A 
ATOM      7 Cl   UNL d   1      -1.364   2.573   0.187  0.00  0.00    -0.070 Cl
ATOM      8 Cl1  UNL d   1      -0.036   1.554  -2.606  0.00  0.00    -0.070 Cl
ENDROOT
TORSDOF 0
ENDMDL
