MODEL 1
REMARK minimizedAffinity 1.66961205
REMARK minimizedRMSD -1
REMARK  0 active torsions:
REMARK  status: ('A' for Active; 'I' for Inactive)
ROOT
ATOM      1  C   UNL d   1      -3.067   4.902  -0.231  0.00  0.00     0.020 A 
ATOM      2  C1  UNL d   1      -4.167   4.201   0.264  0.00  0.00     0.020 A 
ATOM      3  C2  UNL d   1      -4.123   2.809   0.358  0.00  0.00     0.034 A 
ATOM      4  C3  UNL d   1      -2.977   2.112  -0.043  0.00  0.00     0.017 A 
ATOM      5  C4  UNL d   1      -1.874   2.816  -0.540  0.00  0.00     0.017 A 
ATOM      6  C5  UNL d   1      -1.923   4.211  -0.632  0.00  0.00     0.034 A 
ATOM      7 Cl   UNL d   1      -0.425   2.026  -1.054  0.00  0.00    -0.070 Cl
ATOM      8 Cl1  UNL d   1      -2.991   0.390   0.102  0.00  0.00    -0.070 Cl
ENDROOT
TORSDOF 0
ENDMDL
