MODEL 1
REMARK minimizedAffinity -2.95412803
REMARK minimizedRMSD -1
REMARK  0 active torsions:
REMARK  status: ('A' for Active; 'I' for Inactive)
ROOT
ATOM      1  C   UNL d   1      -1.918   1.837   0.086  0.00  0.00     0.020 A 
ATOM      2  C1  UNL d   1      -2.463   2.249   1.301  0.00  0.00     0.020 A 
ATOM      3  C2  UNL d   1      -2.869   1.301   2.242  0.00  0.00     0.034 A 
ATOM      4  C3  UNL d   1      -2.730  -0.065   1.970  0.00  0.00     0.017 A 
ATOM      5  C4  UNL d   1      -2.182  -0.478   0.750  0.00  0.00     0.017 A 
ATOM      6  C5  UNL d   1      -1.778   0.476  -0.188  0.00  0.00     0.034 A 
ATOM      7 Cl   UNL d   1      -1.979  -2.146   0.343  0.00  0.00    -0.070 Cl
ATOM      8 Cl1  UNL d   1      -3.253  -1.182   3.180  0.00  0.00    -0.070 Cl
ENDROOT
TORSDOF 0
ENDMDL
