MODEL 1
REMARK minimizedAffinity -2.78198266
REMARK minimizedRMSD -1
REMARK  0 active torsions:
REMARK  status: ('A' for Active; 'I' for Inactive)
ROOT
ATOM      1  C   UNL d   1      -2.828   3.313   0.483  0.00  0.00     0.020 A 
ATOM      2  C1  UNL d   1      -3.355   2.585  -0.583  0.00  0.00     0.020 A 
ATOM      3  C2  UNL d   1      -3.419   1.192  -0.513  0.00  0.00     0.034 A 
ATOM      4  C3  UNL d   1      -2.955   0.522   0.625  0.00  0.00     0.017 A 
ATOM      5  C4  UNL d   1      -2.426   1.254   1.694  0.00  0.00     0.017 A 
ATOM      6  C5  UNL d   1      -2.364   2.649   1.619  0.00  0.00     0.034 A 
ATOM      7 Cl   UNL d   1      -1.833   0.498   3.131  0.00  0.00    -0.070 Cl
ATOM      8 Cl1  UNL d   1      -3.065  -1.202   0.644  0.00  0.00    -0.070 Cl
ENDROOT
TORSDOF 0
ENDMDL
