MODEL 1
REMARK minimizedAffinity -0.211280584
REMARK minimizedRMSD -1
REMARK  0 active torsions:
REMARK  status: ('A' for Active; 'I' for Inactive)
ROOT
ATOM      1  C   UNL d   1      -2.773   2.408   1.168  0.00  0.00     0.020 A 
ATOM      2  C1  UNL d   1      -2.239   1.938  -0.031  0.00  0.00     0.020 A 
ATOM      3  C2  UNL d   1      -1.854   0.601  -0.148  0.00  0.00     0.034 A 
ATOM      4  C3  UNL d   1      -2.003  -0.271   0.937  0.00  0.00     0.017 A 
ATOM      5  C4  UNL d   1      -2.540   0.201   2.140  0.00  0.00     0.017 A 
ATOM      6  C5  UNL d   1      -2.923   1.541   2.251  0.00  0.00     0.034 A 
ATOM      7 Cl   UNL d   1      -2.754  -0.815   3.522  0.00  0.00    -0.070 Cl
ATOM      8 Cl1  UNL d   1      -1.507  -1.912   0.722  0.00  0.00    -0.070 Cl
ENDROOT
TORSDOF 0
ENDMDL
