MODEL 1
REMARK minimizedAffinity 3.219455
REMARK minimizedRMSD -1
REMARK  0 active torsions:
REMARK  status: ('A' for Active; 'I' for Inactive)
ROOT
ATOM      1  C   UNL d   1       3.122  -0.155   1.767  0.00  0.00     0.020 A 
ATOM      2  C1  UNL d   1       3.376  -1.150   2.711  0.00  0.00     0.020 A 
ATOM      3  C2  UNL d   1       4.268  -0.907   3.757  0.00  0.00     0.034 A 
ATOM      4  C3  UNL d   1       4.909   0.333   3.863  0.00  0.00     0.017 A 
ATOM      5  C4  UNL d   1       4.653   1.330   2.915  0.00  0.00     0.017 A 
ATOM      6  C5  UNL d   1       3.759   1.082   1.869  0.00  0.00     0.034 A 
ATOM      7 Cl   UNL d   1       5.405   2.885   2.980  0.00  0.00    -0.070 Cl
ATOM      8 Cl1  UNL d   1       6.000   0.564   5.183  0.00  0.00    -0.070 Cl
ENDROOT
TORSDOF 0
ENDMDL
