MODEL 1
REMARK minimizedAffinity -2.48024082
REMARK minimizedRMSD -1
REMARK  0 active torsions:
REMARK  status: ('A' for Active; 'I' for Inactive)
ROOT
ATOM      1  C   UNL d   1      -3.461   2.953   0.869  0.00  0.00     0.020 A 
ATOM      2  C1  UNL d   1      -3.083   2.395  -0.352  0.00  0.00     0.020 A 
ATOM      3  C2  UNL d   1      -2.666   1.063  -0.411  0.00  0.00     0.034 A 
ATOM      4  C3  UNL d   1      -2.626   0.285   0.751  0.00  0.00     0.017 A 
ATOM      5  C4  UNL d   1      -3.006   0.846   1.976  0.00  0.00     0.017 A 
ATOM      6  C5  UNL d   1      -3.423   2.180   2.030  0.00  0.00     0.034 A 
ATOM      7 Cl   UNL d   1      -2.984  -0.051   3.453  0.00  0.00    -0.070 Cl
ATOM      8 Cl1  UNL d   1      -2.101  -1.354   0.604  0.00  0.00    -0.070 Cl
ENDROOT
TORSDOF 0
ENDMDL
