MODEL 1
REMARK minimizedAffinity -0.00620611338
REMARK minimizedRMSD -1
REMARK  0 active torsions:
REMARK  status: ('A' for Active; 'I' for Inactive)
ROOT
ATOM      1  C   UNL d   1      -3.579   0.844   0.054  0.00  0.00     0.020 A 
ATOM      2  C1  UNL d   1      -2.404   1.158   0.735  0.00  0.00     0.020 A 
ATOM      3  C2  UNL d   1      -2.257   2.413   1.332  0.00  0.00     0.034 A 
ATOM      4  C3  UNL d   1      -3.286   3.357   1.248  0.00  0.00     0.017 A 
ATOM      5  C4  UNL d   1      -4.466   3.040   0.564  0.00  0.00     0.017 A 
ATOM      6  C5  UNL d   1      -4.608   1.783  -0.031  0.00  0.00     0.034 A 
ATOM      7 Cl   UNL d   1      -5.780   4.153   0.418  0.00  0.00    -0.070 Cl
ATOM      8 Cl1  UNL d   1      -3.036   4.888   2.009  0.00  0.00    -0.070 Cl
ENDROOT
TORSDOF 0
ENDMDL
