MODEL 1
REMARK minimizedAffinity 3.50856519
REMARK minimizedRMSD -1
REMARK  0 active torsions:
REMARK  status: ('A' for Active; 'I' for Inactive)
ROOT
ATOM      1  C   UNL d   1       6.000   0.517   4.329  0.00  0.00     0.020 A 
ATOM      2  C1  UNL d   1       5.246  -0.194   3.395  0.00  0.00     0.020 A 
ATOM      3  C2  UNL d   1       4.481   0.492   2.449  0.00  0.00     0.034 A 
ATOM      4  C3  UNL d   1       4.468   1.891   2.434  0.00  0.00     0.017 A 
ATOM      5  C4  UNL d   1       5.224   2.603   3.372  0.00  0.00     0.017 A 
ATOM      6  C5  UNL d   1       5.989   1.912   4.317  0.00  0.00     0.034 A 
ATOM      7 Cl   UNL d   1       5.258   4.331   3.416  0.00  0.00    -0.070 Cl
ATOM      8 Cl1  UNL d   1       3.499   2.673   1.236  0.00  0.00    -0.070 Cl
ENDROOT
TORSDOF 0
ENDMDL
