MODEL 1
REMARK minimizedAffinity 2.95804787
REMARK minimizedRMSD -1
REMARK  0 active torsions:
REMARK  status: ('A' for Active; 'I' for Inactive)
ROOT
ATOM      1  C   UNL d   1      -2.891  -0.424   4.562  0.00  0.00     0.020 A 
ATOM      2  C1  UNL d   1      -3.426   0.656   3.860  0.00  0.00     0.020 A 
ATOM      3  C2  UNL d   1      -3.514   0.608   2.467  0.00  0.00     0.034 A 
ATOM      4  C3  UNL d   1      -3.067  -0.522   1.772  0.00  0.00     0.017 A 
ATOM      5  C4  UNL d   1      -2.530  -1.605   2.477  0.00  0.00     0.017 A 
ATOM      6  C5  UNL d   1      -2.444  -1.552   3.872  0.00  0.00     0.034 A 
ATOM      7 Cl   UNL d   1      -1.958  -3.032   1.689  0.00  0.00    -0.070 Cl
ATOM      8 Cl1  UNL d   1      -3.207  -0.513   0.049  0.00  0.00    -0.070 Cl
ENDROOT
TORSDOF 0
ENDMDL
