MODEL 1
REMARK minimizedAffinity 0.522640109
REMARK minimizedRMSD -1
REMARK  0 active torsions:
REMARK  status: ('A' for Active; 'I' for Inactive)
ROOT
ATOM      1  C   UNL d   1       3.740  -1.624   2.301  0.00  0.00     0.020 A 
ATOM      2  C1  UNL d   1       3.002  -0.753   1.500  0.00  0.00     0.020 A 
ATOM      3  C2  UNL d   1       3.183   0.627   1.619  0.00  0.00     0.034 A 
ATOM      4  C3  UNL d   1       4.104   1.139   2.539  0.00  0.00     0.017 A 
ATOM      5  C4  UNL d   1       4.845   0.264   3.342  0.00  0.00     0.017 A 
ATOM      6  C5  UNL d   1       4.659  -1.116   3.219  0.00  0.00     0.034 A 
ATOM      7 Cl   UNL d   1       6.000   0.822   4.500  0.00  0.00    -0.070 Cl
ATOM      8 Cl1  UNL d   1       4.277   2.856   2.632  0.00  0.00    -0.070 Cl
ENDROOT
TORSDOF 0
ENDMDL
