MODEL 1
REMARK minimizedAffinity 0.169968784
REMARK minimizedRMSD -1
REMARK  0 active torsions:
REMARK  status: ('A' for Active; 'I' for Inactive)
ROOT
ATOM      1  C   UNL d   1       6.000   1.896   5.738  0.00  0.00     0.020 A 
ATOM      2  C1  UNL d   1       5.462   0.922   4.898  0.00  0.00     0.020 A 
ATOM      3  C2  UNL d   1       4.923   1.285   3.662  0.00  0.00     0.034 A 
ATOM      4  C3  UNL d   1       4.921   2.627   3.263  0.00  0.00     0.017 A 
ATOM      5  C4  UNL d   1       5.461   3.604   4.107  0.00  0.00     0.017 A 
ATOM      6  C5  UNL d   1       5.999   3.234   5.343  0.00  0.00     0.034 A 
ATOM      7 Cl   UNL d   1       5.494   5.279   3.683  0.00  0.00    -0.070 Cl
ATOM      8 Cl1  UNL d   1       4.238   3.005   1.722  0.00  0.00    -0.070 Cl
ENDROOT
TORSDOF 0
ENDMDL
