MODEL 1
REMARK minimizedAffinity 1.01757956
REMARK minimizedRMSD -1
REMARK  0 active torsions:
REMARK  status: ('A' for Active; 'I' for Inactive)
ROOT
ATOM      1  C   UNL d   1       5.169   0.447   4.181  0.00  0.00     0.020 A 
ATOM      2  C1  UNL d   1       5.912   1.152   5.126  0.00  0.00     0.020 A 
ATOM      3  C2  UNL d   1       5.999   2.544   5.049  0.00  0.00     0.034 A 
ATOM      4  C3  UNL d   1       5.341   3.234   4.025  0.00  0.00     0.017 A 
ATOM      5  C4  UNL d   1       4.595   2.525   3.076  0.00  0.00     0.017 A 
ATOM      6  C5  UNL d   1       4.512   1.132   3.158  0.00  0.00     0.034 A 
ATOM      7 Cl   UNL d   1       3.756   3.307   1.783  0.00  0.00    -0.070 Cl
ATOM      8 Cl1  UNL d   1       5.491   4.955   3.990  0.00  0.00    -0.070 Cl
ENDROOT
TORSDOF 0
ENDMDL
