MODEL 1
REMARK minimizedAffinity 3.04469395
REMARK minimizedRMSD -1
REMARK  0 active torsions:
REMARK  status: ('A' for Active; 'I' for Inactive)
ROOT
ATOM      1  C   UNL d   1       3.528  -1.932   3.679  0.00  0.00     0.020 A 
ATOM      2  C1  UNL d   1       3.005  -1.249   2.582  0.00  0.00     0.020 A 
ATOM      3  C2  UNL d   1       3.404   0.064   2.322  0.00  0.00     0.034 A 
ATOM      4  C3  UNL d   1       4.329   0.698   3.159  0.00  0.00     0.017 A 
ATOM      5  C4  UNL d   1       4.854   0.011   4.260  0.00  0.00     0.017 A 
ATOM      6  C5  UNL d   1       4.451  -1.303   4.516  0.00  0.00     0.034 A 
ATOM      7 Cl   UNL d   1       6.000   0.727   5.338  0.00  0.00    -0.070 Cl
ATOM      8 Cl1  UNL d   1       4.777   2.322   2.777  0.00  0.00    -0.070 Cl
ENDROOT
TORSDOF 0
ENDMDL
