MODEL 1
REMARK minimizedAffinity 11.3373146
REMARK minimizedRMSD -1
REMARK  0 active torsions:
REMARK  status: ('A' for Active; 'I' for Inactive)
ROOT
ATOM      1  C   UNL d   1       5.196  -0.001   3.494  0.00  0.00     0.020 A 
ATOM      2  C1  UNL d   1       5.999   0.650   4.429  0.00  0.00     0.020 A 
ATOM      3  C2  UNL d   1       6.000   2.045   4.499  0.00  0.00     0.034 A 
ATOM      4  C3  UNL d   1       5.196   2.793   3.632  0.00  0.00     0.017 A 
ATOM      5  C4  UNL d   1       4.390   2.139   2.693  0.00  0.00     0.017 A 
ATOM      6  C5  UNL d   1       4.393   0.742   2.627  0.00  0.00     0.034 A 
ATOM      7 Cl   UNL d   1       3.372   2.995   1.589  0.00  0.00    -0.070 Cl
ATOM      8 Cl1  UNL d   1       5.247   4.515   3.774  0.00  0.00    -0.070 Cl
ENDROOT
TORSDOF 0
ENDMDL
