MODEL 1
REMARK minimizedAffinity 0.00897504296
REMARK minimizedRMSD -1
REMARK  0 active torsions:
REMARK  status: ('A' for Active; 'I' for Inactive)
ROOT
ATOM      1  C   UNL d   1      -1.626  -0.358   3.346  0.00  0.00     0.020 A 
ATOM      2  C1  UNL d   1      -2.730  -0.248   4.190  0.00  0.00     0.020 A 
ATOM      3  C2  UNL d   1      -4.012  -0.510   3.701  0.00  0.00     0.034 A 
ATOM      4  C3  UNL d   1      -4.192  -0.885   2.364  0.00  0.00     0.017 A 
ATOM      5  C4  UNL d   1      -3.083  -0.995   1.518  0.00  0.00     0.017 A 
ATOM      6  C5  UNL d   1      -1.802  -0.731   2.013  0.00  0.00     0.034 A 
ATOM      7 Cl   UNL d   1      -3.226  -1.452  -0.143  0.00  0.00    -0.070 Cl
ATOM      8 Cl1  UNL d   1      -5.805  -1.195   1.828  0.00  0.00    -0.070 Cl
ENDROOT
TORSDOF 0
ENDMDL
