MODEL 1
REMARK minimizedAffinity 2.20189452
REMARK minimizedRMSD -1
REMARK  0 active torsions:
REMARK  status: ('A' for Active; 'I' for Inactive)
ROOT
ATOM      1  C   UNL d   1      -3.917   1.238   0.216  0.00  0.00     0.020 A 
ATOM      2  C1  UNL d   1      -3.152   2.243  -0.374  0.00  0.00     0.020 A 
ATOM      3  C2  UNL d   1      -1.790   2.347  -0.081  0.00  0.00     0.034 A 
ATOM      4  C3  UNL d   1      -1.190   1.446   0.806  0.00  0.00     0.017 A 
ATOM      5  C4  UNL d   1      -1.959   0.437   1.398  0.00  0.00     0.017 A 
ATOM      6  C5  UNL d   1      -3.322   0.337   1.100  0.00  0.00     0.034 A 
ATOM      7 Cl   UNL d   1      -1.289  -0.713   2.501  0.00  0.00    -0.070 Cl
ATOM      8 Cl1  UNL d   1       0.498   1.634   1.122  0.00  0.00    -0.070 Cl
ENDROOT
TORSDOF 0
ENDMDL
