MODEL 1
REMARK minimizedAffinity 1.79982316
REMARK minimizedRMSD -1
REMARK  0 active torsions:
REMARK  status: ('A' for Active; 'I' for Inactive)
ROOT
ATOM      1  C   UNL d   1       0.338   0.677   1.368  0.00  0.00     0.020 A 
ATOM      2  C1  UNL d   1       0.461   1.821   0.579  0.00  0.00     0.020 A 
ATOM      3  C2  UNL d   1      -0.641   2.301  -0.131  0.00  0.00     0.034 A 
ATOM      4  C3  UNL d   1      -1.871   1.639  -0.054  0.00  0.00     0.017 A 
ATOM      5  C4  UNL d   1      -1.994   0.491   0.738  0.00  0.00     0.017 A 
ATOM      6  C5  UNL d   1      -0.887   0.014   1.447  0.00  0.00     0.034 A 
ATOM      7 Cl   UNL d   1      -3.479  -0.381   0.882  0.00  0.00    -0.070 Cl
ATOM      8 Cl1  UNL d   1      -3.192   2.289  -0.958  0.00  0.00    -0.070 Cl
ENDROOT
TORSDOF 0
ENDMDL
