MODEL 1
REMARK minimizedAffinity 3.33743024
REMARK minimizedRMSD -1
REMARK  0 active torsions:
REMARK  status: ('A' for Active; 'I' for Inactive)
ROOT
ATOM      1  C   UNL d   1      -1.363   2.181   0.384  0.00  0.00     0.020 A 
ATOM      2  C1  UNL d   1      -1.041   1.022   1.090  0.00  0.00     0.020 A 
ATOM      3  C2  UNL d   1      -2.043   0.113   1.433  0.00  0.00     0.034 A 
ATOM      4  C3  UNL d   1      -3.372   0.360   1.071  0.00  0.00     0.017 A 
ATOM      5  C4  UNL d   1      -3.694   1.523   0.363  0.00  0.00     0.017 A 
ATOM      6  C5  UNL d   1      -2.687   2.430   0.021  0.00  0.00     0.034 A 
ATOM      7 Cl   UNL d   1      -5.312   1.896  -0.119  0.00  0.00    -0.070 Cl
ATOM      8 Cl1  UNL d   1      -4.560  -0.808   1.529  0.00  0.00    -0.070 Cl
ENDROOT
TORSDOF 0
ENDMDL
