MODEL 1
REMARK minimizedAffinity 5.41320801
REMARK minimizedRMSD -1
REMARK  0 active torsions:
REMARK  status: ('A' for Active; 'I' for Inactive)
ROOT
ATOM      1  C   UNL d   1      -1.382  -2.194   3.313  0.00  0.00     0.020 A 
ATOM      2  C1  UNL d   1      -1.945  -1.386   2.326  0.00  0.00     0.020 A 
ATOM      3  C2  UNL d   1      -2.247  -1.923   1.072  0.00  0.00     0.034 A 
ATOM      4  C3  UNL d   1      -1.986  -3.272   0.803  0.00  0.00     0.017 A 
ATOM      5  C4  UNL d   1      -1.421  -4.081   1.795  0.00  0.00     0.017 A 
ATOM      6  C5  UNL d   1      -1.121  -3.538   3.048  0.00  0.00     0.034 A 
ATOM      7 Cl   UNL d   1      -1.070  -5.754   1.537  0.00  0.00    -0.070 Cl
ATOM      8 Cl1  UNL d   1      -2.385  -3.869  -0.768  0.00  0.00    -0.070 Cl
ENDROOT
TORSDOF 0
ENDMDL
