MODEL 1
REMARK minimizedAffinity -4.15487051
REMARK minimizedRMSD -1
REMARK  0 active torsions:
REMARK  status: ('A' for Active; 'I' for Inactive)
ROOT
ATOM      1  C   UNL d   1      -3.235   2.885  -0.792  0.00  0.00     0.020 A 
ATOM      2  C1  UNL d   1      -4.004   2.022  -0.013  0.00  0.00     0.020 A 
ATOM      3  C2  UNL d   1      -3.389   0.993   0.704  0.00  0.00     0.034 A 
ATOM      4  C3  UNL d   1      -2.001   0.825   0.643  0.00  0.00     0.017 A 
ATOM      5  C4  UNL d   1      -1.230   1.692  -0.139  0.00  0.00     0.017 A 
ATOM      6  C5  UNL d   1      -1.851   2.721  -0.855  0.00  0.00     0.034 A 
ATOM      7 Cl   UNL d   1       0.488   1.548  -0.264  0.00  0.00    -0.070 Cl
ATOM      8 Cl1  UNL d   1      -1.308  -0.468   1.555  0.00  0.00    -0.070 Cl
ENDROOT
TORSDOF 0
ENDMDL
