MODEL 1
REMARK minimizedAffinity 5.46780443
REMARK minimizedRMSD -1
REMARK  0 active torsions:
REMARK  status: ('A' for Active; 'I' for Inactive)
ROOT
ATOM      1  C   UNL d   1       4.876   4.351   2.818  0.00  0.00     0.020 A 
ATOM      2  C1  UNL d   1       4.116   5.505   2.630  0.00  0.00     0.020 A 
ATOM      3  C2  UNL d   1       3.902   5.997   1.340  0.00  0.00     0.034 A 
ATOM      4  C3  UNL d   1       4.448   5.335   0.235  0.00  0.00     0.017 A 
ATOM      5  C4  UNL d   1       5.211   4.177   0.425  0.00  0.00     0.017 A 
ATOM      6  C5  UNL d   1       5.423   3.689   1.718  0.00  0.00     0.034 A 
ATOM      7 Cl   UNL d   1       5.918   3.306  -0.890  0.00  0.00    -0.070 Cl
ATOM      8 Cl1  UNL d   1       4.143   5.999  -1.331  0.00  0.00    -0.070 Cl
ENDROOT
TORSDOF 0
ENDMDL
