MODEL 1
REMARK minimizedAffinity 3.92784739
REMARK minimizedRMSD -1
REMARK  0 active torsions:
REMARK  status: ('A' for Active; 'I' for Inactive)
ROOT
ATOM      1  C   UNL d   1      -0.053  -4.952   3.760  0.00  0.00     0.020 A 
ATOM      2  C1  UNL d   1      -0.381  -6.000   2.901  0.00  0.00     0.020 A 
ATOM      3  C2  UNL d   1      -1.179  -5.760   1.780  0.00  0.00     0.034 A 
ATOM      4  C3  UNL d   1      -1.652  -4.470   1.516  0.00  0.00     0.017 A 
ATOM      5  C4  UNL d   1      -1.323  -3.419   2.379  0.00  0.00     0.017 A 
ATOM      6  C5  UNL d   1      -0.523  -3.664   3.500  0.00  0.00     0.034 A 
ATOM      7 Cl   UNL d   1      -1.870  -1.800   2.119  0.00  0.00    -0.070 Cl
ATOM      8 Cl1  UNL d   1      -2.635  -4.246   0.112  0.00  0.00    -0.070 Cl
ENDROOT
TORSDOF 0
ENDMDL
