MODEL 1
REMARK minimizedAffinity 8.41280365
REMARK minimizedRMSD -1
REMARK  0 active torsions:
REMARK  status: ('A' for Active; 'I' for Inactive)
ROOT
ATOM      1  C   UNL d   1       0.286   0.335   1.118  0.00  0.00     0.020 A 
ATOM      2  C1  UNL d   1       1.470   0.758   0.516  0.00  0.00     0.020 A 
ATOM      3  C2  UNL d   1       1.929   2.062   0.718  0.00  0.00     0.034 A 
ATOM      4  C3  UNL d   1       1.202   2.946   1.524  0.00  0.00     0.017 A 
ATOM      5  C4  UNL d   1       0.014   2.520   2.127  0.00  0.00     0.017 A 
ATOM      6  C5  UNL d   1      -0.441   1.214   1.922  0.00  0.00     0.034 A 
ATOM      7 Cl   UNL d   1      -0.937   3.554   3.135  0.00  0.00    -0.070 Cl
ATOM      8 Cl1  UNL d   1       1.828   4.544   1.730  0.00  0.00    -0.070 Cl
ENDROOT
TORSDOF 0
ENDMDL
