MODEL 1
REMARK minimizedAffinity 2.98088622
REMARK minimizedRMSD -1
REMARK  0 active torsions:
REMARK  status: ('A' for Active; 'I' for Inactive)
ROOT
ATOM      1  C   UNL d   1      -1.010   2.795   2.878  0.00  0.00     0.020 A 
ATOM      2  C1  UNL d   1      -0.038   3.381   3.687  0.00  0.00     0.020 A 
ATOM      3  C2  UNL d   1       1.316   3.203   3.393  0.00  0.00     0.034 A 
ATOM      4  C3  UNL d   1       1.701   2.438   2.286  0.00  0.00     0.017 A 
ATOM      5  C4  UNL d   1       0.724   1.850   1.474  0.00  0.00     0.017 A 
ATOM      6  C5  UNL d   1      -0.630   2.031   1.774  0.00  0.00     0.034 A 
ATOM      7 Cl   UNL d   1       1.122   0.892   0.092  0.00  0.00    -0.070 Cl
ATOM      8 Cl1  UNL d   1       3.392   2.260   1.981  0.00  0.00    -0.070 Cl
ENDROOT
TORSDOF 0
ENDMDL
