MODEL 1
REMARK minimizedAffinity 4.10351896
REMARK minimizedRMSD -1
REMARK  0 active torsions:
REMARK  status: ('A' for Active; 'I' for Inactive)
ROOT
ATOM      1  C   UNL d   1       4.106   5.977   0.801  0.00  0.00     0.020 A 
ATOM      2  C1  UNL d   1       2.744   5.985   1.097  0.00  0.00     0.020 A 
ATOM      3  C2  UNL d   1       2.318   5.992   2.427  0.00  0.00     0.034 A 
ATOM      4  C3  UNL d   1       3.256   5.990   3.466  0.00  0.00     0.017 A 
ATOM      5  C4  UNL d   1       4.623   5.981   3.168  0.00  0.00     0.017 A 
ATOM      6  C5  UNL d   1       5.044   5.974   1.835  0.00  0.00     0.034 A 
ATOM      7 Cl   UNL d   1       5.839   5.978   4.396  0.00  0.00    -0.070 Cl
ATOM      8 Cl1  UNL d   1       2.658   5.999   5.088  0.00  0.00    -0.070 Cl
ENDROOT
TORSDOF 0
ENDMDL
