MODEL 1
REMARK minimizedAffinity 3.30918646
REMARK minimizedRMSD -1
REMARK  0 active torsions:
REMARK  status: ('A' for Active; 'I' for Inactive)
ROOT
ATOM      1  C   UNL d   1      -1.237   2.543   2.430  0.00  0.00     0.020 A 
ATOM      2  C1  UNL d   1      -0.392   3.231   3.300  0.00  0.00     0.020 A 
ATOM      3  C2  UNL d   1       0.993   3.132   3.152  0.00  0.00     0.034 A 
ATOM      4  C3  UNL d   1       1.537   2.342   2.132  0.00  0.00     0.017 A 
ATOM      5  C4  UNL d   1       0.688   1.651   1.260  0.00  0.00     0.017 A 
ATOM      6  C5  UNL d   1      -0.698   1.755   1.413  0.00  0.00     0.034 A 
ATOM      7 Cl   UNL d   1       1.285   0.658  -0.022  0.00  0.00    -0.070 Cl
ATOM      8 Cl1  UNL d   1       3.259   2.265   2.007  0.00  0.00    -0.070 Cl
ENDROOT
TORSDOF 0
ENDMDL
