MODEL 1
REMARK minimizedAffinity 5.0986414
REMARK minimizedRMSD -1
REMARK  0 active torsions:
REMARK  status: ('A' for Active; 'I' for Inactive)
ROOT
ATOM      1  C   UNL d   1      -0.827   3.250   2.784  0.00  0.00     0.020 A 
ATOM      2  C1  UNL d   1       0.559   3.323   2.918  0.00  0.00     0.020 A 
ATOM      3  C2  UNL d   1       1.373   2.397   2.263  0.00  0.00     0.034 A 
ATOM      4  C3  UNL d   1       0.803   1.394   1.472  0.00  0.00     0.017 A 
ATOM      5  C4  UNL d   1      -0.588   1.321   1.338  0.00  0.00     0.017 A 
ATOM      6  C5  UNL d   1      -1.399   2.251   1.995  0.00  0.00     0.034 A 
ATOM      7 Cl   UNL d   1      -1.365   0.111   0.378  0.00  0.00    -0.070 Cl
ATOM      8 Cl1  UNL d   1       1.871   0.282   0.691  0.00  0.00    -0.070 Cl
ENDROOT
TORSDOF 0
ENDMDL
