MODEL 1
REMARK minimizedAffinity 6.89151287
REMARK minimizedRMSD -1
REMARK  0 active torsions:
REMARK  status: ('A' for Active; 'I' for Inactive)
ROOT
ATOM      1  C   UNL d   1       0.960   1.918  -3.085  0.00  0.00     0.020 A 
ATOM      2  C1  UNL d   1       2.297   1.534  -2.992  0.00  0.00     0.020 A 
ATOM      3  C2  UNL d   1       2.830   1.157  -1.757  0.00  0.00     0.034 A 
ATOM      4  C3  UNL d   1       2.027   1.163  -0.612  0.00  0.00     0.017 A 
ATOM      5  C4  UNL d   1       0.685   1.549  -0.706  0.00  0.00     0.017 A 
ATOM      6  C5  UNL d   1       0.156   1.925  -1.945  0.00  0.00     0.034 A 
ATOM      7 Cl   UNL d   1      -0.369   1.582   0.663  0.00  0.00    -0.070 Cl
ATOM      8 Cl1  UNL d   1       2.752   0.685   0.882  0.00  0.00    -0.070 Cl
ENDROOT
TORSDOF 0
ENDMDL
