MODEL 1
REMARK minimizedAffinity 2.49992251
REMARK minimizedRMSD -1
REMARK  0 active torsions:
REMARK  status: ('A' for Active; 'I' for Inactive)
ROOT
ATOM      1  C   UNL d   1       1.386  -5.998   5.076  0.00  0.00     0.020 A 
ATOM      2  C1  UNL d   1       0.019  -6.000   5.352  0.00  0.00     0.020 A 
ATOM      3  C2  UNL d   1      -0.904  -5.999   4.305  0.00  0.00     0.034 A 
ATOM      4  C3  UNL d   1      -0.463  -5.997   2.977  0.00  0.00     0.017 A 
ATOM      5  C4  UNL d   1       0.909  -5.995   2.701  0.00  0.00     0.017 A 
ATOM      6  C5  UNL d   1       1.830  -5.996   3.753  0.00  0.00     0.034 A 
ATOM      7 Cl   UNL d   1       1.531  -5.992   1.088  0.00  0.00    -0.070 Cl
ATOM      8 Cl1  UNL d   1      -1.661  -5.996   1.731  0.00  0.00    -0.070 Cl
ENDROOT
TORSDOF 0
ENDMDL
