MODEL 1
REMARK minimizedAffinity 1.75677514
REMARK minimizedRMSD -1
REMARK  0 active torsions:
REMARK  status: ('A' for Active; 'I' for Inactive)
ROOT
ATOM      1  C   UNL d   1       1.892   1.167   0.968  0.00  0.00     0.020 A 
ATOM      2  C1  UNL d   1       2.042   2.173   1.922  0.00  0.00     0.020 A 
ATOM      3  C2  UNL d   1       0.915   2.737   2.524  0.00  0.00     0.034 A 
ATOM      4  C3  UNL d   1      -0.366   2.295   2.174  0.00  0.00     0.017 A 
ATOM      5  C4  UNL d   1      -0.515   1.285   1.216  0.00  0.00     0.017 A 
ATOM      6  C5  UNL d   1       0.617   0.724   0.616  0.00  0.00     0.034 A 
ATOM      7 Cl   UNL d   1      -2.063   0.688   0.732  0.00  0.00    -0.070 Cl
ATOM      8 Cl1  UNL d   1      -1.715   3.036   2.959  0.00  0.00    -0.070 Cl
ENDROOT
TORSDOF 0
ENDMDL
