MODEL 1
REMARK minimizedAffinity 1.71348417
REMARK minimizedRMSD -1
REMARK  0 active torsions:
REMARK  status: ('A' for Active; 'I' for Inactive)
ROOT
ATOM      1  C   UNL d   1       0.027   2.625   2.995  0.00  0.00     0.020 A 
ATOM      2  C1  UNL d   1       1.385   2.699   2.687  0.00  0.00     0.020 A 
ATOM      3  C2  UNL d   1       1.846   2.248   1.449  0.00  0.00     0.034 A 
ATOM      4  C3  UNL d   1       0.948   1.720   0.513  0.00  0.00     0.017 A 
ATOM      5  C4  UNL d   1      -0.415   1.647   0.823  0.00  0.00     0.017 A 
ATOM      6  C5  UNL d   1      -0.871   2.101   2.064  0.00  0.00     0.034 A 
ATOM      7 Cl   UNL d   1      -1.583   1.009  -0.280  0.00  0.00    -0.070 Cl
ATOM      8 Cl1  UNL d   1       1.588   1.181  -0.999  0.00  0.00    -0.070 Cl
ENDROOT
TORSDOF 0
ENDMDL
