MODEL 1
REMARK minimizedAffinity 10.1298971
REMARK minimizedRMSD -1
REMARK  0 active torsions:
REMARK  status: ('A' for Active; 'I' for Inactive)
ROOT
ATOM      1  C   UNL d   1       2.477   1.754   2.057  0.00  0.00     0.020 A 
ATOM      2  C1  UNL d   1       2.289   0.736   1.123  0.00  0.00     0.020 A 
ATOM      3  C2  UNL d   1       0.999   0.400   0.708  0.00  0.00     0.034 A 
ATOM      4  C3  UNL d   1      -0.108   1.081   1.227  0.00  0.00     0.017 A 
ATOM      5  C4  UNL d   1       0.082   2.103   2.165  0.00  0.00     0.017 A 
ATOM      6  C5  UNL d   1       1.376   2.435   2.577  0.00  0.00     0.034 A 
ATOM      7 Cl   UNL d   1      -1.234   2.988   2.850  0.00  0.00    -0.070 Cl
ATOM      8 Cl1  UNL d   1      -1.675   0.613   0.668  0.00  0.00    -0.070 Cl
ENDROOT
TORSDOF 0
ENDMDL
