MODEL 1
REMARK minimizedAffinity -0.269892305
REMARK minimizedRMSD -1
REMARK  0 active torsions:
REMARK  status: ('A' for Active; 'I' for Inactive)
ROOT
ATOM      1  C   UNL d   1      -0.067   2.403   2.879  0.00  0.00     0.020 A 
ATOM      2  C1  UNL d   1       0.938   3.164   3.476  0.00  0.00     0.020 A 
ATOM      3  C2  UNL d   1       2.249   3.082   3.002  0.00  0.00     0.034 A 
ATOM      4  C3  UNL d   1       2.559   2.238   1.930  0.00  0.00     0.017 A 
ATOM      5  C4  UNL d   1       1.550   1.475   1.332  0.00  0.00     0.017 A 
ATOM      6  C5  UNL d   1       0.238   1.560   1.810  0.00  0.00     0.034 A 
ATOM      7 Cl   UNL d   1       1.855   0.411   0.004  0.00  0.00    -0.070 Cl
ATOM      8 Cl1  UNL d   1       4.202   2.186   1.396  0.00  0.00    -0.070 Cl
ENDROOT
TORSDOF 0
ENDMDL
