MODEL 1
REMARK minimizedAffinity 4.67452955
REMARK minimizedRMSD -1
REMARK  2 active torsions:
REMARK  status: ('A' for Active; 'I' for Inactive)
REMARK    1  A    between atoms: C2'_3  and  C1'_4 
REMARK    2  A    between atoms: C1'_4  and  C1_5 
ROOT
ATOM      1  C1  I4B d   1       0.594  -0.870  -1.263  0.00  0.00    -0.075 A 
ATOM      2  C2  I4B d   1      -0.293  -1.435  -0.381  0.00  0.00     0.003 A 
ATOM      3  C3  I4B d   1       0.180  -2.163   0.737  0.00  0.00     0.002 A 
ATOM      4  C4  I4B d   1       1.538  -2.343   0.906  0.00  0.00    -0.004 A 
ATOM      5  C5  I4B d   1       2.436  -1.751   0.023  0.00  0.00     0.002 A 
ATOM      6  C6  I4B d   1       1.962  -0.999  -1.062  0.00  0.00     0.003 A 
ENDROOT
BRANCH   1   7
ATOM      7  C1' I4B d   1       0.059  -0.136  -2.452  0.00  0.00     0.060 C 
BRANCH   7   8
ATOM      8  C2' I4B d   1       0.129  -1.066  -3.646  0.00  0.00    -0.013 C 
ATOM      9  C4' I4B d   1      -0.874  -2.182  -3.527  0.00  0.00     0.013 C 
ATOM     10  C3' I4B d   1      -0.111  -0.251  -4.882  0.00  0.00     0.013 C 
ENDBRANCH   7   8
ENDBRANCH   1   7
TORSDOF 2
ENDMDL
