MODEL 1
REMARK minimizedAffinity 0.799827576
REMARK minimizedRMSD -1
REMARK  2 active torsions:
REMARK  status: ('A' for Active; 'I' for Inactive)
REMARK    1  A    between atoms: C2'_3  and  C1'_4 
REMARK    2  A    between atoms: C1'_4  and  C1_5 
ROOT
ATOM      1  C1  I4B d   1      -3.924  -0.274   3.568  0.00  0.00    -0.075 A 
ATOM      2  C2  I4B d   1      -3.492  -1.564   3.751  0.00  0.00     0.003 A 
ATOM      3  C3  I4B d   1      -4.314  -2.652   3.369  0.00  0.00     0.002 A 
ATOM      4  C4  I4B d   1      -5.573  -2.407   2.860  0.00  0.00    -0.004 A 
ATOM      5  C5  I4B d   1      -6.000  -1.098   2.654  0.00  0.00     0.002 A 
ATOM      6  C6  I4B d   1      -5.166  -0.025   2.999  0.00  0.00     0.003 A 
ENDROOT
BRANCH   1   7
ATOM      7  C1' I4B d   1      -3.043   0.850   4.013  0.00  0.00     0.060 C 
BRANCH   7   8
ATOM      8  C2' I4B d   1      -3.889   2.105   4.083  0.00  0.00    -0.013 C 
ATOM      9  C4' I4B d   1      -3.869   2.699   5.467  0.00  0.00     0.013 C 
ATOM     10  C3' I4B d   1      -3.361   3.077   3.070  0.00  0.00     0.013 C 
ENDBRANCH   7   8
ENDBRANCH   1   7
TORSDOF 2
ENDMDL
