MODEL 1
REMARK minimizedAffinity 0.414749235
REMARK minimizedRMSD -1
REMARK  2 active torsions:
REMARK  status: ('A' for Active; 'I' for Inactive)
REMARK    1  A    between atoms: C2'_3  and  C1'_4 
REMARK    2  A    between atoms: C1'_4  and  C1_5 
ROOT
ATOM      1  C1  I4B d   1      -3.797   3.222   5.193  0.00  0.00    -0.075 A 
ATOM      2  C2  I4B d   1      -4.464   4.247   5.815  0.00  0.00     0.003 A 
ATOM      3  C3  I4B d   1      -4.830   5.405   5.087  0.00  0.00     0.002 A 
ATOM      4  C4  I4B d   1      -4.467   5.516   3.760  0.00  0.00    -0.004 A 
ATOM      5  C5  I4B d   1      -3.811   4.466   3.125  0.00  0.00     0.002 A 
ATOM      6  C6  I4B d   1      -3.485   3.306   3.842  0.00  0.00     0.003 A 
ENDROOT
BRANCH   1   7
ATOM      7  C1' I4B d   1      -3.397   2.027   6.000  0.00  0.00     0.060 C 
BRANCH   7   8
ATOM      8  C2' I4B d   1      -3.393   0.823   5.081  0.00  0.00    -0.013 C 
ATOM      9  C4' I4B d   1      -1.992   0.326   4.839  0.00  0.00     0.013 C 
ATOM     10  C3' I4B d   1      -4.245  -0.241   5.708  0.00  0.00     0.013 C 
ENDBRANCH   7   8
ENDBRANCH   1   7
TORSDOF 2
ENDMDL
