MODEL 1
REMARK minimizedAffinity 6.49479866
REMARK minimizedRMSD -1
REMARK  2 active torsions:
REMARK  status: ('A' for Active; 'I' for Inactive)
REMARK    1  A    between atoms: C2'_3  and  C1'_4 
REMARK    2  A    between atoms: C1'_4  and  C1_5 
ROOT
ATOM      1  C1  I4B d   1       0.152  -0.532  -2.313  0.00  0.00    -0.075 A 
ATOM      2  C2  I4B d   1       0.040  -1.683  -3.053  0.00  0.00     0.003 A 
ATOM      3  C3  I4B d   1       0.015  -1.621  -4.467  0.00  0.00     0.002 A 
ATOM      4  C4  I4B d   1       0.054  -0.392  -5.095  0.00  0.00    -0.004 A 
ATOM      5  C5  I4B d   1       0.191   0.771  -4.344  0.00  0.00     0.002 A 
ATOM      6  C6  I4B d   1       0.253   0.701  -2.944  0.00  0.00     0.003 A 
ENDROOT
BRANCH   1   7
ATOM      7  C1' I4B d   1       0.142  -0.632  -0.820  0.00  0.00     0.060 C 
BRANCH   7   8
ATOM      8  C2' I4B d   1       1.579  -0.610  -0.341  0.00  0.00    -0.013 C 
ATOM      9  C4' I4B d   1       2.130  -2.005  -0.207  0.00  0.00     0.013 C 
ATOM     10  C3' I4B d   1       2.381   0.197  -1.319  0.00  0.00     0.013 C 
ENDBRANCH   7   8
ENDBRANCH   1   7
TORSDOF 2
ENDMDL
