MODEL 1
REMARK minimizedAffinity 2.0769453
REMARK minimizedRMSD -1
REMARK  2 active torsions:
REMARK  status: ('A' for Active; 'I' for Inactive)
REMARK    1  A    between atoms: C2'_3  and  C1'_4 
REMARK    2  A    between atoms: C1'_4  and  C1_5 
ROOT
ATOM      1  C1  I4B d   1       1.046  -2.496   0.279  0.00  0.00    -0.075 A 
ATOM      2  C2  I4B d   1       1.952  -1.795  -0.477  0.00  0.00     0.003 A 
ATOM      3  C3  I4B d   1       1.507  -0.816  -1.398  0.00  0.00     0.002 A 
ATOM      4  C4  I4B d   1       0.153  -0.608  -1.566  0.00  0.00    -0.004 A 
ATOM      5  C5  I4B d   1      -0.764  -1.303  -0.783  0.00  0.00     0.002 A 
ATOM      6  C6  I4B d   1      -0.314  -2.245   0.155  0.00  0.00     0.003 A 
ENDROOT
BRANCH   1   7
ATOM      7  C1' I4B d   1       1.549  -3.546   1.218  0.00  0.00     0.060 C 
BRANCH   7   8
ATOM      8  C2' I4B d   1       0.835  -4.843   0.895  0.00  0.00    -0.013 C 
ATOM      9  C4' I4B d   1       1.327  -5.968   1.767  0.00  0.00     0.013 C 
ATOM     10  C3' I4B d   1      -0.636  -4.619   1.079  0.00  0.00     0.013 C 
ENDBRANCH   7   8
ENDBRANCH   1   7
TORSDOF 2
ENDMDL
