MODEL 1
REMARK minimizedAffinity 2.57411933
REMARK minimizedRMSD -1
REMARK  2 active torsions:
REMARK  status: ('A' for Active; 'I' for Inactive)
REMARK    1  A    between atoms: C2'_3  and  C1'_4 
REMARK    2  A    between atoms: C1'_4  and  C1_5 
ROOT
ATOM      1  C1  I4B d   1       1.407  -1.286  -2.315  0.00  0.00    -0.075 A 
ATOM      2  C2  I4B d   1       1.413  -0.045  -2.900  0.00  0.00     0.003 A 
ATOM      3  C3  I4B d   1       1.482   0.079  -4.309  0.00  0.00     0.002 A 
ATOM      4  C4  I4B d   1       1.594  -1.056  -5.086  0.00  0.00    -0.004 A 
ATOM      5  C5  I4B d   1       1.564  -2.315  -4.493  0.00  0.00     0.002 A 
ATOM      6  C6  I4B d   1       1.458  -2.431  -3.099  0.00  0.00     0.003 A 
ENDROOT
BRANCH   1   7
ATOM      7  C1' I4B d   1       1.366  -1.379  -0.823  0.00  0.00     0.060 C 
BRANCH   7   8
ATOM      8  C2' I4B d   1       0.061  -0.770  -0.352  0.00  0.00    -0.013 C 
ATOM      9  C4' I4B d   1      -0.529  -1.558   0.787  0.00  0.00     0.013 C 
ATOM     10  C3' I4B d   1       0.332   0.648   0.054  0.00  0.00     0.013 C 
ENDBRANCH   7   8
ENDBRANCH   1   7
TORSDOF 2
ENDMDL
