MODEL 1
REMARK minimizedAffinity 15.4066286
REMARK minimizedRMSD -1
REMARK  2 active torsions:
REMARK  status: ('A' for Active; 'I' for Inactive)
REMARK    1  A    between atoms: C2'_3  and  C1'_4 
REMARK    2  A    between atoms: C1'_4  and  C1_5 
ROOT
ATOM      1  C1  I4B d   1       1.184  -0.260  -1.978  0.00  0.00    -0.075 A 
ATOM      2  C2  I4B d   1       0.754   0.670  -1.065  0.00  0.00     0.003 A 
ATOM      3  C3  I4B d   1       0.648   2.034  -1.433  0.00  0.00     0.002 A 
ATOM      4  C4  I4B d   1       1.026   2.427  -2.700  0.00  0.00    -0.004 A 
ATOM      5  C5  I4B d   1       1.439   1.479  -3.632  0.00  0.00     0.002 A 
ATOM      6  C6  I4B d   1       1.507   0.125  -3.273  0.00  0.00     0.003 A 
ENDROOT
BRANCH   1   7
ATOM      7  C1' I4B d   1       1.316  -1.686  -1.546  0.00  0.00     0.060 C 
BRANCH   7   8
ATOM      8  C2' I4B d   1       0.496  -2.539  -2.494  0.00  0.00    -0.013 C 
ATOM      9  C4' I4B d   1       1.183  -3.848  -2.781  0.00  0.00     0.013 C 
ATOM     10  C3' I4B d   1      -0.850  -2.758  -1.871  0.00  0.00     0.013 C 
ENDBRANCH   7   8
ENDBRANCH   1   7
TORSDOF 2
ENDMDL
