MODEL 1
REMARK minimizedAffinity 9.91658783
REMARK minimizedRMSD -1
REMARK  2 active torsions:
REMARK  status: ('A' for Active; 'I' for Inactive)
REMARK    1  A    between atoms: C2'_3  and  C1'_4 
REMARK    2  A    between atoms: C1'_4  and  C1_5 
ROOT
ATOM      1  C1  I4B d   1      -4.693   5.959   3.223  0.00  0.00    -0.075 A 
ATOM      2  C2  I4B d   1      -5.916   5.862   3.839  0.00  0.00     0.003 A 
ATOM      3  C3  I4B d   1      -5.999   5.792   5.251  0.00  0.00     0.002 A 
ATOM      4  C4  I4B d   1      -4.840   5.771   5.999  0.00  0.00    -0.004 A 
ATOM      5  C5  I4B d   1      -3.603   5.892   5.374  0.00  0.00     0.002 A 
ATOM      6  C6  I4B d   1      -3.529   5.999   3.978  0.00  0.00     0.003 A 
ENDROOT
BRANCH   1   7
ATOM      7  C1' I4B d   1      -4.641   5.998   1.728  0.00  0.00     0.060 C 
BRANCH   7   8
ATOM      8  C2' I4B d   1      -3.357   5.323   1.289  0.00  0.00    -0.013 C 
ATOM      9  C4' I4B d   1      -3.536   3.832   1.177  0.00  0.00     0.013 C 
ATOM     10  C3' I4B d   1      -2.947   5.919  -0.025  0.00  0.00     0.013 C 
ENDBRANCH   7   8
ENDBRANCH   1   7
TORSDOF 2
ENDMDL
