MODEL 1
REMARK minimizedAffinity 8.07023621
REMARK minimizedRMSD -1
REMARK  2 active torsions:
REMARK  status: ('A' for Active; 'I' for Inactive)
REMARK    1  A    between atoms: C2'_3  and  C1'_4 
REMARK    2  A    between atoms: C1'_4  and  C1_5 
ROOT
ATOM      1  C1  I4B d   1       2.955   1.742  -4.382  0.00  0.00    -0.075 A 
ATOM      2  C2  I4B d   1       3.880   1.495  -3.398  0.00  0.00     0.003 A 
ATOM      3  C3  I4B d   1       5.263   1.501  -3.702  0.00  0.00     0.002 A 
ATOM      4  C4  I4B d   1       5.671   1.706  -5.005  0.00  0.00    -0.004 A 
ATOM      5  C5  I4B d   1       4.733   1.979  -5.996  0.00  0.00     0.002 A 
ATOM      6  C6  I4B d   1       3.367   2.009  -5.681  0.00  0.00     0.003 A 
ENDROOT
BRANCH   1   7
ATOM      7  C1' I4B d   1       1.501   1.696  -4.032  0.00  0.00     0.060 C 
BRANCH   7   8
ATOM      8  C2' I4B d   1       1.387   1.384  -2.553  0.00  0.00    -0.013 C 
ATOM      9  C4' I4B d   1       0.323   2.227  -1.900  0.00  0.00     0.013 C 
ATOM     10  C3' I4B d   1       1.083  -0.077  -2.410  0.00  0.00     0.013 C 
ENDBRANCH   7   8
ENDBRANCH   1   7
TORSDOF 2
ENDMDL
