MODEL 1
REMARK minimizedAffinity 2.93502164
REMARK minimizedRMSD -1
REMARK  2 active torsions:
REMARK  status: ('A' for Active; 'I' for Inactive)
REMARK    1  A    between atoms: C2'_3  and  C1'_4 
REMARK    2  A    between atoms: C1'_4  and  C1_5 
ROOT
ATOM      1  C1  I4B d   1       0.857  -0.152  -0.692  0.00  0.00    -0.075 A 
ATOM      2  C2  I4B d   1       0.442   1.076  -1.141  0.00  0.00     0.003 A 
ATOM      3  C3  I4B d   1       0.571   1.415  -2.510  0.00  0.00     0.002 A 
ATOM      4  C4  I4B d   1       1.163   0.521  -3.379  0.00  0.00    -0.004 A 
ATOM      5  C5  I4B d   1       1.562  -0.733  -2.925  0.00  0.00     0.002 A 
ATOM      6  C6  I4B d   1       1.397  -1.077  -1.576  0.00  0.00     0.003 A 
ENDROOT
BRANCH   1   7
ATOM      7  C1' I4B d   1       0.736  -0.465   0.766  0.00  0.00     0.060 C 
BRANCH   7   8
ATOM      8  C2' I4B d   1      -0.089  -1.728   0.906  0.00  0.00    -0.013 C 
ATOM      9  C4' I4B d   1      -0.444  -1.990   2.346  0.00  0.00     0.013 C 
ATOM     10  C3' I4B d   1      -1.321  -1.572   0.065  0.00  0.00     0.013 C 
ENDBRANCH   7   8
ENDBRANCH   1   7
TORSDOF 2
ENDMDL
