MODEL 1
REMARK minimizedAffinity 14.1644354
REMARK minimizedRMSD -1
REMARK  2 active torsions:
REMARK  status: ('A' for Active; 'I' for Inactive)
REMARK    1  A    between atoms: C2'_3  and  C1'_4 
REMARK    2  A    between atoms: C1'_4  and  C1_5 
ROOT
ATOM      1  C1  I4B d   1       1.040  -5.227   2.135  0.00  0.00    -0.075 A 
ATOM      2  C2  I4B d   1      -0.144  -5.902   1.975  0.00  0.00     0.003 A 
ATOM      3  C3  I4B d   1      -1.326  -5.198   1.640  0.00  0.00     0.002 A 
ATOM      4  C4  I4B d   1      -1.289  -3.824   1.524  0.00  0.00    -0.004 A 
ATOM      5  C5  I4B d   1      -0.082  -3.144   1.663  0.00  0.00     0.002 A 
ATOM      6  C6  I4B d   1       1.092  -3.851   1.958  0.00  0.00     0.003 A 
ENDROOT
BRANCH   1   7
ATOM      7  C1' I4B d   1       2.263  -5.998   2.521  0.00  0.00     0.060 C 
BRANCH   7   8
ATOM      8  C2' I4B d   1       2.718  -5.502   3.878  0.00  0.00    -0.013 C 
ATOM      9  C4' I4B d   1       1.794  -5.974   4.970  0.00  0.00     0.013 C 
ATOM     10  C3' I4B d   1       4.118  -5.990   4.104  0.00  0.00     0.013 C 
ENDBRANCH   7   8
ENDBRANCH   1   7
TORSDOF 2
ENDMDL
