MODEL 1
REMARK minimizedAffinity 7.56055689
REMARK minimizedRMSD -1
REMARK  2 active torsions:
REMARK  status: ('A' for Active; 'I' for Inactive)
REMARK    1  A    between atoms: C2'_3  and  C1'_4 
REMARK    2  A    between atoms: C1'_4  and  C1_5 
ROOT
ATOM      1  C1  I4B d   1       1.368  -0.596  -3.103  0.00  0.00    -0.075 A 
ATOM      2  C2  I4B d   1       1.187  -1.619  -2.206  0.00  0.00     0.003 A 
ATOM      3  C3  I4B d   1       1.169  -2.963  -2.652  0.00  0.00     0.002 A 
ATOM      4  C4  I4B d   1       1.284  -3.233  -4.000  0.00  0.00    -0.004 A 
ATOM      5  C5  I4B d   1       1.490  -2.196  -4.905  0.00  0.00     0.002 A 
ATOM      6  C6  I4B d   1       1.545  -0.870  -4.453  0.00  0.00     0.003 A 
ENDROOT
BRANCH   1   7
ATOM      7  C1' I4B d   1       1.349   0.814  -2.602  0.00  0.00     0.060 C 
BRANCH   7   8
ATOM      8  C2' I4B d   1       0.994   0.781  -1.129  0.00  0.00    -0.013 C 
ATOM      9  C4' I4B d   1       1.609   1.943  -0.395  0.00  0.00     0.013 C 
ATOM     10  C3' I4B d   1      -0.501   0.797  -1.013  0.00  0.00     0.013 C 
ENDBRANCH   7   8
ENDBRANCH   1   7
TORSDOF 2
ENDMDL
