MODEL 1
REMARK minimizedAffinity 2.58894944
REMARK minimizedRMSD -1
REMARK  1 active torsions:
REMARK  status: ('A' for Active; 'I' for Inactive)
REMARK    1  A    between atoms: C1_2  and  C2_3 
ROOT
ATOM      1  C2  UNL d   1       5.157   2.119  -2.052  0.00  0.00    -0.081 A 
ATOM      2  C3  UNL d   1       4.018   1.376  -2.386  0.00  0.00     0.006 A 
ATOM      3  C4  UNL d   1       3.281   0.726  -1.394  0.00  0.00     0.002 A 
ATOM      4  C5  UNL d   1       3.664   0.815  -0.051  0.00  0.00    -0.080 A 
ATOM      5  C6  UNL d   1       2.864   0.148   1.027  0.00  0.00     0.076 C 
ATOM      6  C7  UNL d   1       4.812   1.543   0.281  0.00  0.00     0.002 A 
ATOM      7  C8  UNL d   1       5.550   2.193  -0.711  0.00  0.00     0.006 A 
ENDROOT
BRANCH   1   8
ATOM      8  C1  UNL d   1       5.918   2.874  -3.112  0.00  0.00     0.054 C 
ATOM      9  C   UNL d   1       5.595   4.361  -3.072  0.00  0.00     0.018 C 
ENDBRANCH   1   8
TORSDOF 1
ENDMDL
