MODEL 1
REMARK minimizedAffinity 0.97348392
REMARK minimizedRMSD -1
REMARK  1 active torsions:
REMARK  status: ('A' for Active; 'I' for Inactive)
REMARK    1  A    between atoms: C1_2  and  C2_3 
ROOT
ATOM      1  C2  UNL d   1       4.895   2.079  -2.002  0.00  0.00    -0.081 A 
ATOM      2  C3  UNL d   1       3.789   1.274  -2.297  0.00  0.00     0.006 A 
ATOM      3  C4  UNL d   1       3.125   0.582  -1.281  0.00  0.00     0.002 A 
ATOM      4  C5  UNL d   1       3.551   0.690   0.047  0.00  0.00    -0.080 A 
ATOM      5  C6  UNL d   1       2.829  -0.023   1.151  0.00  0.00     0.076 C 
ATOM      6  C7  UNL d   1       4.668   1.481   0.340  0.00  0.00     0.002 A 
ATOM      7  C8  UNL d   1       5.332   2.172  -0.676  0.00  0.00     0.006 A 
ENDROOT
BRANCH   1   8
ATOM      8  C1  UNL d   1       5.573   2.877  -3.086  0.00  0.00     0.054 C 
ATOM      9  C   UNL d   1       5.201   4.351  -3.003  0.00  0.00     0.018 C 
ENDBRANCH   1   8
TORSDOF 1
ENDMDL
