MODEL 1
REMARK minimizedAffinity 9.37850571
REMARK minimizedRMSD -1
REMARK  1 active torsions:
REMARK  status: ('A' for Active; 'I' for Inactive)
REMARK    1  A    between atoms: C1_2  and  C2_3 
ROOT
ATOM      1  C2  UNL d   1       0.238   0.792  -1.171  0.00  0.00    -0.081 A 
ATOM      2  C3  UNL d   1       1.359  -0.020  -0.965  0.00  0.00     0.006 A 
ATOM      3  C4  UNL d   1       2.401   0.408  -0.138  0.00  0.00     0.002 A 
ATOM      4  C5  UNL d   1       2.335   1.650   0.502  0.00  0.00    -0.080 A 
ATOM      5  C6  UNL d   1       3.432   2.108   1.416  0.00  0.00     0.076 C 
ATOM      6  C7  UNL d   1       1.222   2.469   0.282  0.00  0.00     0.002 A 
ATOM      7  C8  UNL d   1       0.181   2.042  -0.545  0.00  0.00     0.006 A 
ENDROOT
BRANCH   1   8
ATOM      8  C1  UNL d   1      -0.916   0.306  -2.011  0.00  0.00     0.054 C 
ATOM      9  C   UNL d   1      -1.063  -1.206  -1.927  0.00  0.00     0.018 C 
ENDBRANCH   1   8
TORSDOF 1
ENDMDL
