MODEL 1
REMARK minimizedAffinity 11.8974495
REMARK minimizedRMSD -1
REMARK  1 active torsions:
REMARK  status: ('A' for Active; 'I' for Inactive)
REMARK    1  A    between atoms: C1_2  and  C2_3 
ROOT
ATOM      1  C2  UNL d   1      -1.090   2.707  -0.325  0.00  0.00    -0.081 A 
ATOM      2  C3  UNL d   1      -1.850   3.882  -0.289  0.00  0.00     0.006 A 
ATOM      3  C4  UNL d   1      -1.498   4.928   0.568  0.00  0.00     0.002 A 
ATOM      4  C5  UNL d   1      -0.376   4.819   1.397  0.00  0.00    -0.080 A 
ATOM      5  C6  UNL d   1       0.031   5.945   2.299  0.00  0.00     0.076 C 
ATOM      6  C7  UNL d   1       0.373   3.637   1.374  0.00  0.00     0.002 A 
ATOM      7  C8  UNL d   1       0.021   2.591   0.518  0.00  0.00     0.006 A 
ENDROOT
BRANCH   1   8
ATOM      8  C1  UNL d   1      -1.430   1.604  -1.294  0.00  0.00     0.054 C 
ATOM      9  C   UNL d   1      -1.768   0.311  -0.565  0.00  0.00     0.018 C 
ENDBRANCH   1   8
TORSDOF 1
ENDMDL
