MODEL 1
REMARK minimizedAffinity 3.79535913
REMARK minimizedRMSD -1
REMARK  1 active torsions:
REMARK  status: ('A' for Active; 'I' for Inactive)
REMARK    1  A    between atoms: C1_2  and  C2_3 
ROOT
ATOM      1  C2  UNL d   1       1.580  -1.653  -2.614  0.00  0.00    -0.081 A 
ATOM      2  C3  UNL d   1       1.745  -0.738  -1.567  0.00  0.00     0.006 A 
ATOM      3  C4  UNL d   1       2.648   0.321  -1.687  0.00  0.00     0.002 A 
ATOM      4  C5  UNL d   1       3.394   0.488  -2.858  0.00  0.00    -0.080 A 
ATOM      5  C6  UNL d   1       4.345   1.638  -3.011  0.00  0.00     0.076 C 
ATOM      6  C7  UNL d   1       3.243  -0.435  -3.898  0.00  0.00     0.002 A 
ATOM      7  C8  UNL d   1       2.341  -1.495  -3.778  0.00  0.00     0.006 A 
ENDROOT
BRANCH   1   8
ATOM      8  C1  UNL d   1       0.561  -2.758  -2.514  0.00  0.00     0.054 C 
ATOM      9  C   UNL d   1      -0.808  -2.215  -2.127  0.00  0.00     0.018 C 
ENDBRANCH   1   8
TORSDOF 1
ENDMDL
