MODEL 1
REMARK minimizedAffinity 3.53711367
REMARK minimizedRMSD -1
REMARK  1 active torsions:
REMARK  status: ('A' for Active; 'I' for Inactive)
REMARK    1  A    between atoms: C1_2  and  C2_3 
ROOT
ATOM      1  C2  UNL d   1       1.101   1.505   0.029  0.00  0.00    -0.081 A 
ATOM      2  C3  UNL d   1       0.110   1.272  -0.932  0.00  0.00     0.006 A 
ATOM      3  C4  UNL d   1      -1.081   2.001  -0.912  0.00  0.00     0.002 A 
ATOM      4  C5  UNL d   1      -1.298   2.979   0.064  0.00  0.00    -0.080 A 
ATOM      5  C6  UNL d   1      -2.560   3.790   0.079  0.00  0.00     0.076 C 
ATOM      6  C7  UNL d   1      -0.315   3.200   1.035  0.00  0.00     0.002 A 
ATOM      7  C8  UNL d   1       0.876   2.471   1.015  0.00  0.00     0.006 A 
ENDROOT
BRANCH   1   8
ATOM      8  C1  UNL d   1       2.414   0.766  -0.029  0.00  0.00     0.054 C 
ATOM      9  C   UNL d   1       3.402   1.465  -0.951  0.00  0.00     0.018 C 
ENDBRANCH   1   8
TORSDOF 1
ENDMDL
