MODEL 1
REMARK minimizedAffinity -1.30421937
REMARK minimizedRMSD -1
REMARK  1 active torsions:
REMARK  status: ('A' for Active; 'I' for Inactive)
REMARK    1  A    between atoms: C1_2  and  C2_3 
ROOT
ATOM      1  C2  UNL d   1      -2.944   0.485  -2.889  0.00  0.00    -0.081 A 
ATOM      2  C3  UNL d   1      -4.121  -0.254  -3.062  0.00  0.00     0.006 A 
ATOM      3  C4  UNL d   1      -5.096   0.169  -3.969  0.00  0.00     0.002 A 
ATOM      4  C5  UNL d   1      -4.907   1.333  -4.722  0.00  0.00    -0.080 A 
ATOM      5  C6  UNL d   1      -5.932   1.781  -5.721  0.00  0.00     0.076 C 
ATOM      6  C7  UNL d   1      -3.740   2.080  -4.536  0.00  0.00     0.002 A 
ATOM      7  C8  UNL d   1      -2.765   1.658  -3.630  0.00  0.00     0.006 A 
ENDROOT
BRANCH   1   8
ATOM      8  C1  UNL d   1      -1.862  -0.003  -1.959  0.00  0.00     0.054 C 
ATOM      9  C   UNL d   1      -1.818  -1.524  -1.912  0.00  0.00     0.018 C 
ENDBRANCH   1   8
TORSDOF 1
ENDMDL
