MODEL 1
REMARK minimizedAffinity 16.1596699
REMARK minimizedRMSD -1
REMARK  1 active torsions:
REMARK  status: ('A' for Active; 'I' for Inactive)
REMARK    1  A    between atoms: C1_2  and  C2_3 
ROOT
ATOM      1  C2  UNL d   1      -5.158   1.513  -5.222  0.00  0.00    -0.081 A 
ATOM      2  C3  UNL d   1      -4.075   0.959  -4.530  0.00  0.00     0.006 A 
ATOM      3  C4  UNL d   1      -3.832  -0.416  -4.576  0.00  0.00     0.002 A 
ATOM      4  C5  UNL d   1      -4.664  -1.258  -5.322  0.00  0.00    -0.080 A 
ATOM      5  C6  UNL d   1      -4.397  -2.732  -5.405  0.00  0.00     0.076 C 
ATOM      6  C7  UNL d   1      -5.756  -0.707  -6.000  0.00  0.00     0.002 A 
ATOM      7  C8  UNL d   1      -6.000   0.667  -5.953  0.00  0.00     0.006 A 
ENDROOT
BRANCH   1   8
ATOM      8  C1  UNL d   1      -5.384   3.003  -5.226  0.00  0.00     0.054 C 
ATOM      9  C   UNL d   1      -4.086   3.759  -5.467  0.00  0.00     0.018 C 
ENDBRANCH   1   8
TORSDOF 1
ENDMDL
