MODEL 1
REMARK minimizedAffinity 3.80783033
REMARK minimizedRMSD -1
REMARK  0 active torsions:
REMARK  status: ('A' for Active; 'I' for Inactive)
ROOT
ATOM      1  C   UNL d   1      -2.303   0.602   4.558  0.00  0.00     0.172 C 
ATOM      2  N   UNL d   1      -1.996  -0.122   3.347  0.00  0.00    -0.070 N 
ATOM      3  C1  UNL d   1      -2.863  -0.927   2.657  0.00  0.00    -0.004 A 
ATOM      4  C2  UNL d   1      -2.191  -1.430   1.564  0.00  0.00    -0.047 A 
ATOM      5  C3  UNL d   1      -0.876  -0.910   1.598  0.00  0.00    -0.047 A 
ATOM      6  C4  UNL d   1      -0.783  -0.103   2.712  0.00  0.00    -0.004 A 
ENDROOT
TORSDOF 0
ENDMDL
