MODEL 1
REMARK minimizedAffinity -1.00073457
REMARK minimizedRMSD -1
REMARK  0 active torsions:
REMARK  status: ('A' for Active; 'I' for Inactive)
ROOT
ATOM      1  C   UNL d   1      -2.386   0.807   4.082  0.00  0.00     0.172 C 
ATOM      2  N   UNL d   1      -3.592   0.154   3.630  0.00  0.00    -0.070 N 
ATOM      3  C1  UNL d   1      -4.829   0.735   3.541  0.00  0.00    -0.004 A 
ATOM      4  C2  UNL d   1      -5.708  -0.215   3.069  0.00  0.00    -0.047 A 
ATOM      5  C3  UNL d   1      -4.974  -1.409   2.868  0.00  0.00    -0.047 A 
ATOM      6  C4  UNL d   1      -3.667  -1.152   3.223  0.00  0.00    -0.004 A 
ENDROOT
TORSDOF 0
ENDMDL
