MODEL 1
REMARK minimizedAffinity -0.934930444
REMARK minimizedRMSD -1
REMARK  0 active torsions:
REMARK  status: ('A' for Active; 'I' for Inactive)
ROOT
ATOM      1  C   UNL d   1      -4.861   5.994  -4.216  0.00  0.00     0.172 C 
ATOM      2  N   UNL d   1      -3.523   5.719  -4.684  0.00  0.00    -0.070 N 
ATOM      3  C1  UNL d   1      -3.055   5.955  -5.948  0.00  0.00    -0.004 A 
ATOM      4  C2  UNL d   1      -1.735   5.559  -5.991  0.00  0.00    -0.047 A 
ATOM      5  C3  UNL d   1      -1.400   5.066  -4.708  0.00  0.00    -0.047 A 
ATOM      6  C4  UNL d   1      -2.525   5.176  -3.918  0.00  0.00    -0.004 A 
ENDROOT
TORSDOF 0
ENDMDL
