MODEL 1
REMARK minimizedAffinity 2.16611838
REMARK minimizedRMSD -1
REMARK  0 active torsions:
REMARK  status: ('A' for Active; 'I' for Inactive)
ROOT
ATOM      1  C   UNL d   1       2.968   1.701   0.807  0.00  0.00     0.172 C 
ATOM      2  N   UNL d   1       4.029   2.674   0.914  0.00  0.00    -0.070 N 
ATOM      3  C1  UNL d   1       4.065   3.721   1.796  0.00  0.00    -0.004 A 
ATOM      4  C2  UNL d   1       5.238   4.413   1.581  0.00  0.00    -0.047 A 
ATOM      5  C3  UNL d   1       5.930   3.759   0.534  0.00  0.00    -0.047 A 
ATOM      6  C4  UNL d   1       5.158   2.686   0.140  0.00  0.00    -0.004 A 
ENDROOT
TORSDOF 0
ENDMDL
