MODEL 1
REMARK minimizedAffinity 6.90170383
REMARK minimizedRMSD -1
REMARK  0 active torsions:
REMARK  status: ('A' for Active; 'I' for Inactive)
ROOT
ATOM      1  C   UNL d   1      -0.753  -1.129   5.999  0.00  0.00     0.172 C 
ATOM      2  N   UNL d   1      -0.563  -1.540   4.628  0.00  0.00    -0.070 N 
ATOM      3  C1  UNL d   1      -0.984  -0.851   3.522  0.00  0.00    -0.004 A 
ATOM      4  C2  UNL d   1      -0.611  -1.571   2.408  0.00  0.00    -0.047 A 
ATOM      5  C3  UNL d   1       0.057  -2.734   2.860  0.00  0.00    -0.047 A 
ATOM      6  C4  UNL d   1       0.072  -2.689   4.238  0.00  0.00    -0.004 A 
ENDROOT
TORSDOF 0
ENDMDL
