MODEL 1
REMARK minimizedAffinity 1.48736429
REMARK minimizedRMSD -1
REMARK  0 active torsions:
REMARK  status: ('A' for Active; 'I' for Inactive)
ROOT
ATOM      1  C   UNL d   1      -1.117   5.989  -0.350  0.00  0.00     0.172 C 
ATOM      2  N   UNL d   1      -1.356   4.674   0.197  0.00  0.00    -0.070 N 
ATOM      3  C1  UNL d   1      -2.528   3.972   0.105  0.00  0.00    -0.004 A 
ATOM      4  C2  UNL d   1      -2.350   2.767   0.751  0.00  0.00    -0.047 A 
ATOM      5  C3  UNL d   1      -1.026   2.745   1.249  0.00  0.00    -0.047 A 
ATOM      6  C4  UNL d   1      -0.433   3.938   0.892  0.00  0.00    -0.004 A 
ENDROOT
TORSDOF 0
ENDMDL
