MODEL 1
REMARK minimizedAffinity 7.3516593
REMARK minimizedRMSD -1
REMARK  0 active torsions:
REMARK  status: ('A' for Active; 'I' for Inactive)
ROOT
ATOM      1  C   UNL d   1       3.316   3.450  -1.337  0.00  0.00     0.172 C 
ATOM      2  N   UNL d   1       3.286   2.197  -2.053  0.00  0.00    -0.070 N 
ATOM      3  C1  UNL d   1       4.103   1.124  -1.819  0.00  0.00    -0.004 A 
ATOM      4  C2  UNL d   1       3.759   0.129  -2.708  0.00  0.00    -0.047 A 
ATOM      5  C3  UNL d   1       2.698   0.622  -3.505  0.00  0.00    -0.047 A 
ATOM      6  C4  UNL d   1       2.426   1.904  -3.078  0.00  0.00    -0.004 A 
ENDROOT
TORSDOF 0
ENDMDL
