MODEL 1
REMARK minimizedAffinity 2.08608437
REMARK minimizedRMSD -1
REMARK  0 active torsions:
REMARK  status: ('A' for Active; 'I' for Inactive)
ROOT
ATOM      1  C   UNL d   1       4.775  -5.583  -0.310  0.00  0.00     0.172 C 
ATOM      2  N   UNL d   1       4.084  -4.354  -0.000  0.00  0.00    -0.070 N 
ATOM      3  C1  UNL d   1       4.654  -3.110   0.057  0.00  0.00    -0.004 A 
ATOM      4  C2  UNL d   1       3.665  -2.207   0.381  0.00  0.00    -0.047 A 
ATOM      5  C3  UNL d   1       2.458  -2.933   0.524  0.00  0.00    -0.047 A 
ATOM      6  C4  UNL d   1       2.746  -4.259   0.282  0.00  0.00    -0.004 A 
ENDROOT
TORSDOF 0
ENDMDL
