MODEL 1
REMARK minimizedAffinity 1.23835945
REMARK minimizedRMSD -1
REMARK  0 active torsions:
REMARK  status: ('A' for Active; 'I' for Inactive)
ROOT
ATOM      1  C   UNL d   1       2.493  -3.879  -0.132  0.00  0.00     0.172 C 
ATOM      2  N   UNL d   1       3.796  -4.488  -0.006  0.00  0.00    -0.070 N 
ATOM      3  C1  UNL d   1       4.994  -3.864  -0.229  0.00  0.00    -0.004 A 
ATOM      4  C2  UNL d   1       5.997  -4.781  -0.004  0.00  0.00    -0.047 A 
ATOM      5  C3  UNL d   1       5.381  -6.000   0.367  0.00  0.00    -0.047 A 
ATOM      6  C4  UNL d   1       4.018  -5.790   0.357  0.00  0.00    -0.004 A 
ENDROOT
TORSDOF 0
ENDMDL
