MODEL 1
REMARK minimizedAffinity 1.43491638
REMARK minimizedRMSD -1
REMARK  0 active torsions:
REMARK  status: ('A' for Active; 'I' for Inactive)
ROOT
ATOM      1  C   UNL d   1      -3.746   2.346   0.513  0.00  0.00     0.172 C 
ATOM      2  N   UNL d   1      -2.945   1.897   1.627  0.00  0.00    -0.070 N 
ATOM      3  C1  UNL d   1      -2.713   0.591   1.969  0.00  0.00    -0.004 A 
ATOM      4  C2  UNL d   1      -1.906   0.584   3.085  0.00  0.00    -0.047 A 
ATOM      5  C3  UNL d   1      -1.643   1.932   3.427  0.00  0.00    -0.047 A 
ATOM      6  C4  UNL d   1      -2.299   2.723   2.508  0.00  0.00    -0.004 A 
ENDROOT
TORSDOF 0
ENDMDL
