MODEL 1
REMARK minimizedAffinity 1.99420738
REMARK minimizedRMSD -1
REMARK  0 active torsions:
REMARK  status: ('A' for Active; 'I' for Inactive)
ROOT
ATOM      1  C   UNL d   1      -3.299   3.364  -0.345  0.00  0.00     0.172 C 
ATOM      2  N   UNL d   1      -2.024   4.021  -0.177  0.00  0.00    -0.070 N 
ATOM      3  C1  UNL d   1      -1.565   5.075  -0.920  0.00  0.00    -0.004 A 
ATOM      4  C2  UNL d   1      -0.314   5.411  -0.450  0.00  0.00    -0.047 A 
ATOM      5  C3  UNL d   1      -0.010   4.527   0.612  0.00  0.00    -0.047 A 
ATOM      6  C4  UNL d   1      -1.085   3.677   0.760  0.00  0.00    -0.004 A 
ENDROOT
TORSDOF 0
ENDMDL
