MODEL 1
REMARK minimizedAffinity 5.33948565
REMARK minimizedRMSD -1
REMARK  0 active torsions:
REMARK  status: ('A' for Active; 'I' for Inactive)
ROOT
ATOM      1  C   UNL d   1       3.496  -2.007   0.060  0.00  0.00     0.172 C 
ATOM      2  N   UNL d   1       2.272  -2.708  -0.251  0.00  0.00    -0.070 N 
ATOM      3  C1  UNL d   1       1.769  -2.918  -1.507  0.00  0.00    -0.004 A 
ATOM      4  C2  UNL d   1       0.592  -3.623  -1.379  0.00  0.00    -0.047 A 
ATOM      5  C3  UNL d   1       0.379  -3.843   0.003  0.00  0.00    -0.047 A 
ATOM      6  C4  UNL d   1       1.434  -3.266   0.678  0.00  0.00    -0.004 A 
ENDROOT
TORSDOF 0
ENDMDL
