MODEL 1
REMARK minimizedAffinity 2.28608179
REMARK minimizedRMSD -1
REMARK  0 active torsions:
REMARK  status: ('A' for Active; 'I' for Inactive)
ROOT
ATOM      1  C   UNL d   1      -5.250   2.278  -0.750  0.00  0.00     0.172 C 
ATOM      2  N   UNL d   1      -5.251   1.033  -1.482  0.00  0.00    -0.070 N 
ATOM      3  C1  UNL d   1      -6.000   0.762  -2.596  0.00  0.00    -0.004 A 
ATOM      4  C2  UNL d   1      -5.716  -0.527  -2.992  0.00  0.00    -0.047 A 
ATOM      5  C3  UNL d   1      -4.764  -1.049  -2.084  0.00  0.00    -0.047 A 
ATOM      6  C4  UNL d   1      -4.494  -0.062  -1.160  0.00  0.00    -0.004 A 
ENDROOT
TORSDOF 0
ENDMDL
