MODEL 1
REMARK minimizedAffinity 1.23535347
REMARK minimizedRMSD -1
REMARK  0 active torsions:
REMARK  status: ('A' for Active; 'I' for Inactive)
ROOT
ATOM      1  C   UNL d   1       5.386  -6.000   0.459  0.00  0.00     0.172 C 
ATOM      2  N   UNL d   1       4.504  -4.865   0.318  0.00  0.00    -0.070 N 
ATOM      3  C1  UNL d   1       4.892  -3.585   0.024  0.00  0.00    -0.004 A 
ATOM      4  C2  UNL d   1       3.759  -2.801  -0.023  0.00  0.00    -0.047 A 
ATOM      5  C3  UNL d   1       2.653  -3.639   0.253  0.00  0.00    -0.047 A 
ATOM      6  C4  UNL d   1       3.142  -4.911   0.460  0.00  0.00    -0.004 A 
ENDROOT
TORSDOF 0
ENDMDL
