MODEL 1
REMARK minimizedAffinity -1.15129709
REMARK minimizedRMSD -1
REMARK  0 active torsions:
REMARK  status: ('A' for Active; 'I' for Inactive)
ROOT
ATOM      1  C   UNL d   1       2.353  -4.010   0.006  0.00  0.00     0.172 C 
ATOM      2  N   UNL d   1       0.931  -3.780   0.103  0.00  0.00    -0.070 N 
ATOM      3  C1  UNL d   1       0.306  -3.037   1.069  0.00  0.00    -0.004 A 
ATOM      4  C2  UNL d   1      -1.047  -3.062   0.810  0.00  0.00    -0.047 A 
ATOM      5  C3  UNL d   1      -1.243  -3.847  -0.351  0.00  0.00    -0.047 A 
ATOM      6  C4  UNL d   1      -0.002  -4.279  -0.768  0.00  0.00    -0.004 A 
ENDROOT
TORSDOF 0
ENDMDL
