MODEL 1
REMARK minimizedAffinity 1.49054098
REMARK minimizedRMSD -1
REMARK  0 active torsions:
REMARK  status: ('A' for Active; 'I' for Inactive)
ROOT
ATOM      1  C   UNL d   1       3.066   1.220  -2.140  0.00  0.00     0.172 C 
ATOM      2  N   UNL d   1       3.157   2.259  -1.141  0.00  0.00    -0.070 N 
ATOM      3  C1  UNL d   1       2.387   2.353  -0.013  0.00  0.00    -0.004 A 
ATOM      4  C2  UNL d   1       2.782   3.479   0.675  0.00  0.00    -0.047 A 
ATOM      5  C3  UNL d   1       3.826   4.084  -0.065  0.00  0.00    -0.047 A 
ATOM      6  C4  UNL d   1       4.038   3.308  -1.185  0.00  0.00    -0.004 A 
ENDROOT
TORSDOF 0
ENDMDL
