MODEL 1
REMARK minimizedAffinity -1.42902637
REMARK minimizedRMSD -1
REMARK  0 active torsions:
REMARK  status: ('A' for Active; 'I' for Inactive)
ROOT
ATOM      1  C   UNL d   1      -5.992  -2.612   5.917  0.00  0.00     0.172 C 
ATOM      2  N   UNL d   1      -5.639  -3.878   5.319  0.00  0.00    -0.070 N 
ATOM      3  C1  UNL d   1      -5.281  -5.010   6.000  0.00  0.00    -0.004 A 
ATOM      4  C2  UNL d   1      -5.022  -5.997   5.073  0.00  0.00    -0.047 A 
ATOM      5  C3  UNL d   1      -5.230  -5.437   3.790  0.00  0.00    -0.047 A 
ATOM      6  C4  UNL d   1      -5.611  -4.124   3.971  0.00  0.00    -0.004 A 
ENDROOT
TORSDOF 0
ENDMDL
