MODEL 1
REMARK minimizedAffinity 6.9525032
REMARK minimizedRMSD -1
REMARK  0 active torsions:
REMARK  status: ('A' for Active; 'I' for Inactive)
ROOT
ATOM      1  C   UNL d   1      -4.509   2.620  -0.007  0.00  0.00     0.172 C 
ATOM      2  N   UNL d   1      -4.895   1.446  -0.755  0.00  0.00    -0.070 N 
ATOM      3  C1  UNL d   1      -4.280   0.982  -1.887  0.00  0.00    -0.004 A 
ATOM      4  C2  UNL d   1      -4.944  -0.155  -2.292  0.00  0.00    -0.047 A 
ATOM      5  C3  UNL d   1      -5.996  -0.382  -1.373  0.00  0.00    -0.047 A 
ATOM      6  C4  UNL d   1      -5.942   0.624  -0.431  0.00  0.00    -0.004 A 
ENDROOT
TORSDOF 0
ENDMDL
