MODEL 1
REMARK minimizedAffinity 2.2247169
REMARK minimizedRMSD -1
REMARK  3 active torsions:
REMARK  status: ('A' for Active; 'I' for Inactive)
REMARK    1  A    between atoms: C3'_2  and  C2'_3 
REMARK    2  A    between atoms: C2'_3  and  C1'_4 
REMARK    3  A    between atoms: C1'_4  and  C1_5 
ROOT
ATOM      1  C1  N4B d   1       1.399  -1.199   0.764  0.00  0.00    -0.075 A 
ATOM      2  C2  N4B d   1       1.338  -2.582   0.486  0.00  0.00     0.002 A 
ATOM      3  C3  N4B d   1       0.131  -3.236   0.518  0.00  0.00     0.002 A 
ATOM      4  C4  N4B d   1      -1.020  -2.536   0.845  0.00  0.00    -0.004 A 
ATOM      5  C5  N4B d   1      -0.957  -1.195   1.087  0.00  0.00     0.002 A 
ATOM      6  C6  N4B d   1       0.249  -0.523   1.054  0.00  0.00     0.002 A 
ENDROOT
BRANCH   1   7
ATOM      7  C1' N4B d   1       2.706  -0.458   0.824  0.00  0.00     0.057 C 
BRANCH   7   8
ATOM      8  C2' N4B d   1       3.073  -0.206   2.284  0.00  0.00     0.009 C 
BRANCH   8   9
ATOM      9  C3' N4B d   1       4.550  -0.441   2.548  0.00  0.00     0.004 C 
ATOM     10  C4' N4B d   1       5.237  -1.147   1.417  0.00  0.00     0.003 C 
ENDBRANCH   8   9
ENDBRANCH   7   8
ENDBRANCH   1   7
TORSDOF 3
ENDMDL
