MODEL 1
REMARK minimizedAffinity 10.4633989
REMARK minimizedRMSD -1
REMARK  3 active torsions:
REMARK  status: ('A' for Active; 'I' for Inactive)
REMARK    1  A    between atoms: C3'_2  and  C2'_3 
REMARK    2  A    between atoms: C2'_3  and  C1'_4 
REMARK    3  A    between atoms: C1'_4  and  C1_5 
ROOT
ATOM      1  C1  N4B d   1      -5.266  -4.097   2.403  0.00  0.00    -0.075 A 
ATOM      2  C2  N4B d   1      -5.983  -4.445   1.238  0.00  0.00     0.002 A 
ATOM      3  C3  N4B d   1      -5.773  -3.754   0.070  0.00  0.00     0.002 A 
ATOM      4  C4  N4B d   1      -4.867  -2.703   0.049  0.00  0.00    -0.004 A 
ATOM      5  C5  N4B d   1      -4.160  -2.390   1.172  0.00  0.00     0.002 A 
ATOM      6  C6  N4B d   1      -4.358  -3.079   2.352  0.00  0.00     0.002 A 
ENDROOT
BRANCH   1   7
ATOM      7  C1' N4B d   1      -5.525  -4.768   3.725  0.00  0.00     0.057 C 
BRANCH   7   8
ATOM      8  C2' N4B d   1      -4.400  -5.758   4.013  0.00  0.00     0.009 C 
BRANCH   8   9
ATOM      9  C3' N4B d   1      -4.223  -6.000   5.502  0.00  0.00     0.004 C 
ATOM     10  C4' N4B d   1      -2.852  -5.639   5.991  0.00  0.00     0.003 C 
ENDBRANCH   8   9
ENDBRANCH   7   8
ENDBRANCH   1   7
TORSDOF 3
ENDMDL
