MODEL 1
REMARK minimizedAffinity -1.7385987
REMARK minimizedRMSD -1
REMARK  3 active torsions:
REMARK  status: ('A' for Active; 'I' for Inactive)
REMARK    1  A    between atoms: C3'_2  and  C2'_3 
REMARK    2  A    between atoms: C2'_3  and  C1'_4 
REMARK    3  A    between atoms: C1'_4  and  C1_5 
ROOT
ATOM      1  C1  N4B d   1       1.088  -1.643   0.512  0.00  0.00    -0.075 A 
ATOM      2  C2  N4B d   1       0.655  -0.429   1.090  0.00  0.00     0.002 A 
ATOM      3  C3  N4B d   1      -0.673  -0.081   1.042  0.00  0.00     0.002 A 
ATOM      4  C4  N4B d   1      -1.579  -0.918   0.409  0.00  0.00    -0.004 A 
ATOM      5  C5  N4B d   1      -1.157  -2.101  -0.125  0.00  0.00     0.002 A 
ATOM      6  C6  N4B d   1       0.174  -2.465  -0.081  0.00  0.00     0.002 A 
ENDROOT
BRANCH   1   7
ATOM      7  C1' N4B d   1       2.542  -2.026   0.464  0.00  0.00     0.057 C 
BRANCH   7   8
ATOM      8  C2' N4B d   1       2.660  -3.493   0.062  0.00  0.00     0.009 C 
BRANCH   8   9
ATOM      9  C3' N4B d   1       4.095  -3.881  -0.252  0.00  0.00     0.004 C 
ATOM     10  C4' N4B d   1       4.340  -5.355  -0.119  0.00  0.00     0.003 C 
ENDBRANCH   8   9
ENDBRANCH   7   8
ENDBRANCH   1   7
TORSDOF 3
ENDMDL
