MODEL 1
REMARK minimizedAffinity -1.30594552
REMARK minimizedRMSD -1
REMARK  3 active torsions:
REMARK  status: ('A' for Active; 'I' for Inactive)
REMARK    1  A    between atoms: C3'_2  and  C2'_3 
REMARK    2  A    between atoms: C2'_3  and  C1'_4 
REMARK    3  A    between atoms: C1'_4  and  C1_5 
ROOT
ATOM      1  C1  N4B d   1      -1.727  -0.720   2.147  0.00  0.00    -0.075 A 
ATOM      2  C2  N4B d   1      -1.709  -0.469   3.537  0.00  0.00     0.002 A 
ATOM      3  C3  N4B d   1      -1.819   0.817   4.004  0.00  0.00     0.002 A 
ATOM      4  C4  N4B d   1      -1.929   1.867   3.104  0.00  0.00    -0.004 A 
ATOM      5  C5  N4B d   1      -1.972   1.614   1.764  0.00  0.00     0.002 A 
ATOM      6  C6  N4B d   1      -1.866   0.325   1.281  0.00  0.00     0.002 A 
ENDROOT
BRANCH   1   7
ATOM      7  C1' N4B d   1      -1.524  -2.101   1.586  0.00  0.00     0.057 C 
BRANCH   7   8
ATOM      8  C2' N4B d   1      -0.065  -2.262   1.169  0.00  0.00     0.009 C 
BRANCH   8   9
ATOM      9  C3' N4B d   1       0.076  -3.083  -0.101  0.00  0.00     0.004 C 
ATOM     10  C4' N4B d   1       1.505  -3.380  -0.445  0.00  0.00     0.003 C 
ENDBRANCH   8   9
ENDBRANCH   7   8
ENDBRANCH   1   7
TORSDOF 3
ENDMDL
