MODEL 1
REMARK minimizedAffinity 4.29266453
REMARK minimizedRMSD -1
REMARK  3 active torsions:
REMARK  status: ('A' for Active; 'I' for Inactive)
REMARK    1  A    between atoms: C3'_2  and  C2'_3 
REMARK    2  A    between atoms: C2'_3  and  C1'_4 
REMARK    3  A    between atoms: C1'_4  and  C1_5 
ROOT
ATOM      1  C1  N4B d   1      -0.082  -1.715   0.243  0.00  0.00    -0.075 A 
ATOM      2  C2  N4B d   1       0.284  -1.681  -1.120  0.00  0.00     0.002 A 
ATOM      3  C3  N4B d   1       0.647  -2.840  -1.762  0.00  0.00     0.002 A 
ATOM      4  C4  N4B d   1       0.669  -4.035  -1.060  0.00  0.00    -0.004 A 
ATOM      5  C5  N4B d   1       0.290  -4.063   0.250  0.00  0.00     0.002 A 
ATOM      6  C6  N4B d   1      -0.080  -2.907   0.907  0.00  0.00     0.002 A 
ENDROOT
BRANCH   1   7
ATOM      7  C1' N4B d   1      -0.402  -0.461   1.010  0.00  0.00     0.057 C 
BRANCH   7   8
ATOM      8  C2' N4B d   1       0.642  -0.262   2.105  0.00  0.00     0.009 C 
BRANCH   8   9
ATOM      9  C3' N4B d   1       1.966   0.229   1.545  0.00  0.00     0.004 C 
ATOM     10  C4' N4B d   1       2.951  -0.881   1.325  0.00  0.00     0.003 C 
ENDBRANCH   8   9
ENDBRANCH   7   8
ENDBRANCH   1   7
TORSDOF 3
ENDMDL
