MODEL 1
REMARK minimizedAffinity -5.25436354
REMARK minimizedRMSD -1
REMARK  3 active torsions:
REMARK  status: ('A' for Active; 'I' for Inactive)
REMARK    1  A    between atoms: C3'_2  and  C2'_3 
REMARK    2  A    between atoms: C2'_3  and  C1'_4 
REMARK    3  A    between atoms: C1'_4  and  C1_5 
ROOT
ATOM      1  C1  N4B d   1      -2.228  -1.138   1.019  0.00  0.00    -0.075 A 
ATOM      2  C2  N4B d   1      -1.464  -0.603   2.080  0.00  0.00     0.002 A 
ATOM      3  C3  N4B d   1      -1.630   0.709   2.451  0.00  0.00     0.002 A 
ATOM      4  C4  N4B d   1      -2.535   1.506   1.768  0.00  0.00    -0.004 A 
ATOM      5  C5  N4B d   1      -3.288   0.975   0.762  0.00  0.00     0.002 A 
ATOM      6  C6  N4B d   1      -3.135  -0.343   0.380  0.00  0.00     0.002 A 
ENDROOT
BRANCH   1   7
ATOM      7  C1' N4B d   1      -2.021  -2.542   0.521  0.00  0.00     0.057 C 
BRANCH   7   8
ATOM      8  C2' N4B d   1      -0.715  -2.607  -0.265  0.00  0.00     0.009 C 
BRANCH   8   9
ATOM      9  C3' N4B d   1       0.499  -2.599   0.649  0.00  0.00     0.004 C 
ATOM     10  C4' N4B d   1       1.640  -3.406   0.105  0.00  0.00     0.003 C 
ENDBRANCH   8   9
ENDBRANCH   7   8
ENDBRANCH   1   7
TORSDOF 3
ENDMDL
