MODEL 1
REMARK minimizedAffinity 11.107976
REMARK minimizedRMSD -1
REMARK  3 active torsions:
REMARK  status: ('A' for Active; 'I' for Inactive)
REMARK    1  A    between atoms: C3'_2  and  C2'_3 
REMARK    2  A    between atoms: C2'_3  and  C1'_4 
REMARK    3  A    between atoms: C1'_4  and  C1_5 
ROOT
ATOM      1  C1  N4B d   1       3.252   3.391  -1.957  0.00  0.00    -0.075 A 
ATOM      2  C2  N4B d   1       4.204   2.352  -1.866  0.00  0.00     0.002 A 
ATOM      3  C3  N4B d   1       4.020   1.188  -2.572  0.00  0.00     0.002 A 
ATOM      4  C4  N4B d   1       2.887   1.034  -3.356  0.00  0.00    -0.004 A 
ATOM      5  C5  N4B d   1       1.985   2.052  -3.459  0.00  0.00     0.002 A 
ATOM      6  C6  N4B d   1       2.159   3.229  -2.758  0.00  0.00     0.002 A 
ENDROOT
BRANCH   1   7
ATOM      7  C1' N4B d   1       3.367   4.647  -1.137  0.00  0.00     0.057 C 
BRANCH   7   8
ATOM      8  C2' N4B d   1       4.129   4.339   0.148  0.00  0.00     0.009 C 
BRANCH   8   9
ATOM      9  C3' N4B d   1       3.192   4.081   1.316  0.00  0.00     0.004 C 
ATOM     10  C4' N4B d   1       3.811   4.415   2.641  0.00  0.00     0.003 C 
ENDBRANCH   8   9
ENDBRANCH   7   8
ENDBRANCH   1   7
TORSDOF 3
ENDMDL
