MODEL 1
REMARK minimizedAffinity 10.2456217
REMARK minimizedRMSD -1
REMARK  0 active torsions:
REMARK  status: ('A' for Active; 'I' for Inactive)
ROOT
ATOM      1  C   UNL d   1      -0.344   2.316   5.695  0.00  0.00     0.077 C 
ATOM      2  C1  UNL d   1       0.378   1.349   4.805  0.00  0.00    -0.074 A 
ATOM      3  C2  UNL d   1      -0.289   0.693   3.765  0.00  0.00    -0.005 A 
ATOM      4  C3  UNL d   1       0.399  -0.196   2.939  0.00  0.00     0.006 A 
ATOM      5  C4  UNL d   1       1.758  -0.437   3.143  0.00  0.00    -0.005 A 
ATOM      6  C5  UNL d   1       2.442   0.211   4.177  0.00  0.00    -0.074 A 
ATOM      7  C6  UNL d   1       3.905  -0.029   4.404  0.00  0.00     0.077 C 
ATOM      8  C7  UNL d   1       1.746   1.108   4.998  0.00  0.00    -0.001 A 
ENDROOT
TORSDOF 0
ENDMDL
