MODEL 1
REMARK minimizedAffinity 10.273634
REMARK minimizedRMSD -1
REMARK  0 active torsions:
REMARK  status: ('A' for Active; 'I' for Inactive)
ROOT
ATOM      1  C   UNL d   1       5.975   2.516   3.754  0.00  0.00     0.077 C 
ATOM      2  C1  UNL d   1       5.416   3.670   2.975  0.00  0.00    -0.074 A 
ATOM      3  C2  UNL d   1       6.000   4.938   3.052  0.00  0.00    -0.005 A 
ATOM      4  C3  UNL d   1       5.475   5.999   2.314  0.00  0.00     0.006 A 
ATOM      5  C4  UNL d   1       4.363   5.803   1.494  0.00  0.00    -0.005 A 
ATOM      6  C5  UNL d   1       3.766   4.541   1.404  0.00  0.00    -0.074 A 
ATOM      7  C6  UNL d   1       2.577   4.311   0.520  0.00  0.00     0.077 C 
ATOM      8  C7  UNL d   1       4.304   3.478   2.143  0.00  0.00    -0.001 A 
ENDROOT
TORSDOF 0
ENDMDL
