MODEL 1
REMARK minimizedAffinity 10.0595207
REMARK minimizedRMSD -1
REMARK  0 active torsions:
REMARK  status: ('A' for Active; 'I' for Inactive)
ROOT
ATOM      1  C   UNL d   1       4.899   1.685   2.638  0.00  0.00     0.077 C 
ATOM      2  C1  UNL d   1       4.892   3.185   2.650  0.00  0.00    -0.074 A 
ATOM      3  C2  UNL d   1       5.648   3.914   1.727  0.00  0.00    -0.005 A 
ATOM      4  C3  UNL d   1       5.624   5.309   1.743  0.00  0.00     0.006 A 
ATOM      5  C4  UNL d   1       4.846   5.987   2.682  0.00  0.00    -0.005 A 
ATOM      6  C5  UNL d   1       4.082   5.275   3.612  0.00  0.00    -0.074 A 
ATOM      7  C6  UNL d   1       3.232   5.988   4.621  0.00  0.00     0.077 C 
ATOM      8  C7  UNL d   1       4.106   3.874   3.584  0.00  0.00    -0.001 A 
ENDROOT
TORSDOF 0
ENDMDL
