MODEL 1
REMARK minimizedAffinity 16.0247307
REMARK minimizedRMSD -1
REMARK  0 active torsions:
REMARK  status: ('A' for Active; 'I' for Inactive)
ROOT
ATOM      1  C   UNL d   1      -2.288   1.727   2.049  0.00  0.00     0.077 C 
ATOM      2  C1  UNL d   1      -1.094   1.122   2.727  0.00  0.00    -0.074 A 
ATOM      3  C2  UNL d   1      -0.351   0.113   2.108  0.00  0.00    -0.005 A 
ATOM      4  C3  UNL d   1       0.763  -0.433   2.746  0.00  0.00     0.006 A 
ATOM      5  C4  UNL d   1       1.143   0.024   4.008  0.00  0.00    -0.005 A 
ATOM      6  C5  UNL d   1       0.413   1.034   4.643  0.00  0.00    -0.074 A 
ATOM      7  C6  UNL d   1       0.814   1.544   5.995  0.00  0.00     0.077 C 
ATOM      8  C7  UNL d   1      -0.701   1.582   3.991  0.00  0.00    -0.001 A 
ENDROOT
TORSDOF 0
ENDMDL
