MODEL 1
REMARK minimizedAffinity 7.20934248
REMARK minimizedRMSD -1
REMARK  0 active torsions:
REMARK  status: ('A' for Active; 'I' for Inactive)
ROOT
ATOM      1  C   UNL d   1       0.249   2.711   5.981  0.00  0.00     0.077 C 
ATOM      2  C1  UNL d   1       0.450   1.621   4.971  0.00  0.00    -0.074 A 
ATOM      3  C2  UNL d   1       1.722   1.094   4.725  0.00  0.00    -0.005 A 
ATOM      4  C3  UNL d   1       1.892   0.073   3.790  0.00  0.00     0.006 A 
ATOM      5  C4  UNL d   1       0.793  -0.429   3.091  0.00  0.00    -0.005 A 
ATOM      6  C5  UNL d   1      -0.486   0.085   3.324  0.00  0.00    -0.074 A 
ATOM      7  C6  UNL d   1      -1.679  -0.451   2.589  0.00  0.00     0.077 C 
ATOM      8  C7  UNL d   1      -0.650   1.105   4.271  0.00  0.00    -0.001 A 
ENDROOT
TORSDOF 0
ENDMDL
