MODEL 1
REMARK minimizedAffinity 19.1184578
REMARK minimizedRMSD -1
REMARK  0 active torsions:
REMARK  status: ('A' for Active; 'I' for Inactive)
ROOT
ATOM      1  C   UNL d   1      -0.308   2.274   3.392  0.00  0.00     0.077 C 
ATOM      2  C1  UNL d   1       0.836   1.307   3.445  0.00  0.00    -0.074 A 
ATOM      3  C2  UNL d   1       2.128   1.738   3.762  0.00  0.00    -0.005 A 
ATOM      4  C3  UNL d   1       3.181   0.824   3.817  0.00  0.00     0.006 A 
ATOM      5  C4  UNL d   1       2.953  -0.527   3.555  0.00  0.00    -0.005 A 
ATOM      6  C5  UNL d   1       1.668  -0.977   3.236  0.00  0.00    -0.074 A 
ATOM      7  C6  UNL d   1       1.403  -2.427   2.962  0.00  0.00     0.077 C 
ATOM      8  C7  UNL d   1       0.614  -0.054   3.190  0.00  0.00    -0.001 A 
ENDROOT
TORSDOF 0
ENDMDL
