MODEL 1
REMARK minimizedAffinity 5.90087509
REMARK minimizedRMSD -1
REMARK  0 active torsions:
REMARK  status: ('A' for Active; 'I' for Inactive)
ROOT
ATOM      1  C   UNL d   1      -0.765   1.584   2.511  0.00  0.00     0.077 C 
ATOM      2  C1  UNL d   1       0.171   0.511   2.982  0.00  0.00    -0.074 A 
ATOM      3  C2  UNL d   1      -0.259  -0.815   3.105  0.00  0.00    -0.005 A 
ATOM      4  C3  UNL d   1       0.626  -1.803   3.536  0.00  0.00     0.006 A 
ATOM      5  C4  UNL d   1       1.946  -1.477   3.848  0.00  0.00    -0.005 A 
ATOM      6  C5  UNL d   1       2.393  -0.158   3.732  0.00  0.00    -0.074 A 
ATOM      7  C6  UNL d   1       3.812   0.208   4.054  0.00  0.00     0.077 C 
ATOM      8  C7  UNL d   1       1.501   0.829   3.291  0.00  0.00    -0.001 A 
ENDROOT
TORSDOF 0
ENDMDL
