MODEL 1
REMARK minimizedAffinity 3.19833374
REMARK minimizedRMSD -1
REMARK  0 active torsions:
REMARK  status: ('A' for Active; 'I' for Inactive)
ROOT
ATOM      1  C   UNL d   1       1.119   0.529   3.053  0.00  0.00     0.077 C 
ATOM      2  C1  UNL d   1       0.461  -0.809   3.214  0.00  0.00    -0.074 A 
ATOM      3  C2  UNL d   1       1.119  -1.860   3.860  0.00  0.00    -0.005 A 
ATOM      4  C3  UNL d   1       0.491  -3.097   4.010  0.00  0.00     0.006 A 
ATOM      5  C4  UNL d   1      -0.799  -3.293   3.518  0.00  0.00    -0.005 A 
ATOM      6  C5  UNL d   1      -1.474  -2.253   2.870  0.00  0.00    -0.074 A 
ATOM      7  C6  UNL d   1      -2.865  -2.445   2.344  0.00  0.00     0.077 C 
ATOM      8  C7  UNL d   1      -0.838  -1.012   2.729  0.00  0.00    -0.001 A 
ENDROOT
TORSDOF 0
ENDMDL
