MODEL 1
REMARK minimizedAffinity 15.8883266
REMARK minimizedRMSD -1
REMARK  0 active torsions:
REMARK  status: ('A' for Active; 'I' for Inactive)
ROOT
ATOM      1  C   UNL d   1       4.084  -3.205  -4.271  0.00  0.00     0.077 C 
ATOM      2  C1  UNL d   1       2.672  -2.929  -4.698  0.00  0.00    -0.074 A 
ATOM      3  C2  UNL d   1       1.990  -3.814  -5.539  0.00  0.00    -0.005 A 
ATOM      4  C3  UNL d   1       0.675  -3.549  -5.920  0.00  0.00     0.006 A 
ATOM      5  C4  UNL d   1       0.029  -2.400  -5.463  0.00  0.00    -0.005 A 
ATOM      6  C5  UNL d   1       0.695  -1.504  -4.620  0.00  0.00    -0.074 A 
ATOM      7  C6  UNL d   1       0.012  -0.269  -4.113  0.00  0.00     0.077 C 
ATOM      8  C7  UNL d   1       2.014  -1.781  -4.237  0.00  0.00    -0.001 A 
ENDROOT
TORSDOF 0
ENDMDL
