MODEL 1
REMARK minimizedAffinity 14.7929049
REMARK minimizedRMSD -1
REMARK  0 active torsions:
REMARK  status: ('A' for Active; 'I' for Inactive)
ROOT
ATOM      1  O1  BZF d   1       4.282  -3.784  -4.357  0.00  0.00    -0.204 OA
ATOM      2  C2  BZF d   1       4.343  -4.958  -5.082  0.00  0.00     0.174 A 
ATOM      3  C3  BZF d   1       4.650  -5.999  -4.282  0.00  0.00    -0.012 A 
ATOM      4  C3A BZF d   1       4.698  -5.455  -2.959  0.00  0.00    -0.107 A 
ATOM      5  C4  BZF d   1       4.941  -5.998  -1.730  0.00  0.00     0.055 A 
ATOM      6  C5  BZF d   1       4.987  -5.180  -0.645  0.00  0.00    -0.016 A 
ATOM      7  C6  BZF d   1       4.801  -3.818  -0.754  0.00  0.00     0.022 A 
ATOM      8  C7  BZF d   1       4.553  -3.235  -1.952  0.00  0.00     0.029 A 
ATOM      9  C7A BZF d   1       4.473  -4.062  -3.045  0.00  0.00     0.058 A 
ENDROOT
TORSDOF 0
ENDMDL
