MODEL 1
REMARK minimizedAffinity 11.7941275
REMARK minimizedRMSD -1
REMARK  0 active torsions:
REMARK  status: ('A' for Active; 'I' for Inactive)
ROOT
ATOM      1  O1  BZF d   1       1.359   4.015  -0.336  0.00  0.00    -0.204 OA
ATOM      2  C2  BZF d   1       0.787   3.048   0.468  0.00  0.00     0.174 A 
ATOM      3  C3  BZF d   1      -0.491   2.817   0.104  0.00  0.00    -0.012 A 
ATOM      4  C3A BZF d   1      -0.704   3.627  -1.056  0.00  0.00    -0.107 A 
ATOM      5  C4  BZF d   1      -1.773   3.818  -1.884  0.00  0.00     0.055 A 
ATOM      6  C5  BZF d   1      -1.679   4.734  -2.884  0.00  0.00    -0.016 A 
ATOM      7  C6  BZF d   1      -0.534   5.479  -3.080  0.00  0.00     0.022 A 
ATOM      8  C7  BZF d   1       0.554   5.321  -2.288  0.00  0.00     0.029 A 
ATOM      9  C7A BZF d   1       0.473   4.373  -1.297  0.00  0.00     0.058 A 
ENDROOT
TORSDOF 0
ENDMDL
