MODEL 1
REMARK minimizedAffinity 0.258000195
REMARK minimizedRMSD -1
REMARK  0 active torsions:
REMARK  status: ('A' for Active; 'I' for Inactive)
ROOT
ATOM      1  O1  BZF d   1      -5.649   3.330  -2.017  0.00  0.00    -0.204 OA
ATOM      2  C2  BZF d   1      -5.547   4.706  -1.958  0.00  0.00     0.174 A 
ATOM      3  C3  BZF d   1      -5.552   5.241  -3.196  0.00  0.00    -0.012 A 
ATOM      4  C3A BZF d   1      -5.757   4.136  -4.082  0.00  0.00    -0.107 A 
ATOM      5  C4  BZF d   1      -5.871   4.029  -5.438  0.00  0.00     0.055 A 
ATOM      6  C5  BZF d   1      -5.993   2.795  -5.996  0.00  0.00    -0.016 A 
ATOM      7  C6  BZF d   1      -5.999   1.649  -5.228  0.00  0.00     0.022 A 
ATOM      8  C7  BZF d   1      -5.893   1.705  -3.878  0.00  0.00     0.029 A 
ATOM      9  C7A BZF d   1      -5.803   2.952  -3.309  0.00  0.00     0.058 A 
ENDROOT
TORSDOF 0
ENDMDL
