MODEL 1
REMARK minimizedAffinity 24.9741764
REMARK minimizedRMSD -1
REMARK  0 active torsions:
REMARK  status: ('A' for Active; 'I' for Inactive)
ROOT
ATOM      1  O1  BZF d   1       5.366  -4.114  -1.207  0.00  0.00    -0.204 OA
ATOM      2  C2  BZF d   1       4.856  -5.132  -0.424  0.00  0.00     0.174 A 
ATOM      3  C3  BZF d   1       4.143  -5.999  -1.171  0.00  0.00    -0.012 A 
ATOM      4  C3A BZF d   1       4.289  -5.542  -2.519  0.00  0.00    -0.107 A 
ATOM      5  C4  BZF d   1       3.825  -5.997  -3.720  0.00  0.00     0.055 A 
ATOM      6  C5  BZF d   1       4.087  -5.280  -4.844  0.00  0.00    -0.016 A 
ATOM      7  C6  BZF d   1       4.803  -4.102  -4.803  0.00  0.00     0.022 A 
ATOM      8  C7  BZF d   1       5.288  -3.612  -3.636  0.00  0.00     0.029 A 
ATOM      9  C7A BZF d   1       5.053  -4.352  -2.503  0.00  0.00     0.058 A 
ENDROOT
TORSDOF 0
ENDMDL
