MODEL 1
REMARK minimizedAffinity 11.9090672
REMARK minimizedRMSD -1
REMARK  0 active torsions:
REMARK  status: ('A' for Active; 'I' for Inactive)
ROOT
ATOM      1  O1  BZF d   1      -4.366  -2.706   5.108  0.00  0.00    -0.204 OA
ATOM      2  C2  BZF d   1      -5.418  -2.626   6.000  0.00  0.00     0.174 A 
ATOM      3  C3  BZF d   1      -6.000  -1.411   5.946  0.00  0.00    -0.012 A 
ATOM      4  C3A BZF d   1      -5.323  -0.717   4.893  0.00  0.00    -0.107 A 
ATOM      5  C4  BZF d   1      -5.460   0.529   4.351  0.00  0.00     0.055 A 
ATOM      6  C5  BZF d   1      -4.593   0.927   3.383  0.00  0.00    -0.016 A 
ATOM      7  C6  BZF d   1      -3.576   0.108   2.938  0.00  0.00     0.022 A 
ATOM      8  C7  BZF d   1      -3.404  -1.138   3.442  0.00  0.00     0.029 A 
ATOM      9  C7A BZF d   1      -4.299  -1.555   4.397  0.00  0.00     0.058 A 
ENDROOT
TORSDOF 0
ENDMDL
