MODEL 1
REMARK minimizedAffinity 3.67438722
REMARK minimizedRMSD -1
REMARK  0 active torsions:
REMARK  status: ('A' for Active; 'I' for Inactive)
ROOT
ATOM      1  O1  BZF d   1      -5.284   3.934  -5.512  0.00  0.00    -0.204 OA
ATOM      2  C2  BZF d   1      -5.719   5.151  -6.000  0.00  0.00     0.174 A 
ATOM      3  C3  BZF d   1      -5.998   6.000  -4.989  0.00  0.00    -0.012 A 
ATOM      4  C3A BZF d   1      -5.632   5.298  -3.797  0.00  0.00    -0.107 A 
ATOM      5  C4  BZF d   1      -5.660   5.622  -2.471  0.00  0.00     0.055 A 
ATOM      6  C5  BZF d   1      -5.302   4.685  -1.554  0.00  0.00    -0.016 A 
ATOM      7  C6  BZF d   1      -4.917   3.415  -1.927  0.00  0.00     0.022 A 
ATOM      8  C7  BZF d   1      -4.868   3.048  -3.231  0.00  0.00     0.029 A 
ATOM      9  C7A BZF d   1      -5.198   4.003  -4.162  0.00  0.00     0.058 A 
ENDROOT
TORSDOF 0
ENDMDL
