MODEL 1
REMARK minimizedAffinity 15.0835199
REMARK minimizedRMSD -1
REMARK  0 active torsions:
REMARK  status: ('A' for Active; 'I' for Inactive)
ROOT
ATOM      1  O1  BZF d   1       4.509  -3.861  -4.141  0.00  0.00    -0.204 OA
ATOM      2  C2  BZF d   1       4.104  -5.122  -4.534  0.00  0.00     0.174 A 
ATOM      3  C3  BZF d   1       4.208  -5.998  -3.514  0.00  0.00    -0.012 A 
ATOM      4  C3A BZF d   1       4.622  -5.218  -2.389  0.00  0.00    -0.107 A 
ATOM      5  C4  BZF d   1       4.880  -5.518  -1.082  0.00  0.00     0.055 A 
ATOM      6  C5  BZF d   1       5.336  -4.539  -0.257  0.00  0.00    -0.016 A 
ATOM      7  C6  BZF d   1       5.550  -3.252  -0.706  0.00  0.00     0.022 A 
ATOM      8  C7  BZF d   1       5.303  -2.905  -1.992  0.00  0.00     0.029 A 
ATOM      9  C7A BZF d   1       4.810  -3.884  -2.820  0.00  0.00     0.058 A 
ENDROOT
TORSDOF 0
ENDMDL
