MODEL 1
REMARK minimizedAffinity 6.99802256
REMARK minimizedRMSD -1
REMARK  0 active torsions:
REMARK  status: ('A' for Active; 'I' for Inactive)
ROOT
ATOM      1  O1  BZF d   1       1.358   4.365   0.085  0.00  0.00    -0.204 OA
ATOM      2  C2  BZF d   1       0.314   3.972  -0.730  0.00  0.00     0.174 A 
ATOM      3  C3  BZF d   1      -0.447   3.042  -0.119  0.00  0.00    -0.012 A 
ATOM      4  C3A BZF d   1       0.105   2.909   1.195  0.00  0.00    -0.107 A 
ATOM      5  C4  BZF d   1      -0.226   2.148   2.279  0.00  0.00     0.055 A 
ATOM      6  C5  BZF d   1       0.561   2.199   3.386  0.00  0.00    -0.016 A 
ATOM      7  C6  BZF d   1       1.687   2.993   3.441  0.00  0.00     0.022 A 
ATOM      8  C7  BZF d   1       2.053   3.769   2.392  0.00  0.00     0.029 A 
ATOM      9  C7A BZF d   1       1.241   3.745   1.284  0.00  0.00     0.058 A 
ENDROOT
TORSDOF 0
ENDMDL
