MODEL 1
REMARK minimizedAffinity -0.178620487
REMARK minimizedRMSD -1
REMARK  1 active torsions:
REMARK  status: ('A' for Active; 'I' for Inactive)
REMARK    1  A    between atoms: C1_2  and  C2_3 
ROOT
ATOM      1  C2  UNL d   1       1.571   1.194   0.563  0.00  0.00    -0.077 A 
ATOM      2  C3  UNL d   1       1.716   1.223   1.957  0.00  0.00     0.002 A 
ATOM      3  C4  UNL d   1       2.609   2.114   2.555  0.00  0.00     0.002 A 
ATOM      4  C5  UNL d   1       3.360   2.985   1.768  0.00  0.00    -0.004 A 
ATOM      5  C6  UNL d   1       3.224   2.961   0.380  0.00  0.00     0.002 A 
ATOM      6  C7  UNL d   1       2.333   2.070  -0.219  0.00  0.00     0.002 A 
ENDROOT
BRANCH   1   7
ATOM      7  C1  UNL d   1       0.572   0.268  -0.081  0.00  0.00     0.055 C 
ATOM      8  C   UNL d   1      -0.401  -0.297   0.944  0.00  0.00     0.019 C 
ENDBRANCH   1   7
TORSDOF 1
ENDMDL
