MODEL 1
REMARK minimizedAffinity -0.823836982
REMARK minimizedRMSD -1
REMARK  1 active torsions:
REMARK  status: ('A' for Active; 'I' for Inactive)
REMARK    1  A    between atoms: C1_2  and  C2_3 
ROOT
ATOM      1  C2  UNL d   1       0.006  -0.524   0.665  0.00  0.00    -0.077 A 
ATOM      2  C3  UNL d   1      -1.308  -0.102   0.418  0.00  0.00     0.002 A 
ATOM      3  C4  UNL d   1      -2.375  -0.674   1.112  0.00  0.00     0.002 A 
ATOM      4  C5  UNL d   1      -2.140  -1.668   2.060  0.00  0.00    -0.004 A 
ATOM      5  C6  UNL d   1      -0.837  -2.096   2.311  0.00  0.00     0.002 A 
ATOM      6  C7  UNL d   1       0.232  -1.525   1.617  0.00  0.00     0.002 A 
ENDROOT
BRANCH   1   7
ATOM      7  C1  UNL d   1       1.163   0.127  -0.047  0.00  0.00     0.055 C 
ATOM      8  C   UNL d   1       1.698   1.316   0.737  0.00  0.00     0.019 C 
ENDBRANCH   1   7
TORSDOF 1
ENDMDL
