MODEL 1
REMARK minimizedAffinity -3.7728765
REMARK minimizedRMSD -1
REMARK  1 active torsions:
REMARK  status: ('A' for Active; 'I' for Inactive)
REMARK    1  A    between atoms: C1_2  and  C2_3 
ROOT
ATOM      1  C2  UNL d   1      -0.485  -0.095  -0.424  0.00  0.00    -0.077 A 
ATOM      2  C3  UNL d   1       0.056  -0.716   0.711  0.00  0.00     0.002 A 
ATOM      3  C4  UNL d   1      -0.709  -1.612   1.459  0.00  0.00     0.002 A 
ATOM      4  C5  UNL d   1      -2.019  -1.899   1.078  0.00  0.00    -0.004 A 
ATOM      5  C6  UNL d   1      -2.567  -1.286  -0.048  0.00  0.00     0.002 A 
ATOM      6  C7  UNL d   1      -1.803  -0.389  -0.796  0.00  0.00     0.002 A 
ENDROOT
BRANCH   1   7
ATOM      7  C1  UNL d   1       0.356   0.834  -1.260  0.00  0.00     0.055 C 
ATOM      8  C   UNL d   1       1.345   0.062  -2.120  0.00  0.00     0.019 C 
ENDBRANCH   1   7
TORSDOF 1
ENDMDL
