MODEL 1
REMARK minimizedAffinity -2.99257421
REMARK minimizedRMSD -1
REMARK  1 active torsions:
REMARK  status: ('A' for Active; 'I' for Inactive)
REMARK    1  A    between atoms: C1_2  and  C2_3 
ROOT
ATOM      1  C2  UNL d   1       1.628   1.261   0.824  0.00  0.00    -0.077 A 
ATOM      2  C3  UNL d   1       2.394   2.071  -0.026  0.00  0.00     0.002 A 
ATOM      3  C4  UNL d   1       2.926   3.276   0.437  0.00  0.00     0.002 A 
ATOM      4  C5  UNL d   1       2.703   3.678   1.752  0.00  0.00    -0.004 A 
ATOM      5  C6  UNL d   1       1.942   2.880   2.605  0.00  0.00     0.002 A 
ATOM      6  C7  UNL d   1       1.408   1.677   2.144  0.00  0.00     0.002 A 
ENDROOT
BRANCH   1   7
ATOM      7  C1  UNL d   1       1.094  -0.063   0.342  0.00  0.00     0.055 C 
ATOM      8  C   UNL d   1      -0.320  -0.307   0.848  0.00  0.00     0.019 C 
ENDBRANCH   1   7
TORSDOF 1
ENDMDL
