MODEL 1
REMARK minimizedAffinity -0.967316926
REMARK minimizedRMSD -1
REMARK  1 active torsions:
REMARK  status: ('A' for Active; 'I' for Inactive)
REMARK    1  A    between atoms: C1_2  and  C2_3 
ROOT
ATOM      1  C2  UNL d   1       3.588   2.989  -0.111  0.00  0.00    -0.077 A 
ATOM      2  C3  UNL d   1       3.527   3.861   0.985  0.00  0.00     0.002 A 
ATOM      3  C4  UNL d   1       2.796   3.516   2.123  0.00  0.00     0.002 A 
ATOM      4  C5  UNL d   1       2.125   2.297   2.178  0.00  0.00    -0.004 A 
ATOM      5  C6  UNL d   1       2.177   1.423   1.093  0.00  0.00     0.002 A 
ATOM      6  C7  UNL d   1       2.907   1.767  -0.046  0.00  0.00     0.002 A 
ENDROOT
BRANCH   1   7
ATOM      7  C1  UNL d   1       4.417   3.338  -1.319  0.00  0.00     0.055 C 
ATOM      8  C   UNL d   1       4.366   4.830  -1.613  0.00  0.00     0.019 C 
ENDBRANCH   1   7
TORSDOF 1
ENDMDL
