MODEL 1
REMARK minimizedAffinity -2.24224758
REMARK minimizedRMSD -1
REMARK  1 active torsions:
REMARK  status: ('A' for Active; 'I' for Inactive)
REMARK    1  A    between atoms: C1_2  and  C2_3 
ROOT
ATOM      1  C2  UNL d   1       1.282   1.692   0.460  0.00  0.00    -0.077 A 
ATOM      2  C3  UNL d   1       2.328   2.260  -0.281  0.00  0.00     0.002 A 
ATOM      3  C4  UNL d   1       3.120   3.267   0.274  0.00  0.00     0.002 A 
ATOM      4  C5  UNL d   1       2.878   3.712   1.572  0.00  0.00    -0.004 A 
ATOM      5  C6  UNL d   1       1.839   3.154   2.316  0.00  0.00     0.002 A 
ATOM      6  C7  UNL d   1       1.045   2.148   1.763  0.00  0.00     0.002 A 
ENDROOT
BRANCH   1   7
ATOM      7  C1  UNL d   1       0.458   0.571  -0.118  0.00  0.00     0.055 C 
ATOM      8  C   UNL d   1       0.409  -0.623   0.824  0.00  0.00     0.019 C 
ENDBRANCH   1   7
TORSDOF 1
ENDMDL
