MODEL 1
REMARK minimizedAffinity -5.57931185
REMARK minimizedRMSD -1
REMARK  1 active torsions:
REMARK  status: ('A' for Active; 'I' for Inactive)
REMARK    1  A    between atoms: C1_2  and  C2_3 
ROOT
ATOM      1  C2  UNL d   1       1.947   2.367   1.090  0.00  0.00    -0.077 A 
ATOM      2  C3  UNL d   1       2.378   1.061   1.364  0.00  0.00     0.002 A 
ATOM      3  C4  UNL d   1       1.482  -0.008   1.296  0.00  0.00     0.002 A 
ATOM      4  C5  UNL d   1       0.151   0.218   0.951  0.00  0.00    -0.004 A 
ATOM      5  C6  UNL d   1      -0.288   1.513   0.679  0.00  0.00     0.002 A 
ATOM      6  C7  UNL d   1       0.606   2.582   0.747  0.00  0.00     0.002 A 
ENDROOT
BRANCH   1   7
ATOM      7  C1  UNL d   1       2.923   3.514   1.115  0.00  0.00     0.055 C 
ATOM      8  C   UNL d   1       3.686   3.619  -0.198  0.00  0.00     0.019 C 
ENDBRANCH   1   7
TORSDOF 1
ENDMDL
