MODEL 1
REMARK minimizedAffinity -3.58085442
REMARK minimizedRMSD -1
REMARK  1 active torsions:
REMARK  status: ('A' for Active; 'I' for Inactive)
REMARK    1  A    between atoms: C1_2  and  C2_3 
ROOT
ATOM      1  C2  UNL d   1       2.523   1.528   1.206  0.00  0.00    -0.077 A 
ATOM      2  C3  UNL d   1       3.017   0.797   2.295  0.00  0.00     0.002 A 
ATOM      3  C4  UNL d   1       3.309   1.437   3.501  0.00  0.00     0.002 A 
ATOM      4  C5  UNL d   1       3.107   2.810   3.630  0.00  0.00    -0.004 A 
ATOM      5  C6  UNL d   1       2.618   3.546   2.552  0.00  0.00     0.002 A 
ATOM      6  C7  UNL d   1       2.327   2.908   1.345  0.00  0.00     0.002 A 
ENDROOT
BRANCH   1   7
ATOM      7  C1  UNL d   1       2.161   0.831  -0.080  0.00  0.00     0.055 C 
ATOM      8  C   UNL d   1       1.187  -0.311   0.165  0.00  0.00     0.019 C 
ENDBRANCH   1   7
TORSDOF 1
ENDMDL
