MODEL 1
REMARK minimizedAffinity -1.9700352
REMARK minimizedRMSD -1
REMARK  1 active torsions:
REMARK  status: ('A' for Active; 'I' for Inactive)
REMARK    1  A    between atoms: C1_2  and  C2_3 
ROOT
ATOM      1  C2  UNL d   1      -1.146  -1.318   0.577  0.00  0.00    -0.077 A 
ATOM      2  C3  UNL d   1      -2.410  -1.629   0.057  0.00  0.00     0.002 A 
ATOM      3  C4  UNL d   1      -2.925  -0.908  -1.023  0.00  0.00     0.002 A 
ATOM      4  C5  UNL d   1      -2.182   0.123  -1.593  0.00  0.00    -0.004 A 
ATOM      5  C6  UNL d   1      -0.925   0.441  -1.080  0.00  0.00     0.002 A 
ATOM      6  C7  UNL d   1      -0.409  -0.277  -0.001  0.00  0.00     0.002 A 
ENDROOT
BRANCH   1   7
ATOM      7  C1  UNL d   1      -0.567  -2.126   1.710  0.00  0.00     0.055 C 
ATOM      8  C   UNL d   1       0.952  -2.047   1.726  0.00  0.00     0.019 C 
ENDBRANCH   1   7
TORSDOF 1
ENDMDL
