MODEL 1
REMARK minimizedAffinity -3.22840071
REMARK minimizedRMSD -1
REMARK  1 active torsions:
REMARK  status: ('A' for Active; 'I' for Inactive)
REMARK    1  A    between atoms: C1_2  and  C2_3 
ROOT
ATOM      1  C2  UNL d   1      -1.784  -0.471  -0.328  0.00  0.00    -0.077 A 
ATOM      2  C3  UNL d   1      -1.357  -1.175   0.807  0.00  0.00     0.002 A 
ATOM      3  C4  UNL d   1      -0.026  -1.104   1.222  0.00  0.00     0.002 A 
ATOM      4  C5  UNL d   1       0.887  -0.328   0.511  0.00  0.00    -0.004 A 
ATOM      5  C6  UNL d   1       0.473   0.374  -0.620  0.00  0.00     0.002 A 
ATOM      6  C7  UNL d   1      -0.857   0.303  -1.037  0.00  0.00     0.002 A 
ENDROOT
BRANCH   1   7
ATOM      7  C1  UNL d   1      -3.230  -0.507  -0.749  0.00  0.00     0.055 C 
ATOM      8  C   UNL d   1      -3.986  -1.620  -0.039  0.00  0.00     0.019 C 
ENDBRANCH   1   7
TORSDOF 1
ENDMDL
