MODEL 1
REMARK minimizedAffinity -5.95510292
REMARK minimizedRMSD -1
REMARK  1 active torsions:
REMARK  status: ('A' for Active; 'I' for Inactive)
REMARK    1  A    between atoms: C1_2  and  C2_3 
ROOT
ATOM      1  C2  UNL d   1      -1.072  -0.696   0.155  0.00  0.00    -0.077 A 
ATOM      2  C3  UNL d   1      -1.008  -1.847   0.954  0.00  0.00     0.002 A 
ATOM      3  C4  UNL d   1      -2.151  -2.618   1.174  0.00  0.00     0.002 A 
ATOM      4  C5  UNL d   1      -3.364  -2.250   0.596  0.00  0.00    -0.004 A 
ATOM      5  C6  UNL d   1      -3.438  -1.106  -0.198  0.00  0.00     0.002 A 
ATOM      6  C7  UNL d   1      -2.297  -0.334  -0.419  0.00  0.00     0.002 A 
ENDROOT
BRANCH   1   7
ATOM      7  C1  UNL d   1       0.170   0.110  -0.124  0.00  0.00     0.055 C 
ATOM      8  C   UNL d   1       1.426  -0.661   0.255  0.00  0.00     0.019 C 
ENDBRANCH   1   7
TORSDOF 1
ENDMDL
