MODEL 1
REMARK minimizedAffinity -3.84398818
REMARK minimizedRMSD -1
REMARK  1 active torsions:
REMARK  status: ('A' for Active; 'I' for Inactive)
REMARK    1  A    between atoms: C1_2  and  C2_3 
ROOT
ATOM      1  C2  UNL d   1      -0.905  -0.096  -0.929  0.00  0.00    -0.077 A 
ATOM      2  C3  UNL d   1      -2.231  -0.486  -1.168  0.00  0.00     0.002 A 
ATOM      3  C4  UNL d   1      -3.013  -1.001  -0.132  0.00  0.00     0.002 A 
ATOM      4  C5  UNL d   1      -2.480  -1.126   1.149  0.00  0.00    -0.004 A 
ATOM      5  C6  UNL d   1      -1.163  -0.743   1.396  0.00  0.00     0.002 A 
ATOM      6  C7  UNL d   1      -0.379  -0.229   0.362  0.00  0.00     0.002 A 
ENDROOT
BRANCH   1   7
ATOM      7  C1  UNL d   1      -0.076   0.505  -2.034  0.00  0.00     0.055 C 
ATOM      8  C   UNL d   1       1.287  -0.165  -2.129  0.00  0.00     0.019 C 
ENDBRANCH   1   7
TORSDOF 1
ENDMDL
