MODEL 1
REMARK minimizedAffinity -3.92952752
REMARK minimizedRMSD -1
REMARK  1 active torsions:
REMARK  status: ('A' for Active; 'I' for Inactive)
REMARK    1  A    between atoms: C1_2  and  C2_3 
ROOT
ATOM      1  C2  UNL d   1      -0.385  -0.109   0.094  0.00  0.00    -0.077 A 
ATOM      2  C3  UNL d   1      -1.241  -0.496   1.135  0.00  0.00     0.002 A 
ATOM      3  C4  UNL d   1      -2.552  -0.890   0.861  0.00  0.00     0.002 A 
ATOM      4  C5  UNL d   1      -3.017  -0.904  -0.453  0.00  0.00    -0.004 A 
ATOM      5  C6  UNL d   1      -2.174  -0.519  -1.494  0.00  0.00     0.002 A 
ATOM      6  C7  UNL d   1      -0.863  -0.124  -1.222  0.00  0.00     0.002 A 
ENDROOT
BRANCH   1   7
ATOM      7  C1  UNL d   1       1.045   0.268   0.382  0.00  0.00     0.055 C 
ATOM      8  C   UNL d   1       1.956  -0.080  -0.786  0.00  0.00     0.019 C 
ENDBRANCH   1   7
TORSDOF 1
ENDMDL
