MODEL 1
REMARK minimizedAffinity -2.15035105
REMARK minimizedRMSD -1
REMARK  1 active torsions:
REMARK  status: ('A' for Active; 'I' for Inactive)
REMARK    1  A    between atoms: C1_2  and  C2_3 
ROOT
ATOM      1  C2  UNL d   1      -1.689  -0.641   0.578  0.00  0.00    -0.077 A 
ATOM      2  C3  UNL d   1      -1.228  -1.269   1.744  0.00  0.00     0.002 A 
ATOM      3  C4  UNL d   1       0.127  -1.230   2.078  0.00  0.00     0.002 A 
ATOM      4  C5  UNL d   1       1.031  -0.561   1.256  0.00  0.00    -0.004 A 
ATOM      5  C6  UNL d   1       0.582   0.065   0.093  0.00  0.00     0.002 A 
ATOM      6  C7  UNL d   1      -0.771   0.026  -0.243  0.00  0.00     0.002 A 
ENDROOT
BRANCH   1   7
ATOM      7  C1  UNL d   1      -3.157  -0.639   0.242  0.00  0.00     0.055 C 
ATOM      8  C   UNL d   1      -3.410  -1.240  -1.134  0.00  0.00     0.019 C 
ENDBRANCH   1   7
TORSDOF 1
ENDMDL
