MODEL 1
REMARK minimizedAffinity -0.551012635
REMARK minimizedRMSD -1
REMARK  2 active torsions:
REMARK  status: ('A' for Active; 'I' for Inactive)
REMARK    1  A    between atoms: C1_2  and  C2_3 
REMARK    2  A    between atoms: C2_3  and  C3_4 
ROOT
ATOM      1  C3  UNL d   1      -0.306   0.271  -0.442  0.00  0.00    -0.075 A 
ATOM      2  C4  UNL d   1      -0.597  -1.101  -0.439  0.00  0.00     0.002 A 
ATOM      3  C5  UNL d   1       0.430  -2.043  -0.500  0.00  0.00     0.002 A 
ATOM      4  C6  UNL d   1       1.757  -1.627  -0.575  0.00  0.00    -0.004 A 
ATOM      5  C7  UNL d   1       2.057  -0.267  -0.595  0.00  0.00     0.002 A 
ATOM      6  C8  UNL d   1       1.032   0.678  -0.530  0.00  0.00     0.002 A 
ENDROOT
BRANCH   1   7
ATOM      7  C2  UNL d   1      -1.411   1.296  -0.347  0.00  0.00     0.056 C 
BRANCH   7   8
ATOM      8  C1  UNL d   1      -2.789   0.700  -0.043  0.00  0.00     0.007 C 
ATOM      9  C   UNL d   1      -3.687   1.639   0.753  0.00  0.00     0.009 C 
ENDBRANCH   7   8
ENDBRANCH   1   7
TORSDOF 2
ENDMDL
