MODEL 1
REMARK minimizedAffinity -4.55733109
REMARK minimizedRMSD -1
REMARK  2 active torsions:
REMARK  status: ('A' for Active; 'I' for Inactive)
REMARK    1  A    between atoms: C1_2  and  C2_3 
REMARK    2  A    between atoms: C2_3  and  C3_4 
ROOT
ATOM      1  C3  UNL d   1      -0.206   0.133  -0.223  0.00  0.00    -0.075 A 
ATOM      2  C4  UNL d   1       0.246  -0.971  -0.961  0.00  0.00     0.002 A 
ATOM      3  C5  UNL d   1       1.458  -1.586  -0.644  0.00  0.00     0.002 A 
ATOM      4  C6  UNL d   1       2.236  -1.102   0.405  0.00  0.00    -0.004 A 
ATOM      5  C7  UNL d   1       1.804   0.004   1.134  0.00  0.00     0.002 A 
ATOM      6  C8  UNL d   1       0.591   0.619   0.822  0.00  0.00     0.002 A 
ENDROOT
BRANCH   1   7
ATOM      7  C2  UNL d   1      -1.530   0.785  -0.542  0.00  0.00     0.056 C 
BRANCH   7   8
ATOM      8  C1  UNL d   1      -2.225   1.411   0.672  0.00  0.00     0.007 C 
ATOM      9  C   UNL d   1      -3.718   1.119   0.726  0.00  0.00     0.009 C 
ENDBRANCH   7   8
ENDBRANCH   1   7
TORSDOF 2
ENDMDL
