MODEL 1
REMARK minimizedAffinity -5.08155632
REMARK minimizedRMSD -1
REMARK  2 active torsions:
REMARK  status: ('A' for Active; 'I' for Inactive)
REMARK    1  A    between atoms: C1_2  and  C2_3 
REMARK    2  A    between atoms: C2_3  and  C3_4 
ROOT
ATOM      1  C3  UNL d   1      -0.101  -0.136  -0.365  0.00  0.00    -0.075 A 
ATOM      2  C4  UNL d   1       0.172  -1.439  -0.808  0.00  0.00     0.002 A 
ATOM      3  C5  UNL d   1       1.356  -2.078  -0.441  0.00  0.00     0.002 A 
ATOM      4  C6  UNL d   1       2.285  -1.422   0.364  0.00  0.00    -0.004 A 
ATOM      5  C7  UNL d   1       2.032  -0.122   0.796  0.00  0.00     0.002 A 
ATOM      6  C8  UNL d   1       0.846   0.519   0.433  0.00  0.00     0.002 A 
ENDROOT
BRANCH   1   7
ATOM      7  C2  UNL d   1      -1.394   0.550  -0.735  0.00  0.00     0.056 C 
BRANCH   7   8
ATOM      8  C1  UNL d   1      -2.233   0.990   0.469  0.00  0.00     0.007 C 
ATOM      9  C   UNL d   1      -3.733   0.860   0.236  0.00  0.00     0.009 C 
ENDBRANCH   7   8
ENDBRANCH   1   7
TORSDOF 2
ENDMDL
