MODEL 1
REMARK minimizedAffinity -3.33731627
REMARK minimizedRMSD -1
REMARK  2 active torsions:
REMARK  status: ('A' for Active; 'I' for Inactive)
REMARK    1  A    between atoms: C1_2  and  C2_3 
REMARK    2  A    between atoms: C2_3  and  C3_4 
ROOT
ATOM      1  C3  UNL d   1       0.937   0.102  -0.266  0.00  0.00    -0.075 A 
ATOM      2  C4  UNL d   1       1.443   1.366   0.067  0.00  0.00     0.002 A 
ATOM      3  C5  UNL d   1       2.768   1.512   0.481  0.00  0.00     0.002 A 
ATOM      4  C6  UNL d   1       3.598   0.397   0.577  0.00  0.00    -0.004 A 
ATOM      5  C7  UNL d   1       3.100  -0.866   0.264  0.00  0.00     0.002 A 
ATOM      6  C8  UNL d   1       1.777  -1.014  -0.155  0.00  0.00     0.002 A 
ENDROOT
BRANCH   1   7
ATOM      7  C2  UNL d   1      -0.487  -0.059  -0.743  0.00  0.00     0.056 C 
BRANCH   7   8
ATOM      8  C1  UNL d   1      -1.520   0.676   0.118  0.00  0.00     0.007 C 
ATOM      9  C   UNL d   1      -2.955   0.436  -0.331  0.00  0.00     0.009 C 
ENDBRANCH   7   8
ENDBRANCH   1   7
TORSDOF 2
ENDMDL
