MODEL 1
REMARK minimizedAffinity -5.33790922
REMARK minimizedRMSD -1
REMARK  2 active torsions:
REMARK  status: ('A' for Active; 'I' for Inactive)
REMARK    1  A    between atoms: C1_2  and  C2_3 
REMARK    2  A    between atoms: C2_3  and  C3_4 
ROOT
ATOM      1  C3  UNL d   1      -0.319   0.000  -0.142  0.00  0.00    -0.075 A 
ATOM      2  C4  UNL d   1      -0.042  -1.208  -0.798  0.00  0.00     0.002 A 
ATOM      3  C5  UNL d   1       1.204  -1.819  -0.662  0.00  0.00     0.002 A 
ATOM      4  C6  UNL d   1       2.192  -1.226   0.121  0.00  0.00    -0.004 A 
ATOM      5  C7  UNL d   1       1.934  -0.018   0.764  0.00  0.00     0.002 A 
ATOM      6  C8  UNL d   1       0.686   0.594   0.633  0.00  0.00     0.002 A 
ENDROOT
BRANCH   1   7
ATOM      7  C2  UNL d   1      -1.676   0.652  -0.262  0.00  0.00     0.056 C 
BRANCH   7   8
ATOM      8  C1  UNL d   1      -2.367   0.904   1.083  0.00  0.00     0.007 C 
ATOM      9  C   UNL d   1      -3.886   0.935   0.980  0.00  0.00     0.009 C 
ENDBRANCH   7   8
ENDBRANCH   1   7
TORSDOF 2
ENDMDL
