MODEL 1
REMARK minimizedAffinity -3.53679323
REMARK minimizedRMSD -1
REMARK  2 active torsions:
REMARK  status: ('A' for Active; 'I' for Inactive)
REMARK    1  A    between atoms: C1_2  and  C2_3 
REMARK    2  A    between atoms: C2_3  and  C3_4 
ROOT
ATOM      1  C3  UNL d   1      -2.612   0.875  -0.110  0.00  0.00    -0.075 A 
ATOM      2  C4  UNL d   1      -3.403  -0.264  -0.319  0.00  0.00     0.002 A 
ATOM      3  C5  UNL d   1      -4.719  -0.308   0.143  0.00  0.00     0.002 A 
ATOM      4  C6  UNL d   1      -5.256   0.780   0.828  0.00  0.00    -0.004 A 
ATOM      5  C7  UNL d   1      -4.474   1.910   1.056  0.00  0.00     0.002 A 
ATOM      6  C8  UNL d   1      -3.159   1.958   0.591  0.00  0.00     0.002 A 
ENDROOT
BRANCH   1   7
ATOM      7  C2  UNL d   1      -1.197   0.939  -0.634  0.00  0.00     0.056 C 
BRANCH   7   8
ATOM      8  C1  UNL d   1      -0.154   0.335   0.312  0.00  0.00     0.007 C 
ATOM      9  C   UNL d   1       0.224  -1.096  -0.046  0.00  0.00     0.009 C 
ENDBRANCH   7   8
ENDBRANCH   1   7
TORSDOF 2
ENDMDL
