MODEL 1
REMARK minimizedAffinity -3.18884015
REMARK minimizedRMSD -1
REMARK  2 active torsions:
REMARK  status: ('A' for Active; 'I' for Inactive)
REMARK    1  A    between atoms: C1_2  and  C2_3 
REMARK    2  A    between atoms: C2_3  and  C3_4 
ROOT
ATOM      1  C3  UNL d   1      -0.212   0.129  -0.306  0.00  0.00    -0.075 A 
ATOM      2  C4  UNL d   1      -0.397  -1.252  -0.471  0.00  0.00     0.002 A 
ATOM      3  C5  UNL d   1       0.690  -2.124  -0.408  0.00  0.00     0.002 A 
ATOM      4  C6  UNL d   1       1.973  -1.629  -0.189  0.00  0.00    -0.004 A 
ATOM      5  C7  UNL d   1       2.171  -0.258  -0.039  0.00  0.00     0.002 A 
ATOM      6  C8  UNL d   1       1.085   0.617  -0.098  0.00  0.00     0.002 A 
ENDROOT
BRANCH   1   7
ATOM      7  C2  UNL d   1      -1.388   1.075  -0.344  0.00  0.00     0.056 C 
BRANCH   7   8
ATOM      8  C1  UNL d   1      -2.727   0.422   0.015  0.00  0.00     0.007 C 
ATOM      9  C   UNL d   1      -3.765   1.417   0.515  0.00  0.00     0.009 C 
ENDBRANCH   7   8
ENDBRANCH   1   7
TORSDOF 2
ENDMDL
