MODEL 1
REMARK minimizedAffinity -3.53124499
REMARK minimizedRMSD -1
REMARK  2 active torsions:
REMARK  status: ('A' for Active; 'I' for Inactive)
REMARK    1  A    between atoms: C1_2  and  C2_3 
REMARK    2  A    between atoms: C2_3  and  C3_4 
ROOT
ATOM      1  C3  UNL d   1       1.047   0.148   0.137  0.00  0.00    -0.075 A 
ATOM      2  C4  UNL d   1       1.604   1.419   0.338  0.00  0.00     0.002 A 
ATOM      3  C5  UNL d   1       2.979   1.569   0.523  0.00  0.00     0.002 A 
ATOM      4  C6  UNL d   1       3.810   0.451   0.521  0.00  0.00    -0.004 A 
ATOM      5  C7  UNL d   1       3.265  -0.818   0.339  0.00  0.00     0.002 A 
ATOM      6  C8  UNL d   1       1.891  -0.970   0.149  0.00  0.00     0.002 A 
ENDROOT
BRANCH   1   7
ATOM      7  C2  UNL d   1      -0.437  -0.017  -0.094  0.00  0.00     0.056 C 
BRANCH   7   8
ATOM      8  C1  UNL d   1      -1.135   1.251  -0.594  0.00  0.00     0.007 C 
ATOM      9  C   UNL d   1      -2.573   1.376  -0.109  0.00  0.00     0.009 C 
ENDBRANCH   7   8
ENDBRANCH   1   7
TORSDOF 2
ENDMDL
