MODEL 1
REMARK minimizedAffinity -2.45766878
REMARK minimizedRMSD -1
REMARK  2 active torsions:
REMARK  status: ('A' for Active; 'I' for Inactive)
REMARK    1  A    between atoms: C1_2  and  C2_3 
REMARK    2  A    between atoms: C2_3  and  C3_4 
ROOT
ATOM      1  C3  UNL d   1       1.965  -0.258   0.699  0.00  0.00    -0.075 A 
ATOM      2  C4  UNL d   1       0.641   0.205   0.701  0.00  0.00     0.002 A 
ATOM      3  C5  UNL d   1      -0.333  -0.433  -0.067  0.00  0.00     0.002 A 
ATOM      4  C6  UNL d   1       0.005  -1.532  -0.854  0.00  0.00    -0.004 A 
ATOM      5  C7  UNL d   1       1.320  -1.990  -0.876  0.00  0.00     0.002 A 
ATOM      6  C8  UNL d   1       2.296  -1.356  -0.105  0.00  0.00     0.002 A 
ENDROOT
BRANCH   1   7
ATOM      7  C2  UNL d   1       3.018   0.410   1.551  0.00  0.00     0.056 C 
BRANCH   7   8
ATOM      8  C1  UNL d   1       3.047   1.937   1.425  0.00  0.00     0.007 C 
ATOM      9  C   UNL d   1       2.964   2.422  -0.016  0.00  0.00     0.009 C 
ENDBRANCH   7   8
ENDBRANCH   1   7
TORSDOF 2
ENDMDL
