MODEL 1
REMARK minimizedAffinity -4.07179928
REMARK minimizedRMSD -1
REMARK  2 active torsions:
REMARK  status: ('A' for Active; 'I' for Inactive)
REMARK    1  A    between atoms: C1_2  and  C2_3 
REMARK    2  A    between atoms: C2_3  and  C3_4 
ROOT
ATOM      1  C3  UNL d   1       0.037  -0.143   0.085  0.00  0.00    -0.075 A 
ATOM      2  C4  UNL d   1       0.397  -1.404  -0.411  0.00  0.00     0.002 A 
ATOM      3  C5  UNL d   1       1.659  -1.936  -0.145  0.00  0.00     0.002 A 
ATOM      4  C6  UNL d   1       2.579  -1.212   0.611  0.00  0.00    -0.004 A 
ATOM      5  C7  UNL d   1       2.237   0.049   1.094  0.00  0.00     0.002 A 
ATOM      6  C8  UNL d   1       0.974   0.582   0.833  0.00  0.00     0.002 A 
ENDROOT
BRANCH   1   7
ATOM      7  C2  UNL d   1      -1.338   0.425  -0.175  0.00  0.00     0.056 C 
BRANCH   7   8
ATOM      8  C1  UNL d   1      -2.148   0.704   1.095  0.00  0.00     0.007 C 
ATOM      9  C   UNL d   1      -3.634   0.412   0.935  0.00  0.00     0.009 C 
ENDBRANCH   7   8
ENDBRANCH   1   7
TORSDOF 2
ENDMDL
