MODEL 1
REMARK minimizedAffinity 13.8112164
REMARK minimizedRMSD -1
REMARK  2 active torsions:
REMARK  status: ('A' for Active; 'I' for Inactive)
REMARK    1  A    between atoms: C1_2  and  C2_3 
REMARK    2  A    between atoms: C2_3  and  C3_4 
ROOT
ATOM      1  C3  UNL d   1       2.921  -2.306  -2.039  0.00  0.00    -0.075 A 
ATOM      2  C4  UNL d   1       1.604  -1.911  -1.765  0.00  0.00     0.002 A 
ATOM      3  C5  UNL d   1       0.539  -2.440  -2.495  0.00  0.00     0.002 A 
ATOM      4  C6  UNL d   1       0.778  -3.361  -3.513  0.00  0.00    -0.004 A 
ATOM      5  C7  UNL d   1       2.084  -3.748  -3.805  0.00  0.00     0.002 A 
ATOM      6  C8  UNL d   1       3.151  -3.223  -3.073  0.00  0.00     0.002 A 
ENDROOT
BRANCH   1   7
ATOM      7  C2  UNL d   1       4.075  -1.759  -1.233  0.00  0.00     0.056 C 
BRANCH   7   8
ATOM      8  C1  UNL d   1       4.219  -2.389   0.156  0.00  0.00     0.007 C 
ATOM      9  C   UNL d   1       3.181  -1.890   1.152  0.00  0.00     0.009 C 
ENDBRANCH   7   8
ENDBRANCH   1   7
TORSDOF 2
ENDMDL
