MODEL 1
REMARK minimizedAffinity 5.44092321
REMARK minimizedRMSD -1
REMARK  2 active torsions:
REMARK  status: ('A' for Active; 'I' for Inactive)
REMARK    1  A    between atoms: C1_2  and  C2_3 
REMARK    2  A    between atoms: C2_3  and  C3_4 
ROOT
ATOM      1  C3  UNL d   1      -3.252  -4.659  -4.851  0.00  0.00    -0.075 A 
ATOM      2  C4  UNL d   1      -4.149  -3.881  -4.104  0.00  0.00     0.002 A 
ATOM      3  C5  UNL d   1      -5.513  -4.170  -4.111  0.00  0.00     0.002 A 
ATOM      4  C6  UNL d   1      -6.000  -5.231  -4.872  0.00  0.00    -0.004 A 
ATOM      5  C7  UNL d   1      -5.120  -6.000  -5.632  0.00  0.00     0.002 A 
ATOM      6  C8  UNL d   1      -3.754  -5.715  -5.623  0.00  0.00     0.002 A 
ENDROOT
BRANCH   1   7
ATOM      7  C2  UNL d   1      -1.770  -4.369  -4.824  0.00  0.00     0.056 C 
BRANCH   7   8
ATOM      8  C1  UNL d   1      -1.400  -3.079  -4.085  0.00  0.00     0.007 C 
ATOM      9  C   UNL d   1       0.009  -3.101  -3.507  0.00  0.00     0.009 C 
ENDBRANCH   7   8
ENDBRANCH   1   7
TORSDOF 2
ENDMDL
