MODEL 1
REMARK minimizedAffinity -0.673813283
REMARK minimizedRMSD -1
REMARK  2 active torsions:
REMARK  status: ('A' for Active; 'I' for Inactive)
REMARK    1  A    between atoms: C1_2  and  C2_3 
REMARK    2  A    between atoms: C2_3  and  C3_4 
ROOT
ATOM      1  C3  UNL d   1      -2.282  -1.503   3.579  0.00  0.00    -0.075 A 
ATOM      2  C4  UNL d   1      -2.484  -2.186   4.787  0.00  0.00     0.002 A 
ATOM      3  C5  UNL d   1      -2.589  -1.485   5.988  0.00  0.00     0.002 A 
ATOM      4  C6  UNL d   1      -2.482  -0.096   6.000  0.00  0.00    -0.004 A 
ATOM      5  C7  UNL d   1      -2.264   0.592   4.808  0.00  0.00     0.002 A 
ATOM      6  C8  UNL d   1      -2.164  -0.107   3.603  0.00  0.00     0.002 A 
ENDROOT
BRANCH   1   7
ATOM      7  C2  UNL d   1      -2.197  -2.253   2.271  0.00  0.00     0.056 C 
BRANCH   7   8
ATOM      8  C1  UNL d   1      -0.769  -2.617   1.852  0.00  0.00     0.007 C 
ATOM      9  C   UNL d   1      -0.597  -2.734   0.344  0.00  0.00     0.009 C 
ENDBRANCH   7   8
ENDBRANCH   1   7
TORSDOF 2
ENDMDL
