MODEL 1
REMARK minimizedAffinity 8.84033871
REMARK minimizedRMSD -1
REMARK  2 active torsions:
REMARK  status: ('A' for Active; 'I' for Inactive)
REMARK    1  A    between atoms: C1_2  and  C2_3 
REMARK    2  A    between atoms: C2_3  and  C3_4 
ROOT
ATOM      1  C3  UNL d   1      -3.301   4.007   0.641  0.00  0.00    -0.075 A 
ATOM      2  C4  UNL d   1      -4.269   3.160   0.083  0.00  0.00     0.002 A 
ATOM      3  C5  UNL d   1      -5.486   3.673  -0.365  0.00  0.00     0.002 A 
ATOM      4  C6  UNL d   1      -5.756   5.035  -0.252  0.00  0.00    -0.004 A 
ATOM      5  C7  UNL d   1      -4.808   5.884   0.316  0.00  0.00     0.002 A 
ATOM      6  C8  UNL d   1      -3.587   5.374   0.761  0.00  0.00     0.002 A 
ENDROOT
BRANCH   1   7
ATOM      7  C2  UNL d   1      -1.970   3.463   1.101  0.00  0.00     0.056 C 
BRANCH   7   8
ATOM      8  C1  UNL d   1      -0.763   4.270   0.612  0.00  0.00     0.007 C 
ATOM      9  C   UNL d   1       0.436   4.184   1.547  0.00  0.00     0.009 C 
ENDBRANCH   7   8
ENDBRANCH   1   7
TORSDOF 2
ENDMDL
