MODEL 1
REMARK minimizedAffinity 4.78341532
REMARK minimizedRMSD -1
REMARK  2 active torsions:
REMARK  status: ('A' for Active; 'I' for Inactive)
REMARK    1  A    between atoms: C1_2  and  C2_3 
REMARK    2  A    between atoms: C2_3  and  C3_4 
ROOT
ATOM      1  C3  UNL d   1       4.744  -3.133   5.046  0.00  0.00    -0.075 A 
ATOM      2  C4  UNL d   1       4.310  -2.201   6.000  0.00  0.00     0.002 A 
ATOM      3  C5  UNL d   1       3.201  -1.393   5.747  0.00  0.00     0.002 A 
ATOM      4  C6  UNL d   1       2.520  -1.499   4.536  0.00  0.00    -0.004 A 
ATOM      5  C7  UNL d   1       2.952  -2.410   3.575  0.00  0.00     0.002 A 
ATOM      6  C8  UNL d   1       4.059  -3.223   3.827  0.00  0.00     0.002 A 
ENDROOT
BRANCH   1   7
ATOM      7  C2  UNL d   1       5.925  -4.031   5.326  0.00  0.00     0.056 C 
BRANCH   7   8
ATOM      8  C1  UNL d   1       5.554  -5.360   5.993  0.00  0.00     0.007 C 
ATOM      9  C   UNL d   1       4.253  -5.953   5.469  0.00  0.00     0.009 C 
ENDBRANCH   7   8
ENDBRANCH   1   7
TORSDOF 2
ENDMDL
