MODEL 1
REMARK minimizedAffinity 3.4615705
REMARK minimizedRMSD -1
REMARK  2 active torsions:
REMARK  status: ('A' for Active; 'I' for Inactive)
REMARK    1  A    between atoms: C1_2  and  C2_3 
REMARK    2  A    between atoms: C2_3  and  C3_4 
ROOT
ATOM      1  C3  UNL d   1      -0.277  -2.831  -1.803  0.00  0.00    -0.075 A 
ATOM      2  C4  UNL d   1      -0.426  -2.215  -3.054  0.00  0.00     0.002 A 
ATOM      3  C5  UNL d   1      -0.416  -2.976  -4.224  0.00  0.00     0.002 A 
ATOM      4  C6  UNL d   1      -0.247  -4.357  -4.158  0.00  0.00    -0.004 A 
ATOM      5  C7  UNL d   1      -0.082  -4.978  -2.922  0.00  0.00     0.002 A 
ATOM      6  C8  UNL d   1      -0.096  -4.220  -1.750  0.00  0.00     0.002 A 
ENDROOT
BRANCH   1   7
ATOM      7  C2  UNL d   1      -0.317  -2.017  -0.532  0.00  0.00     0.056 C 
BRANCH   7   8
ATOM      8  C1  UNL d   1      -0.796  -2.800   0.696  0.00  0.00     0.007 C 
ATOM      9  C   UNL d   1      -2.055  -2.219   1.325  0.00  0.00     0.009 C 
ENDBRANCH   7   8
ENDBRANCH   1   7
TORSDOF 2
ENDMDL
