MODEL 1
REMARK minimizedAffinity 11.8455877
REMARK minimizedRMSD -1
REMARK  2 active torsions:
REMARK  status: ('A' for Active; 'I' for Inactive)
REMARK    1  A    between atoms: C1_2  and  C2_3 
REMARK    2  A    between atoms: C2_3  and  C3_4 
ROOT
ATOM      1  C3  UNL d   1       0.916  -3.357  -2.878  0.00  0.00    -0.075 A 
ATOM      2  C4  UNL d   1      -0.261  -2.988  -3.544  0.00  0.00     0.002 A 
ATOM      3  C5  UNL d   1      -1.267  -2.293  -2.872  0.00  0.00     0.002 A 
ATOM      4  C6  UNL d   1      -1.115  -1.969  -1.526  0.00  0.00    -0.004 A 
ATOM      5  C7  UNL d   1       0.043  -2.346  -0.849  0.00  0.00     0.002 A 
ATOM      6  C8  UNL d   1       1.054  -3.037  -1.520  0.00  0.00     0.002 A 
ENDROOT
BRANCH   1   7
ATOM      7  C2  UNL d   1       2.022  -4.083  -3.607  0.00  0.00     0.056 C 
BRANCH   7   8
ATOM      8  C1  UNL d   1       2.250  -3.592  -5.040  0.00  0.00     0.007 C 
ATOM      9  C   UNL d   1       1.124  -3.971  -5.992  0.00  0.00     0.009 C 
ENDBRANCH   7   8
ENDBRANCH   1   7
TORSDOF 2
ENDMDL
