MODEL 1
REMARK minimizedAffinity 2.66806936
REMARK minimizedRMSD -1
REMARK  2 active torsions:
REMARK  status: ('A' for Active; 'I' for Inactive)
REMARK    1  A    between atoms: C1_2  and  C2_3 
REMARK    2  A    between atoms: C2_3  and  C3_4 
ROOT
ATOM      1  C3  UNL d   1      -0.594  -2.584  -0.753  0.00  0.00    -0.075 A 
ATOM      2  C4  UNL d   1       0.186  -3.218   0.225  0.00  0.00     0.002 A 
ATOM      3  C5  UNL d   1      -0.205  -3.198   1.565  0.00  0.00     0.002 A 
ATOM      4  C6  UNL d   1      -1.371  -2.536   1.944  0.00  0.00    -0.004 A 
ATOM      5  C7  UNL d   1      -2.144  -1.888   0.982  0.00  0.00     0.002 A 
ATOM      6  C8  UNL d   1      -1.758  -1.911  -0.359  0.00  0.00     0.002 A 
ENDROOT
BRANCH   1   7
ATOM      7  C2  UNL d   1      -0.192  -2.627  -2.208  0.00  0.00     0.056 C 
BRANCH   7   8
ATOM      8  C1  UNL d   1      -1.363  -2.850  -3.172  0.00  0.00     0.007 C 
ATOM      9  C   UNL d   1      -0.932  -3.414  -4.519  0.00  0.00     0.009 C 
ENDBRANCH   7   8
ENDBRANCH   1   7
TORSDOF 2
ENDMDL
