MODEL 1
REMARK minimizedAffinity 8.03630257
REMARK minimizedRMSD -1
REMARK  2 active torsions:
REMARK  status: ('A' for Active; 'I' for Inactive)
REMARK    1  A    between atoms: C1_2  and  C2_3 
REMARK    2  A    between atoms: C2_3  and  C3_4 
ROOT
ATOM      1  C3  UNL d   1      -0.852  -2.653  -0.882  0.00  0.00    -0.075 A 
ATOM      2  C4  UNL d   1      -1.951  -3.162  -1.589  0.00  0.00     0.002 A 
ATOM      3  C5  UNL d   1      -1.859  -3.408  -2.959  0.00  0.00     0.002 A 
ATOM      4  C6  UNL d   1      -0.674  -3.140  -3.640  0.00  0.00    -0.004 A 
ATOM      5  C7  UNL d   1       0.419  -2.618  -2.951  0.00  0.00     0.002 A 
ATOM      6  C8  UNL d   1       0.332  -2.375  -1.579  0.00  0.00     0.002 A 
ENDROOT
BRANCH   1   7
ATOM      7  C2  UNL d   1      -0.935  -2.413   0.607  0.00  0.00     0.056 C 
BRANCH   7   8
ATOM      8  C1  UNL d   1      -2.367  -2.305   1.142  0.00  0.00     0.007 C 
ATOM      9  C   UNL d   1      -2.469  -2.563   2.639  0.00  0.00     0.009 C 
ENDBRANCH   7   8
ENDBRANCH   1   7
TORSDOF 2
ENDMDL
