MODEL 1
REMARK minimizedAffinity 12.4382887
REMARK minimizedRMSD -1
REMARK  2 active torsions:
REMARK  status: ('A' for Active; 'I' for Inactive)
REMARK    1  A    between atoms: C1_2  and  C2_3 
REMARK    2  A    between atoms: C2_3  and  C3_4 
ROOT
ATOM      1  C3  UNL d   1      -1.320   3.756   1.051  0.00  0.00    -0.075 A 
ATOM      2  C4  UNL d   1      -1.525   2.446   0.593  0.00  0.00     0.002 A 
ATOM      3  C5  UNL d   1      -2.694   2.110  -0.090  0.00  0.00     0.002 A 
ATOM      4  C6  UNL d   1      -3.675   3.073  -0.315  0.00  0.00    -0.004 A 
ATOM      5  C7  UNL d   1      -3.488   4.374   0.150  0.00  0.00     0.002 A 
ATOM      6  C8  UNL d   1      -2.318   4.714   0.830  0.00  0.00     0.002 A 
ENDROOT
BRANCH   1   7
ATOM      7  C2  UNL d   1      -0.044   4.133   1.765  0.00  0.00     0.056 C 
BRANCH   7   8
ATOM      8  C1  UNL d   1       0.680   5.337   1.154  0.00  0.00     0.007 C 
ATOM      9  C   UNL d   1       2.023   4.979   0.533  0.00  0.00     0.009 C 
ENDBRANCH   7   8
ENDBRANCH   1   7
TORSDOF 2
ENDMDL
