MODEL 1
REMARK minimizedAffinity 3.89839649
REMARK minimizedRMSD -1
REMARK  2 active torsions:
REMARK  status: ('A' for Active; 'I' for Inactive)
REMARK    1  A    between atoms: C1_2  and  C2_3 
REMARK    2  A    between atoms: C2_3  and  C3_4 
ROOT
ATOM      1  C3  UNL d   1      -1.616  -2.230  -0.630  0.00  0.00    -0.075 A 
ATOM      2  C4  UNL d   1      -2.505  -2.562  -1.662  0.00  0.00     0.002 A 
ATOM      3  C5  UNL d   1      -2.042  -2.747  -2.965  0.00  0.00     0.002 A 
ATOM      4  C6  UNL d   1      -0.688  -2.592  -3.254  0.00  0.00    -0.004 A 
ATOM      5  C7  UNL d   1       0.202  -2.246  -2.240  0.00  0.00     0.002 A 
ATOM      6  C8  UNL d   1      -0.258  -2.065  -0.935  0.00  0.00     0.002 A 
ENDROOT
BRANCH   1   7
ATOM      7  C2  UNL d   1      -2.106  -2.058   0.788  0.00  0.00     0.056 C 
BRANCH   7   8
ATOM      8  C1  UNL d   1      -3.627  -2.170   0.940  0.00  0.00     0.007 C 
ATOM      9  C   UNL d   1      -4.254  -0.956   1.612  0.00  0.00     0.009 C 
ENDBRANCH   7   8
ENDBRANCH   1   7
TORSDOF 2
ENDMDL
