MODEL 1
REMARK minimizedAffinity 17.8865871
REMARK minimizedRMSD -1
REMARK  2 active torsions:
REMARK  status: ('A' for Active; 'I' for Inactive)
REMARK    1  A    between atoms: C1_2  and  C2_3 
REMARK    2  A    between atoms: C2_3  and  C3_4 
ROOT
ATOM      1  C3  UNL d   1      -0.595  -2.267  -1.688  0.00  0.00    -0.075 A 
ATOM      2  C4  UNL d   1       0.285  -3.038  -0.916  0.00  0.00     0.002 A 
ATOM      3  C5  UNL d   1       0.221  -3.005   0.477  0.00  0.00     0.002 A 
ATOM      4  C6  UNL d   1      -0.715  -2.194   1.115  0.00  0.00    -0.004 A 
ATOM      5  C7  UNL d   1      -1.584  -1.410   0.358  0.00  0.00     0.002 A 
ATOM      6  C8  UNL d   1      -1.524  -1.445  -1.036  0.00  0.00     0.002 A 
ENDROOT
BRANCH   1   7
ATOM      7  C2  UNL d   1      -0.550  -2.321  -3.197  0.00  0.00     0.056 C 
BRANCH   7   8
ATOM      8  C1  UNL d   1      -1.747  -3.038  -3.831  0.00  0.00     0.007 C 
ATOM      9  C   UNL d   1      -1.514  -3.422  -5.286  0.00  0.00     0.009 C 
ENDBRANCH   7   8
ENDBRANCH   1   7
TORSDOF 2
ENDMDL
