MODEL 1
REMARK minimizedAffinity -4.24873066
REMARK minimizedRMSD -1
REMARK  0 active torsions:
REMARK  status: ('A' for Active; 'I' for Inactive)
ROOT
ATOM      1  N1  IND d   1       0.679  -0.348  -1.085  0.00  0.00    -0.196 N 
ATOM      2  C2  IND d   1      -0.476   0.345  -0.849  0.00  0.00     0.054 A 
ATOM      3  C3  IND d   1      -0.773   0.328   0.470  0.00  0.00    -0.031 A 
ATOM      4  C4  IND d   1       0.547  -0.690   2.431  0.00  0.00     0.051 A 
ATOM      5  C5  IND d   1       1.646  -1.454   2.709  0.00  0.00    -0.031 A 
ATOM      6  C6  IND d   1       2.497  -1.895   1.716  0.00  0.00     0.015 A 
ATOM      7  C7  IND d   1       2.287  -1.577   0.405  0.00  0.00    -0.016 A 
ATOM      8  C8  IND d   1       1.168  -0.807   0.118  0.00  0.00    -0.047 A 
ATOM      9  C9  IND d   1       0.277  -0.393   1.116  0.00  0.00    -0.096 A 
ATOM     10  HN1 IND d   1       1.039  -0.475  -1.855  0.00  0.00     0.298 HD
ENDROOT
TORSDOF 0
ENDMDL
