MODEL 1
REMARK minimizedAffinity -5.5651865
REMARK minimizedRMSD -1
REMARK  0 active torsions:
REMARK  status: ('A' for Active; 'I' for Inactive)
ROOT
ATOM      1  N1  IND d   1       0.493  -0.230  -0.708  0.00  0.00    -0.196 N 
ATOM      2  C2  IND d   1      -0.617   0.512  -0.415  0.00  0.00     0.054 A 
ATOM      3  C3  IND d   1      -0.775   0.615   0.924  0.00  0.00    -0.031 A 
ATOM      4  C4  IND d   1       0.725  -0.270   2.820  0.00  0.00     0.051 A 
ATOM      5  C5  IND d   1       1.832  -1.038   3.048  0.00  0.00    -0.031 A 
ATOM      6  C6  IND d   1       2.565  -1.585   2.015  0.00  0.00     0.015 A 
ATOM      7  C7  IND d   1       2.224  -1.374   0.710  0.00  0.00    -0.016 A 
ATOM      8  C8  IND d   1       1.097  -0.600   0.474  0.00  0.00    -0.047 A 
ATOM      9  C9  IND d   1       0.323  -0.078   1.519  0.00  0.00    -0.096 A 
ATOM     10  HN1 IND d   1       0.767  -0.432  -1.497  0.00  0.00     0.298 HD
ENDROOT
TORSDOF 0
ENDMDL
