MODEL 1
REMARK minimizedAffinity -6.12806368
REMARK minimizedRMSD -1
REMARK  0 active torsions:
REMARK  status: ('A' for Active; 'I' for Inactive)
ROOT
ATOM      1  N1  IND d   1       0.489  -0.475  -1.383  0.00  0.00    -0.196 N 
ATOM      2  C2  IND d   1      -0.794  -0.048  -1.184  0.00  0.00     0.054 A 
ATOM      3  C3  IND d   1      -1.088  -0.039   0.135  0.00  0.00    -0.031 A 
ATOM      4  C4  IND d   1       0.418  -0.590   2.149  0.00  0.00     0.051 A 
ATOM      5  C5  IND d   1       1.660  -1.063   2.469  0.00  0.00    -0.031 A 
ATOM      6  C6  IND d   1       2.595  -1.368   1.501  0.00  0.00     0.015 A 
ATOM      7  C7  IND d   1       2.325  -1.199   0.172  0.00  0.00    -0.016 A 
ATOM      8  C8  IND d   1       1.063  -0.726  -0.156  0.00  0.00    -0.047 A 
ATOM      9  C9  IND d   1       0.095  -0.455   0.820  0.00  0.00    -0.096 A 
ATOM     10  HN1 IND d   1       0.874  -0.571  -2.146  0.00  0.00     0.298 HD
ENDROOT
TORSDOF 0
ENDMDL
