MODEL 1
REMARK minimizedAffinity -3.34453344
REMARK minimizedRMSD -1
REMARK  0 active torsions:
REMARK  status: ('A' for Active; 'I' for Inactive)
ROOT
ATOM      1  N1  IND d   1       0.408  -0.043  -0.891  0.00  0.00    -0.196 N 
ATOM      2  C2  IND d   1      -0.773   0.468  -0.431  0.00  0.00     0.054 A 
ATOM      3  C3  IND d   1      -0.886   0.267   0.901  0.00  0.00    -0.031 A 
ATOM      4  C4  IND d   1       0.792  -0.789   2.543  0.00  0.00     0.051 A 
ATOM      5  C5  IND d   1       1.996  -1.434   2.587  0.00  0.00    -0.031 A 
ATOM      6  C6  IND d   1       2.749  -1.651   1.451  0.00  0.00     0.015 A 
ATOM      7  C7  IND d   1       2.329  -1.218   0.225  0.00  0.00    -0.016 A 
ATOM      8  C8  IND d   1       1.103  -0.569   0.176  0.00  0.00    -0.047 A 
ATOM      9  C9  IND d   1       0.315  -0.383   1.319  0.00  0.00    -0.096 A 
ATOM     10  HN1 IND d   1       0.673  -0.037  -1.709  0.00  0.00     0.298 HD
ENDROOT
TORSDOF 0
ENDMDL
