MODEL 1
REMARK minimizedAffinity -5.62723017
REMARK minimizedRMSD -1
REMARK  0 active torsions:
REMARK  status: ('A' for Active; 'I' for Inactive)
ROOT
ATOM      1  N1  IND d   1       0.124  -1.076   2.688  0.00  0.00    -0.196 N 
ATOM      2  C2  IND d   1       1.303  -1.628   3.106  0.00  0.00     0.054 A 
ATOM      3  C3  IND d   1       2.156  -1.761   2.065  0.00  0.00    -0.031 A 
ATOM      4  C4  IND d   1       1.863  -1.046  -0.390  0.00  0.00     0.051 A 
ATOM      5  C5  IND d   1       0.943  -0.531  -1.260  0.00  0.00    -0.031 A 
ATOM      6  C6  IND d   1      -0.322  -0.162  -0.850  0.00  0.00     0.015 A 
ATOM      7  C7  IND d   1      -0.711  -0.284   0.454  0.00  0.00    -0.016 A 
ATOM      8  C8  IND d   1       0.218  -0.812   1.339  0.00  0.00    -0.047 A 
ATOM      9  C9  IND d   1       1.489  -1.228   0.920  0.00  0.00    -0.096 A 
ATOM     10  HN1 IND d   1      -0.560  -0.920   3.184  0.00  0.00     0.298 HD
ENDROOT
TORSDOF 0
ENDMDL
