MODEL 1
REMARK minimizedAffinity -4.93537474
REMARK minimizedRMSD -1
REMARK  0 active torsions:
REMARK  status: ('A' for Active; 'I' for Inactive)
ROOT
ATOM      1  N1  IND d   1       2.117  -1.340   0.635  0.00  0.00    -0.196 N 
ATOM      2  C2  IND d   1       2.664  -1.586   1.863  0.00  0.00     0.054 A 
ATOM      3  C3  IND d   1       1.851  -1.128   2.841  0.00  0.00    -0.031 A 
ATOM      4  C4  IND d   1      -0.473  -0.036   2.657  0.00  0.00     0.051 A 
ATOM      5  C5  IND d   1      -1.375   0.431   1.742  0.00  0.00    -0.031 A 
ATOM      6  C6  IND d   1      -1.156   0.326   0.384  0.00  0.00     0.015 A 
ATOM      7  C7  IND d   1      -0.027  -0.261  -0.112  0.00  0.00    -0.016 A 
ATOM      8  C8  IND d   1       0.895  -0.730   0.814  0.00  0.00    -0.047 A 
ATOM      9  C9  IND d   1       0.697  -0.588   2.193  0.00  0.00    -0.096 A 
ATOM     10  HN1 IND d   1       2.475  -1.533  -0.122  0.00  0.00     0.298 HD
ENDROOT
TORSDOF 0
ENDMDL
