MODEL 1
REMARK minimizedAffinity 5.38183928
REMARK minimizedRMSD -1
REMARK  1 active torsions:
REMARK  status: ('A' for Active; 'I' for Inactive)
REMARK    1  A    between atoms: C1_2  and  C2_3 
ROOT
ATOM      1  C2  UNL d   1      -0.542  -1.267   0.526  0.00  0.00    -0.081 A 
ATOM      2  C3  UNL d   1      -1.424  -2.224   0.009  0.00  0.00     0.006 A 
ATOM      3  C4  UNL d   1      -2.732  -1.870  -0.332  0.00  0.00     0.002 A 
ATOM      4  C5  UNL d   1      -3.177  -0.554  -0.168  0.00  0.00    -0.080 A 
ATOM      5  C6  UNL d   1      -4.569  -0.154  -0.558  0.00  0.00     0.076 C 
ATOM      6  C7  UNL d   1      -2.301   0.398   0.365  0.00  0.00     0.002 A 
ATOM      7  C8  UNL d   1      -0.994   0.045   0.707  0.00  0.00     0.006 A 
ENDROOT
BRANCH   1   8
ATOM      8  C1  UNL d   1       0.888  -1.630   0.834  0.00  0.00     0.054 C 
ATOM      9  C   UNL d   1       1.722  -1.719  -0.436  0.00  0.00     0.018 C 
ENDBRANCH   1   8
TORSDOF 1
ENDMDL
