MODEL 1
REMARK minimizedAffinity -3.62372446
REMARK minimizedRMSD -1
REMARK  1 active torsions:
REMARK  status: ('A' for Active; 'I' for Inactive)
REMARK    1  A    between atoms: C1_2  and  C2_3 
ROOT
ATOM      1  C2  UNL d   1      -4.059  -2.993  -0.948  0.00  0.00    -0.081 A 
ATOM      2  C3  UNL d   1      -4.129  -4.169  -1.705  0.00  0.00     0.006 A 
ATOM      3  C4  UNL d   1      -4.768  -4.175  -2.947  0.00  0.00     0.002 A 
ATOM      4  C5  UNL d   1      -5.338  -3.004  -3.457  0.00  0.00    -0.080 A 
ATOM      5  C6  UNL d   1      -6.000  -2.989  -4.803  0.00  0.00     0.076 C 
ATOM      6  C7  UNL d   1      -5.283  -1.833  -2.694  0.00  0.00     0.002 A 
ATOM      7  C8  UNL d   1      -4.646  -1.827  -1.451  0.00  0.00     0.006 A 
ENDROOT
BRANCH   1   8
ATOM      8  C1  UNL d   1      -3.315  -2.969   0.363  0.00  0.00     0.054 C 
ATOM      9  C   UNL d   1      -2.247  -1.884   0.373  0.00  0.00     0.018 C 
ENDBRANCH   1   8
TORSDOF 1
ENDMDL
