MODEL 1
REMARK minimizedAffinity -0.960193813
REMARK minimizedRMSD -1
REMARK  1 active torsions:
REMARK  status: ('A' for Active; 'I' for Inactive)
REMARK    1  A    between atoms: C1_2  and  C2_3 
ROOT
ATOM      1  C2  UNL d   1      -5.843  -1.230  -3.895  0.00  0.00    -0.081 A 
ATOM      2  C3  UNL d   1      -5.887  -2.449  -3.208  0.00  0.00     0.006 A 
ATOM      3  C4  UNL d   1      -5.682  -3.653  -3.887  0.00  0.00     0.002 A 
ATOM      4  C5  UNL d   1      -5.423  -3.657  -5.261  0.00  0.00    -0.080 A 
ATOM      5  C6  UNL d   1      -5.172  -4.940  -5.997  0.00  0.00     0.076 C 
ATOM      6  C7  UNL d   1      -5.397  -2.441  -5.952  0.00  0.00     0.002 A 
ATOM      7  C8  UNL d   1      -5.602  -1.237  -5.274  0.00  0.00     0.006 A 
ENDROOT
BRANCH   1   8
ATOM      8  C1  UNL d   1      -5.999   0.073  -3.155  0.00  0.00     0.054 C 
ATOM      9  C   UNL d   1      -5.998  -0.143  -1.648  0.00  0.00     0.018 C 
ENDBRANCH   1   8
TORSDOF 1
ENDMDL
