MODEL 1
REMARK minimizedAffinity 0.00622512726
REMARK minimizedRMSD -1
REMARK  1 active torsions:
REMARK  status: ('A' for Active; 'I' for Inactive)
REMARK    1  A    between atoms: C1_2  and  C2_3 
ROOT
ATOM      1  C2  UNL d   1      -3.780  -3.234  -4.855  0.00  0.00    -0.081 A 
ATOM      2  C3  UNL d   1      -3.340  -3.660  -3.596  0.00  0.00     0.006 A 
ATOM      3  C4  UNL d   1      -2.281  -4.564  -3.485  0.00  0.00     0.002 A 
ATOM      4  C5  UNL d   1      -1.641  -5.052  -4.629  0.00  0.00    -0.080 A 
ATOM      5  C6  UNL d   1      -0.483  -6.000  -4.522  0.00  0.00     0.076 C 
ATOM      6  C7  UNL d   1      -2.092  -4.640  -5.887  0.00  0.00     0.002 A 
ATOM      7  C8  UNL d   1      -3.151  -3.737  -6.000  0.00  0.00     0.006 A 
ENDROOT
BRANCH   1   8
ATOM      8  C1  UNL d   1      -4.879  -2.209  -4.977  0.00  0.00     0.054 C 
ATOM      9  C   UNL d   1      -4.527  -0.930  -4.232  0.00  0.00     0.018 C 
ENDBRANCH   1   8
TORSDOF 1
ENDMDL
