MODEL 1
REMARK minimizedAffinity -3.80453825
REMARK minimizedRMSD -1
REMARK  1 active torsions:
REMARK  status: ('A' for Active; 'I' for Inactive)
REMARK    1  A    between atoms: C1_2  and  C2_3 
ROOT
ATOM      1  C2  UNL d   1      -4.992  -3.341  -4.131  0.00  0.00    -0.081 A 
ATOM      2  C3  UNL d   1      -5.378  -4.139  -5.214  0.00  0.00     0.006 A 
ATOM      3  C4  UNL d   1      -4.459  -4.992  -5.829  0.00  0.00     0.002 A 
ATOM      4  C5  UNL d   1      -3.140  -5.066  -5.367  0.00  0.00    -0.080 A 
ATOM      5  C6  UNL d   1      -2.151  -6.000  -6.000  0.00  0.00     0.076 C 
ATOM      6  C7  UNL d   1      -2.749  -4.256  -4.296  0.00  0.00     0.002 A 
ATOM      7  C8  UNL d   1      -3.668  -3.403  -3.681  0.00  0.00     0.006 A 
ENDROOT
BRANCH   1   8
ATOM      8  C1  UNL d   1      -5.997  -2.468  -3.424  0.00  0.00     0.054 C 
ATOM      9  C   UNL d   1      -5.852  -1.011  -3.837  0.00  0.00     0.018 C 
ENDBRANCH   1   8
TORSDOF 1
ENDMDL
