MODEL 1
REMARK minimizedAffinity -3.69065928
REMARK minimizedRMSD -1
REMARK  1 active torsions:
REMARK  status: ('A' for Active; 'I' for Inactive)
REMARK    1  A    between atoms: C1_2  and  C2_3 
ROOT
ATOM      1  C2  UNL d   1      -4.649  -4.027  -5.553  0.00  0.00    -0.081 A 
ATOM      2  C3  UNL d   1      -4.553  -5.372  -5.929  0.00  0.00     0.006 A 
ATOM      3  C4  UNL d   1      -3.307  -6.000  -6.000  0.00  0.00     0.002 A 
ATOM      4  C5  UNL d   1      -2.139  -5.297  -5.688  0.00  0.00    -0.080 A 
ATOM      5  C6  UNL d   1      -0.798  -5.968  -5.730  0.00  0.00     0.076 C 
ATOM      6  C7  UNL d   1      -2.234  -3.948  -5.328  0.00  0.00     0.002 A 
ATOM      7  C8  UNL d   1      -3.479  -3.319  -5.258  0.00  0.00     0.006 A 
ENDROOT
BRANCH   1   8
ATOM      8  C1  UNL d   1      -5.996  -3.364  -5.413  0.00  0.00     0.054 C 
ATOM      9  C   UNL d   1      -5.878  -2.009  -4.730  0.00  0.00     0.018 C 
ENDBRANCH   1   8
TORSDOF 1
ENDMDL
