MODEL 1
REMARK minimizedAffinity -2.84057879
REMARK minimizedRMSD -1
REMARK  1 active torsions:
REMARK  status: ('A' for Active; 'I' for Inactive)
REMARK    1  A    between atoms: C1_2  and  C2_3 
ROOT
ATOM      1  C2  UNL d   1      -4.921  -3.502  -4.344  0.00  0.00    -0.081 A 
ATOM      2  C3  UNL d   1      -3.688  -3.579  -3.685  0.00  0.00     0.006 A 
ATOM      3  C4  UNL d   1      -2.668  -4.394  -4.183  0.00  0.00     0.002 A 
ATOM      4  C5  UNL d   1      -2.862  -5.139  -5.351  0.00  0.00    -0.080 A 
ATOM      5  C6  UNL d   1      -1.765  -5.994  -5.912  0.00  0.00     0.076 C 
ATOM      6  C7  UNL d   1      -4.099  -5.076  -6.000  0.00  0.00     0.002 A 
ATOM      7  C8  UNL d   1      -5.119  -4.262  -5.503  0.00  0.00     0.006 A 
ENDROOT
BRANCH   1   8
ATOM      8  C1  UNL d   1      -6.000  -2.575  -3.847  0.00  0.00     0.054 C 
ATOM      9  C   UNL d   1      -5.943  -1.229  -4.555  0.00  0.00     0.018 C 
ENDBRANCH   1   8
TORSDOF 1
ENDMDL
