MODEL 1
REMARK minimizedAffinity 0.941083908
REMARK minimizedRMSD -1
REMARK  1 active torsions:
REMARK  status: ('A' for Active; 'I' for Inactive)
REMARK    1  A    between atoms: C1_2  and  C2_3 
ROOT
ATOM      1  C2  UNL d   1      -5.291  -4.176  -5.251  0.00  0.00    -0.081 A 
ATOM      2  C3  UNL d   1      -5.491  -3.007  -5.995  0.00  0.00     0.006 A 
ATOM      3  C4  UNL d   1      -5.732  -1.790  -5.351  0.00  0.00     0.002 A 
ATOM      4  C5  UNL d   1      -5.768  -1.722  -3.954  0.00  0.00    -0.080 A 
ATOM      5  C6  UNL d   1      -5.995  -0.417  -3.250  0.00  0.00     0.076 C 
ATOM      6  C7  UNL d   1      -5.586  -2.893  -3.211  0.00  0.00     0.002 A 
ATOM      7  C8  UNL d   1      -5.346  -4.110  -3.855  0.00  0.00     0.006 A 
ENDROOT
BRANCH   1   8
ATOM      8  C1  UNL d   1      -4.967  -5.477  -5.941  0.00  0.00     0.054 C 
ATOM      9  C   UNL d   1      -3.468  -5.740  -5.950  0.00  0.00     0.018 C 
ENDBRANCH   1   8
TORSDOF 1
ENDMDL
