MODEL 1
REMARK minimizedAffinity -0.145049065
REMARK minimizedRMSD -1
REMARK  1 active torsions:
REMARK  status: ('A' for Active; 'I' for Inactive)
REMARK    1  A    between atoms: C1_2  and  C2_3 
ROOT
ATOM      1  C2  UNL d   1      -3.252  -4.725  -5.320  0.00  0.00    -0.081 A 
ATOM      2  C3  UNL d   1      -4.508  -4.496  -5.895  0.00  0.00     0.006 A 
ATOM      3  C4  UNL d   1      -5.404  -3.601  -5.305  0.00  0.00     0.002 A 
ATOM      4  C5  UNL d   1      -5.057  -2.916  -4.136  0.00  0.00    -0.080 A 
ATOM      5  C6  UNL d   1      -5.998  -1.931  -3.509  0.00  0.00     0.076 C 
ATOM      6  C7  UNL d   1      -3.809  -3.158  -3.551  0.00  0.00     0.002 A 
ATOM      7  C8  UNL d   1      -2.913  -4.053  -4.140  0.00  0.00     0.006 A 
ENDROOT
BRANCH   1   8
ATOM      8  C1  UNL d   1      -2.258  -5.640  -5.989  0.00  0.00     0.054 C 
ATOM      9  C   UNL d   1      -0.864  -5.029  -5.999  0.00  0.00     0.018 C 
ENDBRANCH   1   8
TORSDOF 1
ENDMDL
