MODEL 1
REMARK minimizedAffinity -0.338820279
REMARK minimizedRMSD -1
REMARK  1 active torsions:
REMARK  status: ('A' for Active; 'I' for Inactive)
REMARK    1  A    between atoms: C1_2  and  C2_3 
ROOT
ATOM      1  C2  UNL d   1      -4.142  -4.696  -4.775  0.00  0.00    -0.081 A 
ATOM      2  C3  UNL d   1      -5.195  -4.267  -5.591  0.00  0.00     0.006 A 
ATOM      3  C4  UNL d   1      -5.807  -3.032  -5.367  0.00  0.00     0.002 A 
ATOM      4  C5  UNL d   1      -5.371  -2.202  -4.329  0.00  0.00    -0.080 A 
ATOM      5  C6  UNL d   1      -5.999  -0.860  -4.096  0.00  0.00     0.076 C 
ATOM      6  C7  UNL d   1      -4.330  -2.638  -3.502  0.00  0.00     0.002 A 
ATOM      7  C8  UNL d   1      -3.718  -3.873  -3.725  0.00  0.00     0.006 A 
ENDROOT
BRANCH   1   8
ATOM      8  C1  UNL d   1      -3.437  -5.999  -5.054  0.00  0.00     0.054 C 
ATOM      9  C   UNL d   1      -2.260  -5.801  -5.999  0.00  0.00     0.018 C 
ENDBRANCH   1   8
TORSDOF 1
ENDMDL
