MODEL 1
REMARK minimizedAffinity 1.07305479
REMARK minimizedRMSD -1
REMARK  1 active torsions:
REMARK  status: ('A' for Active; 'I' for Inactive)
REMARK    1  A    between atoms: C1_2  and  C2_3 
ROOT
ATOM      1  C2  UNL d   1      -2.404  -4.823  -4.592  0.00  0.00    -0.081 A 
ATOM      2  C3  UNL d   1      -2.775  -4.365  -5.863  0.00  0.00     0.006 A 
ATOM      3  C4  UNL d   1      -3.655  -3.289  -5.998  0.00  0.00     0.002 A 
ATOM      4  C5  UNL d   1      -4.173  -2.649  -4.868  0.00  0.00    -0.080 A 
ATOM      5  C6  UNL d   1      -5.095  -1.473  -5.000  0.00  0.00     0.076 C 
ATOM      6  C7  UNL d   1      -3.816  -3.117  -3.599  0.00  0.00     0.002 A 
ATOM      7  C8  UNL d   1      -2.937  -4.193  -3.462  0.00  0.00     0.006 A 
ENDROOT
BRANCH   1   8
ATOM      8  C1  UNL d   1      -1.404  -5.941  -4.442  0.00  0.00     0.054 C 
ATOM      9  C   UNL d   1      -0.451  -5.993  -5.627  0.00  0.00     0.018 C 
ENDBRANCH   1   8
TORSDOF 1
ENDMDL
