MODEL 1
REMARK minimizedAffinity -0.514850855
REMARK minimizedRMSD -1
REMARK  1 active torsions:
REMARK  status: ('A' for Active; 'I' for Inactive)
REMARK    1  A    between atoms: C1_2  and  C2_3 
ROOT
ATOM      1  C2  UNL d   1      -4.030  -2.713  -4.851  0.00  0.00    -0.081 A 
ATOM      2  C3  UNL d   1      -3.290  -3.022  -3.703  0.00  0.00     0.006 A 
ATOM      3  C4  UNL d   1      -2.391  -4.092  -3.706  0.00  0.00     0.002 A 
ATOM      4  C5  UNL d   1      -2.213  -4.866  -4.858  0.00  0.00    -0.080 A 
ATOM      5  C6  UNL d   1      -1.229  -5.998  -4.884  0.00  0.00     0.076 C 
ATOM      6  C7  UNL d   1      -2.965  -4.568  -5.999  0.00  0.00     0.002 A 
ATOM      7  C8  UNL d   1      -3.863  -3.499  -5.997  0.00  0.00     0.006 A 
ENDROOT
BRANCH   1   8
ATOM      8  C1  UNL d   1      -4.951  -1.521  -4.871  0.00  0.00     0.054 C 
ATOM      9  C   UNL d   1      -5.955  -1.577  -3.729  0.00  0.00     0.018 C 
ENDBRANCH   1   8
TORSDOF 1
ENDMDL
