MODEL 1
REMARK minimizedAffinity -4.16667986
REMARK minimizedRMSD -1
REMARK  1 active torsions:
REMARK  status: ('A' for Active; 'I' for Inactive)
REMARK    1  A    between atoms: C1_2  and  C2_3 
ROOT
ATOM      1  C2  UNL d   1      -4.742  -3.751  -4.967  0.00  0.00    -0.081 A 
ATOM      2  C3  UNL d   1      -4.501  -4.821  -4.096  0.00  0.00     0.006 A 
ATOM      3  C4  UNL d   1      -3.308  -5.543  -4.174  0.00  0.00     0.002 A 
ATOM      4  C5  UNL d   1      -2.333  -5.203  -5.118  0.00  0.00    -0.080 A 
ATOM      5  C6  UNL d   1      -1.034  -5.950  -5.192  0.00  0.00     0.076 C 
ATOM      6  C7  UNL d   1      -2.581  -4.145  -6.000  0.00  0.00     0.002 A 
ATOM      7  C8  UNL d   1      -3.774  -3.424  -5.923  0.00  0.00     0.006 A 
ENDROOT
BRANCH   1   8
ATOM      8  C1  UNL d   1      -6.000  -2.930  -4.843  0.00  0.00     0.054 C 
ATOM      9  C   UNL d   1      -5.892  -1.630  -5.627  0.00  0.00     0.018 C 
ENDBRANCH   1   8
TORSDOF 1
ENDMDL
