MODEL 1
REMARK minimizedAffinity 5.61322784
REMARK minimizedRMSD -1
REMARK  1 active torsions:
REMARK  status: ('A' for Active; 'I' for Inactive)
REMARK    1  A    between atoms: C1_2  and  C2_3 
ROOT
ATOM      1  C2  UNL d   1       1.661   0.492   0.854  0.00  0.00    -0.081 A 
ATOM      2  C3  UNL d   1       1.811  -0.847   1.236  0.00  0.00     0.006 A 
ATOM      3  C4  UNL d   1       0.697  -1.682   1.344  0.00  0.00     0.002 A 
ATOM      4  C5  UNL d   1      -0.585  -1.195   1.064  0.00  0.00    -0.080 A 
ATOM      5  C6  UNL d   1      -1.786  -2.089   1.147  0.00  0.00     0.076 C 
ATOM      6  C7  UNL d   1      -0.737   0.147   0.700  0.00  0.00     0.002 A 
ATOM      7  C8  UNL d   1       0.377   0.983   0.593  0.00  0.00     0.006 A 
ENDROOT
BRANCH   1   8
ATOM      8  C1  UNL d   1       2.867   1.378   0.675  0.00  0.00     0.054 C 
ATOM      9  C   UNL d   1       3.052   2.309   1.865  0.00  0.00     0.018 C 
ENDBRANCH   1   8
TORSDOF 1
ENDMDL
