MODEL 1
REMARK minimizedAffinity 6.2828517
REMARK minimizedRMSD -1
REMARK  1 active torsions:
REMARK  status: ('A' for Active; 'I' for Inactive)
REMARK    1  A    between atoms: C1_2  and  C2_3 
ROOT
ATOM      1  C2  UNL d   1      -3.129  -1.163   1.638  0.00  0.00    -0.081 A 
ATOM      2  C3  UNL d   1      -1.939  -1.503   2.293  0.00  0.00     0.006 A 
ATOM      3  C4  UNL d   1      -0.737  -1.573   1.585  0.00  0.00     0.002 A 
ATOM      4  C5  UNL d   1      -0.703  -1.298   0.214  0.00  0.00    -0.080 A 
ATOM      5  C6  UNL d   1       0.586  -1.341  -0.552  0.00  0.00     0.076 C 
ATOM      6  C7  UNL d   1      -1.895  -0.975  -0.444  0.00  0.00     0.002 A 
ATOM      7  C8  UNL d   1      -3.098  -0.905   0.263  0.00  0.00     0.006 A 
ENDROOT
BRANCH   1   8
ATOM      8  C1  UNL d   1      -4.416  -1.023   2.411  0.00  0.00     0.054 C 
ATOM      9  C   UNL d   1      -4.195  -0.288   3.725  0.00  0.00     0.018 C 
ENDBRANCH   1   8
TORSDOF 1
ENDMDL
