MODEL 1
REMARK minimizedAffinity 1.43989372
REMARK minimizedRMSD -1
REMARK  0 active torsions:
REMARK  status: ('A' for Active; 'I' for Inactive)
ROOT
ATOM      1  C1  DEN d   1       0.809  -0.792   0.600  0.00  0.00     0.130 A 
ATOM      2  C2  DEN d   1       1.490   0.476   0.354  0.00  0.00    -0.031 A 
ATOM      3  C3  DEN d   1       0.676   1.254  -0.602  0.00  0.00     0.027 A 
ATOM      4  C4  DEN d   1      -1.562   0.622  -1.716  0.00  0.00     0.027 A 
ATOM      5  C5  DEN d   1      -2.524  -0.358  -1.827  0.00  0.00    -0.003 A 
ATOM      6  C6  DEN d   1      -2.426  -1.555  -1.168  0.00  0.00     0.001 A 
ATOM      7  C7  DEN d   1      -1.365  -1.785  -0.333  0.00  0.00     0.017 A 
ATOM      8  C8  DEN d   1      -0.387  -0.805  -0.222  0.00  0.00    -0.094 A 
ATOM      9  C9  DEN d   1      -0.511   0.403  -0.887  0.00  0.00    -0.072 A 
ENDROOT
TORSDOF 0
ENDMDL
