MODEL 1
REMARK minimizedAffinity -4.1935811
REMARK minimizedRMSD -1
REMARK  0 active torsions:
REMARK  status: ('A' for Active; 'I' for Inactive)
ROOT
ATOM      1  C1  DEN d   1       0.417  -0.780   1.291  0.00  0.00     0.130 A 
ATOM      2  C2  DEN d   1       0.538   0.445   0.507  0.00  0.00    -0.031 A 
ATOM      3  C3  DEN d   1      -0.613   0.513  -0.416  0.00  0.00     0.027 A 
ATOM      4  C4  DEN d   1      -2.563  -1.151  -0.701  0.00  0.00     0.027 A 
ATOM      5  C5  DEN d   1      -3.093  -2.345  -0.265  0.00  0.00    -0.003 A 
ATOM      6  C6  DEN d   1      -2.477  -3.112   0.688  0.00  0.00     0.001 A 
ATOM      7  C7  DEN d   1      -1.317  -2.671   1.270  0.00  0.00     0.017 A 
ATOM      8  C8  DEN d   1      -0.774  -1.471   0.830  0.00  0.00    -0.094 A 
ATOM      9  C9  DEN d   1      -1.418  -0.704  -0.126  0.00  0.00    -0.072 A 
ENDROOT
TORSDOF 0
ENDMDL
