MODEL 1
REMARK minimizedAffinity -3.58623338
REMARK minimizedRMSD -1
REMARK  0 active torsions:
REMARK  status: ('A' for Active; 'I' for Inactive)
ROOT
ATOM      1  C1  DEN d   1       1.205   0.243   1.018  0.00  0.00     0.130 A 
ATOM      2  C2  DEN d   1       2.040   1.417   0.781  0.00  0.00    -0.031 A 
ATOM      3  C3  DEN d   1       1.450   2.178  -0.338  0.00  0.00     0.027 A 
ATOM      4  C4  DEN d   1      -0.666   1.658  -1.717  0.00  0.00     0.027 A 
ATOM      5  C5  DEN d   1      -1.700   0.764  -1.894  0.00  0.00    -0.003 A 
ATOM      6  C6  DEN d   1      -1.817  -0.374  -1.141  0.00  0.00     0.001 A 
ATOM      7  C7  DEN d   1      -0.911  -0.626  -0.146  0.00  0.00     0.017 A 
ATOM      8  C8  DEN d   1       0.138   0.267   0.033  0.00  0.00    -0.094 A 
ATOM      9  C9  DEN d   1       0.233   1.418  -0.730  0.00  0.00    -0.072 A 
ENDROOT
TORSDOF 0
ENDMDL
