MODEL 1
REMARK minimizedAffinity -2.82573485
REMARK minimizedRMSD -1
REMARK  0 active torsions:
REMARK  status: ('A' for Active; 'I' for Inactive)
ROOT
ATOM      1  C1  DEN d   1       0.753   0.494  -0.918  0.00  0.00     0.130 A 
ATOM      2  C2  DEN d   1       0.351  -0.319   0.227  0.00  0.00    -0.031 A 
ATOM      3  C3  DEN d   1       0.885   0.317   1.448  0.00  0.00     0.027 A 
ATOM      4  C4  DEN d   1       2.284   2.472   1.676  0.00  0.00     0.027 A 
ATOM      5  C5  DEN d   1       2.883   3.500   0.983  0.00  0.00    -0.003 A 
ATOM      6  C6  DEN d   1       2.844   3.579  -0.384  0.00  0.00     0.001 A 
ATOM      7  C7  DEN d   1       2.152   2.637  -1.099  0.00  0.00     0.017 A 
ATOM      8  C8  DEN d   1       1.552   1.593  -0.407  0.00  0.00    -0.094 A 
ATOM      9  C9  DEN d   1       1.592   1.538   0.976  0.00  0.00    -0.072 A 
ENDROOT
TORSDOF 0
ENDMDL
