MODEL 1
REMARK minimizedAffinity 1.09344709
REMARK minimizedRMSD -1
REMARK  0 active torsions:
REMARK  status: ('A' for Active; 'I' for Inactive)
ROOT
ATOM      1  C1  DEN d   1       3.051   2.141  -0.400  0.00  0.00     0.130 A 
ATOM      2  C2  DEN d   1       3.293   2.693   0.930  0.00  0.00    -0.031 A 
ATOM      3  C3  DEN d   1       2.237   2.191   1.832  0.00  0.00     0.027 A 
ATOM      4  C4  DEN d   1       0.264   0.617   1.302  0.00  0.00     0.027 A 
ATOM      5  C5  DEN d   1      -0.362  -0.102   0.308  0.00  0.00    -0.003 A 
ATOM      6  C6  DEN d   1       0.081  -0.097  -0.988  0.00  0.00     0.001 A 
ATOM      7  C7  DEN d   1       1.210   0.606  -1.316  0.00  0.00     0.017 A 
ATOM      8  C8  DEN d   1       1.843   1.340  -0.321  0.00  0.00    -0.094 A 
ATOM      9  C9  DEN d   1       1.386   1.312   0.986  0.00  0.00    -0.072 A 
ENDROOT
TORSDOF 0
ENDMDL
