MODEL 1
REMARK minimizedAffinity -2.37465262
REMARK minimizedRMSD -1
REMARK  0 active torsions:
REMARK  status: ('A' for Active; 'I' for Inactive)
ROOT
ATOM      1  C1  DEN d   1      -0.175   0.713   0.181  0.00  0.00     0.130 A 
ATOM      2  C2  DEN d   1       0.380  -0.570  -0.240  0.00  0.00    -0.031 A 
ATOM      3  C3  DEN d   1       1.852  -0.479  -0.161  0.00  0.00     0.027 A 
ATOM      4  C4  DEN d   1       3.317   1.511   0.574  0.00  0.00     0.027 A 
ATOM      5  C5  DEN d   1       3.299   2.818   1.010  0.00  0.00    -0.003 A 
ATOM      6  C6  DEN d   1       2.133   3.520   1.166  0.00  0.00     0.001 A 
ATOM      7  C7  DEN d   1       0.933   2.903   0.928  0.00  0.00     0.017 A 
ATOM      8  C8  DEN d   1       0.944   1.589   0.481  0.00  0.00    -0.094 A 
ATOM      9  C9  DEN d   1       2.132   0.893   0.341  0.00  0.00    -0.072 A 
ENDROOT
TORSDOF 0
ENDMDL
