MODEL 1
REMARK minimizedAffinity -4.92561007
REMARK minimizedRMSD -1
REMARK  0 active torsions:
REMARK  status: ('A' for Active; 'I' for Inactive)
ROOT
ATOM      1  C1  DEN d   1       0.812  -0.227   1.224  0.00  0.00     0.130 A 
ATOM      2  C2  DEN d   1       1.830   0.698   0.733  0.00  0.00    -0.031 A 
ATOM      3  C3  DEN d   1       1.391   1.202  -0.584  0.00  0.00     0.027 A 
ATOM      4  C4  DEN d   1      -0.757   0.647  -1.900  0.00  0.00     0.027 A 
ATOM      5  C5  DEN d   1      -1.917  -0.094  -1.894  0.00  0.00    -0.003 A 
ATOM      6  C6  DEN d   1      -2.230  -0.951  -0.872  0.00  0.00     0.001 A 
ATOM      7  C7  DEN d   1      -1.394  -1.054   0.209  0.00  0.00     0.017 A 
ATOM      8  C8  DEN d   1      -0.219  -0.314   0.206  0.00  0.00    -0.094 A 
ATOM      9  C9  DEN d   1       0.074   0.556  -0.831  0.00  0.00    -0.072 A 
ENDROOT
TORSDOF 0
ENDMDL
