MODEL 1
REMARK minimizedAffinity -3.11885118
REMARK minimizedRMSD -1
REMARK  0 active torsions:
REMARK  status: ('A' for Active; 'I' for Inactive)
ROOT
ATOM      1  C1  DEN d   1      -0.753   1.389   0.232  0.00  0.00     0.130 A 
ATOM      2  C2  DEN d   1      -0.696   0.214  -0.634  0.00  0.00    -0.031 A 
ATOM      3  C3  DEN d   1       0.721  -0.167  -0.794  0.00  0.00     0.027 A 
ATOM      4  C4  DEN d   1       2.823   0.939   0.213  0.00  0.00     0.027 A 
ATOM      5  C5  DEN d   1       3.279   1.970   1.004  0.00  0.00    -0.003 A 
ATOM      6  C6  DEN d   1       2.433   2.893   1.560  0.00  0.00     0.001 A 
ATOM      7  C7  DEN d   1       1.081   2.776   1.371  0.00  0.00     0.017 A 
ATOM      8  C8  DEN d   1       0.614   1.743   0.569  0.00  0.00    -0.094 A 
ATOM      9  C9  DEN d   1       1.484   0.813   0.025  0.00  0.00    -0.072 A 
ENDROOT
TORSDOF 0
ENDMDL
