MODEL 1
REMARK minimizedAffinity -2.46747112
REMARK minimizedRMSD -1
REMARK  0 active torsions:
REMARK  status: ('A' for Active; 'I' for Inactive)
ROOT
ATOM      1  C1  DEN d   1       1.138   1.265  -0.852  0.00  0.00     0.130 A 
ATOM      2  C2  DEN d   1       2.170   0.553  -0.103  0.00  0.00    -0.031 A 
ATOM      3  C3  DEN d   1       1.557  -0.657   0.482  0.00  0.00     0.027 A 
ATOM      4  C4  DEN d   1      -0.876  -1.494   0.296  0.00  0.00     0.027 A 
ATOM      5  C5  DEN d   1      -2.121  -1.220  -0.226  0.00  0.00    -0.003 A 
ATOM      6  C6  DEN d   1      -2.373  -0.090  -0.958  0.00  0.00     0.001 A 
ATOM      7  C7  DEN d   1      -1.354   0.786  -1.228  0.00  0.00     0.017 A 
ATOM      8  C8  DEN d   1      -0.098   0.519  -0.699  0.00  0.00    -0.094 A 
ATOM      9  C9  DEN d   1       0.140  -0.634   0.029  0.00  0.00    -0.072 A 
ENDROOT
TORSDOF 0
ENDMDL
