MODEL 1
REMARK minimizedAffinity -1.87564754
REMARK minimizedRMSD -1
REMARK  0 active torsions:
REMARK  status: ('A' for Active; 'I' for Inactive)
ROOT
ATOM      1  C1  DEN d   1      -2.591  -2.766  -0.120  0.00  0.00     0.130 A 
ATOM      2  C2  DEN d   1      -1.822  -3.184   1.049  0.00  0.00    -0.031 A 
ATOM      3  C3  DEN d   1      -0.741  -2.200   1.259  0.00  0.00     0.027 A 
ATOM      4  C4  DEN d   1      -0.189  -0.080  -0.103  0.00  0.00     0.027 A 
ATOM      5  C5  DEN d   1      -0.554   0.683  -1.190  0.00  0.00    -0.003 A 
ATOM      6  C6  DEN d   1      -1.594   0.333  -2.011  0.00  0.00     0.001 A 
ATOM      7  C7  DEN d   1      -2.334  -0.785  -1.730  0.00  0.00     0.017 A 
ATOM      8  C8  DEN d   1      -1.968  -1.562  -0.639  0.00  0.00    -0.094 A 
ATOM      9  C9  DEN d   1      -0.921  -1.186   0.185  0.00  0.00    -0.072 A 
ENDROOT
TORSDOF 0
ENDMDL
