MODEL 1
REMARK minimizedAffinity -3.96426797
REMARK minimizedRMSD -1
REMARK  0 active torsions:
REMARK  status: ('A' for Active; 'I' for Inactive)
ROOT
ATOM      1  C1  DEN d   1       1.477   2.078   2.917  0.00  0.00     0.130 A 
ATOM      2  C2  DEN d   1       2.169   3.117   2.160  0.00  0.00    -0.031 A 
ATOM      3  C3  DEN d   1       2.258   2.676   0.754  0.00  0.00     0.027 A 
ATOM      4  C4  DEN d   1       1.391   0.497  -0.320  0.00  0.00     0.027 A 
ATOM      5  C5  DEN d   1       0.747  -0.696  -0.076  0.00  0.00    -0.003 A 
ATOM      6  C6  DEN d   1       0.335  -1.060   1.178  0.00  0.00     0.001 A 
ATOM      7  C7  DEN d   1       0.522  -0.202   2.230  0.00  0.00     0.017 A 
ATOM      8  C8  DEN d   1       1.177   0.999   1.993  0.00  0.00    -0.094 A 
ATOM      9  C9  DEN d   1       1.575   1.354   0.715  0.00  0.00    -0.072 A 
ENDROOT
TORSDOF 0
ENDMDL
