MODEL 1
REMARK minimizedAffinity -2.35693359
REMARK minimizedRMSD -1
REMARK  0 active torsions:
REMARK  status: ('A' for Active; 'I' for Inactive)
ROOT
ATOM      1  C4' PXY d   1      -1.915   2.325   1.665  0.00  0.00     0.077 C 
ATOM      2  C1' PXY d   1       1.194  -1.769  -0.979  0.00  0.00     0.077 C 
ATOM      3  C1  PXY d   1       0.383  -0.686  -0.294  0.00  0.00    -0.082 A 
ATOM      4  C2  PXY d   1       0.014  -0.844   0.967  0.00  0.00     0.003 A 
ATOM      5  C3  PXY d   1      -0.746   0.110   1.592  0.00  0.00     0.003 A 
ATOM      6  C4  PXY d   1      -1.088   1.263   0.936  0.00  0.00    -0.082 A 
ATOM      7  C5  PXY d   1      -0.706   1.436  -0.347  0.00  0.00     0.003 A 
ATOM      8  C6  PXY d   1       0.031   0.437  -0.976  0.00  0.00     0.003 A 
ENDROOT
TORSDOF 0
ENDMDL
