MODEL 1
REMARK minimizedAffinity -2.31851602
REMARK minimizedRMSD -1
REMARK  0 active torsions:
REMARK  status: ('A' for Active; 'I' for Inactive)
ROOT
ATOM      1  C4' PXY d   1       1.349  -1.108  -0.555  0.00  0.00     0.077 C 
ATOM      2  C1' PXY d   1      -2.751   2.446   1.438  0.00  0.00     0.077 C 
ATOM      3  C1  PXY d   1      -1.681   1.515   0.903  0.00  0.00    -0.082 A 
ATOM      4  C2  PXY d   1      -1.075   0.674   1.726  0.00  0.00     0.003 A 
ATOM      5  C3  PXY d   1      -0.083  -0.153   1.265  0.00  0.00     0.003 A 
ATOM      6  C4  PXY d   1       0.256  -0.156  -0.061  0.00  0.00    -0.082 A 
ATOM      7  C5  PXY d   1      -0.364   0.691  -0.909  0.00  0.00     0.003 A 
ATOM      8  C6  PXY d   1      -1.340   1.552  -0.414  0.00  0.00     0.003 A 
ENDROOT
TORSDOF 0
ENDMDL
