MODEL 1
REMARK minimizedAffinity -1.18388939
REMARK minimizedRMSD -1
REMARK  0 active torsions:
REMARK  status: ('A' for Active; 'I' for Inactive)
ROOT
ATOM      1  C4' PXY d   1       0.193  -1.092   2.352  0.00  0.00     0.077 C 
ATOM      2  C1' PXY d   1      -0.806   2.354  -2.180  0.00  0.00     0.077 C 
ATOM      3  C1  PXY d   1      -0.550   1.459  -0.984  0.00  0.00    -0.082 A 
ATOM      4  C2  PXY d   1       0.421   0.562  -1.034  0.00  0.00     0.003 A 
ATOM      5  C3  PXY d   1       0.646  -0.277   0.026  0.00  0.00     0.003 A 
ATOM      6  C4  PXY d   1      -0.096  -0.161   1.171  0.00  0.00    -0.082 A 
ATOM      7  C5  PXY d   1      -1.081   0.760   1.235  0.00  0.00     0.003 A 
ATOM      8  C6  PXY d   1      -1.320   1.574   0.132  0.00  0.00     0.003 A 
ENDROOT
TORSDOF 0
ENDMDL
