MODEL 1
REMARK minimizedAffinity -3.7935667
REMARK minimizedRMSD -1
REMARK  0 active torsions:
REMARK  status: ('A' for Active; 'I' for Inactive)
ROOT
ATOM      1  C4' PXY d   1       1.277  -1.630  -0.801  0.00  0.00     0.077 C 
ATOM      2  C1' PXY d   1      -2.170   2.436   1.437  0.00  0.00     0.077 C 
ATOM      3  C1  PXY d   1      -1.258   1.370   0.861  0.00  0.00    -0.082 A 
ATOM      4  C2  PXY d   1      -1.212   1.187  -0.448  0.00  0.00     0.003 A 
ATOM      5  C3  PXY d   1      -0.417   0.207  -0.984  0.00  0.00     0.003 A 
ATOM      6  C4  PXY d   1       0.378  -0.559  -0.175  0.00  0.00    -0.082 A 
ATOM      7  C5  PXY d   1       0.345  -0.372   1.161  0.00  0.00     0.003 A 
ATOM      8  C6  PXY d   1      -0.500   0.601   1.688  0.00  0.00     0.003 A 
ENDROOT
TORSDOF 0
ENDMDL
