MODEL 1
REMARK minimizedAffinity -5.08570051
REMARK minimizedRMSD -1
REMARK  0 active torsions:
REMARK  status: ('A' for Active; 'I' for Inactive)
ROOT
ATOM      1  C4' PXY d   1       0.966  -0.755  -0.504  0.00  0.00     0.077 C 
ATOM      2  C1' PXY d   1      -2.399   3.605   1.254  0.00  0.00     0.077 C 
ATOM      3  C1  PXY d   1      -1.514   2.458   0.805  0.00  0.00    -0.082 A 
ATOM      4  C2  PXY d   1      -0.913   2.517  -0.372  0.00  0.00     0.003 A 
ATOM      5  C3  PXY d   1      -0.135   1.475  -0.807  0.00  0.00     0.003 A 
ATOM      6  C4  PXY d   1       0.072   0.384  -0.006  0.00  0.00    -0.082 A 
ATOM      7  C5  PXY d   1      -0.530   0.320   1.200  0.00  0.00     0.003 A 
ATOM      8  C6  PXY d   1      -1.349   1.370   1.606  0.00  0.00     0.003 A 
ENDROOT
TORSDOF 0
ENDMDL
