MODEL 1
REMARK minimizedAffinity -3.47308564
REMARK minimizedRMSD -1
REMARK  0 active torsions:
REMARK  status: ('A' for Active; 'I' for Inactive)
ROOT
ATOM      1  C4' PXY d   1       1.243  -1.927  -1.825  0.00  0.00     0.077 C 
ATOM      2  C1' PXY d   1      -0.935   1.862   1.958  0.00  0.00     0.077 C 
ATOM      3  C1  PXY d   1      -0.364   0.878   0.957  0.00  0.00    -0.082 A 
ATOM      4  C2  PXY d   1      -0.482  -0.422   1.177  0.00  0.00     0.003 A 
ATOM      5  C3  PXY d   1       0.055  -1.326   0.297  0.00  0.00     0.003 A 
ATOM      6  C4  PXY d   1       0.674  -0.896  -0.846  0.00  0.00    -0.082 A 
ATOM      7  C5  PXY d   1       0.789   0.428  -1.083  0.00  0.00     0.003 A 
ATOM      8  C6  PXY d   1       0.273   1.330  -0.157  0.00  0.00     0.003 A 
ENDROOT
TORSDOF 0
ENDMDL
