MODEL 1
REMARK minimizedAffinity -1.80472589
REMARK minimizedRMSD -1
REMARK  0 active torsions:
REMARK  status: ('A' for Active; 'I' for Inactive)
ROOT
ATOM      1  C4' PXY d   1       1.435  -1.428  -1.030  0.00  0.00     0.077 C 
ATOM      2  C1' PXY d   1      -2.554   1.848   1.571  0.00  0.00     0.077 C 
ATOM      3  C1  PXY d   1      -1.514   0.990   0.877  0.00  0.00    -0.082 A 
ATOM      4  C2  PXY d   1      -0.816   0.113   1.580  0.00  0.00     0.003 A 
ATOM      5  C3  PXY d   1       0.151  -0.648   0.975  0.00  0.00     0.003 A 
ATOM      6  C4  PXY d   1       0.368  -0.548  -0.374  0.00  0.00    -0.082 A 
ATOM      7  C5  PXY d   1      -0.348   0.337  -1.099  0.00  0.00     0.003 A 
ATOM      8  C6  PXY d   1      -1.296   1.130  -0.458  0.00  0.00     0.003 A 
ENDROOT
TORSDOF 0
ENDMDL
