MODEL 1
REMARK minimizedAffinity -5.03415298
REMARK minimizedRMSD -1
REMARK  0 active torsions:
REMARK  status: ('A' for Active; 'I' for Inactive)
ROOT
ATOM      1  C4' PXY d   1       1.838  -1.880  -0.715  0.00  0.00     0.077 C 
ATOM      2  C1' PXY d   1      -1.905   2.258   0.795  0.00  0.00     0.077 C 
ATOM      3  C1  PXY d   1      -0.925   1.176   0.387  0.00  0.00    -0.082 A 
ATOM      4  C2  PXY d   1      -0.715   0.146   1.190  0.00  0.00     0.003 A 
ATOM      5  C3  PXY d   1       0.192  -0.825   0.851  0.00  0.00     0.003 A 
ATOM      6  C4  PXY d   1       0.851  -0.769  -0.348  0.00  0.00    -0.082 A 
ATOM      7  C5  PXY d   1       0.634   0.273  -1.178  0.00  0.00     0.003 A 
ATOM      8  C6  PXY d   1      -0.260   1.270  -0.797  0.00  0.00     0.003 A 
ENDROOT
TORSDOF 0
ENDMDL
