MODEL 1
REMARK minimizedAffinity -3.55101991
REMARK minimizedRMSD -1
REMARK  0 active torsions:
REMARK  status: ('A' for Active; 'I' for Inactive)
ROOT
ATOM      1  C4' PXY d   1      -0.151   2.854  -1.122  0.00  0.00     0.077 C 
ATOM      2  C1' PXY d   1      -0.311  -1.512   2.664  0.00  0.00     0.077 C 
ATOM      3  C1  PXY d   1      -0.280  -0.362   1.676  0.00  0.00    -0.082 A 
ATOM      4  C2  PXY d   1       0.325  -0.517   0.510  0.00  0.00     0.003 A 
ATOM      5  C3  PXY d   1       0.390   0.523  -0.382  0.00  0.00     0.003 A 
ATOM      6  C4  PXY d   1      -0.215   1.717  -0.098  0.00  0.00    -0.082 A 
ATOM      7  C5  PXY d   1      -0.843   1.881   1.086  0.00  0.00     0.003 A 
ATOM      8  C6  PXY d   1      -0.863   0.826   1.994  0.00  0.00     0.003 A 
ENDROOT
TORSDOF 0
ENDMDL
