MODEL 1
REMARK minimizedAffinity 5.32272148
REMARK minimizedRMSD -1
REMARK  0 active torsions:
REMARK  status: ('A' for Active; 'I' for Inactive)
ROOT
ATOM      1  C4' PXY d   1       1.505  -1.143   1.228  0.00  0.00     0.077 C 
ATOM      2  C1' PXY d   1      -1.660   2.591  -1.847  0.00  0.00     0.077 C 
ATOM      3  C1  PXY d   1      -0.841   1.604  -1.040  0.00  0.00    -0.082 A 
ATOM      4  C2  PXY d   1       0.194   2.034  -0.336  0.00  0.00     0.003 A 
ATOM      5  C3  PXY d   1       0.966   1.150   0.373  0.00  0.00     0.003 A 
ATOM      6  C4  PXY d   1       0.643  -0.180   0.406  0.00  0.00    -0.082 A 
ATOM      7  C5  PXY d   1      -0.418  -0.625  -0.301  0.00  0.00     0.003 A 
ATOM      8  C6  PXY d   1      -1.164   0.282  -1.048  0.00  0.00     0.003 A 
ENDROOT
TORSDOF 0
ENDMDL
