MODEL 1
REMARK minimizedAffinity -3.95466208
REMARK minimizedRMSD -1
REMARK  0 active torsions:
REMARK  status: ('A' for Active; 'I' for Inactive)
ROOT
ATOM      1  C4' PXY d   1       1.143  -2.004  -0.397  0.00  0.00     0.077 C 
ATOM      2  C1' PXY d   1      -2.145   2.394   1.409  0.00  0.00     0.077 C 
ATOM      3  C1  PXY d   1      -1.285   1.244   0.923  0.00  0.00    -0.082 A 
ATOM      4  C2  PXY d   1      -1.105   0.188   1.699  0.00  0.00     0.003 A 
ATOM      5  C3  PXY d   1      -0.304  -0.847   1.289  0.00  0.00     0.003 A 
ATOM      6  C4  PXY d   1       0.275  -0.824   0.048  0.00  0.00    -0.082 A 
ATOM      7  C5  PXY d   1       0.088   0.246  -0.754  0.00  0.00     0.003 A 
ATOM      8  C6  PXY d   1      -0.695   1.304  -0.302  0.00  0.00     0.003 A 
ENDROOT
TORSDOF 0
ENDMDL
