MODEL 1
REMARK minimizedAffinity -3.7788856
REMARK minimizedRMSD -1
REMARK  0 active torsions:
REMARK  status: ('A' for Active; 'I' for Inactive)
ROOT
ATOM      1  C4' PXY d   1       1.383  -1.001  -0.267  0.00  0.00     0.077 C 
ATOM      2  C1' PXY d   1      -2.734   2.740   1.306  0.00  0.00     0.077 C 
ATOM      3  C1  PXY d   1      -1.652   1.756   0.906  0.00  0.00    -0.082 A 
ATOM      4  C2  PXY d   1      -1.019   1.913  -0.245  0.00  0.00     0.003 A 
ATOM      5  C3  PXY d   1      -0.060   1.014  -0.637  0.00  0.00     0.003 A 
ATOM      6  C4  PXY d   1       0.290  -0.026   0.182  0.00  0.00    -0.082 A 
ATOM      7  C5  PXY d   1      -0.344  -0.186   1.363  0.00  0.00     0.003 A 
ATOM      8  C6  PXY d   1      -1.343   0.713   1.723  0.00  0.00     0.003 A 
ENDROOT
TORSDOF 0
ENDMDL
