MODEL 1
REMARK minimizedAffinity -4.5846014
REMARK minimizedRMSD -1
REMARK  0 active torsions:
REMARK  status: ('A' for Active; 'I' for Inactive)
ROOT
ATOM      1  C4' PXY d   1       1.781  -1.711  -0.796  0.00  0.00     0.077 C 
ATOM      2  C1' PXY d   1      -2.023   1.967   1.532  0.00  0.00     0.077 C 
ATOM      3  C1  PXY d   1      -1.029   1.005   0.909  0.00  0.00    -0.082 A 
ATOM      4  C2  PXY d   1      -0.571  -0.013   1.620  0.00  0.00     0.003 A 
ATOM      5  C3  PXY d   1       0.352  -0.873   1.083  0.00  0.00     0.003 A 
ATOM      6  C4  PXY d   1       0.770  -0.721  -0.212  0.00  0.00    -0.082 A 
ATOM      7  C5  PXY d   1       0.299   0.309  -0.947  0.00  0.00     0.003 A 
ATOM      8  C6  PXY d   1      -0.606   1.195  -0.370  0.00  0.00     0.003 A 
ENDROOT
TORSDOF 0
ENDMDL
