MODEL 1
REMARK minimizedAffinity -2.80448103
REMARK minimizedRMSD -1
REMARK  0 active torsions:
REMARK  status: ('A' for Active; 'I' for Inactive)
ROOT
ATOM      1  C4' PXY d   1       0.814  -2.168  -0.761  0.00  0.00     0.077 C 
ATOM      2  C1' PXY d   1      -1.702   2.468   1.605  0.00  0.00     0.077 C 
ATOM      3  C1  PXY d   1      -1.039   1.248   0.996  0.00  0.00    -0.082 A 
ATOM      4  C2  PXY d   1      -0.684   1.264  -0.278  0.00  0.00     0.003 A 
ATOM      5  C3  PXY d   1      -0.112   0.159  -0.853  0.00  0.00     0.003 A 
ATOM      6  C4  PXY d   1       0.149  -0.956  -0.102  0.00  0.00    -0.082 A 
ATOM      7  C5  PXY d   1      -0.199  -0.976   1.202  0.00  0.00     0.003 A 
ATOM      8  C6  PXY d   1      -0.817   0.141   1.756  0.00  0.00     0.003 A 
ENDROOT
TORSDOF 0
ENDMDL
