MODEL 1
REMARK minimizedAffinity -3.57303286
REMARK minimizedRMSD -1
REMARK  0 active torsions:
REMARK  status: ('A' for Active; 'I' for Inactive)
ROOT
ATOM      1  C4' PXY d   1      -1.526   1.891   1.596  0.00  0.00     0.077 C 
ATOM      2  C1' PXY d   1       1.553  -2.022  -1.341  0.00  0.00     0.077 C 
ATOM      3  C1  PXY d   1       0.741  -1.006  -0.563  0.00  0.00    -0.082 A 
ATOM      4  C2  PXY d   1       0.359   0.116  -1.152  0.00  0.00     0.003 A 
ATOM      5  C3  PXY d   1      -0.348   1.060  -0.454  0.00  0.00     0.003 A 
ATOM      6  C4  PXY d   1      -0.714   0.831   0.846  0.00  0.00    -0.082 A 
ATOM      7  C5  PXY d   1      -0.337  -0.315   1.451  0.00  0.00     0.003 A 
ATOM      8  C6  PXY d   1       0.416  -1.243   0.737  0.00  0.00     0.003 A 
ENDROOT
TORSDOF 0
ENDMDL
