MODEL 1
REMARK minimizedAffinity -4.67589331
REMARK minimizedRMSD -1
REMARK  0 active torsions:
REMARK  status: ('A' for Active; 'I' for Inactive)
ROOT
ATOM      1  C4' PXY d   1       1.107  -1.491  -0.500  0.00  0.00     0.077 C 
ATOM      2  C1' PXY d   1      -2.298   2.856   1.210  0.00  0.00     0.077 C 
ATOM      3  C1  PXY d   1      -1.402   1.714   0.774  0.00  0.00    -0.082 A 
ATOM      4  C2  PXY d   1      -0.879   1.720  -0.441  0.00  0.00     0.003 A 
ATOM      5  C3  PXY d   1      -0.093   0.678  -0.863  0.00  0.00     0.003 A 
ATOM      6  C4  PXY d   1       0.205  -0.353  -0.014  0.00  0.00    -0.082 A 
ATOM      7  C5  PXY d   1      -0.316  -0.362   1.232  0.00  0.00     0.003 A 
ATOM      8  C6  PXY d   1      -1.145   0.684   1.626  0.00  0.00     0.003 A 
ENDROOT
TORSDOF 0
ENDMDL
