MODEL 1
REMARK minimizedAffinity -4.88498926
REMARK minimizedRMSD -1
REMARK  0 active torsions:
REMARK  status: ('A' for Active; 'I' for Inactive)
ROOT
ATOM      1  C4' PXY d   1       0.713  -1.322  -0.577  0.00  0.00     0.077 C 
ATOM      2  C1' PXY d   1      -2.166   3.301   1.360  0.00  0.00     0.077 C 
ATOM      3  C1  PXY d   1      -1.408   2.085   0.864  0.00  0.00    -0.082 A 
ATOM      4  C2  PXY d   1      -0.878   2.094  -0.348  0.00  0.00     0.003 A 
ATOM      5  C3  PXY d   1      -0.218   0.991  -0.824  0.00  0.00     0.003 A 
ATOM      6  C4  PXY d   1      -0.052  -0.113  -0.031  0.00  0.00    -0.082 A 
ATOM      7  C5  PXY d   1      -0.580  -0.126   1.211  0.00  0.00     0.003 A 
ATOM      8  C6  PXY d   1      -1.283   0.989   1.660  0.00  0.00     0.003 A 
ENDROOT
TORSDOF 0
ENDMDL
