MODEL 1
REMARK minimizedAffinity -2.07056427
REMARK minimizedRMSD -1
REMARK  0 active torsions:
REMARK  status: ('A' for Active; 'I' for Inactive)
ROOT
ATOM      1  C4' PXY d   1       1.017  -3.087  -2.238  0.00  0.00     0.077 C 
ATOM      2  C1' PXY d   1      -0.780   1.320   1.044  0.00  0.00     0.077 C 
ATOM      3  C1  PXY d   1      -0.300   0.172   0.178  0.00  0.00    -0.082 A 
ATOM      4  C2  PXY d   1      -1.116  -0.836  -0.085  0.00  0.00     0.003 A 
ATOM      5  C3  PXY d   1      -0.688  -1.897  -0.840  0.00  0.00     0.003 A 
ATOM      6  C4  PXY d   1       0.572  -1.902  -1.376  0.00  0.00    -0.082 A 
ATOM      7  C5  PXY d   1       1.408  -0.873  -1.121  0.00  0.00     0.003 A 
ATOM      8  C6  PXY d   1       0.967   0.175  -0.318  0.00  0.00     0.003 A 
ENDROOT
TORSDOF 0
ENDMDL
