MODEL 1
REMARK minimizedAffinity -4.29874229
REMARK minimizedRMSD -1
REMARK  0 active torsions:
REMARK  status: ('A' for Active; 'I' for Inactive)
ROOT
ATOM      1  C4' PXY d   1       1.645  -1.090  -0.918  0.00  0.00     0.077 C 
ATOM      2  C1' PXY d   1      -2.150   2.497   1.561  0.00  0.00     0.077 C 
ATOM      3  C1  PXY d   1      -1.158   1.562   0.899  0.00  0.00    -0.082 A 
ATOM      4  C2  PXY d   1      -0.821   0.432   1.501  0.00  0.00     0.003 A 
ATOM      5  C3  PXY d   1       0.098  -0.410   0.932  0.00  0.00     0.003 A 
ATOM      6  C4  PXY d   1       0.640  -0.120  -0.291  0.00  0.00    -0.082 A 
ATOM      7  C5  PXY d   1       0.294   1.025  -0.917  0.00  0.00     0.003 A 
ATOM      8  C6  PXY d   1      -0.610   1.887  -0.303  0.00  0.00     0.003 A 
ENDROOT
TORSDOF 0
ENDMDL
