MODEL 1
REMARK minimizedAffinity -5.42280912
REMARK minimizedRMSD -1
REMARK  0 active torsions:
REMARK  status: ('A' for Active; 'I' for Inactive)
ROOT
ATOM      1  C4' PXY d   1       1.445  -1.949   2.470  0.00  0.00     0.077 C 
ATOM      2  C1' PXY d   1      -1.705   1.936  -0.427  0.00  0.00     0.077 C 
ATOM      3  C1  PXY d   1      -0.877   0.911   0.321  0.00  0.00    -0.082 A 
ATOM      4  C2  PXY d   1      -1.083   0.721   1.614  0.00  0.00     0.003 A 
ATOM      5  C3  PXY d   1      -0.321  -0.180   2.313  0.00  0.00     0.003 A 
ATOM      6  C4  PXY d   1       0.626  -0.931   1.672  0.00  0.00    -0.082 A 
ATOM      7  C5  PXY d   1       0.836  -0.751   0.350  0.00  0.00     0.003 A 
ATOM      8  C6  PXY d   1       0.080   0.197  -0.333  0.00  0.00     0.003 A 
ENDROOT
TORSDOF 0
ENDMDL
