MODEL 1
REMARK minimizedAffinity -2.43465567
REMARK minimizedRMSD -1
REMARK  1 active torsions:
REMARK  status: ('A' for Active; 'I' for Inactive)
REMARK    1  A    between atoms: C3_4  and  O_7 
ROOT
ATOM      1  C   UNL d   1       6.000   4.872  -4.002  0.00  0.00    -0.033 A 
ATOM      2  C1  UNL d   1       5.183   3.743  -3.905  0.00  0.00     0.039 A 
ATOM      3  C2  UNL d   1       3.918   3.742  -4.495  0.00  0.00    -0.080 A 
ATOM      4  C3  UNL d   1       3.482   4.873  -5.180  0.00  0.00     0.150 A 
ATOM      5  C4  UNL d   1       4.292   5.999  -5.284  0.00  0.00    -0.007 A 
ATOM      6  C5  UNL d   1       5.554   5.999  -4.693  0.00  0.00     0.039 A 
ENDROOT
BRANCH   4   7
ATOM      7  O   UNL d   1       2.253   4.920  -5.768  0.00  0.00    -0.526 OA
ATOM      8  H5  UNL d   1       1.794   4.082  -5.590  0.00  0.00     0.418 HD
ENDBRANCH   4   7
TORSDOF 1
ENDMDL
