MODEL 1
REMARK minimizedAffinity 1.19441152
REMARK minimizedRMSD -1
REMARK  1 active torsions:
REMARK  status: ('A' for Active; 'I' for Inactive)
REMARK    1  A    between atoms: C3_4  and  O_7 
ROOT
ATOM      1  C   UNL d   1      -1.676  -0.767  -5.281  0.00  0.00    -0.033 A 
ATOM      2  C1  UNL d   1      -0.493  -0.043  -5.444  0.00  0.00     0.039 A 
ATOM      3  C2  UNL d   1       0.711  -0.549  -4.951  0.00  0.00    -0.080 A 
ATOM      4  C3  UNL d   1       0.719  -1.778  -4.299  0.00  0.00     0.150 A 
ATOM      5  C4  UNL d   1      -0.455  -2.507  -4.136  0.00  0.00    -0.007 A 
ATOM      6  C5  UNL d   1      -1.657  -1.999  -4.628  0.00  0.00     0.039 A 
ENDROOT
BRANCH   4   7
ATOM      7  O   UNL d   1       1.869  -2.311  -3.796  0.00  0.00    -0.526 OA
ATOM      8  H5  UNL d   1       2.594  -1.684  -3.957  0.00  0.00     0.418 HD
ENDBRANCH   4   7
TORSDOF 1
ENDMDL
