MODEL 1
REMARK minimizedAffinity 0.306501299
REMARK minimizedRMSD -1
REMARK  1 active torsions:
REMARK  status: ('A' for Active; 'I' for Inactive)
REMARK    1  A    between atoms: C3_4  and  O_7 
ROOT
ATOM      1  C   UNL d   1      -0.687   5.989  -4.819  0.00  0.00    -0.033 A 
ATOM      2  C1  UNL d   1       0.113   5.977  -5.963  0.00  0.00     0.039 A 
ATOM      3  C2  UNL d   1       1.504   5.978  -5.845  0.00  0.00    -0.080 A 
ATOM      4  C3  UNL d   1       2.082   5.991  -4.579  0.00  0.00     0.150 A 
ATOM      5  C4  UNL d   1       1.292   6.000  -3.434  0.00  0.00    -0.007 A 
ATOM      6  C5  UNL d   1      -0.097   5.999  -3.554  0.00  0.00     0.039 A 
ENDROOT
BRANCH   4   7
ATOM      7  O   UNL d   1       3.436   5.998  -4.414  0.00  0.00    -0.526 OA
ATOM      8  H5  UNL d   1       3.853   6.020  -5.291  0.00  0.00     0.418 HD
ENDBRANCH   4   7
TORSDOF 1
ENDMDL
