MODEL 1
REMARK minimizedAffinity 3.22277951
REMARK minimizedRMSD -1
REMARK  1 active torsions:
REMARK  status: ('A' for Active; 'I' for Inactive)
REMARK    1  A    between atoms: C3_4  and  O_7 
ROOT
ATOM      1  C   UNL d   1      -0.374   5.905  -2.292  0.00  0.00    -0.033 A 
ATOM      2  C1  UNL d   1      -1.770   5.910  -2.313  0.00  0.00     0.039 A 
ATOM      3  C2  UNL d   1      -2.452   5.915  -3.531  0.00  0.00    -0.080 A 
ATOM      4  C3  UNL d   1      -1.727   5.914  -4.720  0.00  0.00     0.150 A 
ATOM      5  C4  UNL d   1      -0.336   5.905  -4.706  0.00  0.00    -0.007 A 
ATOM      6  C5  UNL d   1       0.343   5.901  -3.488  0.00  0.00     0.039 A 
ENDROOT
BRANCH   4   7
ATOM      7  O   UNL d   1      -2.348   5.924  -5.933  0.00  0.00    -0.526 OA
ATOM      8  H5  UNL d   1      -3.308   5.959  -5.787  0.00  0.00     0.418 HD
ENDBRANCH   4   7
TORSDOF 1
ENDMDL
