MODEL 1
REMARK minimizedAffinity -1.75048351
REMARK minimizedRMSD -1
REMARK  1 active torsions:
REMARK  status: ('A' for Active; 'I' for Inactive)
REMARK    1  A    between atoms: C3_4  and  O_7 
ROOT
ATOM      1  C   UNL d   1      -0.690   5.993  -4.671  0.00  0.00    -0.033 A 
ATOM      2  C1  UNL d   1      -0.062   5.964  -5.918  0.00  0.00     0.039 A 
ATOM      3  C2  UNL d   1       1.332   5.946  -6.000  0.00  0.00    -0.080 A 
ATOM      4  C3  UNL d   1       2.085   5.955  -4.829  0.00  0.00     0.150 A 
ATOM      5  C4  UNL d   1       1.466   5.979  -3.584  0.00  0.00    -0.007 A 
ATOM      6  C5  UNL d   1       0.075   5.999  -3.504  0.00  0.00     0.039 A 
ENDROOT
BRANCH   4   7
ATOM      7  O   UNL d   1       3.448   5.942  -4.859  0.00  0.00    -0.526 OA
ATOM      8  H5  UNL d   1       3.736   5.954  -5.787  0.00  0.00     0.418 HD
ENDBRANCH   4   7
TORSDOF 1
ENDMDL
