MODEL 1
REMARK minimizedAffinity -3.12801671
REMARK minimizedRMSD -1
REMARK  1 active torsions:
REMARK  status: ('A' for Active; 'I' for Inactive)
REMARK    1  A    between atoms: C3_4  and  O_7 
ROOT
ATOM      1  C   UNL d   1       1.791  -1.864  -4.438  0.00  0.00    -0.033 A 
ATOM      2  C1  UNL d   1       1.222  -0.887  -5.257  0.00  0.00     0.039 A 
ATOM      3  C2  UNL d   1      -0.163  -0.835  -5.428  0.00  0.00    -0.080 A 
ATOM      4  C3  UNL d   1      -0.967  -1.765  -4.774  0.00  0.00     0.150 A 
ATOM      5  C4  UNL d   1      -0.407  -2.739  -3.953  0.00  0.00    -0.007 A 
ATOM      6  C5  UNL d   1       0.976  -2.789  -3.785  0.00  0.00     0.039 A 
ENDROOT
BRANCH   4   7
ATOM      7  O   UNL d   1      -2.323  -1.757  -4.913  0.00  0.00    -0.526 OA
ATOM      8  H5  UNL d   1      -2.565  -1.048  -5.532  0.00  0.00     0.418 HD
ENDBRANCH   4   7
TORSDOF 1
ENDMDL
