MODEL 1
REMARK minimizedAffinity -1.27604485
REMARK minimizedRMSD -1
REMARK  1 active torsions:
REMARK  status: ('A' for Active; 'I' for Inactive)
REMARK    1  A    between atoms: C3_4  and  O_7 
ROOT
ATOM      1  C   UNL d   1       0.263   5.997  -2.799  0.00  0.00    -0.033 A 
ATOM      2  C1  UNL d   1      -0.051   5.999  -4.159  0.00  0.00     0.039 A 
ATOM      3  C2  UNL d   1      -1.386   5.998  -4.570  0.00  0.00    -0.080 A 
ATOM      4  C3  UNL d   1      -2.395   5.997  -3.611  0.00  0.00     0.150 A 
ATOM      5  C4  UNL d   1      -2.089   6.000  -2.254  0.00  0.00    -0.007 A 
ATOM      6  C5  UNL d   1      -0.756   6.000  -1.846  0.00  0.00     0.039 A 
ENDROOT
BRANCH   4   7
ATOM      7  O   UNL d   1      -3.712   5.992  -3.963  0.00  0.00    -0.526 OA
ATOM      8  H5  UNL d   1      -3.771   5.961  -4.932  0.00  0.00     0.418 HD
ENDBRANCH   4   7
TORSDOF 1
ENDMDL
