MODEL 1
REMARK minimizedAffinity -1.46056175
REMARK minimizedRMSD -1
REMARK  1 active torsions:
REMARK  status: ('A' for Active; 'I' for Inactive)
REMARK    1  A    between atoms: C3_4  and  O_7 
ROOT
ATOM      1  C   UNL d   1      -0.151   5.952  -2.889  0.00  0.00    -0.033 A 
ATOM      2  C1  UNL d   1      -0.291   5.969  -4.278  0.00  0.00     0.039 A 
ATOM      3  C2  UNL d   1      -1.563   5.984  -4.853  0.00  0.00    -0.080 A 
ATOM      4  C3  UNL d   1      -2.685   5.982  -4.029  0.00  0.00     0.150 A 
ATOM      5  C4  UNL d   1      -2.553   5.970  -2.645  0.00  0.00    -0.007 A 
ATOM      6  C5  UNL d   1      -1.282   5.954  -2.072  0.00  0.00     0.039 A 
ENDROOT
BRANCH   4   7
ATOM      7  O   UNL d   1      -3.947   5.992  -4.545  0.00  0.00    -0.526 OA
ATOM      8  H5  UNL d   1      -3.884   5.971  -5.514  0.00  0.00     0.418 HD
ENDBRANCH   4   7
TORSDOF 1
ENDMDL
