MODEL 1
REMARK minimizedAffinity -2.40010786
REMARK minimizedRMSD -1
REMARK  1 active torsions:
REMARK  status: ('A' for Active; 'I' for Inactive)
REMARK    1  A    between atoms: C3_4  and  O_7 
ROOT
ATOM      1  C   UNL d   1       5.979   5.393  -4.894  0.00  0.00    -0.033 A 
ATOM      2  C1  UNL d   1       5.310   5.983  -5.968  0.00  0.00     0.039 A 
ATOM      3  C2  UNL d   1       3.914   6.000  -5.999  0.00  0.00    -0.080 A 
ATOM      4  C3  UNL d   1       3.200   5.424  -4.952  0.00  0.00     0.150 A 
ATOM      5  C4  UNL d   1       3.860   4.838  -3.877  0.00  0.00    -0.007 A 
ATOM      6  C5  UNL d   1       5.254   4.821  -3.848  0.00  0.00     0.039 A 
ENDROOT
BRANCH   4   7
ATOM      7  O   UNL d   1       1.837   5.412  -4.941  0.00  0.00    -0.526 OA
ATOM      8  H5  UNL d   1       1.519   5.826  -5.760  0.00  0.00     0.418 HD
ENDBRANCH   4   7
TORSDOF 1
ENDMDL
