MODEL 1
REMARK minimizedAffinity 4.27599621
REMARK minimizedRMSD -1
REMARK  1 active torsions:
REMARK  status: ('A' for Active; 'I' for Inactive)
REMARK    1  A    between atoms: C3_4  and  O_7 
ROOT
ATOM      1  C   UNL d   1      -4.565   5.986  -2.051  0.00  0.00    -0.033 A 
ATOM      2  C1  UNL d   1      -3.537   5.978  -1.107  0.00  0.00     0.039 A 
ATOM      3  C2  UNL d   1      -2.204   5.977  -1.523  0.00  0.00    -0.080 A 
ATOM      4  C3  UNL d   1      -1.914   5.987  -2.885  0.00  0.00     0.150 A 
ATOM      5  C4  UNL d   1      -2.933   5.999  -3.831  0.00  0.00    -0.007 A 
ATOM      6  C5  UNL d   1      -4.263   5.998  -3.413  0.00  0.00     0.039 A 
ENDROOT
BRANCH   4   7
ATOM      7  O   UNL d   1      -0.628   5.982  -3.339  0.00  0.00    -0.526 OA
ATOM      8  H5  UNL d   1      -0.031   5.944  -2.573  0.00  0.00     0.418 HD
ENDBRANCH   4   7
TORSDOF 1
ENDMDL
