MODEL 1
REMARK minimizedAffinity 1.78720927
REMARK minimizedRMSD -1
REMARK  1 active torsions:
REMARK  status: ('A' for Active; 'I' for Inactive)
REMARK    1  A    between atoms: C3_4  and  O_7 
ROOT
ATOM      1  C   UNL d   1       5.259   5.065  -4.491  0.00  0.00    -0.033 A 
ATOM      2  C1  UNL d   1       4.923   5.933  -5.532  0.00  0.00     0.039 A 
ATOM      3  C2  UNL d   1       3.608   5.993  -5.996  0.00  0.00    -0.080 A 
ATOM      4  C3  UNL d   1       2.639   5.183  -5.411  0.00  0.00     0.150 A 
ATOM      5  C4  UNL d   1       2.966   4.319  -4.370  0.00  0.00    -0.007 A 
ATOM      6  C5  UNL d   1       4.280   4.259  -3.909  0.00  0.00     0.039 A 
ENDROOT
BRANCH   4   7
ATOM      7  O   UNL d   1       1.343   5.204  -5.833  0.00  0.00    -0.526 OA
ATOM      8  H5  UNL d   1       1.271   5.826  -6.576  0.00  0.00     0.418 HD
ENDBRANCH   4   7
TORSDOF 1
ENDMDL
