MODEL 1
REMARK minimizedAffinity -0.8791067
REMARK minimizedRMSD -1
REMARK  1 active torsions:
REMARK  status: ('A' for Active; 'I' for Inactive)
REMARK    1  A    between atoms: C3_4  and  O_7 
ROOT
ATOM      1  C   UNL d   1       0.123   5.990  -4.747  0.00  0.00    -0.033 A 
ATOM      2  C1  UNL d   1       0.784   6.000  -3.518  0.00  0.00     0.039 A 
ATOM      3  C2  UNL d   1       2.180   5.997  -3.473  0.00  0.00    -0.080 A 
ATOM      4  C3  UNL d   1       2.902   5.985  -4.663  0.00  0.00     0.150 A 
ATOM      5  C4  UNL d   1       2.250   5.979  -5.892  0.00  0.00    -0.007 A 
ATOM      6  C5  UNL d   1       0.856   5.981  -5.935  0.00  0.00     0.039 A 
ENDROOT
BRANCH   4   7
ATOM      7  O   UNL d   1       4.265   5.977  -4.670  0.00  0.00    -0.526 OA
ATOM      8  H5  UNL d   1       4.577   5.953  -3.750  0.00  0.00     0.418 HD
ENDBRANCH   4   7
TORSDOF 1
ENDMDL
