MODEL 1
REMARK minimizedAffinity 2.97214007
REMARK minimizedRMSD -1
REMARK  1 active torsions:
REMARK  status: ('A' for Active; 'I' for Inactive)
REMARK    1  A    between atoms: C3_4  and  O_7 
ROOT
ATOM      1  C   UNL d   1       1.871   2.703   0.012  0.00  0.00    -0.033 A 
ATOM      2  C1  UNL d   1       1.082   2.023  -0.918  0.00  0.00     0.039 A 
ATOM      3  C2  UNL d   1       0.520   0.788  -0.589  0.00  0.00    -0.080 A 
ATOM      4  C3  UNL d   1       0.753   0.245   0.671  0.00  0.00     0.150 A 
ATOM      5  C4  UNL d   1       1.535   0.919   1.604  0.00  0.00    -0.007 A 
ATOM      6  C5  UNL d   1       2.096   2.151   1.273  0.00  0.00     0.039 A 
ENDROOT
BRANCH   4   7
ATOM      7  O   UNL d   1       0.229  -0.960   1.036  0.00  0.00    -0.526 OA
ATOM      8  H5  UNL d   1      -0.264  -1.322   0.282  0.00  0.00     0.418 HD
ENDBRANCH   4   7
TORSDOF 1
ENDMDL
