MODEL 1
REMARK minimizedAffinity -0.999390066
REMARK minimizedRMSD -1
REMARK  1 active torsions:
REMARK  status: ('A' for Active; 'I' for Inactive)
REMARK    1  A    between atoms: C3_4  and  O_7 
ROOT
ATOM      1  C   UNL d   1      -0.366   5.956  -3.617  0.00  0.00    -0.033 A 
ATOM      2  C1  UNL d   1      -1.195   5.928  -2.494  0.00  0.00     0.039 A 
ATOM      3  C2  UNL d   1      -2.583   5.938  -2.649  0.00  0.00    -0.080 A 
ATOM      4  C3  UNL d   1      -3.128   5.976  -3.929  0.00  0.00     0.150 A 
ATOM      5  C4  UNL d   1      -2.308   6.000  -5.052  0.00  0.00    -0.007 A 
ATOM      6  C5  UNL d   1      -0.922   5.991  -4.896  0.00  0.00     0.039 A 
ENDROOT
BRANCH   4   7
ATOM      7  O   UNL d   1      -4.476   5.992  -4.130  0.00  0.00    -0.526 OA
ATOM      8  H5  UNL d   1      -4.916   6.001  -3.263  0.00  0.00     0.418 HD
ENDBRANCH   4   7
TORSDOF 1
ENDMDL
