MODEL 1
REMARK minimizedAffinity 1.85515594
REMARK minimizedRMSD -1
REMARK  1 active torsions:
REMARK  status: ('A' for Active; 'I' for Inactive)
REMARK    1  A    between atoms: C3_4  and  O_7 
ROOT
ATOM      1  C   UNL d   1       1.167   2.935   0.532  0.00  0.00    -0.033 A 
ATOM      2  C1  UNL d   1       0.629   2.284  -0.580  0.00  0.00     0.039 A 
ATOM      3  C2  UNL d   1       0.163   0.973  -0.465  0.00  0.00    -0.080 A 
ATOM      4  C3  UNL d   1       0.239   0.326   0.766  0.00  0.00     0.150 A 
ATOM      5  C4  UNL d   1       0.770   0.970   1.878  0.00  0.00    -0.007 A 
ATOM      6  C5  UNL d   1       1.236   2.279   1.761  0.00  0.00     0.039 A 
ENDROOT
BRANCH   4   7
ATOM      7  O   UNL d   1      -0.199  -0.955   0.926  0.00  0.00    -0.526 OA
ATOM      8  H5  UNL d   1      -0.513  -1.283   0.066  0.00  0.00     0.418 HD
ENDBRANCH   4   7
TORSDOF 1
ENDMDL
