MODEL 1
REMARK minimizedAffinity -1.54126298
REMARK minimizedRMSD -1
REMARK  1 active torsions:
REMARK  status: ('A' for Active; 'I' for Inactive)
REMARK    1  A    between atoms: C3_4  and  O_7 
ROOT
ATOM      1  C   UNL d   1      -1.435   5.999  -3.492  0.00  0.00    -0.033 A 
ATOM      2  C1  UNL d   1      -1.621   6.000  -4.876  0.00  0.00     0.039 A 
ATOM      3  C2  UNL d   1      -0.516   5.998  -5.730  0.00  0.00    -0.080 A 
ATOM      4  C3  UNL d   1       0.766   5.994  -5.189  0.00  0.00     0.150 A 
ATOM      5  C4  UNL d   1       0.959   5.990  -3.811  0.00  0.00    -0.007 A 
ATOM      6  C5  UNL d   1      -0.145   5.993  -2.959  0.00  0.00     0.039 A 
ENDROOT
BRANCH   4   7
ATOM      7  O   UNL d   1       1.875   5.997  -5.982  0.00  0.00    -0.526 OA
ATOM      8  H5  UNL d   1       1.588   6.029  -6.911  0.00  0.00     0.418 HD
ENDBRANCH   4   7
TORSDOF 1
ENDMDL
