MODEL 1
REMARK minimizedAffinity -1.76094568
REMARK minimizedRMSD -1
REMARK  1 active torsions:
REMARK  status: ('A' for Active; 'I' for Inactive)
REMARK    1  A    between atoms: C3_4  and  O_7 
ROOT
ATOM      1  C   UNL d   1      -2.653   5.980  -4.615  0.00  0.00    -0.033 A 
ATOM      2  C1  UNL d   1      -1.298   5.820  -4.318  0.00  0.00     0.039 A 
ATOM      3  C2  UNL d   1      -0.884   5.684  -2.991  0.00  0.00    -0.080 A 
ATOM      4  C3  UNL d   1      -1.834   5.708  -1.973  0.00  0.00     0.150 A 
ATOM      5  C4  UNL d   1      -3.186   5.863  -2.263  0.00  0.00    -0.007 A 
ATOM      6  C5  UNL d   1      -3.597   5.999  -3.588  0.00  0.00     0.039 A 
ENDROOT
BRANCH   4   7
ATOM      7  O   UNL d   1      -1.478   5.584  -0.663  0.00  0.00    -0.526 OA
ATOM      8  H5  UNL d   1      -0.510   5.513  -0.613  0.00  0.00     0.418 HD
ENDBRANCH   4   7
TORSDOF 1
ENDMDL
