MODEL 1
REMARK minimizedAffinity 5.9540267
REMARK minimizedRMSD -1
REMARK  0 active torsions:
REMARK  status: ('A' for Active; 'I' for Inactive)
ROOT
ATOM      1  C   UNL d   1       0.274  -1.283  -4.083  0.00  0.00     0.077 C 
ATOM      2  C1  UNL d   1       1.109  -0.756  -2.954  0.00  0.00    -0.074 A 
ATOM      3  C2  UNL d   1       1.205   0.618  -2.712  0.00  0.00    -0.005 A 
ATOM      4  C3  UNL d   1       1.979   1.093  -1.653  0.00  0.00     0.006 A 
ATOM      5  C4  UNL d   1       2.663   0.200  -0.827  0.00  0.00    -0.005 A 
ATOM      6  C5  UNL d   1       2.578  -1.177  -1.053  0.00  0.00    -0.074 A 
ATOM      7  C6  UNL d   1       3.299  -2.151  -0.169  0.00  0.00     0.077 C 
ATOM      8  C7  UNL d   1       1.793  -1.647  -2.115  0.00  0.00    -0.001 A 
ENDROOT
TORSDOF 0
ENDMDL
