MODEL 1
REMARK minimizedAffinity 7.25683022
REMARK minimizedRMSD -1
REMARK  0 active torsions:
REMARK  status: ('A' for Active; 'I' for Inactive)
ROOT
ATOM      1  C   UNL d   1       1.714  -3.373   0.494  0.00  0.00     0.077 C 
ATOM      2  C1  UNL d   1       1.847  -2.131  -0.337  0.00  0.00    -0.074 A 
ATOM      3  C2  UNL d   1       2.894  -1.989  -1.254  0.00  0.00    -0.005 A 
ATOM      4  C3  UNL d   1       3.000  -0.833  -2.027  0.00  0.00     0.006 A 
ATOM      5  C4  UNL d   1       2.062   0.192  -1.890  0.00  0.00    -0.005 A 
ATOM      6  C5  UNL d   1       1.009   0.067  -0.979  0.00  0.00    -0.074 A 
ATOM      7  C6  UNL d   1      -0.013   1.155  -0.827  0.00  0.00     0.077 C 
ATOM      8  C7  UNL d   1       0.905  -1.101  -0.211  0.00  0.00    -0.001 A 
ENDROOT
TORSDOF 0
ENDMDL
