MODEL 1
REMARK minimizedAffinity 10.7713461
REMARK minimizedRMSD -1
REMARK  0 active torsions:
REMARK  status: ('A' for Active; 'I' for Inactive)
ROOT
ATOM      1  C   UNL d   1       0.739   1.089  -1.876  0.00  0.00     0.077 C 
ATOM      2  C1  UNL d   1       1.479  -0.162  -1.507  0.00  0.00    -0.074 A 
ATOM      3  C2  UNL d   1       2.826  -0.327  -1.847  0.00  0.00    -0.005 A 
ATOM      4  C3  UNL d   1       3.504  -1.492  -1.488  0.00  0.00     0.006 A 
ATOM      5  C4  UNL d   1       2.844  -2.502  -0.787  0.00  0.00    -0.005 A 
ATOM      6  C5  UNL d   1       1.498  -2.354  -0.437  0.00  0.00    -0.074 A 
ATOM      7  C6  UNL d   1       0.776  -3.426   0.325  0.00  0.00     0.077 C 
ATOM      8  C7  UNL d   1       0.825  -1.178  -0.795  0.00  0.00    -0.001 A 
ENDROOT
TORSDOF 0
ENDMDL
