MODEL 1
REMARK minimizedAffinity 4.47247314
REMARK minimizedRMSD -1
REMARK  0 active torsions:
REMARK  status: ('A' for Active; 'I' for Inactive)
ROOT
ATOM      1  C   UNL d   1       4.166  -0.850   0.751  0.00  0.00     0.077 C 
ATOM      2  C1  UNL d   1       3.111  -0.801  -0.315  0.00  0.00    -0.074 A 
ATOM      3  C2  UNL d   1       2.139  -1.802  -0.411  0.00  0.00    -0.005 A 
ATOM      4  C3  UNL d   1       1.159  -1.738  -1.401  0.00  0.00     0.006 A 
ATOM      5  C4  UNL d   1       1.141  -0.673  -2.304  0.00  0.00    -0.005 A 
ATOM      6  C5  UNL d   1       2.104   0.337  -2.222  0.00  0.00    -0.074 A 
ATOM      7  C6  UNL d   1       2.093   1.493  -3.178  0.00  0.00     0.077 C 
ATOM      8  C7  UNL d   1       3.081   0.269  -1.220  0.00  0.00    -0.001 A 
ENDROOT
TORSDOF 0
ENDMDL
