MODEL 1
REMARK minimizedAffinity 4.7579484
REMARK minimizedRMSD -1
REMARK  0 active torsions:
REMARK  status: ('A' for Active; 'I' for Inactive)
ROOT
ATOM      1  C   UNL d   1       2.094   1.976  -3.886  0.00  0.00     0.077 C 
ATOM      2  C1  UNL d   1       1.484   1.277  -2.708  0.00  0.00    -0.074 A 
ATOM      3  C2  UNL d   1       0.411   1.843  -2.012  0.00  0.00    -0.005 A 
ATOM      4  C3  UNL d   1      -0.152   1.177  -0.924  0.00  0.00     0.006 A 
ATOM      5  C4  UNL d   1       0.352  -0.060  -0.520  0.00  0.00    -0.005 A 
ATOM      6  C5  UNL d   1       1.424  -0.642  -1.204  0.00  0.00    -0.074 A 
ATOM      7  C6  UNL d   1       1.972  -1.976  -0.789  0.00  0.00     0.077 C 
ATOM      8  C7  UNL d   1       1.980   0.030  -2.301  0.00  0.00    -0.001 A 
ENDROOT
TORSDOF 0
ENDMDL
