MODEL 1
REMARK minimizedAffinity 5.08753252
REMARK minimizedRMSD -1
REMARK  0 active torsions:
REMARK  status: ('A' for Active; 'I' for Inactive)
ROOT
ATOM      1  C   UNL d   1       4.509  -0.639  -1.492  0.00  0.00     0.077 C 
ATOM      2  C1  UNL d   1       3.128  -1.117  -1.155  0.00  0.00    -0.074 A 
ATOM      3  C2  UNL d   1       2.005  -0.567  -1.781  0.00  0.00    -0.005 A 
ATOM      4  C3  UNL d   1       0.727  -1.029  -1.465  0.00  0.00     0.006 A 
ATOM      5  C4  UNL d   1       0.560  -2.044  -0.522  0.00  0.00    -0.005 A 
ATOM      6  C5  UNL d   1       1.672  -2.607   0.113  0.00  0.00    -0.074 A 
ATOM      7  C6  UNL d   1       1.511  -3.705   1.122  0.00  0.00     0.077 C 
ATOM      8  C7  UNL d   1       2.953  -2.142  -0.215  0.00  0.00    -0.001 A 
ENDROOT
TORSDOF 0
ENDMDL
