MODEL 1
REMARK minimizedAffinity 7.44314384
REMARK minimizedRMSD -1
REMARK  0 active torsions:
REMARK  status: ('A' for Active; 'I' for Inactive)
ROOT
ATOM      1  C   UNL d   1       1.951   1.464  -2.940  0.00  0.00     0.077 C 
ATOM      2  C1  UNL d   1       1.430   1.669  -1.548  0.00  0.00    -0.074 A 
ATOM      3  C2  UNL d   1       0.060   1.818  -1.309  0.00  0.00    -0.005 A 
ATOM      4  C3  UNL d   1      -0.411   1.998  -0.008  0.00  0.00     0.006 A 
ATOM      5  C4  UNL d   1       0.482   2.031   1.064  0.00  0.00    -0.005 A 
ATOM      6  C5  UNL d   1       1.855   1.883   0.844  0.00  0.00    -0.074 A 
ATOM      7  C6  UNL d   1       2.827   1.907   1.986  0.00  0.00     0.077 C 
ATOM      8  C7  UNL d   1       2.319   1.696  -0.465  0.00  0.00    -0.001 A 
ENDROOT
TORSDOF 0
ENDMDL
