MODEL 1
REMARK minimizedAffinity 11.0669479
REMARK minimizedRMSD -1
REMARK  0 active torsions:
REMARK  status: ('A' for Active; 'I' for Inactive)
ROOT
ATOM      1  C   UNL d   1       1.536   1.251  -2.407  0.00  0.00     0.077 C 
ATOM      2  C1  UNL d   1       1.287   1.675  -0.990  0.00  0.00    -0.074 A 
ATOM      3  C2  UNL d   1       2.294   1.578  -0.024  0.00  0.00    -0.005 A 
ATOM      4  C3  UNL d   1       2.051   1.986   1.288  0.00  0.00     0.006 A 
ATOM      5  C4  UNL d   1       0.802   2.494   1.646  0.00  0.00    -0.005 A 
ATOM      6  C5  UNL d   1      -0.217   2.599   0.693  0.00  0.00    -0.074 A 
ATOM      7  C6  UNL d   1      -1.562   3.152   1.059  0.00  0.00     0.077 C 
ATOM      8  C7  UNL d   1       0.037   2.194  -0.625  0.00  0.00    -0.001 A 
ENDROOT
TORSDOF 0
ENDMDL
