MODEL 1
REMARK minimizedAffinity -1.28437495
REMARK minimizedRMSD -1
REMARK  0 active torsions:
REMARK  status: ('A' for Active; 'I' for Inactive)
ROOT
ATOM      1  C   UNL d   1       2.256  -4.845   3.115  0.00  0.00     0.077 C 
ATOM      2  C1  UNL d   1       3.560  -4.847   3.858  0.00  0.00    -0.074 A 
ATOM      3  C2  UNL d   1       4.391  -5.971   3.848  0.00  0.00    -0.005 A 
ATOM      4  C3  UNL d   1       5.604  -5.955   4.536  0.00  0.00     0.006 A 
ATOM      5  C4  UNL d   1       5.998  -4.815   5.238  0.00  0.00    -0.005 A 
ATOM      6  C5  UNL d   1       5.181  -3.681   5.258  0.00  0.00    -0.074 A 
ATOM      7  C6  UNL d   1       5.594  -2.445   6.000  0.00  0.00     0.077 C 
ATOM      8  C7  UNL d   1       3.966  -3.703   4.559  0.00  0.00    -0.001 A 
ENDROOT
TORSDOF 0
ENDMDL
