MODEL 1
REMARK minimizedAffinity 2.6822598
REMARK minimizedRMSD -1
REMARK  0 active torsions:
REMARK  status: ('A' for Active; 'I' for Inactive)
ROOT
ATOM      1  C   UNL d   1       2.356   2.384  -4.341  0.00  0.00     0.077 C 
ATOM      2  C1  UNL d   1       1.814   1.666  -3.140  0.00  0.00    -0.074 A 
ATOM      3  C2  UNL d   1       0.810   2.239  -2.353  0.00  0.00    -0.005 A 
ATOM      4  C3  UNL d   1       0.309   1.556  -1.245  0.00  0.00     0.006 A 
ATOM      5  C4  UNL d   1       0.808   0.295  -0.912  0.00  0.00    -0.005 A 
ATOM      6  C5  UNL d   1       1.812  -0.293  -1.688  0.00  0.00    -0.074 A 
ATOM      7  C6  UNL d   1       2.351  -1.651  -1.351  0.00  0.00     0.077 C 
ATOM      8  C7  UNL d   1       2.304   0.396  -2.804  0.00  0.00    -0.001 A 
ENDROOT
TORSDOF 0
ENDMDL
