MODEL 1
REMARK minimizedAffinity 0.777279019
REMARK minimizedRMSD -1
REMARK  0 active torsions:
REMARK  status: ('A' for Active; 'I' for Inactive)
ROOT
ATOM      1  C   UNL d   1       2.250  -1.845  -1.493  0.00  0.00     0.077 C 
ATOM      2  C1  UNL d   1       1.875  -0.441  -1.863  0.00  0.00    -0.074 A 
ATOM      3  C2  UNL d   1       2.484   0.205  -2.944  0.00  0.00    -0.005 A 
ATOM      4  C3  UNL d   1       2.118   1.507  -3.282  0.00  0.00     0.006 A 
ATOM      5  C4  UNL d   1       1.142   2.177  -2.544  0.00  0.00    -0.005 A 
ATOM      6  C5  UNL d   1       0.521   1.547  -1.460  0.00  0.00    -0.074 A 
ATOM      7  C6  UNL d   1      -0.538   2.248  -0.662  0.00  0.00     0.077 C 
ATOM      8  C7  UNL d   1       0.889   0.235  -1.131  0.00  0.00    -0.001 A 
ENDROOT
TORSDOF 0
ENDMDL
