MODEL 1
REMARK minimizedAffinity -4.12182236
REMARK minimizedRMSD -1
REMARK  0 active torsions:
REMARK  status: ('A' for Active; 'I' for Inactive)
ROOT
ATOM      1  C   UNL d   1       1.781  -2.699  -0.165  0.00  0.00     0.077 C 
ATOM      2  C1  UNL d   1       1.698  -1.395  -0.902  0.00  0.00    -0.074 A 
ATOM      3  C2  UNL d   1       2.589  -1.097  -1.938  0.00  0.00    -0.005 A 
ATOM      4  C3  UNL d   1       2.494   0.116  -2.621  0.00  0.00     0.006 A 
ATOM      5  C4  UNL d   1       1.508   1.041  -2.276  0.00  0.00    -0.005 A 
ATOM      6  C5  UNL d   1       0.608   0.760  -1.243  0.00  0.00    -0.074 A 
ATOM      7  C6  UNL d   1      -0.464   1.739  -0.866  0.00  0.00     0.077 C 
ATOM      8  C7  UNL d   1       0.705  -0.464  -0.567  0.00  0.00    -0.001 A 
ENDROOT
TORSDOF 0
ENDMDL
