MODEL 1
REMARK minimizedAffinity 2.32354093
REMARK minimizedRMSD -1
REMARK  0 active torsions:
REMARK  status: ('A' for Active; 'I' for Inactive)
ROOT
ATOM      1  C   UNL d   1       0.390  -0.686  -2.501  0.00  0.00     0.077 C 
ATOM      2  C1  UNL d   1       1.296  -1.257  -1.451  0.00  0.00    -0.074 A 
ATOM      3  C2  UNL d   1       2.492  -0.618  -1.109  0.00  0.00    -0.005 A 
ATOM      4  C3  UNL d   1       3.320  -1.156  -0.123  0.00  0.00     0.006 A 
ATOM      5  C4  UNL d   1       2.961  -2.336   0.528  0.00  0.00    -0.005 A 
ATOM      6  C5  UNL d   1       1.769  -2.989   0.199  0.00  0.00    -0.074 A 
ATOM      7  C6  UNL d   1       1.363  -4.254   0.897  0.00  0.00     0.077 C 
ATOM      8  C7  UNL d   1       0.938  -2.438  -0.787  0.00  0.00    -0.001 A 
ENDROOT
TORSDOF 0
ENDMDL
