MODEL 1
REMARK minimizedAffinity 11.7588673
REMARK minimizedRMSD -1
REMARK  0 active torsions:
REMARK  status: ('A' for Active; 'I' for Inactive)
ROOT
ATOM      1  C   UNL d   1       2.566  -1.758  -1.493  0.00  0.00     0.077 C 
ATOM      2  C1  UNL d   1       1.921  -0.452  -1.853  0.00  0.00    -0.074 A 
ATOM      3  C2  UNL d   1       2.390   0.309  -2.928  0.00  0.00    -0.005 A 
ATOM      4  C3  UNL d   1       1.774   1.516  -3.257  0.00  0.00     0.006 A 
ATOM      5  C4  UNL d   1       0.684   1.974  -2.515  0.00  0.00    -0.005 A 
ATOM      6  C5  UNL d   1       0.201   1.226  -1.436  0.00  0.00    -0.074 A 
ATOM      7  C6  UNL d   1      -0.975   1.699  -0.635  0.00  0.00     0.077 C 
ATOM      8  C7  UNL d   1       0.821   0.010  -1.117  0.00  0.00    -0.001 A 
ENDROOT
TORSDOF 0
ENDMDL
