MODEL 1
REMARK minimizedAffinity 5.29578876
REMARK minimizedRMSD -1
REMARK  0 active torsions:
REMARK  status: ('A' for Active; 'I' for Inactive)
ROOT
ATOM      1  C   UNL d   1       1.102   0.928  -2.307  0.00  0.00     0.077 C 
ATOM      2  C1  UNL d   1       0.755   1.466  -0.951  0.00  0.00    -0.074 A 
ATOM      3  C2  UNL d   1      -0.574   1.709  -0.593  0.00  0.00    -0.005 A 
ATOM      4  C3  UNL d   1      -0.882   2.201   0.676  0.00  0.00     0.006 A 
ATOM      5  C4  UNL d   1       0.135   2.453   1.598  0.00  0.00    -0.005 A 
ATOM      6  C5  UNL d   1       1.470   2.215   1.257  0.00  0.00    -0.074 A 
ATOM      7  C6  UNL d   1       2.574   2.472   2.239  0.00  0.00     0.077 C 
ATOM      8  C7  UNL d   1       1.771   1.715  -0.017  0.00  0.00    -0.001 A 
ENDROOT
TORSDOF 0
ENDMDL
