MODEL 1
REMARK minimizedAffinity 6.83814001
REMARK minimizedRMSD -1
REMARK  0 active torsions:
REMARK  status: ('A' for Active; 'I' for Inactive)
ROOT
ATOM      1  N1  IND d   1      -1.639   0.375  -0.922  0.00  0.00    -0.196 N 
ATOM      2  C2  IND d   1      -2.064  -0.415  -1.953  0.00  0.00     0.054 A 
ATOM      3  C3  IND d   1      -3.405  -0.581  -1.897  0.00  0.00    -0.031 A 
ATOM      4  C4  IND d   1      -5.112   0.436  -0.260  0.00  0.00     0.051 A 
ATOM      5  C5  IND d   1      -5.197   1.194   0.875  0.00  0.00    -0.031 A 
ATOM      6  C6  IND d   1      -4.078   1.730   1.479  0.00  0.00     0.015 A 
ATOM      7  C7  IND d   1      -2.828   1.537   0.962  0.00  0.00    -0.016 A 
ATOM      8  C8  IND d   1      -2.737   0.763  -0.185  0.00  0.00    -0.047 A 
ATOM      9  C9  IND d   1      -3.864   0.181  -0.779  0.00  0.00    -0.096 A 
ATOM     10  HN1 IND d   1      -0.823   0.593  -0.760  0.00  0.00     0.298 HD
ENDROOT
TORSDOF 0
ENDMDL
