MODEL 1
REMARK minimizedAffinity 8.14294243
REMARK minimizedRMSD -1
REMARK  0 active torsions:
REMARK  status: ('A' for Active; 'I' for Inactive)
ROOT
ATOM      1  N1  IND d   1       2.564   1.049  -1.142  0.00  0.00    -0.196 N 
ATOM      2  C2  IND d   1       2.610  -0.287  -0.853  0.00  0.00     0.054 A 
ATOM      3  C3  IND d   1       3.734  -0.580  -0.161  0.00  0.00    -0.031 A 
ATOM      4  C4  IND d   1       5.585   0.992   0.694  0.00  0.00     0.051 A 
ATOM      5  C5  IND d   1       6.000   2.293   0.647  0.00  0.00    -0.031 A 
ATOM      6  C6  IND d   1       5.275   3.266  -0.010  0.00  0.00     0.015 A 
ATOM      7  C7  IND d   1       4.097   2.975  -0.637  0.00  0.00    -0.016 A 
ATOM      8  C8  IND d   1       3.676   1.654  -0.597  0.00  0.00    -0.047 A 
ATOM      9  C9  IND d   1       4.429   0.654   0.031  0.00  0.00    -0.096 A 
ATOM     10  HN1 IND d   1       1.945   1.445  -1.589  0.00  0.00     0.298 HD
ENDROOT
TORSDOF 0
ENDMDL
