MODEL 1
REMARK minimizedAffinity 0.0411194339
REMARK minimizedRMSD -1
REMARK  0 active torsions:
REMARK  status: ('A' for Active; 'I' for Inactive)
ROOT
ATOM      1  N1  IND d   1       4.234   0.721  -2.468  0.00  0.00    -0.196 N 
ATOM      2  C2  IND d   1       3.344  -0.113  -1.850  0.00  0.00     0.054 A 
ATOM      3  C3  IND d   1       3.270   0.171  -0.531  0.00  0.00    -0.031 A 
ATOM      4  C4  IND d   1       4.444   2.029   0.810  0.00  0.00     0.051 A 
ATOM      5  C5  IND d   1       5.379   3.019   0.688  0.00  0.00    -0.031 A 
ATOM      6  C6  IND d   1       5.991   3.300  -0.517  0.00  0.00     0.015 A 
ATOM      7  C7  IND d   1       5.680   2.607  -1.652  0.00  0.00    -0.016 A 
ATOM      8  C8  IND d   1       4.736   1.597  -1.531  0.00  0.00    -0.047 A 
ATOM      9  C9  IND d   1       4.143   1.279  -0.302  0.00  0.00    -0.096 A 
ATOM     10  HN1 IND d   1       4.445   0.701  -3.301  0.00  0.00     0.298 HD
ENDROOT
TORSDOF 0
ENDMDL
