MODEL 1
REMARK minimizedAffinity 7.2749567
REMARK minimizedRMSD -1
REMARK  0 active torsions:
REMARK  status: ('A' for Active; 'I' for Inactive)
ROOT
ATOM      1  N1  IND d   1       2.614   0.714  -0.608  0.00  0.00    -0.196 N 
ATOM      2  C2  IND d   1       3.002  -0.581  -0.404  0.00  0.00     0.054 A 
ATOM      3  C3  IND d   1       4.281  -0.625   0.033  0.00  0.00    -0.031 A 
ATOM      4  C4  IND d   1       5.890   1.308   0.579  0.00  0.00     0.051 A 
ATOM      5  C5  IND d   1       6.000   2.669   0.517  0.00  0.00    -0.031 A 
ATOM      6  C6  IND d   1       4.964   3.464   0.070  0.00  0.00     0.015 A 
ATOM      7  C7  IND d   1       3.771   2.926  -0.323  0.00  0.00    -0.016 A 
ATOM      8  C8  IND d   1       3.659   1.544  -0.267  0.00  0.00    -0.047 A 
ATOM      9  C9  IND d   1       4.721   0.729   0.145  0.00  0.00    -0.096 A 
ATOM     10  HN1 IND d   1       1.846   0.967  -0.901  0.00  0.00     0.298 HD
ENDROOT
TORSDOF 0
ENDMDL
