MODEL 1
REMARK minimizedAffinity 16.9517059
REMARK minimizedRMSD -1
REMARK  0 active torsions:
REMARK  status: ('A' for Active; 'I' for Inactive)
ROOT
ATOM      1  N1  IND d   1      -3.904   2.093   1.557  0.00  0.00    -0.196 N 
ATOM      2  C2  IND d   1      -3.415   3.368   1.511  0.00  0.00     0.054 A 
ATOM      3  C3  IND d   1      -3.806   3.982   0.372  0.00  0.00    -0.031 A 
ATOM      4  C4  IND d   1      -5.337   3.116  -1.508  0.00  0.00     0.051 A 
ATOM      5  C5  IND d   1      -5.999   1.997  -1.929  0.00  0.00    -0.031 A 
ATOM      6  C6  IND d   1      -5.999   0.830  -1.193  0.00  0.00     0.015 A 
ATOM      7  C7  IND d   1      -5.343   0.742   0.002  0.00  0.00    -0.016 A 
ATOM      8  C8  IND d   1      -4.664   1.874   0.429  0.00  0.00    -0.047 A 
ATOM      9  C9  IND d   1      -4.625   3.048  -0.334  0.00  0.00    -0.096 A 
ATOM     10  HN1 IND d   1      -3.762   1.523   2.186  0.00  0.00     0.298 HD
ENDROOT
TORSDOF 0
ENDMDL
