MODEL 1
REMARK minimizedAffinity -0.253371179
REMARK minimizedRMSD -1
REMARK  0 active torsions:
REMARK  status: ('A' for Active; 'I' for Inactive)
ROOT
ATOM      1  C   UNL d   1      -5.157   2.623  -0.007  0.00  0.00     0.077 C 
ATOM      2  C1  UNL d   1      -4.949   2.713  -1.490  0.00  0.00    -0.074 A 
ATOM      3  C2  UNL d   1      -5.998   2.458  -2.379  0.00  0.00    -0.005 A 
ATOM      4  C3  UNL d   1      -5.792   2.555  -3.756  0.00  0.00     0.006 A 
ATOM      5  C4  UNL d   1      -4.537   2.906  -4.255  0.00  0.00    -0.005 A 
ATOM      6  C5  UNL d   1      -3.477   3.164  -3.381  0.00  0.00    -0.074 A 
ATOM      7  C6  UNL d   1      -2.125   3.553  -3.902  0.00  0.00     0.077 C 
ATOM      8  C7  UNL d   1      -3.693   3.072  -2.000  0.00  0.00    -0.001 A 
ENDROOT
TORSDOF 0
ENDMDL
