MODEL 1
REMARK minimizedAffinity -0.354242712
REMARK minimizedRMSD -1
REMARK  0 active torsions:
REMARK  status: ('A' for Active; 'I' for Inactive)
ROOT
ATOM      1  C   UNL d   1       3.665   1.393  -2.681  0.00  0.00     0.077 C 
ATOM      2  C1  UNL d   1       2.954   0.344  -1.880  0.00  0.00    -0.074 A 
ATOM      3  C2  UNL d   1       2.959  -0.996  -2.283  0.00  0.00    -0.005 A 
ATOM      4  C3  UNL d   1       2.301  -1.962  -1.522  0.00  0.00     0.006 A 
ATOM      5  C4  UNL d   1       1.632  -1.599  -0.352  0.00  0.00    -0.005 A 
ATOM      6  C5  UNL d   1       1.616  -0.265   0.067  0.00  0.00    -0.074 A 
ATOM      7  C6  UNL d   1       0.909   0.141   1.326  0.00  0.00     0.077 C 
ATOM      8  C7  UNL d   1       2.285   0.699  -0.700  0.00  0.00    -0.001 A 
ENDROOT
TORSDOF 0
ENDMDL
