MODEL 1
REMARK minimizedAffinity 4.63224983
REMARK minimizedRMSD -1
REMARK  0 active torsions:
REMARK  status: ('A' for Active; 'I' for Inactive)
ROOT
ATOM      1  C   UNL d   1       6.000   0.013  -3.158  0.00  0.00     0.077 C 
ATOM      2  C1  UNL d   1       4.803   0.154  -2.265  0.00  0.00    -0.074 A 
ATOM      3  C2  UNL d   1       4.286   1.415  -1.949  0.00  0.00    -0.005 A 
ATOM      4  C3  UNL d   1       3.166   1.530  -1.125  0.00  0.00     0.006 A 
ATOM      5  C4  UNL d   1       2.552   0.387  -0.611  0.00  0.00    -0.005 A 
ATOM      6  C5  UNL d   1       3.054  -0.882  -0.917  0.00  0.00    -0.074 A 
ATOM      7  C6  UNL d   1       2.400  -2.121  -0.381  0.00  0.00     0.077 C 
ATOM      8  C7  UNL d   1       4.175  -0.989  -1.751  0.00  0.00    -0.001 A 
ENDROOT
TORSDOF 0
ENDMDL
