MODEL 1
REMARK minimizedAffinity -1.39439797
REMARK minimizedRMSD -1
REMARK  0 active torsions:
REMARK  status: ('A' for Active; 'I' for Inactive)
ROOT
ATOM      1  C   UNL d   1       1.705   2.832  -0.466  0.00  0.00     0.077 C 
ATOM      2  C1  UNL d   1       1.596   1.361  -0.192  0.00  0.00    -0.074 A 
ATOM      3  C2  UNL d   1       0.963   0.890   0.962  0.00  0.00    -0.005 A 
ATOM      4  C3  UNL d   1       0.861  -0.481   1.199  0.00  0.00     0.006 A 
ATOM      5  C4  UNL d   1       1.392  -1.393   0.285  0.00  0.00    -0.005 A 
ATOM      6  C5  UNL d   1       2.028  -0.940  -0.875  0.00  0.00    -0.074 A 
ATOM      7  C6  UNL d   1       2.595  -1.906  -1.872  0.00  0.00     0.077 C 
ATOM      8  C7  UNL d   1       2.120   0.439  -1.109  0.00  0.00    -0.001 A 
ENDROOT
TORSDOF 0
ENDMDL
