MODEL 1
REMARK minimizedAffinity 6.79025698
REMARK minimizedRMSD -1
REMARK  0 active torsions:
REMARK  status: ('A' for Active; 'I' for Inactive)
ROOT
ATOM      1  C   UNL d   1      -2.523   1.215   2.300  0.00  0.00     0.077 C 
ATOM      2  C1  UNL d   1      -2.373  -0.250   2.016  0.00  0.00    -0.074 A 
ATOM      3  C2  UNL d   1      -3.495  -1.068   1.846  0.00  0.00    -0.005 A 
ATOM      4  C3  UNL d   1      -3.339  -2.427   1.573  0.00  0.00     0.006 A 
ATOM      5  C4  UNL d   1      -2.063  -2.980   1.467  0.00  0.00    -0.005 A 
ATOM      6  C5  UNL d   1      -0.929  -2.178   1.633  0.00  0.00    -0.074 A 
ATOM      7  C6  UNL d   1       0.450  -2.755   1.513  0.00  0.00     0.077 C 
ATOM      8  C7  UNL d   1      -1.094  -0.812   1.900  0.00  0.00    -0.001 A 
ENDROOT
TORSDOF 0
ENDMDL
