MODEL 1
REMARK minimizedAffinity -5.07763386
REMARK minimizedRMSD -1
REMARK  0 active torsions:
REMARK  status: ('A' for Active; 'I' for Inactive)
ROOT
ATOM      1  C   UNL d   1      -1.213   6.000  -2.336  0.00  0.00     0.077 C 
ATOM      2  C1  UNL d   1      -1.798   4.666  -2.695  0.00  0.00    -0.074 A 
ATOM      3  C2  UNL d   1      -1.051   3.721  -3.405  0.00  0.00    -0.005 A 
ATOM      4  C3  UNL d   1      -1.606   2.482  -3.724  0.00  0.00     0.006 A 
ATOM      5  C4  UNL d   1      -2.911   2.175  -3.337  0.00  0.00    -0.005 A 
ATOM      6  C5  UNL d   1      -3.673   3.107  -2.625  0.00  0.00    -0.074 A 
ATOM      7  C6  UNL d   1      -5.073   2.790  -2.192  0.00  0.00     0.077 C 
ATOM      8  C7  UNL d   1      -3.106   4.348  -2.302  0.00  0.00    -0.001 A 
ENDROOT
TORSDOF 0
ENDMDL
