MODEL 1
REMARK minimizedAffinity 4.88812923
REMARK minimizedRMSD -1
REMARK  0 active torsions:
REMARK  status: ('A' for Active; 'I' for Inactive)
ROOT
ATOM      1  C   UNL d   1       2.067   2.218  -0.499  0.00  0.00     0.077 C 
ATOM      2  C1  UNL d   1       1.823   0.809  -0.044  0.00  0.00    -0.074 A 
ATOM      3  C2  UNL d   1       1.151   0.547   1.154  0.00  0.00    -0.005 A 
ATOM      4  C3  UNL d   1       0.923  -0.767   1.560  0.00  0.00     0.006 A 
ATOM      5  C4  UNL d   1       1.364  -1.832   0.773  0.00  0.00    -0.005 A 
ATOM      6  C5  UNL d   1       2.038  -1.589  -0.429  0.00  0.00    -0.074 A 
ATOM      7  C6  UNL d   1       2.510  -2.722  -1.291  0.00  0.00     0.077 C 
ATOM      8  C7  UNL d   1       2.257  -0.265  -0.833  0.00  0.00    -0.001 A 
ENDROOT
TORSDOF 0
ENDMDL
