MODEL 1
REMARK minimizedAffinity -0.99488008
REMARK minimizedRMSD -1
REMARK  0 active torsions:
REMARK  status: ('A' for Active; 'I' for Inactive)
ROOT
ATOM      1  C   UNL d   1       0.427  -1.855   1.655  0.00  0.00     0.077 C 
ATOM      2  C1  UNL d   1       1.177  -0.912   0.762  0.00  0.00    -0.074 A 
ATOM      3  C2  UNL d   1       0.965   0.468   0.834  0.00  0.00    -0.005 A 
ATOM      4  C3  UNL d   1       1.677   1.334   0.003  0.00  0.00     0.006 A 
ATOM      5  C4  UNL d   1       2.606   0.828  -0.907  0.00  0.00    -0.005 A 
ATOM      6  C5  UNL d   1       2.832  -0.549  -0.992  0.00  0.00    -0.074 A 
ATOM      7  C6  UNL d   1       3.835  -1.109  -1.958  0.00  0.00     0.077 C 
ATOM      8  C7  UNL d   1       2.118  -1.412  -0.149  0.00  0.00    -0.001 A 
ENDROOT
TORSDOF 0
ENDMDL
