MODEL 1
REMARK minimizedAffinity -1.77476776
REMARK minimizedRMSD -1
REMARK  0 active torsions:
REMARK  status: ('A' for Active; 'I' for Inactive)
ROOT
ATOM      1  C   UNL d   1       1.991   1.226  -1.162  0.00  0.00     0.077 C 
ATOM      2  C1  UNL d   1       1.587   0.070  -0.296  0.00  0.00    -0.074 A 
ATOM      3  C2  UNL d   1       1.991  -1.233  -0.602  0.00  0.00    -0.005 A 
ATOM      4  C3  UNL d   1       1.616  -2.296   0.219  0.00  0.00     0.006 A 
ATOM      5  C4  UNL d   1       0.834  -2.068   1.352  0.00  0.00    -0.005 A 
ATOM      6  C5  UNL d   1       0.421  -0.771   1.674  0.00  0.00    -0.074 A 
ATOM      7  C6  UNL d   1      -0.411  -0.506   2.894  0.00  0.00     0.077 C 
ATOM      8  C7  UNL d   1       0.808   0.293   0.848  0.00  0.00    -0.001 A 
ENDROOT
TORSDOF 0
ENDMDL
