MODEL 1
REMARK minimizedAffinity -4.41812611
REMARK minimizedRMSD -1
REMARK  0 active torsions:
REMARK  status: ('A' for Active; 'I' for Inactive)
ROOT
ATOM      1  C   UNL d   1       3.465  -1.379  -1.889  0.00  0.00     0.077 C 
ATOM      2  C1  UNL d   1       2.455  -0.683  -1.026  0.00  0.00    -0.074 A 
ATOM      3  C2  UNL d   1       2.227   0.692  -1.152  0.00  0.00    -0.005 A 
ATOM      4  C3  UNL d   1       1.278   1.324  -0.349  0.00  0.00     0.006 A 
ATOM      5  C4  UNL d   1       0.549   0.590   0.587  0.00  0.00    -0.005 A 
ATOM      6  C5  UNL d   1       0.762  -0.785   0.727  0.00  0.00    -0.074 A 
ATOM      7  C6  UNL d   1      -0.020  -1.590   1.721  0.00  0.00     0.077 C 
ATOM      8  C7  UNL d   1       1.713  -1.414  -0.089  0.00  0.00    -0.001 A 
ENDROOT
TORSDOF 0
ENDMDL
