MODEL 1
REMARK minimizedAffinity 0.250810623
REMARK minimizedRMSD -1
REMARK  0 active torsions:
REMARK  status: ('A' for Active; 'I' for Inactive)
ROOT
ATOM      1  C   UNL d   1       3.324   1.908  -1.065  0.00  0.00     0.077 C 
ATOM      2  C1  UNL d   1       2.914   0.466  -1.019  0.00  0.00    -0.074 A 
ATOM      3  C2  UNL d   1       3.527  -0.482  -1.845  0.00  0.00    -0.005 A 
ATOM      4  C3  UNL d   1       3.142  -1.822  -1.783  0.00  0.00     0.006 A 
ATOM      5  C4  UNL d   1       2.143  -2.226  -0.897  0.00  0.00    -0.005 A 
ATOM      6  C5  UNL d   1       1.520  -1.292  -0.062  0.00  0.00    -0.074 A 
ATOM      7  C6  UNL d   1       0.451  -1.711   0.903  0.00  0.00     0.077 C 
ATOM      8  C7  UNL d   1       1.917   0.051  -0.125  0.00  0.00    -0.001 A 
ENDROOT
TORSDOF 0
ENDMDL
