MODEL 1
REMARK minimizedAffinity 4.12373257
REMARK minimizedRMSD -1
REMARK  0 active torsions:
REMARK  status: ('A' for Active; 'I' for Inactive)
ROOT
ATOM      1  C   UNL d   1      -0.747   6.000  -1.714  0.00  0.00     0.077 C 
ATOM      2  C1  UNL d   1      -0.719   4.713  -2.485  0.00  0.00    -0.074 A 
ATOM      3  C2  UNL d   1       0.474   4.005  -2.659  0.00  0.00    -0.005 A 
ATOM      4  C3  UNL d   1       0.483   2.805  -3.370  0.00  0.00     0.006 A 
ATOM      5  C4  UNL d   1      -0.700   2.302  -3.912  0.00  0.00    -0.005 A 
ATOM      6  C5  UNL d   1      -1.903   2.995  -3.748  0.00  0.00    -0.074 A 
ATOM      7  C6  UNL d   1      -3.185   2.463  -4.316  0.00  0.00     0.077 C 
ATOM      8  C7  UNL d   1      -1.905   4.197  -3.026  0.00  0.00    -0.001 A 
ENDROOT
TORSDOF 0
ENDMDL
