MODEL 1
REMARK minimizedAffinity -2.42298865
REMARK minimizedRMSD -1
REMARK  0 active torsions:
REMARK  status: ('A' for Active; 'I' for Inactive)
ROOT
ATOM      1  C   UNL d   1       2.986  -1.546  -1.754  0.00  0.00     0.077 C 
ATOM      2  C1  UNL d   1       2.135  -0.863  -0.725  0.00  0.00    -0.074 A 
ATOM      3  C2  UNL d   1       1.934   0.521  -0.762  0.00  0.00    -0.005 A 
ATOM      4  C3  UNL d   1       1.133   1.141   0.196  0.00  0.00     0.006 A 
ATOM      5  C4  UNL d   1       0.525   0.386   1.200  0.00  0.00    -0.005 A 
ATOM      6  C5  UNL d   1       0.714  -0.999   1.253  0.00  0.00    -0.074 A 
ATOM      7  C6  UNL d   1       0.060  -1.827   2.319  0.00  0.00     0.077 C 
ATOM      8  C7  UNL d   1       1.515  -1.616   0.282  0.00  0.00    -0.001 A 
ENDROOT
TORSDOF 0
ENDMDL
