MODEL 1
REMARK minimizedAffinity -3.71715569
REMARK minimizedRMSD -1
REMARK  0 active torsions:
REMARK  status: ('A' for Active; 'I' for Inactive)
ROOT
ATOM      1  C   UNL d   1      -2.352  -1.953   1.732  0.00  0.00     0.077 C 
ATOM      2  C1  UNL d   1      -0.956  -1.406   1.714  0.00  0.00    -0.074 A 
ATOM      3  C2  UNL d   1      -0.506  -0.553   2.728  0.00  0.00    -0.005 A 
ATOM      4  C3  UNL d   1       0.799  -0.060   2.703  0.00  0.00     0.006 A 
ATOM      5  C4  UNL d   1       1.664  -0.413   1.667  0.00  0.00    -0.005 A 
ATOM      6  C5  UNL d   1       1.232  -1.265   0.646  0.00  0.00    -0.074 A 
ATOM      7  C6  UNL d   1       2.152  -1.662  -0.470  0.00  0.00     0.077 C 
ATOM      8  C7  UNL d   1      -0.078  -1.762   0.681  0.00  0.00    -0.001 A 
ENDROOT
TORSDOF 0
ENDMDL
