MODEL 1
REMARK minimizedAffinity -2.43116593
REMARK minimizedRMSD -1
REMARK  0 active torsions:
REMARK  status: ('A' for Active; 'I' for Inactive)
ROOT
ATOM      1  C   UNL d   1      -1.252  -2.377   1.277  0.00  0.00     0.077 C 
ATOM      2  C1  UNL d   1      -0.052  -1.535   0.957  0.00  0.00    -0.074 A 
ATOM      3  C2  UNL d   1       0.166  -0.317   1.611  0.00  0.00    -0.005 A 
ATOM      4  C3  UNL d   1       1.291   0.450   1.310  0.00  0.00     0.006 A 
ATOM      5  C4  UNL d   1       2.207   0.009   0.354  0.00  0.00    -0.005 A 
ATOM      6  C5  UNL d   1       2.006  -1.206  -0.309  0.00  0.00    -0.074 A 
ATOM      7  C6  UNL d   1       2.986  -1.699  -1.331  0.00  0.00     0.077 C 
ATOM      8  C7  UNL d   1       0.877  -1.975   0.004  0.00  0.00    -0.001 A 
ENDROOT
TORSDOF 0
ENDMDL
