MODEL 1
REMARK minimizedAffinity -2.31973314
REMARK minimizedRMSD -1
REMARK  0 active torsions:
REMARK  status: ('A' for Active; 'I' for Inactive)
ROOT
ATOM      1  C   UNL d   1       2.942  -1.480  -1.747  0.00  0.00     0.077 C 
ATOM      2  C1  UNL d   1       2.220  -0.662  -0.717  0.00  0.00    -0.074 A 
ATOM      3  C2  UNL d   1       2.600   0.658  -0.453  0.00  0.00    -0.005 A 
ATOM      4  C3  UNL d   1       1.913   1.410   0.500  0.00  0.00     0.006 A 
ATOM      5  C4  UNL d   1       0.843   0.850   1.199  0.00  0.00    -0.005 A 
ATOM      6  C5  UNL d   1       0.449  -0.468   0.948  0.00  0.00    -0.074 A 
ATOM      7  C6  UNL d   1      -0.706  -1.082   1.682  0.00  0.00     0.077 C 
ATOM      8  C7  UNL d   1       1.139  -1.215  -0.017  0.00  0.00    -0.001 A 
ENDROOT
TORSDOF 0
ENDMDL
