MODEL 1
REMARK minimizedAffinity -1.47693992
REMARK minimizedRMSD -1
REMARK  0 active torsions:
REMARK  status: ('A' for Active; 'I' for Inactive)
ROOT
ATOM      1  C   UNL d   1       3.521   1.401  -2.101  0.00  0.00     0.077 C 
ATOM      2  C1  UNL d   1       2.895   0.254  -1.365  0.00  0.00    -0.074 A 
ATOM      3  C2  UNL d   1       3.339  -1.057  -1.565  0.00  0.00    -0.005 A 
ATOM      4  C3  UNL d   1       2.754  -2.113  -0.866  0.00  0.00     0.006 A 
ATOM      5  C4  UNL d   1       1.720  -1.869   0.039  0.00  0.00    -0.005 A 
ATOM      6  C5  UNL d   1       1.263  -0.565   0.253  0.00  0.00    -0.074 A 
ATOM      7  C6  UNL d   1       0.159  -0.284   1.229  0.00  0.00     0.077 C 
ATOM      8  C7  UNL d   1       1.861   0.492  -0.448  0.00  0.00    -0.001 A 
ENDROOT
TORSDOF 0
ENDMDL
