MODEL 1
REMARK minimizedAffinity -2.28222442
REMARK minimizedRMSD -1
REMARK  0 active torsions:
REMARK  status: ('A' for Active; 'I' for Inactive)
ROOT
ATOM      1  C   UNL d   1      -0.256  -1.441   1.648  0.00  0.00     0.077 C 
ATOM      2  C1  UNL d   1       0.684  -0.599   0.837  0.00  0.00    -0.074 A 
ATOM      3  C2  UNL d   1       1.124  -1.022  -0.421  0.00  0.00    -0.005 A 
ATOM      4  C3  UNL d   1       1.991  -0.225  -1.168  0.00  0.00     0.006 A 
ATOM      5  C4  UNL d   1       2.426   1.002  -0.665  0.00  0.00    -0.005 A 
ATOM      6  C5  UNL d   1       1.996   1.442   0.591  0.00  0.00    -0.074 A 
ATOM      7  C6  UNL d   1       2.446   2.762   1.142  0.00  0.00     0.077 C 
ATOM      8  C7  UNL d   1       1.119   0.638   1.332  0.00  0.00    -0.001 A 
ENDROOT
TORSDOF 0
ENDMDL
