MODEL 1
REMARK minimizedAffinity -2.95454502
REMARK minimizedRMSD -1
REMARK  0 active torsions:
REMARK  status: ('A' for Active; 'I' for Inactive)
ROOT
ATOM      1  C   UNL d   1       2.983  -1.732  -2.191  0.00  0.00     0.077 C 
ATOM      2  C1  UNL d   1       2.410  -0.753  -1.209  0.00  0.00    -0.074 A 
ATOM      3  C2  UNL d   1       2.762   0.600  -1.255  0.00  0.00    -0.005 A 
ATOM      4  C3  UNL d   1       2.213   1.501  -0.342  0.00  0.00     0.006 A 
ATOM      5  C4  UNL d   1       1.310   1.058   0.625  0.00  0.00    -0.005 A 
ATOM      6  C5  UNL d   1       0.947  -0.291   0.686  0.00  0.00    -0.074 A 
ATOM      7  C6  UNL d   1      -0.030  -0.782   1.713  0.00  0.00     0.077 C 
ATOM      8  C7  UNL d   1       1.496  -1.188  -0.240  0.00  0.00    -0.001 A 
ENDROOT
TORSDOF 0
ENDMDL
