MODEL 1
REMARK minimizedAffinity 10.7280283
REMARK minimizedRMSD -1
REMARK  3 active torsions:
REMARK  status: ('A' for Active; 'I' for Inactive)
REMARK    1  A    between atoms: C3'_2  and  C2'_3 
REMARK    2  A    between atoms: C2'_3  and  C1'_4 
REMARK    3  A    between atoms: C1'_4  and  C1_5 
ROOT
ATOM      1  C1  N4B d   1       1.681  -2.555  -0.859  0.00  0.00    -0.075 A 
ATOM      2  C2  N4B d   1       0.984  -2.274  -2.055  0.00  0.00     0.002 A 
ATOM      3  C3  N4B d   1      -0.102  -3.035  -2.411  0.00  0.00     0.002 A 
ATOM      4  C4  N4B d   1      -0.496  -4.089  -1.600  0.00  0.00    -0.004 A 
ATOM      5  C5  N4B d   1       0.167  -4.338  -0.434  0.00  0.00     0.002 A 
ATOM      6  C6  N4B d   1       1.258  -3.578  -0.062  0.00  0.00     0.002 A 
ENDROOT
BRANCH   1   7
ATOM      7  C1' N4B d   1       2.926  -1.805  -0.471  0.00  0.00     0.057 C 
BRANCH   7   8
ATOM      8  C2' N4B d   1       2.787  -0.347  -0.898  0.00  0.00     0.009 C 
BRANCH   8   9
ATOM      9  C3' N4B d   1       3.915   0.514  -0.358  0.00  0.00     0.004 C 
ATOM     10  C4' N4B d   1       4.719   1.167  -1.443  0.00  0.00     0.003 C 
ENDBRANCH   8   9
ENDBRANCH   7   8
ENDBRANCH   1   7
TORSDOF 3
ENDMDL
