MODEL 1
REMARK minimizedAffinity 0.0105176922
REMARK minimizedRMSD -1
REMARK  3 active torsions:
REMARK  status: ('A' for Active; 'I' for Inactive)
REMARK    1  A    between atoms: C3'_2  and  C2'_3 
REMARK    2  A    between atoms: C2'_3  and  C1'_4 
REMARK    3  A    between atoms: C1'_4  and  C1_5 
ROOT
ATOM      1  C1  N4B d   1       1.975   1.765   0.922  0.00  0.00    -0.075 A 
ATOM      2  C2  N4B d   1       1.697   1.664   2.303  0.00  0.00     0.002 A 
ATOM      3  C3  N4B d   1       0.418   1.401   2.728  0.00  0.00     0.002 A 
ATOM      4  C4  N4B d   1      -0.598   1.255   1.795  0.00  0.00    -0.004 A 
ATOM      5  C5  N4B d   1      -0.316   1.329   0.463  0.00  0.00     0.002 A 
ATOM      6  C6  N4B d   1       0.965   1.589   0.021  0.00  0.00     0.002 A 
ENDROOT
BRANCH   1   7
ATOM      7  C1' N4B d   1       3.341   2.136   0.412  0.00  0.00     0.057 C 
BRANCH   7   8
ATOM      8  C2' N4B d   1       3.856   1.024  -0.496  0.00  0.00     0.009 C 
BRANCH   8   9
ATOM      9  C3' N4B d   1       5.374   0.988  -0.547  0.00  0.00     0.004 C 
ATOM     10  C4' N4B d   1       6.000   2.284  -0.126  0.00  0.00     0.003 C 
ENDBRANCH   8   9
ENDBRANCH   7   8
ENDBRANCH   1   7
TORSDOF 3
ENDMDL
