MODEL 1
REMARK minimizedAffinity 5.91866255
REMARK minimizedRMSD -1
REMARK  3 active torsions:
REMARK  status: ('A' for Active; 'I' for Inactive)
REMARK    1  A    between atoms: C3'_2  and  C2'_3 
REMARK    2  A    between atoms: C2'_3  and  C1'_4 
REMARK    3  A    between atoms: C1'_4  and  C1_5 
ROOT
ATOM      1  C1  N4B d   1       3.197  -0.640  -0.714  0.00  0.00    -0.075 A 
ATOM      2  C2  N4B d   1       2.365  -1.480   0.058  0.00  0.00     0.002 A 
ATOM      3  C3  N4B d   1       1.973  -2.700  -0.437  0.00  0.00     0.002 A 
ATOM      4  C4  N4B d   1       2.383  -3.090  -1.703  0.00  0.00    -0.004 A 
ATOM      5  C5  N4B d   1       3.207  -2.284  -2.431  0.00  0.00     0.002 A 
ATOM      6  C6  N4B d   1       3.612  -1.057  -1.945  0.00  0.00     0.002 A 
ENDROOT
BRANCH   1   7
ATOM      7  C1' N4B d   1       3.581   0.739  -0.251  0.00  0.00     0.057 C 
BRANCH   7   8
ATOM      8  C2' N4B d   1       4.845   1.179  -0.984  0.00  0.00     0.009 C 
BRANCH   8   9
ATOM      9  C3' N4B d   1       5.876   1.767  -0.037  0.00  0.00     0.004 C 
ATOM     10  C4' N4B d   1       5.945   3.264  -0.109  0.00  0.00     0.003 C 
ENDBRANCH   8   9
ENDBRANCH   7   8
ENDBRANCH   1   7
TORSDOF 3
ENDMDL
