MODEL 1
REMARK minimizedAffinity 9.09156418
REMARK minimizedRMSD -1
REMARK  3 active torsions:
REMARK  status: ('A' for Active; 'I' for Inactive)
REMARK    1  A    between atoms: C3'_2  and  C2'_3 
REMARK    2  A    between atoms: C2'_3  and  C1'_4 
REMARK    3  A    between atoms: C1'_4  and  C1_5 
ROOT
ATOM      1  C1  N4B d   1       2.758   1.439   0.201  0.00  0.00    -0.075 A 
ATOM      2  C2  N4B d   1       3.575   2.511   0.623  0.00  0.00     0.002 A 
ATOM      3  C3  N4B d   1       4.926   2.483   0.379  0.00  0.00     0.002 A 
ATOM      4  C4  N4B d   1       5.484   1.389  -0.266  0.00  0.00    -0.004 A 
ATOM      5  C5  N4B d   1       4.684   0.369  -0.693  0.00  0.00     0.002 A 
ATOM      6  C6  N4B d   1       3.324   0.386  -0.458  0.00  0.00     0.002 A 
ENDROOT
BRANCH   1   7
ATOM      7  C1' N4B d   1       1.290   1.386   0.521  0.00  0.00     0.057 C 
BRANCH   7   8
ATOM      8  C2' N4B d   1       1.111   1.156   2.018  0.00  0.00     0.009 C 
BRANCH   8   9
ATOM      9  C3' N4B d   1      -0.260   1.595   2.501  0.00  0.00     0.004 C 
ATOM     10  C4' N4B d   1      -1.193   1.930   1.376  0.00  0.00     0.003 C 
ENDBRANCH   8   9
ENDBRANCH   7   8
ENDBRANCH   1   7
TORSDOF 3
ENDMDL
