MODEL 1
REMARK minimizedAffinity 5.16356802
REMARK minimizedRMSD -1
REMARK  3 active torsions:
REMARK  status: ('A' for Active; 'I' for Inactive)
REMARK    1  A    between atoms: C3'_2  and  C2'_3 
REMARK    2  A    between atoms: C2'_3  and  C1'_4 
REMARK    3  A    between atoms: C1'_4  and  C1_5 
ROOT
ATOM      1  C1  N4B d   1       0.614   1.273   0.806  0.00  0.00    -0.075 A 
ATOM      2  C2  N4B d   1       1.044   0.785   2.059  0.00  0.00     0.002 A 
ATOM      3  C3  N4B d   1       0.337   1.094   3.196  0.00  0.00     0.002 A 
ATOM      4  C4  N4B d   1      -0.787   1.902   3.106  0.00  0.00    -0.004 A 
ATOM      5  C5  N4B d   1      -1.210   2.348   1.888  0.00  0.00     0.002 A 
ATOM      6  C6  N4B d   1      -0.512   2.042   0.737  0.00  0.00     0.002 A 
ENDROOT
BRANCH   1   7
ATOM      7  C1' N4B d   1       1.402   1.032  -0.453  0.00  0.00     0.057 C 
BRANCH   7   8
ATOM      8  C2' N4B d   1       2.748   0.412  -0.090  0.00  0.00     0.009 C 
BRANCH   8   9
ATOM      9  C3' N4B d   1       3.746   0.514  -1.230  0.00  0.00     0.004 C 
ATOM     10  C4' N4B d   1       5.128   0.863  -0.762  0.00  0.00     0.003 C 
ENDBRANCH   8   9
ENDBRANCH   7   8
ENDBRANCH   1   7
TORSDOF 3
ENDMDL
