MODEL 1
REMARK minimizedAffinity 2.16770101
REMARK minimizedRMSD -1
REMARK  1 active torsions:
REMARK  status: ('A' for Active; 'I' for Inactive)
REMARK    1  A    between atoms: C1_2  and  C2_3 
ROOT
ATOM      1  C2  UNL d   1      -4.120  -0.031  -4.388  0.00  0.00    -0.076 A 
ATOM      2  C3  UNL d   1      -4.029  -0.804  -3.217  0.00  0.00     0.004 A 
ATOM      3  C4  UNL d   1      -2.878  -0.786  -2.432  0.00  0.00    -0.003 A 
ATOM      4  C5  UNL d   1      -1.798   0.007  -2.805  0.00  0.00     0.000 A 
ATOM      5  C6  UNL d   1      -1.876   0.794  -3.953  0.00  0.00     0.000 A 
ATOM      6  C7  UNL d   1      -3.036   0.799  -4.747  0.00  0.00    -0.073 A 
ATOM      7  C8  UNL d   1      -3.065   1.663  -5.978  0.00  0.00     0.078 C 
ENDROOT
BRANCH   1   8
ATOM      8  C1  UNL d   1      -5.384  -0.112  -5.213  0.00  0.00     0.053 C 
ATOM      9  C   UNL d   1      -5.970  -1.515  -5.244  0.00  0.00     0.018 C 
ENDBRANCH   1   8
TORSDOF 1
ENDMDL
