MODEL 1
REMARK minimizedAffinity 8.3880024
REMARK minimizedRMSD -1
REMARK  1 active torsions:
REMARK  status: ('A' for Active; 'I' for Inactive)
REMARK    1  A    between atoms: C1_2  and  C2_3 
ROOT
ATOM      1  C2  UNL d   1       4.844   0.769  -0.154  0.00  0.00    -0.076 A 
ATOM      2  C3  UNL d   1       5.188   1.545   0.967  0.00  0.00     0.004 A 
ATOM      3  C4  UNL d   1       5.759   2.807   0.817  0.00  0.00    -0.003 A 
ATOM      4  C5  UNL d   1       5.996   3.314  -0.456  0.00  0.00     0.000 A 
ATOM      5  C6  UNL d   1       5.645   2.566  -1.579  0.00  0.00     0.000 A 
ATOM      6  C7  UNL d   1       5.053   1.298  -1.445  0.00  0.00    -0.073 A 
ATOM      7  C8  UNL d   1       4.701   0.531  -2.690  0.00  0.00     0.078 C 
ENDROOT
BRANCH   1   8
ATOM      8  C1  UNL d   1       4.252  -0.605   0.070  0.00  0.00     0.053 C 
ATOM      9  C   UNL d   1       2.882  -0.760  -0.571  0.00  0.00     0.018 C 
ENDBRANCH   1   8
TORSDOF 1
ENDMDL
