MODEL 1
REMARK minimizedAffinity 9.21968269
REMARK minimizedRMSD -1
REMARK  1 active torsions:
REMARK  status: ('A' for Active; 'I' for Inactive)
REMARK    1  A    between atoms: C1_2  and  C2_3 
ROOT
ATOM      1  C2  UNL d   1       1.061   0.846  -0.133  0.00  0.00    -0.076 A 
ATOM      2  C3  UNL d   1       1.489   1.333   1.114  0.00  0.00     0.004 A 
ATOM      3  C4  UNL d   1       0.707   2.230   1.840  0.00  0.00    -0.003 A 
ATOM      4  C5  UNL d   1      -0.516   2.653   1.331  0.00  0.00     0.000 A 
ATOM      5  C6  UNL d   1      -0.964   2.166   0.103  0.00  0.00     0.000 A 
ATOM      6  C7  UNL d   1      -0.195   1.249  -0.634  0.00  0.00    -0.073 A 
ATOM      7  C8  UNL d   1      -0.724   0.762  -1.955  0.00  0.00     0.078 C 
ENDROOT
BRANCH   1   8
ATOM      8  C1  UNL d   1       1.964  -0.104  -0.888  0.00  0.00     0.053 C 
ATOM      9  C   UNL d   1       3.432   0.283  -0.786  0.00  0.00     0.018 C 
ENDBRANCH   1   8
TORSDOF 1
ENDMDL
