MODEL 1
REMARK minimizedAffinity 10.0014629
REMARK minimizedRMSD -1
REMARK  1 active torsions:
REMARK  status: ('A' for Active; 'I' for Inactive)
REMARK    1  A    between atoms: C1_2  and  C2_3 
ROOT
ATOM      1  C2  UNL d   1       5.037   1.355  -0.105  0.00  0.00    -0.076 A 
ATOM      2  C3  UNL d   1       4.782   2.042  -1.305  0.00  0.00     0.004 A 
ATOM      3  C4  UNL d   1       5.121   3.387  -1.447  0.00  0.00    -0.003 A 
ATOM      4  C5  UNL d   1       5.721   4.066  -0.393  0.00  0.00     0.000 A 
ATOM      5  C6  UNL d   1       5.996   3.396   0.799  0.00  0.00     0.000 A 
ATOM      6  C7  UNL d   1       5.676   2.036   0.953  0.00  0.00    -0.073 A 
ATOM      7  C8  UNL d   1       5.990   1.364   2.262  0.00  0.00     0.078 C 
ENDROOT
BRANCH   1   8
ATOM      8  C1  UNL d   1       4.622  -0.095   0.001  0.00  0.00     0.053 C 
ATOM      9  C   UNL d   1       3.280  -0.368  -0.661  0.00  0.00     0.018 C 
ENDBRANCH   1   8
TORSDOF 1
ENDMDL
