MODEL 1
REMARK minimizedAffinity 10.1003704
REMARK minimizedRMSD -1
REMARK  1 active torsions:
REMARK  status: ('A' for Active; 'I' for Inactive)
REMARK    1  A    between atoms: C1_2  and  C2_3 
ROOT
ATOM      1  C2  UNL d   1       1.298   4.415   2.716  0.00  0.00    -0.076 A 
ATOM      2  C3  UNL d   1       0.038   4.545   2.107  0.00  0.00     0.004 A 
ATOM      3  C4  UNL d   1      -0.590   3.450   1.517  0.00  0.00    -0.003 A 
ATOM      4  C5  UNL d   1       0.031   2.206   1.527  0.00  0.00     0.000 A 
ATOM      5  C6  UNL d   1       1.273   2.054   2.143  0.00  0.00     0.000 A 
ATOM      6  C7  UNL d   1       1.912   3.145   2.757  0.00  0.00    -0.073 A 
ATOM      7  C8  UNL d   1       3.254   2.926   3.401  0.00  0.00     0.078 C 
ENDROOT
BRANCH   1   8
ATOM      8  C1  UNL d   1       1.943   5.644   3.316  0.00  0.00     0.053 C 
ATOM      9  C   UNL d   1       1.368   5.997   4.679  0.00  0.00     0.018 C 
ENDBRANCH   1   8
TORSDOF 1
ENDMDL
