MODEL 1
REMARK minimizedAffinity 14.6709471
REMARK minimizedRMSD -1
REMARK  1 active torsions:
REMARK  status: ('A' for Active; 'I' for Inactive)
REMARK    1  A    between atoms: C1_2  and  C2_3 
ROOT
ATOM      1  C2  UNL d   1       2.983   0.051  -1.041  0.00  0.00    -0.076 A 
ATOM      2  C3  UNL d   1       3.706   0.982  -1.807  0.00  0.00     0.004 A 
ATOM      3  C4  UNL d   1       5.024   1.303  -1.489  0.00  0.00    -0.003 A 
ATOM      4  C5  UNL d   1       5.641   0.699  -0.399  0.00  0.00     0.000 A 
ATOM      5  C6  UNL d   1       4.945  -0.239   0.362  0.00  0.00     0.000 A 
ATOM      6  C7  UNL d   1       3.620  -0.587   0.045  0.00  0.00    -0.073 A 
ATOM      7  C8  UNL d   1       2.915  -1.601   0.903  0.00  0.00     0.078 C 
ENDROOT
BRANCH   1   8
ATOM      8  C1  UNL d   1       1.547  -0.237  -1.417  0.00  0.00     0.053 C 
ATOM      9  C   UNL d   1       0.571   0.745  -0.788  0.00  0.00     0.018 C 
ENDBRANCH   1   8
TORSDOF 1
ENDMDL
