MODEL 1
REMARK minimizedAffinity -0.732192695
REMARK minimizedRMSD -1
REMARK  0 active torsions:
REMARK  status: ('A' for Active; 'I' for Inactive)
ROOT
ATOM      1  C2' OXE d   1       0.096  -1.589  -0.758  0.00  0.00     0.078 C 
ATOM      2  C1' OXE d   1      -0.099   0.877  -2.084  0.00  0.00     0.078 C 
ATOM      3  C1  OXE d   1      -0.031   0.892  -0.578  0.00  0.00    -0.078 A 
ATOM      4  C2  OXE d   1       0.017  -0.322   0.065  0.00  0.00    -0.078 A 
ATOM      5  C3  OXE d   1       0.137  -0.364   1.451  0.00  0.00     0.003 A 
ATOM      6  C4  OXE d   1       0.053   0.813   2.206  0.00  0.00    -0.002 A 
ATOM      7  C5  OXE d   1      -0.036   2.057   1.573  0.00  0.00    -0.002 A 
ATOM      8  C6  OXE d   1      -0.036   2.117   0.183  0.00  0.00     0.003 A 
ENDROOT
TORSDOF 0
ENDMDL
