MODEL 1
REMARK minimizedAffinity -2.05677772
REMARK minimizedRMSD -1
REMARK  0 active torsions:
REMARK  status: ('A' for Active; 'I' for Inactive)
ROOT
ATOM      1  C2' OXE d   1      -1.222   2.506  -1.726  0.00  0.00     0.078 C 
ATOM      2  C1' OXE d   1      -0.767   2.791   1.029  0.00  0.00     0.078 C 
ATOM      3  C1  OXE d   1      -0.168   1.592   0.337  0.00  0.00    -0.078 A 
ATOM      4  C2  OXE d   1      -0.435   1.436  -1.002  0.00  0.00    -0.078 A 
ATOM      5  C3  OXE d   1       0.139   0.377  -1.700  0.00  0.00     0.003 A 
ATOM      6  C4  OXE d   1       0.858  -0.614  -1.020  0.00  0.00    -0.002 A 
ATOM      7  C5  OXE d   1       1.108  -0.495   0.351  0.00  0.00    -0.002 A 
ATOM      8  C6  OXE d   1       0.639   0.621   1.035  0.00  0.00     0.003 A 
ENDROOT
TORSDOF 0
ENDMDL
