MODEL 1
REMARK minimizedAffinity -1.79646099
REMARK minimizedRMSD -1
REMARK  0 active torsions:
REMARK  status: ('A' for Active; 'I' for Inactive)
ROOT
ATOM      1  C2' OXE d   1       0.538  -1.450  -0.819  0.00  0.00     0.078 C 
ATOM      2  C1' OXE d   1       0.008   1.001  -2.082  0.00  0.00     0.078 C 
ATOM      3  C1  OXE d   1       0.162   1.001  -0.581  0.00  0.00    -0.078 A 
ATOM      4  C2  OXE d   1       0.375  -0.210   0.033  0.00  0.00    -0.078 A 
ATOM      5  C3  OXE d   1       0.579  -0.258   1.409  0.00  0.00     0.003 A 
ATOM      6  C4  OXE d   1       0.417   0.892   2.191  0.00  0.00    -0.002 A 
ATOM      7  C5  OXE d   1       0.161   2.129   1.589  0.00  0.00    -0.002 A 
ATOM      8  C6  OXE d   1       0.073   2.208   0.204  0.00  0.00     0.003 A 
ENDROOT
TORSDOF 0
ENDMDL
