MODEL 1
REMARK minimizedAffinity -4.54960203
REMARK minimizedRMSD -1
REMARK  0 active torsions:
REMARK  status: ('A' for Active; 'I' for Inactive)
ROOT
ATOM      1  C2' OXE d   1       0.803  -0.506   1.946  0.00  0.00     0.078 C 
ATOM      2  C1' OXE d   1       0.742  -0.552  -0.860  0.00  0.00     0.078 C 
ATOM      3  C1  OXE d   1       0.081   0.609  -0.162  0.00  0.00    -0.078 A 
ATOM      4  C2  OXE d   1       0.075   0.600   1.212  0.00  0.00    -0.078 A 
ATOM      5  C3  OXE d   1      -0.474   1.675   1.907  0.00  0.00     0.003 A 
ATOM      6  C4  OXE d   1      -1.154   2.688   1.221  0.00  0.00    -0.002 A 
ATOM      7  C5  OXE d   1      -1.194   2.696  -0.177  0.00  0.00    -0.002 A 
ATOM      8  C6  OXE d   1      -0.546   1.689  -0.883  0.00  0.00     0.003 A 
ENDROOT
TORSDOF 0
ENDMDL
