MODEL 1
REMARK minimizedAffinity -4.92644501
REMARK minimizedRMSD -1
REMARK  0 active torsions:
REMARK  status: ('A' for Active; 'I' for Inactive)
ROOT
ATOM      1  C2' OXE d   1       0.526  -0.219   2.275  0.00  0.00     0.078 C 
ATOM      2  C1' OXE d   1      -0.626  -0.702  -0.239  0.00  0.00     0.078 C 
ATOM      3  C1  OXE d   1      -0.591   0.722   0.257  0.00  0.00    -0.078 A 
ATOM      4  C2  OXE d   1      -0.068   0.943   1.508  0.00  0.00    -0.078 A 
ATOM      5  C3  OXE d   1       0.038   2.244   1.991  0.00  0.00     0.003 A 
ATOM      6  C4  OXE d   1      -0.523   3.312   1.280  0.00  0.00    -0.002 A 
ATOM      7  C5  OXE d   1      -1.097   3.103   0.021  0.00  0.00    -0.002 A 
ATOM      8  C6  OXE d   1      -1.101   1.823  -0.522  0.00  0.00     0.003 A 
ENDROOT
TORSDOF 0
ENDMDL
