MODEL 1
REMARK minimizedAffinity -6.4678216
REMARK minimizedRMSD -1
REMARK  0 active torsions:
REMARK  status: ('A' for Active; 'I' for Inactive)
ROOT
ATOM      1  C2' OXE d   1      -1.562   4.047   1.027  0.00  0.00     0.078 C 
ATOM      2  C1' OXE d   1      -0.487   3.167  -1.412  0.00  0.00     0.078 C 
ATOM      3  C1  OXE d   1      -0.391   2.240  -0.226  0.00  0.00    -0.078 A 
ATOM      4  C2  OXE d   1      -0.877   2.698   0.975  0.00  0.00    -0.078 A 
ATOM      5  C3  OXE d   1      -0.863   1.862   2.088  0.00  0.00     0.003 A 
ATOM      6  C4  OXE d   1      -0.219   0.620   2.033  0.00  0.00    -0.002 A 
ATOM      7  C5  OXE d   1       0.319   0.151   0.830  0.00  0.00    -0.002 A 
ATOM      8  C6  OXE d   1       0.204   0.930  -0.317  0.00  0.00     0.003 A 
ENDROOT
TORSDOF 0
ENDMDL
