MODEL 1
REMARK minimizedAffinity 1.52567899
REMARK minimizedRMSD -1
REMARK  1 active torsions:
REMARK  status: ('A' for Active; 'I' for Inactive)
REMARK    1  A    between atoms: C1_2  and  C2_3 
ROOT
ATOM      1  C2  UNL d   1      -4.326   5.904   3.329  0.00  0.00    -0.076 A 
ATOM      2  C3  UNL d   1      -4.868   5.910   4.626  0.00  0.00     0.004 A 
ATOM      3  C4  UNL d   1      -4.042   5.948   5.748  0.00  0.00    -0.003 A 
ATOM      4  C5  UNL d   1      -2.660   5.981   5.591  0.00  0.00     0.000 A 
ATOM      5  C6  UNL d   1      -2.107   5.994   4.311  0.00  0.00     0.000 A 
ATOM      6  C7  UNL d   1      -2.926   5.972   3.169  0.00  0.00    -0.073 A 
ATOM      7  C8  UNL d   1      -2.275   5.981   1.813  0.00  0.00     0.078 C 
ENDROOT
BRANCH   1   8
ATOM      8  C1  UNL d   1      -5.271   5.834   2.150  0.00  0.00     0.053 C 
ATOM      9  C   UNL d   1      -5.668   4.407   1.805  0.00  0.00     0.018 C 
ENDBRANCH   1   8
TORSDOF 1
ENDMDL
