MODEL 1
REMARK minimizedAffinity -1.13688493
REMARK minimizedRMSD -1
REMARK  1 active torsions:
REMARK  status: ('A' for Active; 'I' for Inactive)
REMARK    1  A    between atoms: C1_2  and  C2_3 
ROOT
ATOM      1  C2  UNL d   1      -4.846   5.400   3.547  0.00  0.00    -0.076 A 
ATOM      2  C3  UNL d   1      -5.250   5.309   4.890  0.00  0.00     0.004 A 
ATOM      3  C4  UNL d   1      -4.352   5.550   5.928  0.00  0.00    -0.003 A 
ATOM      4  C5  UNL d   1      -3.034   5.887   5.640  0.00  0.00     0.000 A 
ATOM      5  C6  UNL d   1      -2.620   6.000   4.313  0.00  0.00     0.000 A 
ATOM      6  C7  UNL d   1      -3.517   5.776   3.255  0.00  0.00    -0.073 A 
ATOM      7  C8  UNL d   1      -3.015   5.905   1.843  0.00  0.00     0.078 C 
ENDROOT
BRANCH   1   8
ATOM      8  C1  UNL d   1      -5.857   5.101   2.464  0.00  0.00     0.053 C 
ATOM      9  C   UNL d   1      -5.692   6.000   1.248  0.00  0.00     0.018 C 
ENDBRANCH   1   8
TORSDOF 1
ENDMDL
