MODEL 1
REMARK minimizedAffinity -0.267731667
REMARK minimizedRMSD -1
REMARK  1 active torsions:
REMARK  status: ('A' for Active; 'I' for Inactive)
REMARK    1  A    between atoms: C1_2  and  C2_3 
ROOT
ATOM      1  C2  UNL d   1      -3.757   4.835   3.199  0.00  0.00    -0.076 A 
ATOM      2  C3  UNL d   1      -3.949   5.997   3.967  0.00  0.00     0.004 A 
ATOM      3  C4  UNL d   1      -3.832   5.967   5.355  0.00  0.00    -0.003 A 
ATOM      4  C5  UNL d   1      -3.521   4.775   5.999  0.00  0.00     0.000 A 
ATOM      5  C6  UNL d   1      -3.310   3.616   5.252  0.00  0.00     0.000 A 
ATOM      6  C7  UNL d   1      -3.408   3.633   3.850  0.00  0.00    -0.073 A 
ATOM      7  C8  UNL d   1      -3.176   2.353   3.095  0.00  0.00     0.078 C 
ENDROOT
BRANCH   1   8
ATOM      8  C1  UNL d   1      -3.924   4.923   1.699  0.00  0.00     0.053 C 
ATOM      9  C   UNL d   1      -4.920   5.995   1.285  0.00  0.00     0.018 C 
ENDBRANCH   1   8
TORSDOF 1
ENDMDL
