MODEL 1
REMARK minimizedAffinity -0.56279397
REMARK minimizedRMSD -1
REMARK  1 active torsions:
REMARK  status: ('A' for Active; 'I' for Inactive)
REMARK    1  A    between atoms: C1_2  and  C2_3 
ROOT
ATOM      1  C2  UNL d   1      -4.846   5.430   3.415  0.00  0.00    -0.076 A 
ATOM      2  C3  UNL d   1      -5.097   5.427   4.798  0.00  0.00     0.004 A 
ATOM      3  C4  UNL d   1      -4.079   5.695   5.712  0.00  0.00    -0.003 A 
ATOM      4  C5  UNL d   1      -2.794   5.971   5.258  0.00  0.00     0.000 A 
ATOM      5  C6  UNL d   1      -2.531   5.995   3.889  0.00  0.00     0.000 A 
ATOM      6  C7  UNL d   1      -3.549   5.743   2.953  0.00  0.00    -0.073 A 
ATOM      7  C8  UNL d   1      -3.208   5.777   1.489  0.00  0.00     0.078 C 
ENDROOT
BRANCH   1   8
ATOM      8  C1  UNL d   1      -5.982   5.105   2.472  0.00  0.00     0.053 C 
ATOM      9  C   UNL d   1      -5.991   5.998   1.241  0.00  0.00     0.018 C 
ENDBRANCH   1   8
TORSDOF 1
ENDMDL
