MODEL 1
REMARK minimizedAffinity 0.600059032
REMARK minimizedRMSD -1
REMARK  1 active torsions:
REMARK  status: ('A' for Active; 'I' for Inactive)
REMARK    1  A    between atoms: C1_2  and  C2_3 
ROOT
ATOM      1  C2  UNL d   1      -3.020   3.479   3.699  0.00  0.00    -0.076 A 
ATOM      2  C3  UNL d   1      -3.051   3.939   5.026  0.00  0.00     0.004 A 
ATOM      3  C4  UNL d   1      -3.583   5.188   5.340  0.00  0.00    -0.003 A 
ATOM      4  C5  UNL d   1      -4.094   5.998   4.332  0.00  0.00     0.000 A 
ATOM      5  C6  UNL d   1      -4.088   5.550   3.011  0.00  0.00     0.000 A 
ATOM      6  C7  UNL d   1      -3.569   4.286   2.680  0.00  0.00    -0.073 A 
ATOM      7  C8  UNL d   1      -3.582   3.856   1.238  0.00  0.00     0.078 C 
ENDROOT
BRANCH   1   8
ATOM      8  C1  UNL d   1      -2.406   2.127   3.415  0.00  0.00     0.053 C 
ATOM      9  C   UNL d   1      -3.365   0.980   3.695  0.00  0.00     0.018 C 
ENDBRANCH   1   8
TORSDOF 1
ENDMDL
