MODEL 1
REMARK minimizedAffinity 3.78162861
REMARK minimizedRMSD -1
REMARK  1 active torsions:
REMARK  status: ('A' for Active; 'I' for Inactive)
REMARK    1  A    between atoms: C1_2  and  C2_3 
ROOT
ATOM      1  C2  UNL d   1      -3.555   5.966   3.544  0.00  0.00    -0.076 A 
ATOM      2  C3  UNL d   1      -4.841   5.931   4.111  0.00  0.00     0.004 A 
ATOM      3  C4  UNL d   1      -5.980   5.934   3.308  0.00  0.00    -0.003 A 
ATOM      4  C5  UNL d   1      -5.851   5.970   1.924  0.00  0.00     0.000 A 
ATOM      5  C6  UNL d   1      -4.583   5.986   1.343  0.00  0.00     0.000 A 
ATOM      6  C7  UNL d   1      -3.425   5.968   2.139  0.00  0.00    -0.073 A 
ATOM      7  C8  UNL d   1      -2.083   5.993   1.460  0.00  0.00     0.078 C 
ENDROOT
BRANCH   1   8
ATOM      8  C1  UNL d   1      -2.357   5.989   4.466  0.00  0.00     0.053 C 
ATOM      9  C   UNL d   1      -2.752   6.000   5.935  0.00  0.00     0.018 C 
ENDBRANCH   1   8
TORSDOF 1
ENDMDL
