MODEL 1
REMARK minimizedAffinity -1.65112269
REMARK minimizedRMSD -1
REMARK  1 active torsions:
REMARK  status: ('A' for Active; 'I' for Inactive)
REMARK    1  A    between atoms: C1_2  and  C2_3 
ROOT
ATOM      1  C2  UNL d   1      -3.663   3.888   3.641  0.00  0.00    -0.076 A 
ATOM      2  C3  UNL d   1      -3.612   4.188   2.269  0.00  0.00     0.004 A 
ATOM      3  C4  UNL d   1      -4.362   5.235   1.735  0.00  0.00    -0.003 A 
ATOM      4  C5  UNL d   1      -5.174   5.999   2.565  0.00  0.00     0.000 A 
ATOM      5  C6  UNL d   1      -5.223   5.728   3.932  0.00  0.00     0.000 A 
ATOM      6  C7  UNL d   1      -4.461   4.686   4.489  0.00  0.00    -0.073 A 
ATOM      7  C8  UNL d   1      -4.556   4.433   5.969  0.00  0.00     0.078 C 
ENDROOT
BRANCH   1   8
ATOM      8  C1  UNL d   1      -2.849   2.724   4.159  0.00  0.00     0.053 C 
ATOM      9  C   UNL d   1      -3.010   1.476   3.306  0.00  0.00     0.018 C 
ENDBRANCH   1   8
TORSDOF 1
ENDMDL
