MODEL 1
REMARK minimizedAffinity 3.4031229
REMARK minimizedRMSD -1
REMARK  1 active torsions:
REMARK  status: ('A' for Active; 'I' for Inactive)
REMARK    1  A    between atoms: C1_2  and  C2_3 
ROOT
ATOM      1  C2  UNL d   1      -3.215   3.577   3.273  0.00  0.00    -0.076 A 
ATOM      2  C3  UNL d   1      -3.404   3.576   1.880  0.00  0.00     0.004 A 
ATOM      3  C4  UNL d   1      -3.604   4.766   1.182  0.00  0.00    -0.003 A 
ATOM      4  C5  UNL d   1      -3.617   5.976   1.866  0.00  0.00     0.000 A 
ATOM      5  C6  UNL d   1      -3.413   5.998   3.245  0.00  0.00     0.000 A 
ATOM      6  C7  UNL d   1      -3.194   4.809   3.962  0.00  0.00    -0.073 A 
ATOM      7  C8  UNL d   1      -2.985   4.890   5.449  0.00  0.00     0.078 C 
ENDROOT
BRANCH   1   8
ATOM      8  C1  UNL d   1      -3.030   2.253   3.980  0.00  0.00     0.053 C 
ATOM      9  C   UNL d   1      -2.738   1.114   3.016  0.00  0.00     0.018 C 
ENDBRANCH   1   8
TORSDOF 1
ENDMDL
