MODEL 1
REMARK minimizedAffinity 2.60245109
REMARK minimizedRMSD -1
REMARK  1 active torsions:
REMARK  status: ('A' for Active; 'I' for Inactive)
REMARK    1  A    between atoms: C1_2  and  C2_3 
ROOT
ATOM      1  C2  UNL d   1      -2.799   4.731   3.427  0.00  0.00    -0.076 A 
ATOM      2  C3  UNL d   1      -2.352   3.514   3.971  0.00  0.00     0.004 A 
ATOM      3  C4  UNL d   1      -2.534   2.313   3.288  0.00  0.00    -0.003 A 
ATOM      4  C5  UNL d   1      -3.165   2.309   2.049  0.00  0.00     0.000 A 
ATOM      5  C6  UNL d   1      -3.599   3.509   1.486  0.00  0.00     0.000 A 
ATOM      6  C7  UNL d   1      -3.409   4.730   2.155  0.00  0.00    -0.073 A 
ATOM      7  C8  UNL d   1      -3.902   5.994   1.504  0.00  0.00     0.078 C 
ENDROOT
BRANCH   1   8
ATOM      8  C1  UNL d   1      -2.599   5.999   4.226  0.00  0.00     0.053 C 
ATOM      9  C   UNL d   1      -2.929   5.817   5.700  0.00  0.00     0.018 C 
ENDBRANCH   1   8
TORSDOF 1
ENDMDL
