MODEL 1
REMARK minimizedAffinity 2.459512
REMARK minimizedRMSD -1
REMARK  1 active torsions:
REMARK  status: ('A' for Active; 'I' for Inactive)
REMARK    1  A    between atoms: C1_2  and  C2_3 
ROOT
ATOM      1  C2  UNL d   1       1.767   3.282  -4.014  0.00  0.00    -0.076 A 
ATOM      2  C3  UNL d   1       0.785   3.158  -5.012  0.00  0.00     0.004 A 
ATOM      3  C4  UNL d   1       0.634   4.134  -5.995  0.00  0.00    -0.003 A 
ATOM      4  C5  UNL d   1       1.464   5.250  -5.998  0.00  0.00     0.000 A 
ATOM      5  C6  UNL d   1       2.456   5.380  -5.026  0.00  0.00     0.000 A 
ATOM      6  C7  UNL d   1       2.632   4.397  -4.037  0.00  0.00    -0.073 A 
ATOM      7  C8  UNL d   1       3.714   4.591  -3.010  0.00  0.00     0.078 C 
ENDROOT
BRANCH   1   8
ATOM      8  C1  UNL d   1       1.866   2.205  -2.958  0.00  0.00     0.053 C 
ATOM      9  C   UNL d   1       1.588   0.816  -3.513  0.00  0.00     0.018 C 
ENDBRANCH   1   8
TORSDOF 1
ENDMDL
