MODEL 1
REMARK minimizedAffinity -1.14901972
REMARK minimizedRMSD -1
REMARK  2 active torsions:
REMARK  status: ('A' for Active; 'I' for Inactive)
REMARK    1  A    between atoms: C2'_3  and  C1'_4 
REMARK    2  A    between atoms: C1'_4  and  C1_5 
ROOT
ATOM      1  C1  I4B d   1       0.856  -1.823   1.336  0.00  0.00    -0.075 A 
ATOM      2  C2  I4B d   1       1.250  -0.999   0.311  0.00  0.00     0.003 A 
ATOM      3  C3  I4B d   1       2.163  -1.464  -0.667  0.00  0.00     0.002 A 
ATOM      4  C4  I4B d   1       2.693  -2.733  -0.553  0.00  0.00    -0.004 A 
ATOM      5  C5  I4B d   1       2.275  -3.574   0.474  0.00  0.00     0.002 A 
ATOM      6  C6  I4B d   1       1.342  -3.121   1.418  0.00  0.00     0.003 A 
ENDROOT
BRANCH   1   7
ATOM      7  C1' I4B d   1      -0.084  -1.288   2.369  0.00  0.00     0.060 C 
BRANCH   7   8
ATOM      8  C2' I4B d   1      -0.780  -0.076   1.785  0.00  0.00    -0.013 C 
ATOM      9  C4' I4B d   1      -1.708  -0.468   0.664  0.00  0.00     0.013 C 
ATOM     10  C3' I4B d   1      -1.526   0.608   2.891  0.00  0.00     0.013 C 
ENDBRANCH   7   8
ENDBRANCH   1   7
TORSDOF 2
ENDMDL
