MODEL 1
REMARK minimizedAffinity 5.34671307
REMARK minimizedRMSD -1
REMARK  2 active torsions:
REMARK  status: ('A' for Active; 'I' for Inactive)
REMARK    1  A    between atoms: C2'_3  and  C1'_4 
REMARK    2  A    between atoms: C1'_4  and  C1_5 
ROOT
ATOM      1  C1  I4B d   1      -0.350  -1.595   2.173  0.00  0.00    -0.075 A 
ATOM      2  C2  I4B d   1      -0.333  -0.401   2.851  0.00  0.00     0.003 A 
ATOM      3  C3  I4B d   1      -1.405   0.513   2.709  0.00  0.00     0.002 A 
ATOM      4  C4  I4B d   1      -2.441   0.218   1.847  0.00  0.00    -0.004 A 
ATOM      5  C5  I4B d   1      -2.467  -1.002   1.179  0.00  0.00     0.002 A 
ATOM      6  C6  I4B d   1      -1.421  -1.920   1.352  0.00  0.00     0.003 A 
ENDROOT
BRANCH   1   7
ATOM      7  C1' I4B d   1       0.814  -2.523   2.320  0.00  0.00     0.060 C 
BRANCH   7   8
ATOM      8  C2' I4B d   1       1.369  -2.799   0.937  0.00  0.00    -0.013 C 
ATOM      9  C4' I4B d   1       2.579  -1.948   0.656  0.00  0.00     0.013 C 
ATOM     10  C3' I4B d   1       1.702  -4.258   0.855  0.00  0.00     0.013 C 
ENDBRANCH   7   8
ENDBRANCH   1   7
TORSDOF 2
ENDMDL
