MODEL 1
REMARK minimizedAffinity 6.13811111
REMARK minimizedRMSD -1
REMARK  2 active torsions:
REMARK  status: ('A' for Active; 'I' for Inactive)
REMARK    1  A    between atoms: C2'_3  and  C1'_4 
REMARK    2  A    between atoms: C1'_4  and  C1_5 
ROOT
ATOM      1  C1  I4B d   1       0.016  -1.250   1.760  0.00  0.00    -0.075 A 
ATOM      2  C2  I4B d   1       0.240  -2.330   2.577  0.00  0.00     0.003 A 
ATOM      3  C3  I4B d   1       1.198  -3.309   2.217  0.00  0.00     0.002 A 
ATOM      4  C4  I4B d   1       1.868  -3.195   1.016  0.00  0.00    -0.004 A 
ATOM      5  C5  I4B d   1       1.656  -2.088   0.200  0.00  0.00     0.002 A 
ATOM      6  C6  I4B d   1       0.733  -1.102   0.580  0.00  0.00     0.003 A 
ENDROOT
BRANCH   1   7
ATOM      7  C1' I4B d   1      -1.026  -0.252   2.154  0.00  0.00     0.060 C 
BRANCH   7   8
ATOM      8  C2' I4B d   1      -1.714   0.228   0.892  0.00  0.00    -0.013 C 
ATOM      9  C4' I4B d   1      -2.869  -0.666   0.527  0.00  0.00     0.013 C 
ATOM     10  C3' I4B d   1      -2.172   1.637   1.122  0.00  0.00     0.013 C 
ENDBRANCH   7   8
ENDBRANCH   1   7
TORSDOF 2
ENDMDL
