MODEL 1
REMARK minimizedAffinity 3.85309362
REMARK minimizedRMSD -1
REMARK  2 active torsions:
REMARK  status: ('A' for Active; 'I' for Inactive)
REMARK    1  A    between atoms: C2'_3  and  C1'_4 
REMARK    2  A    between atoms: C1'_4  and  C1_5 
ROOT
ATOM      1  C1  I4B d   1      -0.134  -0.313   0.797  0.00  0.00    -0.075 A 
ATOM      2  C2  I4B d   1       0.632  -0.657  -0.289  0.00  0.00     0.003 A 
ATOM      3  C3  I4B d   1       0.057  -0.698  -1.582  0.00  0.00     0.002 A 
ATOM      4  C4  I4B d   1      -1.289  -0.440  -1.736  0.00  0.00    -0.004 A 
ATOM      5  C5  I4B d   1      -2.059  -0.069  -0.637  0.00  0.00     0.002 A 
ATOM      6  C6  I4B d   1      -1.476   0.007   0.635  0.00  0.00     0.003 A 
ENDROOT
BRANCH   1   7
ATOM      7  C1' I4B d   1       0.498  -0.311   2.153  0.00  0.00     0.060 C 
BRANCH   7   8
ATOM      8  C2' I4B d   1       0.255  -1.667   2.783  0.00  0.00    -0.013 C 
ATOM      9  C4' I4B d   1      -1.211  -1.894   3.041  0.00  0.00     0.013 C 
ATOM     10  C3' I4B d   1       0.811  -2.712   1.861  0.00  0.00     0.013 C 
ENDBRANCH   7   8
ENDBRANCH   1   7
TORSDOF 2
ENDMDL
