MODEL 1
REMARK minimizedAffinity -3.93188429
REMARK minimizedRMSD -1
REMARK  1 active torsions:
REMARK  status: ('A' for Active; 'I' for Inactive)
REMARK    1  A    between atoms: C3_4  and  O_7 
ROOT
ATOM      1  C   UNL d   1       0.138   0.086  -1.375  0.00  0.00    -0.033 A 
ATOM      2  C1  UNL d   1      -1.011   0.868  -1.515  0.00  0.00     0.039 A 
ATOM      3  C2  UNL d   1      -1.739   1.249  -0.387  0.00  0.00    -0.080 A 
ATOM      4  C3  UNL d   1      -1.309   0.844   0.873  0.00  0.00     0.150 A 
ATOM      5  C4  UNL d   1      -0.164   0.069   1.020  0.00  0.00    -0.007 A 
ATOM      6  C5  UNL d   1       0.562  -0.312  -0.107  0.00  0.00     0.039 A 
ENDROOT
BRANCH   4   7
ATOM      7  O   UNL d   1      -1.991   1.188   2.003  0.00  0.00    -0.526 OA
ATOM      8  H5  UNL d   1      -2.776   1.699   1.745  0.00  0.00     0.418 HD
ENDBRANCH   4   7
TORSDOF 1
ENDMDL
