MODEL 1
REMARK minimizedAffinity -2.59653687
REMARK minimizedRMSD -1
REMARK  1 active torsions:
REMARK  status: ('A' for Active; 'I' for Inactive)
REMARK    1  A    between atoms: C3_4  and  O_7 
ROOT
ATOM      1  C   UNL d   1      -2.062   1.330   1.647  0.00  0.00    -0.033 A 
ATOM      2  C1  UNL d   1      -2.186   1.245   0.259  0.00  0.00     0.039 A 
ATOM      3  C2  UNL d   1      -1.314   0.437  -0.473  0.00  0.00    -0.080 A 
ATOM      4  C3  UNL d   1      -0.326  -0.282   0.193  0.00  0.00     0.150 A 
ATOM      5  C4  UNL d   1      -0.199  -0.205   1.576  0.00  0.00    -0.007 A 
ATOM      6  C5  UNL d   1      -1.069   0.603   2.306  0.00  0.00     0.039 A 
ENDROOT
BRANCH   4   7
ATOM      7  O   UNL d   1       0.551  -1.080  -0.479  0.00  0.00    -0.526 OA
ATOM      8  H5  UNL d   1       0.362  -1.012  -1.430  0.00  0.00     0.418 HD
ENDBRANCH   4   7
TORSDOF 1
ENDMDL
