MODEL 1
REMARK minimizedAffinity -3.88656139
REMARK minimizedRMSD -1
REMARK  1 active torsions:
REMARK  status: ('A' for Active; 'I' for Inactive)
REMARK    1  A    between atoms: C3_4  and  O_7 
ROOT
ATOM      1  C   UNL d   1       0.141  -1.028  -0.832  0.00  0.00    -0.033 A 
ATOM      2  C1  UNL d   1       1.061  -0.619   0.136  0.00  0.00     0.039 A 
ATOM      3  C2  UNL d   1       0.634   0.128   1.236  0.00  0.00    -0.080 A 
ATOM      4  C3  UNL d   1      -0.713   0.458   1.356  0.00  0.00     0.150 A 
ATOM      5  C4  UNL d   1      -1.636   0.050   0.398  0.00  0.00    -0.007 A 
ATOM      6  C5  UNL d   1      -1.207  -0.695  -0.700  0.00  0.00     0.039 A 
ENDROOT
BRANCH   4   7
ATOM      7  O   UNL d   1      -1.176   1.189   2.409  0.00  0.00    -0.526 OA
ATOM      8  H5  UNL d   1      -0.423   1.425   2.976  0.00  0.00     0.418 HD
ENDBRANCH   4   7
TORSDOF 1
ENDMDL
