MODEL 1
REMARK minimizedAffinity -0.620528638
REMARK minimizedRMSD -1
REMARK  1 active torsions:
REMARK  status: ('A' for Active; 'I' for Inactive)
REMARK    1  A    between atoms: C3_4  and  O_7 
ROOT
ATOM      1  C   UNL d   1      -1.737   0.679   1.322  0.00  0.00    -0.033 A 
ATOM      2  C1  UNL d   1      -0.939   0.364   0.220  0.00  0.00     0.039 A 
ATOM      3  C2  UNL d   1       0.350  -0.137   0.410  0.00  0.00    -0.080 A 
ATOM      4  C3  UNL d   1       0.829  -0.319   1.704  0.00  0.00     0.150 A 
ATOM      5  C4  UNL d   1       0.038  -0.011   2.807  0.00  0.00    -0.007 A 
ATOM      6  C5  UNL d   1      -1.249   0.490   2.615  0.00  0.00     0.039 A 
ENDROOT
BRANCH   4   7
ATOM      7  O   UNL d   1       2.082  -0.801   1.939  0.00  0.00    -0.526 OA
ATOM      8  H5  UNL d   1       2.523  -0.942   1.085  0.00  0.00     0.418 HD
ENDBRANCH   4   7
TORSDOF 1
ENDMDL
