MODEL 1
REMARK minimizedAffinity -2.1454227
REMARK minimizedRMSD -1
REMARK  1 active torsions:
REMARK  status: ('A' for Active; 'I' for Inactive)
REMARK    1  A    between atoms: C3_4  and  O_7 
ROOT
ATOM      1  C   UNL d   1       1.127   1.383  -4.426  0.00  0.00    -0.033 A 
ATOM      2  C1  UNL d   1       2.206   1.113  -3.582  0.00  0.00     0.039 A 
ATOM      3  C2  UNL d   1       2.027   0.317  -2.449  0.00  0.00    -0.080 A 
ATOM      4  C3  UNL d   1       0.766  -0.204  -2.173  0.00  0.00     0.150 A 
ATOM      5  C4  UNL d   1      -0.313   0.058  -3.011  0.00  0.00    -0.007 A 
ATOM      6  C5  UNL d   1      -0.132   0.854  -4.141  0.00  0.00     0.039 A 
ENDROOT
BRANCH   4   7
ATOM      7  O   UNL d   1       0.541  -0.983  -1.077  0.00  0.00    -0.526 OA
ATOM      8  H5  UNL d   1       1.370  -1.055  -0.575  0.00  0.00     0.418 HD
ENDBRANCH   4   7
TORSDOF 1
ENDMDL
