MODEL 1
REMARK minimizedAffinity -1.71361935
REMARK minimizedRMSD -1
REMARK  1 active torsions:
REMARK  status: ('A' for Active; 'I' for Inactive)
REMARK    1  A    between atoms: C3_4  and  O_7 
ROOT
ATOM      1  C   UNL d   1       1.642   0.688  -4.148  0.00  0.00    -0.033 A 
ATOM      2  C1  UNL d   1       0.461  -0.051  -4.248  0.00  0.00     0.039 A 
ATOM      3  C2  UNL d   1      -0.135  -0.576  -3.100  0.00  0.00    -0.080 A 
ATOM      4  C3  UNL d   1       0.457  -0.355  -1.860  0.00  0.00     0.150 A 
ATOM      5  C4  UNL d   1       1.631   0.384  -1.752  0.00  0.00    -0.007 A 
ATOM      6  C5  UNL d   1       2.226   0.907  -2.899  0.00  0.00     0.039 A 
ENDROOT
BRANCH   4   7
ATOM      7  O   UNL d   1      -0.085  -0.852  -0.712  0.00  0.00    -0.526 OA
ATOM      8  H5  UNL d   1      -0.878  -1.365  -0.943  0.00  0.00     0.418 HD
ENDBRANCH   4   7
TORSDOF 1
ENDMDL
