MODEL 1
REMARK minimizedAffinity -3.44658756
REMARK minimizedRMSD -1
REMARK  1 active torsions:
REMARK  status: ('A' for Active; 'I' for Inactive)
REMARK    1  A    between atoms: C3_4  and  O_7 
ROOT
ATOM      1  C   UNL d   1      -1.729   0.536   0.906  0.00  0.00    -0.033 A 
ATOM      2  C1  UNL d   1      -1.124   0.210  -0.309  0.00  0.00     0.039 A 
ATOM      3  C2  UNL d   1       0.091  -0.479  -0.323  0.00  0.00    -0.080 A 
ATOM      4  C3  UNL d   1       0.688  -0.835   0.883  0.00  0.00     0.150 A 
ATOM      5  C4  UNL d   1       0.089  -0.516   2.097  0.00  0.00    -0.007 A 
ATOM      6  C5  UNL d   1      -1.123   0.172   2.109  0.00  0.00     0.039 A 
ENDROOT
BRANCH   4   7
ATOM      7  O   UNL d   1       1.876  -1.503   0.920  0.00  0.00    -0.526 OA
ATOM      8  H5  UNL d   1       2.186  -1.630   0.007  0.00  0.00     0.418 HD
ENDBRANCH   4   7
TORSDOF 1
ENDMDL
