MODEL 1
REMARK minimizedAffinity -2.41362667
REMARK minimizedRMSD -1
REMARK  1 active torsions:
REMARK  status: ('A' for Active; 'I' for Inactive)
REMARK    1  A    between atoms: C3_4  and  O_7 
ROOT
ATOM      1  C   UNL d   1      -1.171  -3.198  -4.844  0.00  0.00    -0.033 A 
ATOM      2  C1  UNL d   1      -1.014  -2.428  -5.997  0.00  0.00     0.039 A 
ATOM      3  C2  UNL d   1      -0.463  -1.147  -5.915  0.00  0.00    -0.080 A 
ATOM      4  C3  UNL d   1      -0.072  -0.650  -4.675  0.00  0.00     0.150 A 
ATOM      5  C4  UNL d   1      -0.222  -1.414  -3.522  0.00  0.00    -0.007 A 
ATOM      6  C5  UNL d   1      -0.773  -2.692  -3.606  0.00  0.00     0.039 A 
ENDROOT
BRANCH   4   7
ATOM      7  O   UNL d   1       0.466   0.595  -4.544  0.00  0.00    -0.526 OA
ATOM      8  H5  UNL d   1       0.482   1.017  -5.419  0.00  0.00     0.418 HD
ENDBRANCH   4   7
TORSDOF 1
ENDMDL
