MODEL 1
REMARK minimizedAffinity 6.74132061
REMARK minimizedRMSD -1
REMARK  0 active torsions:
REMARK  status: ('A' for Active; 'I' for Inactive)
ROOT
ATOM      1  O1  BZF d   1       0.893   3.762  -0.745  0.00  0.00    -0.204 OA
ATOM      2  C2  BZF d   1       0.024   3.277   0.214  0.00  0.00     0.174 A 
ATOM      3  C3  BZF d   1      -1.228   3.729  -0.002  0.00  0.00    -0.012 A 
ATOM      4  C3A BZF d   1      -1.154   4.475  -1.221  0.00  0.00    -0.107 A 
ATOM      5  C4  BZF d   1      -2.076   5.155  -1.963  0.00  0.00     0.055 A 
ATOM      6  C5  BZF d   1      -1.666   5.837  -3.064  0.00  0.00    -0.016 A 
ATOM      7  C6  BZF d   1      -0.341   5.864  -3.449  0.00  0.00     0.022 A 
ATOM      8  C7  BZF d   1       0.610   5.200  -2.748  0.00  0.00     0.029 A 
ATOM      9  C7A BZF d   1       0.192   4.483  -1.653  0.00  0.00     0.058 A 
ENDROOT
TORSDOF 0
ENDMDL
