MODEL 1
REMARK minimizedAffinity -1.11830938
REMARK minimizedRMSD -1
REMARK  0 active torsions:
REMARK  status: ('A' for Active; 'I' for Inactive)
ROOT
ATOM      1  O1  BZF d   1       1.338   4.412  -0.316  0.00  0.00    -0.204 OA
ATOM      2  C2  BZF d   1       0.903   3.310   0.393  0.00  0.00     0.174 A 
ATOM      3  C3  BZF d   1      -0.370   3.003   0.067  0.00  0.00    -0.012 A 
ATOM      4  C3A BZF d   1      -0.722   3.919  -0.975  0.00  0.00    -0.107 A 
ATOM      5  C4  BZF d   1      -1.851   4.103  -1.720  0.00  0.00     0.055 A 
ATOM      6  C5  BZF d   1      -1.898   5.133  -2.605  0.00  0.00    -0.016 A 
ATOM      7  C6  BZF d   1      -0.836   6.000  -2.767  0.00  0.00     0.022 A 
ATOM      8  C7  BZF d   1       0.307   5.854  -2.054  0.00  0.00     0.029 A 
ATOM      9  C7A BZF d   1       0.369   4.794  -1.182  0.00  0.00     0.058 A 
ENDROOT
TORSDOF 0
ENDMDL
