MODEL 1
REMARK minimizedAffinity 9.55989742
REMARK minimizedRMSD -1
REMARK  0 active torsions:
REMARK  status: ('A' for Active; 'I' for Inactive)
ROOT
ATOM      1  O1  BZF d   1      -1.120   3.559   1.142  0.00  0.00    -0.204 OA
ATOM      2  C2  BZF d   1      -0.143   2.590   1.263  0.00  0.00     0.174 A 
ATOM      3  C3  BZF d   1       0.555   2.469   0.115  0.00  0.00    -0.012 A 
ATOM      4  C3A BZF d   1       0.039   3.486  -0.749  0.00  0.00    -0.107 A 
ATOM      5  C4  BZF d   1       0.340   3.879  -2.021  0.00  0.00     0.055 A 
ATOM      6  C5  BZF d   1      -0.401   4.859  -2.603  0.00  0.00    -0.016 A 
ATOM      7  C6  BZF d   1      -1.451   5.463  -1.944  0.00  0.00     0.022 A 
ATOM      8  C7  BZF d   1      -1.784   5.111  -0.678  0.00  0.00     0.029 A 
ATOM      9  C7A BZF d   1      -1.017   4.144  -0.076  0.00  0.00     0.058 A 
ENDROOT
TORSDOF 0
ENDMDL
