MODEL 1
REMARK minimizedAffinity 7.65466166
REMARK minimizedRMSD -1
REMARK  0 active torsions:
REMARK  status: ('A' for Active; 'I' for Inactive)
ROOT
ATOM      1  O1  BZF d   1       1.256   3.720  -0.325  0.00  0.00    -0.204 OA
ATOM      2  C2  BZF d   1       0.006   3.933  -0.875  0.00  0.00     0.174 A 
ATOM      3  C3  BZF d   1      -0.963   3.508  -0.039  0.00  0.00    -0.012 A 
ATOM      4  C3A BZF d   1      -0.280   3.082   1.144  0.00  0.00    -0.107 A 
ATOM      5  C4  BZF d   1      -0.700   2.573   2.339  0.00  0.00     0.055 A 
ATOM      6  C5  BZF d   1       0.226   2.190   3.256  0.00  0.00    -0.016 A 
ATOM      7  C6  BZF d   1       1.579   2.297   3.010  0.00  0.00     0.022 A 
ATOM      8  C7  BZF d   1       2.044   2.801   1.841  0.00  0.00     0.029 A 
ATOM      9  C7A BZF d   1       1.110   3.220   0.925  0.00  0.00     0.058 A 
ENDROOT
TORSDOF 0
ENDMDL
