MODEL 1
REMARK minimizedAffinity 1.94500101
REMARK minimizedRMSD -1
REMARK  0 active torsions:
REMARK  status: ('A' for Active; 'I' for Inactive)
ROOT
ATOM      1  O1  BZF d   1       1.927   4.248   0.933  0.00  0.00    -0.204 OA
ATOM      2  C2  BZF d   1       0.896   4.206   0.015  0.00  0.00     0.174 A 
ATOM      3  C3  BZF d   1      -0.043   3.313   0.389  0.00  0.00    -0.012 A 
ATOM      4  C3A BZF d   1       0.387   2.829   1.665  0.00  0.00    -0.107 A 
ATOM      5  C4  BZF d   1      -0.136   1.932   2.553  0.00  0.00     0.055 A 
ATOM      6  C5  BZF d   1       0.568   1.628   3.675  0.00  0.00    -0.016 A 
ATOM      7  C6  BZF d   1       1.797   2.196   3.938  0.00  0.00     0.022 A 
ATOM      8  C7  BZF d   1       2.354   3.094   3.089  0.00  0.00     0.029 A 
ATOM      9  C7A BZF d   1       1.630   3.429   1.971  0.00  0.00     0.058 A 
ENDROOT
TORSDOF 0
ENDMDL
