MODEL 1
REMARK minimizedAffinity 2.26640797
REMARK minimizedRMSD -1
REMARK  0 active torsions:
REMARK  status: ('A' for Active; 'I' for Inactive)
ROOT
ATOM      1  O1  BZF d   1      -5.353   2.783  -5.363  0.00  0.00    -0.204 OA
ATOM      2  C2  BZF d   1      -5.738   1.458  -5.293  0.00  0.00     0.174 A 
ATOM      3  C3  BZF d   1      -6.000   1.102  -4.019  0.00  0.00    -0.012 A 
ATOM      4  C3A BZF d   1      -5.854   2.303  -3.256  0.00  0.00    -0.107 A 
ATOM      5  C4  BZF d   1      -6.000   2.597  -1.930  0.00  0.00     0.055 A 
ATOM      6  C5  BZF d   1      -5.712   3.852  -1.496  0.00  0.00    -0.016 A 
ATOM      7  C6  BZF d   1      -5.272   4.835  -2.357  0.00  0.00     0.022 A 
ATOM      8  C7  BZF d   1      -5.117   4.593  -3.682  0.00  0.00     0.029 A 
ATOM      9  C7A BZF d   1      -5.438   3.335  -4.129  0.00  0.00     0.058 A 
ENDROOT
TORSDOF 0
ENDMDL
