MODEL 1
REMARK minimizedAffinity 4.35064268
REMARK minimizedRMSD -1
REMARK  0 active torsions:
REMARK  status: ('A' for Active; 'I' for Inactive)
ROOT
ATOM      1  O1  BZF d   1       0.010   3.846   1.482  0.00  0.00    -0.204 OA
ATOM      2  C2  BZF d   1       0.047   2.475   1.320  0.00  0.00     0.174 A 
ATOM      3  C3  BZF d   1      -0.363   2.129   0.083  0.00  0.00    -0.012 A 
ATOM      4  C3A BZF d   1      -0.588   3.366  -0.599  0.00  0.00    -0.107 A 
ATOM      5  C4  BZF d   1      -0.991   3.680  -1.866  0.00  0.00     0.055 A 
ATOM      6  C5  BZF d   1      -1.182   4.985  -2.194  0.00  0.00    -0.016 A 
ATOM      7  C6  BZF d   1      -0.984   6.000  -1.280  0.00  0.00     0.022 A 
ATOM      8  C7  BZF d   1      -0.579   5.738  -0.013  0.00  0.00     0.029 A 
ATOM      9  C7A BZF d   1      -0.354   4.422   0.311  0.00  0.00     0.058 A 
ENDROOT
TORSDOF 0
ENDMDL
