MODEL 1
REMARK minimizedAffinity 4.09902382
REMARK minimizedRMSD -1
REMARK  0 active torsions:
REMARK  status: ('A' for Active; 'I' for Inactive)
ROOT
ATOM      1  O1  BZF d   1       0.812   3.219  -0.919  0.00  0.00    -0.204 OA
ATOM      2  C2  BZF d   1       0.222   2.881   0.284  0.00  0.00     0.174 A 
ATOM      3  C3  BZF d   1      -0.879   3.628   0.502  0.00  0.00    -0.012 A 
ATOM      4  C3A BZF d   1      -1.037   4.421  -0.678  0.00  0.00    -0.107 A 
ATOM      5  C4  BZF d   1      -1.958   5.351  -1.069  0.00  0.00     0.055 A 
ATOM      6  C5  BZF d   1      -1.785   5.996  -2.252  0.00  0.00    -0.016 A 
ATOM      7  C6  BZF d   1      -0.700   5.740  -3.066  0.00  0.00     0.022 A 
ATOM      8  C7  BZF d   1       0.237   4.824  -2.723  0.00  0.00     0.029 A 
ATOM      9  C7A BZF d   1       0.047   4.147  -1.543  0.00  0.00     0.058 A 
ENDROOT
TORSDOF 0
ENDMDL
