MODEL 1
REMARK minimizedAffinity 6.29711866
REMARK minimizedRMSD -1
REMARK  0 active torsions:
REMARK  status: ('A' for Active; 'I' for Inactive)
ROOT
ATOM      1  O1  BZF d   1       1.764   4.801  -0.553  0.00  0.00    -0.204 OA
ATOM      2  C2  BZF d   1       0.562   4.943  -1.220  0.00  0.00     0.174 A 
ATOM      3  C3  BZF d   1      -0.428   4.306  -0.563  0.00  0.00    -0.012 A 
ATOM      4  C3A BZF d   1       0.175   3.808   0.635  0.00  0.00    -0.107 A 
ATOM      5  C4  BZF d   1      -0.301   3.102   1.703  0.00  0.00     0.055 A 
ATOM      6  C5  BZF d   1       0.565   2.709   2.674  0.00  0.00    -0.016 A 
ATOM      7  C6  BZF d   1       1.912   2.999   2.607  0.00  0.00     0.022 A 
ATOM      8  C7  BZF d   1       2.430   3.701   1.569  0.00  0.00     0.029 A 
ATOM      9  C7A BZF d   1       1.552   4.128   0.603  0.00  0.00     0.058 A 
ENDROOT
TORSDOF 0
ENDMDL
