MODEL 1
REMARK minimizedAffinity 5.91030693
REMARK minimizedRMSD -1
REMARK  0 active torsions:
REMARK  status: ('A' for Active; 'I' for Inactive)
ROOT
ATOM      1  O1  BZF d   1      -5.949   3.201  -2.184  0.00  0.00    -0.204 OA
ATOM      2  C2  BZF d   1      -5.947   2.121  -1.323  0.00  0.00     0.174 A 
ATOM      3  C3  BZF d   1      -5.999   0.962  -2.010  0.00  0.00    -0.012 A 
ATOM      4  C3A BZF d   1      -5.944   1.338  -3.389  0.00  0.00    -0.107 A 
ATOM      5  C4  BZF d   1      -5.943   0.630  -4.556  0.00  0.00     0.055 A 
ATOM      6  C5  BZF d   1      -5.955   1.302  -5.737  0.00  0.00    -0.016 A 
ATOM      7  C6  BZF d   1      -5.972   2.681  -5.787  0.00  0.00     0.022 A 
ATOM      8  C7  BZF d   1      -5.968   3.427  -4.656  0.00  0.00     0.029 A 
ATOM      9  C7A BZF d   1      -5.923   2.750  -3.461  0.00  0.00     0.058 A 
ENDROOT
TORSDOF 0
ENDMDL
