MODEL 1
REMARK minimizedAffinity -2.80826759
REMARK minimizedRMSD -1
REMARK  0 active torsions:
REMARK  status: ('A' for Active; 'I' for Inactive)
ROOT
ATOM      1  O1  BZF d   1      -0.513   0.758   0.012  0.00  0.00    -0.204 OA
ATOM      2  C2  BZF d   1      -1.050   0.149  -1.106  0.00  0.00     0.174 A 
ATOM      3  C3  BZF d   1      -1.155   1.027  -2.125  0.00  0.00    -0.012 A 
ATOM      4  C3A BZF d   1      -0.566   2.238  -1.640  0.00  0.00    -0.107 A 
ATOM      5  C4  BZF d   1      -0.358   3.468  -2.195  0.00  0.00     0.055 A 
ATOM      6  C5  BZF d   1       0.176   4.456  -1.430  0.00  0.00    -0.016 A 
ATOM      7  C6  BZF d   1       0.508   4.251  -0.107  0.00  0.00     0.022 A 
ATOM      8  C7  BZF d   1       0.325   3.046   0.486  0.00  0.00     0.029 A 
ATOM      9  C7A BZF d   1      -0.184   2.036  -0.294  0.00  0.00     0.058 A 
ENDROOT
TORSDOF 0
ENDMDL
