MODEL 1
REMARK minimizedAffinity 11.765522
REMARK minimizedRMSD -1
REMARK  2 active torsions:
REMARK  status: ('A' for Active; 'I' for Inactive)
REMARK    1  A    between atoms: C1_2  and  C2_3 
REMARK    2  A    between atoms: C2_3  and  C3_4 
ROOT
ATOM      1  C3  UNL d   1       1.501   5.655  -1.263  0.00  0.00    -0.075 A 
ATOM      2  C4  UNL d   1       1.326   5.929  -2.627  0.00  0.00     0.002 A 
ATOM      3  C5  UNL d   1       2.427   5.998  -3.482  0.00  0.00     0.002 A 
ATOM      4  C6  UNL d   1       3.713   5.805  -2.984  0.00  0.00    -0.004 A 
ATOM      5  C7  UNL d   1       3.900   5.549  -1.627  0.00  0.00     0.002 A 
ATOM      6  C8  UNL d   1       2.800   5.475  -0.770  0.00  0.00     0.002 A 
ENDROOT
BRANCH   1   7
ATOM      7  C2  UNL d   1       0.312   5.550  -0.338  0.00  0.00     0.056 C 
BRANCH   7   8
ATOM      8  C1  UNL d   1       0.578   4.730   0.929  0.00  0.00     0.007 C 
ATOM      9  C   UNL d   1      -0.533   3.739   1.248  0.00  0.00     0.009 C 
ENDBRANCH   7   8
ENDBRANCH   1   7
TORSDOF 2
ENDMDL
