MODEL 1
REMARK minimizedAffinity 8.48325253
REMARK minimizedRMSD -1
REMARK  2 active torsions:
REMARK  status: ('A' for Active; 'I' for Inactive)
REMARK    1  A    between atoms: C1_2  and  C2_3 
REMARK    2  A    between atoms: C2_3  and  C3_4 
ROOT
ATOM      1  C3  UNL d   1       0.123  -2.344  -1.678  0.00  0.00    -0.075 A 
ATOM      2  C4  UNL d   1       0.558  -3.158  -0.622  0.00  0.00     0.002 A 
ATOM      3  C5  UNL d   1      -0.101  -3.136   0.608  0.00  0.00     0.002 A 
ATOM      4  C6  UNL d   1      -1.194  -2.294   0.800  0.00  0.00    -0.004 A 
ATOM      5  C7  UNL d   1      -1.624  -1.469  -0.236  0.00  0.00     0.002 A 
ATOM      6  C8  UNL d   1      -0.969  -1.492  -1.469  0.00  0.00     0.002 A 
ENDROOT
BRANCH   1   7
ATOM      7  C2  UNL d   1       0.814  -2.385  -3.020  0.00  0.00     0.056 C 
BRANCH   7   8
ATOM      8  C1  UNL d   1       2.297  -2.763  -2.947  0.00  0.00     0.007 C 
ATOM      9  C   UNL d   1       2.751  -3.641  -4.106  0.00  0.00     0.009 C 
ENDBRANCH   7   8
ENDBRANCH   1   7
TORSDOF 2
ENDMDL
