MODEL 1
REMARK minimizedAffinity 14.8950567
REMARK minimizedRMSD -1
REMARK  2 active torsions:
REMARK  status: ('A' for Active; 'I' for Inactive)
REMARK    1  A    between atoms: C1_2  and  C2_3 
REMARK    2  A    between atoms: C2_3  and  C3_4 
ROOT
ATOM      1  C3  UNL d   1      -1.283  -2.336  -0.042  0.00  0.00    -0.075 A 
ATOM      2  C4  UNL d   1      -0.709  -1.169  -0.567  0.00  0.00     0.002 A 
ATOM      3  C5  UNL d   1      -0.192  -1.155  -1.862  0.00  0.00     0.002 A 
ATOM      4  C6  UNL d   1      -0.233  -2.307  -2.644  0.00  0.00    -0.004 A 
ATOM      5  C7  UNL d   1      -0.786  -3.476  -2.127  0.00  0.00     0.002 A 
ATOM      6  C8  UNL d   1      -1.308  -3.492  -0.832  0.00  0.00     0.002 A 
ENDROOT
BRANCH   1   7
ATOM      7  C2  UNL d   1      -1.871  -2.349   1.349  0.00  0.00     0.056 C 
BRANCH   7   8
ATOM      8  C1  UNL d   1      -3.018  -1.353   1.551  0.00  0.00     0.007 C 
ATOM      9  C   UNL d   1      -4.170  -1.557   0.576  0.00  0.00     0.009 C 
ENDBRANCH   7   8
ENDBRANCH   1   7
TORSDOF 2
ENDMDL
