MODEL 1
REMARK minimizedAffinity 16.456068
REMARK minimizedRMSD -1
REMARK  2 active torsions:
REMARK  status: ('A' for Active; 'I' for Inactive)
REMARK    1  A    between atoms: C1_2  and  C2_3 
REMARK    2  A    between atoms: C2_3  and  C3_4 
ROOT
ATOM      1  C3  UNL d   1       0.599  -3.332  -2.705  0.00  0.00    -0.075 A 
ATOM      2  C4  UNL d   1      -0.185  -2.507  -3.524  0.00  0.00     0.002 A 
ATOM      3  C5  UNL d   1      -1.035  -1.553  -2.962  0.00  0.00     0.002 A 
ATOM      4  C6  UNL d   1      -1.118  -1.419  -1.578  0.00  0.00    -0.004 A 
ATOM      5  C7  UNL d   1      -0.355  -2.244  -0.755  0.00  0.00     0.002 A 
ATOM      6  C8  UNL d   1       0.499  -3.196  -1.314  0.00  0.00     0.002 A 
ENDROOT
BRANCH   1   7
ATOM      7  C2  UNL d   1       1.542  -4.346  -3.307  0.00  0.00     0.056 C 
BRANCH   7   8
ATOM      8  C1  UNL d   1       2.722  -3.728  -4.066  0.00  0.00     0.007 C 
ATOM      9  C   UNL d   1       3.753  -3.082  -3.150  0.00  0.00     0.009 C 
ENDBRANCH   7   8
ENDBRANCH   1   7
TORSDOF 2
ENDMDL
