MODEL 1
REMARK minimizedAffinity 11.82687
REMARK minimizedRMSD -1
REMARK  2 active torsions:
REMARK  status: ('A' for Active; 'I' for Inactive)
REMARK    1  A    between atoms: C1_2  and  C2_3 
REMARK    2  A    between atoms: C2_3  and  C3_4 
ROOT
ATOM      1  C3  UNL d   1      -1.358  -2.463  -3.016  0.00  0.00    -0.075 A 
ATOM      2  C4  UNL d   1       0.011  -2.651  -2.777  0.00  0.00     0.002 A 
ATOM      3  C5  UNL d   1       0.512  -2.632  -1.475  0.00  0.00     0.002 A 
ATOM      4  C6  UNL d   1      -0.346  -2.414  -0.399  0.00  0.00    -0.004 A 
ATOM      5  C7  UNL d   1      -1.705  -2.210  -0.626  0.00  0.00     0.002 A 
ATOM      6  C8  UNL d   1      -2.210  -2.233  -1.927  0.00  0.00     0.002 A 
ENDROOT
BRANCH   1   7
ATOM      7  C2  UNL d   1      -1.910  -2.513  -4.421  0.00  0.00     0.056 C 
BRANCH   7   8
ATOM      8  C1  UNL d   1      -2.343  -3.912  -4.872  0.00  0.00     0.007 C 
ATOM      9  C   UNL d   1      -1.487  -4.471  -6.000  0.00  0.00     0.009 C 
ENDBRANCH   7   8
ENDBRANCH   1   7
TORSDOF 2
ENDMDL
