MODEL 1
REMARK minimizedAffinity 12.7980652
REMARK minimizedRMSD -1
REMARK  2 active torsions:
REMARK  status: ('A' for Active; 'I' for Inactive)
REMARK    1  A    between atoms: C1_2  and  C2_3 
REMARK    2  A    between atoms: C2_3  and  C3_4 
ROOT
ATOM      1  C3  UNL d   1       0.040  -2.843  -0.071  0.00  0.00    -0.075 A 
ATOM      2  C4  UNL d   1       0.693  -3.196  -1.261  0.00  0.00     0.002 A 
ATOM      3  C5  UNL d   1       0.055  -3.039  -2.492  0.00  0.00     0.002 A 
ATOM      4  C6  UNL d   1      -1.244  -2.539  -2.548  0.00  0.00    -0.004 A 
ATOM      5  C7  UNL d   1      -1.908  -2.201  -1.371  0.00  0.00     0.002 A 
ATOM      6  C8  UNL d   1      -1.271  -2.352  -0.138  0.00  0.00     0.002 A 
ENDROOT
BRANCH   1   7
ATOM      7  C2  UNL d   1       0.735  -2.983   1.263  0.00  0.00     0.056 C 
BRANCH   7   8
ATOM      8  C1  UNL d   1       2.002  -2.132   1.397  0.00  0.00     0.007 C 
ATOM      9  C   UNL d   1       2.622  -2.193   2.787  0.00  0.00     0.009 C 
ENDBRANCH   7   8
ENDBRANCH   1   7
TORSDOF 2
ENDMDL
