MODEL 1
REMARK minimizedAffinity 8.45356941
REMARK minimizedRMSD -1
REMARK  2 active torsions:
REMARK  status: ('A' for Active; 'I' for Inactive)
REMARK    1  A    between atoms: C1_2  and  C2_3 
REMARK    2  A    between atoms: C2_3  and  C3_4 
ROOT
ATOM      1  C3  UNL d   1      -2.790  -3.673  -3.964  0.00  0.00    -0.075 A 
ATOM      2  C4  UNL d   1      -1.999  -3.861  -5.106  0.00  0.00     0.002 A 
ATOM      3  C5  UNL d   1      -2.273  -4.902  -5.994  0.00  0.00     0.002 A 
ATOM      4  C6  UNL d   1      -3.332  -5.772  -5.747  0.00  0.00    -0.004 A 
ATOM      5  C7  UNL d   1      -4.115  -5.605  -4.606  0.00  0.00     0.002 A 
ATOM      6  C8  UNL d   1      -3.846  -4.562  -3.718  0.00  0.00     0.002 A 
ENDROOT
BRANCH   1   7
ATOM      7  C2  UNL d   1      -2.517  -2.531  -3.014  0.00  0.00     0.056 C 
BRANCH   7   8
ATOM      8  C1  UNL d   1      -1.039  -2.142  -2.915  0.00  0.00     0.007 C 
ATOM      9  C   UNL d   1      -0.404  -2.530  -1.587  0.00  0.00     0.009 C 
ENDBRANCH   7   8
ENDBRANCH   1   7
TORSDOF 2
ENDMDL
