MODEL 1
REMARK minimizedAffinity 12.0338488
REMARK minimizedRMSD -1
REMARK  2 active torsions:
REMARK  status: ('A' for Active; 'I' for Inactive)
REMARK    1  A    between atoms: C1_2  and  C2_3 
REMARK    2  A    between atoms: C2_3  and  C3_4 
ROOT
ATOM      1  C3  UNL d   1      -0.899  -2.679  -2.136  0.00  0.00    -0.075 A 
ATOM      2  C4  UNL d   1      -1.677  -1.877  -1.288  0.00  0.00     0.002 A 
ATOM      3  C5  UNL d   1      -1.480  -1.907   0.093  0.00  0.00     0.002 A 
ATOM      4  C6  UNL d   1      -0.512  -2.745   0.643  0.00  0.00    -0.004 A 
ATOM      5  C7  UNL d   1       0.255  -3.557  -0.188  0.00  0.00     0.002 A 
ATOM      6  C8  UNL d   1       0.063  -3.526  -1.571  0.00  0.00     0.002 A 
ENDROOT
BRANCH   1   7
ATOM      7  C2  UNL d   1      -1.087  -2.629  -3.633  0.00  0.00     0.056 C 
BRANCH   7   8
ATOM      8  C1  UNL d   1      -2.502  -2.993  -4.097  0.00  0.00     0.007 C 
ATOM      9  C   UNL d   1      -2.618  -3.148  -5.607  0.00  0.00     0.009 C 
ENDBRANCH   7   8
ENDBRANCH   1   7
TORSDOF 2
ENDMDL
