MODEL 1
REMARK minimizedAffinity 16.5572357
REMARK minimizedRMSD -1
REMARK  2 active torsions:
REMARK  status: ('A' for Active; 'I' for Inactive)
REMARK    1  A    between atoms: C1_2  and  C2_3 
REMARK    2  A    between atoms: C2_3  and  C3_4 
ROOT
ATOM      1  C3  UNL d   1      -0.965  -1.742  -0.696  0.00  0.00    -0.075 A 
ATOM      2  C4  UNL d   1      -1.320  -2.054  -2.017  0.00  0.00     0.002 A 
ATOM      3  C5  UNL d   1      -0.376  -2.582  -2.898  0.00  0.00     0.002 A 
ATOM      4  C6  UNL d   1       0.934  -2.797  -2.475  0.00  0.00    -0.004 A 
ATOM      5  C7  UNL d   1       1.302  -2.476  -1.170  0.00  0.00     0.002 A 
ATOM      6  C8  UNL d   1       0.359  -1.950  -0.285  0.00  0.00     0.002 A 
ENDROOT
BRANCH   1   7
ATOM      7  C2  UNL d   1      -1.988  -1.197   0.271  0.00  0.00     0.056 C 
BRANCH   7   8
ATOM      8  C1  UNL d   1      -2.580  -2.252   1.212  0.00  0.00     0.007 C 
ATOM      9  C   UNL d   1      -4.102  -2.307   1.170  0.00  0.00     0.009 C 
ENDBRANCH   7   8
ENDBRANCH   1   7
TORSDOF 2
ENDMDL
