MODEL 1
REMARK minimizedAffinity 8.59166241
REMARK minimizedRMSD -1
REMARK  2 active torsions:
REMARK  status: ('A' for Active; 'I' for Inactive)
REMARK    1  A    between atoms: C1_2  and  C2_3 
REMARK    2  A    between atoms: C2_3  and  C3_4 
ROOT
ATOM      1  C3  UNL d   1      -1.342  -2.071   2.412  0.00  0.00    -0.075 A 
ATOM      2  C4  UNL d   1      -0.180  -2.776   2.069  0.00  0.00     0.002 A 
ATOM      3  C5  UNL d   1       0.052  -3.158   0.747  0.00  0.00     0.002 A 
ATOM      4  C6  UNL d   1      -0.878  -2.851  -0.244  0.00  0.00    -0.004 A 
ATOM      5  C7  UNL d   1      -2.044  -2.165   0.089  0.00  0.00     0.002 A 
ATOM      6  C8  UNL d   1      -2.277  -1.777   1.410  0.00  0.00     0.002 A 
ENDROOT
BRANCH   1   7
ATOM      7  C2  UNL d   1      -1.585  -1.628   3.835  0.00  0.00     0.056 C 
BRANCH   7   8
ATOM      8  C1  UNL d   1      -2.090  -0.187   3.963  0.00  0.00     0.007 C 
ATOM      9  C   UNL d   1      -2.743   0.104   5.307  0.00  0.00     0.009 C 
ENDBRANCH   7   8
ENDBRANCH   1   7
TORSDOF 2
ENDMDL
