MODEL 1
REMARK minimizedAffinity 9.0170908
REMARK minimizedRMSD -1
REMARK  2 active torsions:
REMARK  status: ('A' for Active; 'I' for Inactive)
REMARK    1  A    between atoms: C1_2  and  C2_3 
REMARK    2  A    between atoms: C2_3  and  C3_4 
ROOT
ATOM      1  C3  UNL d   1       3.377   4.485  -1.810  0.00  0.00    -0.075 A 
ATOM      2  C4  UNL d   1       3.974   5.698  -1.439  0.00  0.00     0.002 A 
ATOM      3  C5  UNL d   1       5.276   6.000  -1.840  0.00  0.00     0.002 A 
ATOM      4  C6  UNL d   1       6.000   5.089  -2.607  0.00  0.00    -0.004 A 
ATOM      5  C7  UNL d   1       5.423   3.873  -2.967  0.00  0.00     0.002 A 
ATOM      6  C8  UNL d   1       4.119   3.571  -2.571  0.00  0.00     0.002 A 
ENDROOT
BRANCH   1   7
ATOM      7  C2  UNL d   1       1.958   4.165  -1.405  0.00  0.00     0.056 C 
BRANCH   7   8
ATOM      8  C1  UNL d   1       1.838   3.493  -0.033  0.00  0.00     0.007 C 
ATOM      9  C   UNL d   1       0.547   3.842   0.696  0.00  0.00     0.009 C 
ENDBRANCH   7   8
ENDBRANCH   1   7
TORSDOF 2
ENDMDL
