MODEL 1
REMARK minimizedAffinity 16.3630924
REMARK minimizedRMSD -1
REMARK  2 active torsions:
REMARK  status: ('A' for Active; 'I' for Inactive)
REMARK    1  A    between atoms: C1_2  and  C2_3 
REMARK    2  A    between atoms: C2_3  and  C3_4 
ROOT
ATOM      1  C3  UNL d   1       4.431   4.286  -1.076  0.00  0.00    -0.075 A 
ATOM      2  C4  UNL d   1       4.425   3.741  -2.368  0.00  0.00     0.002 A 
ATOM      3  C5  UNL d   1       5.210   4.301  -3.376  0.00  0.00     0.002 A 
ATOM      4  C6  UNL d   1       6.000   5.417  -3.110  0.00  0.00    -0.004 A 
ATOM      5  C7  UNL d   1       6.000   5.978  -1.834  0.00  0.00     0.002 A 
ATOM      6  C8  UNL d   1       5.219   5.416  -0.822  0.00  0.00     0.002 A 
ENDROOT
BRANCH   1   7
ATOM      7  C2  UNL d   1       3.607   3.667   0.028  0.00  0.00     0.056 C 
BRANCH   7   8
ATOM      8  C1  UNL d   1       2.154   3.380  -0.365  0.00  0.00     0.007 C 
ATOM      9  C   UNL d   1       1.174   3.555   0.788  0.00  0.00     0.009 C 
ENDBRANCH   7   8
ENDBRANCH   1   7
TORSDOF 2
ENDMDL
