MODEL 1
REMARK minimizedAffinity 15.755415
REMARK minimizedRMSD -1
REMARK  2 active torsions:
REMARK  status: ('A' for Active; 'I' for Inactive)
REMARK    1  A    between atoms: C1_2  and  C2_3 
REMARK    2  A    between atoms: C2_3  and  C3_4 
ROOT
ATOM      1  C3  UNL d   1      -1.508   0.522  -0.260  0.00  0.00    -0.075 A 
ATOM      2  C4  UNL d   1      -0.838  -0.651  -0.638  0.00  0.00     0.002 A 
ATOM      3  C5  UNL d   1      -1.367  -1.902  -0.321  0.00  0.00     0.002 A 
ATOM      4  C6  UNL d   1      -2.564  -1.997   0.386  0.00  0.00    -0.004 A 
ATOM      5  C7  UNL d   1      -3.229  -0.839   0.782  0.00  0.00     0.002 A 
ATOM      6  C8  UNL d   1      -2.704   0.415   0.461  0.00  0.00     0.002 A 
ENDROOT
BRANCH   1   7
ATOM      7  C2  UNL d   1      -0.955   1.879  -0.626  0.00  0.00     0.056 C 
BRANCH   7   8
ATOM      8  C1  UNL d   1      -0.469   2.698   0.574  0.00  0.00     0.007 C 
ATOM      9  C   UNL d   1       0.783   3.513   0.276  0.00  0.00     0.009 C 
ENDBRANCH   7   8
ENDBRANCH   1   7
TORSDOF 2
ENDMDL
