MODEL 1
REMARK minimizedAffinity 14.1568232
REMARK minimizedRMSD -1
REMARK  2 active torsions:
REMARK  status: ('A' for Active; 'I' for Inactive)
REMARK    1  A    between atoms: C1_2  and  C2_3 
REMARK    2  A    between atoms: C2_3  and  C3_4 
ROOT
ATOM      1  C3  UNL d   1       1.638   4.239  -0.814  0.00  0.00    -0.075 A 
ATOM      2  C4  UNL d   1       0.911   3.049  -0.965  0.00  0.00     0.002 A 
ATOM      3  C5  UNL d   1      -0.049   2.681  -0.022  0.00  0.00     0.002 A 
ATOM      4  C6  UNL d   1      -0.287   3.490   1.086  0.00  0.00    -0.004 A 
ATOM      5  C7  UNL d   1       0.441   4.667   1.255  0.00  0.00     0.002 A 
ATOM      6  C8  UNL d   1       1.399   5.040   0.311  0.00  0.00     0.002 A 
ENDROOT
BRANCH   1   7
ATOM      7  C2  UNL d   1       2.657   4.658  -1.846  0.00  0.00     0.056 C 
BRANCH   7   8
ATOM      8  C1  UNL d   1       4.096   4.260  -1.500  0.00  0.00     0.007 C 
ATOM      9  C   UNL d   1       5.113   5.349  -1.815  0.00  0.00     0.009 C 
ENDBRANCH   7   8
ENDBRANCH   1   7
TORSDOF 2
ENDMDL
