MODEL 1
REMARK minimizedAffinity -2.61903691
REMARK minimizedRMSD -1
REMARK  0 active torsions:
REMARK  status: ('A' for Active; 'I' for Inactive)
ROOT
ATOM      1  C   UNL d   1       1.128  -3.543  -0.387  0.00  0.00     0.078 C 
ATOM      2  C1  UNL d   1       1.466  -2.090  -0.228  0.00  0.00    -0.077 A 
ATOM      3  C2  UNL d   1       2.500  -1.679   0.621  0.00  0.00    -0.001 A 
ATOM      4  C3  UNL d   1       2.798  -0.324   0.767  0.00  0.00     0.003 A 
ATOM      5  C4  UNL d   1       2.066   0.633   0.066  0.00  0.00    -0.005 A 
ATOM      6  C5  UNL d   1       1.033   0.233  -0.780  0.00  0.00     0.003 A 
ATOM      7  C6  UNL d   1       0.734  -1.122  -0.927  0.00  0.00    -0.001 A 
ENDROOT
TORSDOF 0
ENDMDL
