MODEL 1
REMARK minimizedAffinity 4.52720594
REMARK minimizedRMSD -1
REMARK  0 active torsions:
REMARK  status: ('A' for Active; 'I' for Inactive)
ROOT
ATOM      1  C   UNL d   1       3.429   0.515   0.378  0.00  0.00     0.078 C 
ATOM      2  C1  UNL d   1       2.609  -0.738   0.293  0.00  0.00    -0.077 A 
ATOM      3  C2  UNL d   1       2.787  -1.780   1.211  0.00  0.00    -0.001 A 
ATOM      4  C3  UNL d   1       2.023  -2.944   1.114  0.00  0.00     0.003 A 
ATOM      5  C4  UNL d   1       1.078  -3.079   0.098  0.00  0.00    -0.005 A 
ATOM      6  C5  UNL d   1       0.896  -2.048  -0.821  0.00  0.00     0.003 A 
ATOM      7  C6  UNL d   1       1.659  -0.883  -0.726  0.00  0.00    -0.001 A 
ENDROOT
TORSDOF 0
ENDMDL
