MODEL 1
REMARK minimizedAffinity 2.63191056
REMARK minimizedRMSD -1
REMARK  0 active torsions:
REMARK  status: ('A' for Active; 'I' for Inactive)
ROOT
ATOM      1  C   UNL d   1      -4.129   0.031  -1.499  0.00  0.00     0.078 C 
ATOM      2  C1  UNL d   1      -4.776   1.243  -2.101  0.00  0.00    -0.077 A 
ATOM      3  C2  UNL d   1      -5.300   2.258  -1.291  0.00  0.00    -0.001 A 
ATOM      4  C3  UNL d   1      -5.908   3.375  -1.864  0.00  0.00     0.003 A 
ATOM      5  C4  UNL d   1      -6.000   3.488  -3.250  0.00  0.00    -0.005 A 
ATOM      6  C5  UNL d   1      -5.484   2.482  -4.064  0.00  0.00     0.003 A 
ATOM      7  C6  UNL d   1      -4.875   1.364  -3.492  0.00  0.00    -0.001 A 
ENDROOT
TORSDOF 0
ENDMDL
