MODEL 1
REMARK minimizedAffinity 3.55025721
REMARK minimizedRMSD -1
REMARK  0 active torsions:
REMARK  status: ('A' for Active; 'I' for Inactive)
ROOT
ATOM      1  C   UNL d   1       1.808   1.634   0.449  0.00  0.00     0.078 C 
ATOM      2  C1  UNL d   1       2.186   0.187   0.555  0.00  0.00    -0.077 A 
ATOM      3  C2  UNL d   1       2.907  -0.291   1.657  0.00  0.00    -0.001 A 
ATOM      4  C3  UNL d   1       3.261  -1.639   1.738  0.00  0.00     0.003 A 
ATOM      5  C4  UNL d   1       2.899  -2.520   0.720  0.00  0.00    -0.005 A 
ATOM      6  C5  UNL d   1       2.183  -2.053  -0.380  0.00  0.00     0.003 A 
ATOM      7  C6  UNL d   1       1.829  -0.706  -0.463  0.00  0.00    -0.001 A 
ENDROOT
TORSDOF 0
ENDMDL
