MODEL 1
REMARK minimizedAffinity 4.70382309
REMARK minimizedRMSD -1
REMARK  0 active torsions:
REMARK  status: ('A' for Active; 'I' for Inactive)
ROOT
ATOM      1  C   UNL d   1       1.490   1.912   0.198  0.00  0.00     0.078 C 
ATOM      2  C1  UNL d   1       1.734   0.437   0.081  0.00  0.00    -0.077 A 
ATOM      3  C2  UNL d   1       3.028  -0.068  -0.096  0.00  0.00    -0.001 A 
ATOM      4  C3  UNL d   1       3.240  -1.442  -0.214  0.00  0.00     0.003 A 
ATOM      5  C4  UNL d   1       2.162  -2.323  -0.157  0.00  0.00    -0.005 A 
ATOM      6  C5  UNL d   1       0.870  -1.830   0.017  0.00  0.00     0.003 A 
ATOM      7  C6  UNL d   1       0.657  -0.456   0.135  0.00  0.00    -0.001 A 
ENDROOT
TORSDOF 0
ENDMDL
