MODEL 1
REMARK minimizedAffinity -4.40723705
REMARK minimizedRMSD -1
REMARK  1 active torsions:
REMARK  status: ('A' for Active; 'I' for Inactive)
REMARK    1  A    between atoms: C1_2  and  C2_3 
ROOT
ATOM      1  C2  UNL d   1      -0.926   0.217  -0.034  0.00  0.00    -0.077 A 
ATOM      2  C3  UNL d   1      -0.736  -1.141  -0.324  0.00  0.00     0.002 A 
ATOM      3  C4  UNL d   1       0.529  -1.719  -0.203  0.00  0.00     0.002 A 
ATOM      4  C5  UNL d   1       1.612  -0.948   0.214  0.00  0.00    -0.004 A 
ATOM      5  C6  UNL d   1       1.434   0.404   0.503  0.00  0.00     0.002 A 
ATOM      6  C7  UNL d   1       0.171   0.984   0.381  0.00  0.00     0.002 A 
ENDROOT
BRANCH   1   7
ATOM      7  C1  UNL d   1      -2.299   0.831  -0.117  0.00  0.00     0.055 C 
ATOM      8  C   UNL d   1      -2.779   1.300   1.249  0.00  0.00     0.019 C 
ENDBRANCH   1   7
TORSDOF 1
ENDMDL
