MODEL 1
REMARK minimizedAffinity -3.77021503
REMARK minimizedRMSD -1
REMARK  1 active torsions:
REMARK  status: ('A' for Active; 'I' for Inactive)
REMARK    1  A    between atoms: C1_2  and  C2_3 
ROOT
ATOM      1  C2  UNL d   1      -1.423  -0.143   0.213  0.00  0.00    -0.077 A 
ATOM      2  C3  UNL d   1      -0.114   0.350   0.122  0.00  0.00     0.002 A 
ATOM      3  C4  UNL d   1       0.974  -0.526   0.138  0.00  0.00     0.002 A 
ATOM      4  C5  UNL d   1       0.763  -1.899   0.240  0.00  0.00    -0.004 A 
ATOM      5  C6  UNL d   1      -0.535  -2.399   0.333  0.00  0.00     0.002 A 
ATOM      6  C7  UNL d   1      -1.623  -1.526   0.318  0.00  0.00     0.002 A 
ENDROOT
BRANCH   1   7
ATOM      7  C1  UNL d   1      -2.599   0.796   0.146  0.00  0.00     0.055 C 
ATOM      8  C   UNL d   1      -3.631   0.466   1.215  0.00  0.00     0.019 C 
ENDBRANCH   1   7
TORSDOF 1
ENDMDL
