MODEL 1
REMARK minimizedAffinity -5.04162931
REMARK minimizedRMSD -1
REMARK  1 active torsions:
REMARK  status: ('A' for Active; 'I' for Inactive)
REMARK    1  A    between atoms: C1_2  and  C2_3 
ROOT
ATOM      1  C2  UNL d   1       0.434  -0.154  -0.059  0.00  0.00    -0.077 A 
ATOM      2  C3  UNL d   1       1.448   0.237   0.826  0.00  0.00     0.002 A 
ATOM      3  C4  UNL d   1       2.505  -0.628   1.115  0.00  0.00     0.002 A 
ATOM      4  C5  UNL d   1       2.560  -1.887   0.520  0.00  0.00    -0.004 A 
ATOM      5  C6  UNL d   1       1.555  -2.286  -0.360  0.00  0.00     0.002 A 
ATOM      6  C7  UNL d   1       0.497  -1.423  -0.650  0.00  0.00     0.002 A 
ENDROOT
BRANCH   1   7
ATOM      7  C1  UNL d   1      -0.681   0.796  -0.410  0.00  0.00     0.055 C 
ATOM      8  C   UNL d   1      -1.961   0.448   0.335  0.00  0.00     0.019 C 
ENDBRANCH   1   7
TORSDOF 1
ENDMDL
