MODEL 1
REMARK minimizedAffinity -4.01721239
REMARK minimizedRMSD -1
REMARK  1 active torsions:
REMARK  status: ('A' for Active; 'I' for Inactive)
REMARK    1  A    between atoms: C1_2  and  C2_3 
ROOT
ATOM      1  C2  UNL d   1       0.816   0.033   0.018  0.00  0.00    -0.077 A 
ATOM      2  C3  UNL d   1       1.494   0.787   0.986  0.00  0.00     0.002 A 
ATOM      3  C4  UNL d   1       2.774   0.416   1.402  0.00  0.00     0.002 A 
ATOM      4  C5  UNL d   1       3.389  -0.707   0.853  0.00  0.00    -0.004 A 
ATOM      5  C6  UNL d   1       2.722  -1.465  -0.109  0.00  0.00     0.002 A 
ATOM      6  C7  UNL d   1       1.442  -1.096  -0.525  0.00  0.00     0.002 A 
ENDROOT
BRANCH   1   7
ATOM      7  C1  UNL d   1      -0.544   0.460  -0.467  0.00  0.00     0.055 C 
ATOM      8  C   UNL d   1      -1.557   0.477   0.668  0.00  0.00     0.019 C 
ENDBRANCH   1   7
TORSDOF 1
ENDMDL
