MODEL 1
REMARK minimizedAffinity -4.12891579
REMARK minimizedRMSD -1
REMARK  1 active torsions:
REMARK  status: ('A' for Active; 'I' for Inactive)
REMARK    1  A    between atoms: C1_2  and  C2_3 
ROOT
ATOM      1  C2  UNL d   1       0.975  -1.017  -0.203  0.00  0.00    -0.077 A 
ATOM      2  C3  UNL d   1      -0.308  -1.277  -0.705  0.00  0.00     0.002 A 
ATOM      3  C4  UNL d   1      -1.327  -0.333  -0.565  0.00  0.00     0.002 A 
ATOM      4  C5  UNL d   1      -1.072   0.880   0.072  0.00  0.00    -0.004 A 
ATOM      5  C6  UNL d   1       0.200   1.148   0.576  0.00  0.00     0.002 A 
ATOM      6  C7  UNL d   1       1.219   0.204   0.438  0.00  0.00     0.002 A 
ENDROOT
BRANCH   1   7
ATOM      7  C1  UNL d   1       2.087  -2.013  -0.397  0.00  0.00     0.055 C 
ATOM      8  C   UNL d   1       3.164  -1.854   0.667  0.00  0.00     0.019 C 
ENDBRANCH   1   7
TORSDOF 1
ENDMDL
