MODEL 1
REMARK minimizedAffinity 5.73041582
REMARK minimizedRMSD -1
REMARK  0 active torsions:
REMARK  status: ('A' for Active; 'I' for Inactive)
ROOT
ATOM      1  C   UNL d   1      -3.013   1.478  -2.921  0.00  0.00     0.023 A 
ATOM      2  C1  UNL d   1      -2.155   2.575  -2.996  0.00  0.00     0.003 A 
ATOM      3  C2  UNL d   1      -1.421   2.967  -1.875  0.00  0.00     0.048 A 
ATOM      4  C3  UNL d   1      -1.550   2.258  -0.682  0.00  0.00     0.023 A 
ATOM      5  C4  UNL d   1      -2.406   1.159  -0.602  0.00  0.00     0.048 A 
ATOM      6  C5  UNL d   1      -3.138   0.770  -1.725  0.00  0.00     0.003 A 
ATOM      7  I   UNL d   1      -0.459   2.840   0.989  0.00  0.00    -0.146 I 
ENDROOT
TORSDOF 0
ENDMDL
