MODEL 1
REMARK minimizedAffinity 14.2801123
REMARK minimizedRMSD -1
REMARK  0 active torsions:
REMARK  status: ('A' for Active; 'I' for Inactive)
ROOT
ATOM      1  C   UNL d   1      -3.753  -5.931  -5.338  0.00  0.00     0.023 A 
ATOM      2  C1  UNL d   1      -4.378  -4.776  -5.808  0.00  0.00     0.003 A 
ATOM      3  C2  UNL d   1      -3.637  -3.607  -5.997  0.00  0.00     0.048 A 
ATOM      4  C3  UNL d   1      -2.272  -3.601  -5.715  0.00  0.00     0.023 A 
ATOM      5  C4  UNL d   1      -1.642  -4.755  -5.246  0.00  0.00     0.048 A 
ATOM      6  C5  UNL d   1      -2.387  -5.921  -5.057  0.00  0.00     0.003 A 
ATOM      7  I   UNL d   1      -1.167  -1.863  -5.996  0.00  0.00    -0.146 I 
ENDROOT
TORSDOF 0
ENDMDL
