MODEL 1
REMARK minimizedAffinity 15.5543489
REMARK minimizedRMSD -1
REMARK  0 active torsions:
REMARK  status: ('A' for Active; 'I' for Inactive)
ROOT
ATOM      1  C   UNL d   1      -1.753  -5.693  -5.278  0.00  0.00     0.023 A 
ATOM      2  C1  UNL d   1      -2.943  -5.841  -5.991  0.00  0.00     0.003 A 
ATOM      3  C2  UNL d   1      -4.160  -5.924  -5.311  0.00  0.00     0.048 A 
ATOM      4  C3  UNL d   1      -4.180  -5.857  -3.918  0.00  0.00     0.023 A 
ATOM      5  C4  UNL d   1      -2.992  -5.709  -3.201  0.00  0.00     0.048 A 
ATOM      6  C5  UNL d   1      -1.777  -5.627  -3.885  0.00  0.00     0.003 A 
ATOM      7  I   UNL d   1      -5.990  -5.980  -2.904  0.00  0.00    -0.146 I 
ENDROOT
TORSDOF 0
ENDMDL
