MODEL 1
REMARK minimizedAffinity 6.45553207
REMARK minimizedRMSD -1
REMARK  0 active torsions:
REMARK  status: ('A' for Active; 'I' for Inactive)
ROOT
ATOM      1  C   UNL d   1      -1.543   2.714   1.681  0.00  0.00     0.023 A 
ATOM      2  C1  UNL d   1      -2.042   1.731   2.535  0.00  0.00     0.003 A 
ATOM      3  C2  UNL d   1      -1.210   0.702   2.980  0.00  0.00     0.048 A 
ATOM      4  C3  UNL d   1       0.122   0.663   2.568  0.00  0.00     0.023 A 
ATOM      5  C4  UNL d   1       0.626   1.645   1.714  0.00  0.00     0.048 A 
ATOM      6  C5  UNL d   1      -0.210   2.671   1.271  0.00  0.00     0.003 A 
ATOM      7  I   UNL d   1       1.363  -0.867   3.229  0.00  0.00    -0.146 I 
ENDROOT
TORSDOF 0
ENDMDL
