MODEL 1
REMARK minimizedAffinity 4.20194387
REMARK minimizedRMSD -1
REMARK  0 active torsions:
REMARK  status: ('A' for Active; 'I' for Inactive)
ROOT
ATOM      1  C   UNL d   1       6.000  -3.695  -4.855  0.00  0.00     0.023 A 
ATOM      2  C1  UNL d   1       5.995  -4.144  -3.534  0.00  0.00     0.003 A 
ATOM      3  C2  UNL d   1       5.062  -3.637  -2.627  0.00  0.00     0.048 A 
ATOM      4  C3  UNL d   1       4.137  -2.682  -3.047  0.00  0.00     0.023 A 
ATOM      5  C4  UNL d   1       4.138  -2.230  -4.368  0.00  0.00     0.048 A 
ATOM      6  C5  UNL d   1       5.073  -2.740  -5.271  0.00  0.00     0.003 A 
ATOM      7  I   UNL d   1       2.749  -1.925  -1.698  0.00  0.00    -0.146 I 
ENDROOT
TORSDOF 0
ENDMDL
