MODEL 1
REMARK minimizedAffinity 3.64426136
REMARK minimizedRMSD -1
REMARK  0 active torsions:
REMARK  status: ('A' for Active; 'I' for Inactive)
ROOT
ATOM      1  C   UNL d   1       1.152   4.008  -0.087  0.00  0.00     0.023 A 
ATOM      2  C1  UNL d   1       0.646   2.947  -0.838  0.00  0.00     0.003 A 
ATOM      3  C2  UNL d   1       0.473   1.693  -0.249  0.00  0.00     0.048 A 
ATOM      4  C3  UNL d   1       0.806   1.507   1.092  0.00  0.00     0.023 A 
ATOM      5  C4  UNL d   1       1.312   2.566   1.848  0.00  0.00     0.048 A 
ATOM      6  C5  UNL d   1       1.484   3.818   1.254  0.00  0.00     0.003 A 
ATOM      7  I   UNL d   1       0.548  -0.359   1.971  0.00  0.00    -0.146 I 
ENDROOT
TORSDOF 0
ENDMDL
