MODEL 1
REMARK minimizedAffinity -1.04087758
REMARK minimizedRMSD -1
REMARK  0 active torsions:
REMARK  status: ('A' for Active; 'I' for Inactive)
ROOT
ATOM      1  C   UNL d   1       1.926  -2.412  -1.094  0.00  0.00     0.023 A 
ATOM      2  C1  UNL d   1       1.683  -3.773  -1.282  0.00  0.00     0.003 A 
ATOM      3  C2  UNL d   1       2.679  -4.593  -1.815  0.00  0.00     0.048 A 
ATOM      4  C3  UNL d   1       3.916  -4.047  -2.155  0.00  0.00     0.023 A 
ATOM      5  C4  UNL d   1       4.164  -2.686  -1.968  0.00  0.00     0.048 A 
ATOM      6  C5  UNL d   1       3.164  -1.870  -1.436  0.00  0.00     0.003 A 
ATOM      7  I   UNL d   1       5.401  -5.267  -2.948  0.00  0.00    -0.146 I 
ENDROOT
TORSDOF 0
ENDMDL
