MODEL 1
REMARK minimizedAffinity 5.95968914
REMARK minimizedRMSD -1
REMARK  0 active torsions:
REMARK  status: ('A' for Active; 'I' for Inactive)
ROOT
ATOM      1  C   UNL d   1       1.185   3.812  -0.250  0.00  0.00     0.023 A 
ATOM      2  C1  UNL d   1       0.944   4.165  -1.578  0.00  0.00     0.003 A 
ATOM      3  C2  UNL d   1      -0.250   3.786  -2.196  0.00  0.00     0.048 A 
ATOM      4  C3  UNL d   1      -1.198   3.056  -1.480  0.00  0.00     0.023 A 
ATOM      5  C4  UNL d   1      -0.961   2.702  -0.151  0.00  0.00     0.048 A 
ATOM      6  C5  UNL d   1       0.234   3.081   0.463  0.00  0.00     0.003 A 
ATOM      7  I   UNL d   1      -2.976   2.493  -2.398  0.00  0.00    -0.146 I 
ENDROOT
TORSDOF 0
ENDMDL
