MODEL 1
REMARK minimizedAffinity 1.53034568
REMARK minimizedRMSD -1
REMARK  0 active torsions:
REMARK  status: ('A' for Active; 'I' for Inactive)
ROOT
ATOM      1  C   UNL d   1      -0.237   3.364  -1.116  0.00  0.00     0.023 A 
ATOM      2  C1  UNL d   1      -0.933   4.414  -1.716  0.00  0.00     0.003 A 
ATOM      3  C2  UNL d   1      -1.838   5.171  -0.969  0.00  0.00     0.048 A 
ATOM      4  C3  UNL d   1      -2.040   4.874   0.379  0.00  0.00     0.023 A 
ATOM      5  C4  UNL d   1      -1.346   3.825   0.983  0.00  0.00     0.048 A 
ATOM      6  C5  UNL d   1      -0.443   3.070   0.232  0.00  0.00     0.003 A 
ATOM      7  I   UNL d   1      -3.385   6.000   1.493  0.00  0.00    -0.146 I 
ENDROOT
TORSDOF 0
ENDMDL
