MODEL 1
REMARK minimizedAffinity 4.10565519
REMARK minimizedRMSD -1
REMARK  1 active torsions:
REMARK  status: ('A' for Active; 'I' for Inactive)
REMARK    1  A    between atoms: C1_2  and  C2_3 
ROOT
ATOM      1  C2  UNL d   1       3.873  -5.265  -3.541  0.00  0.00    -0.076 A 
ATOM      2  C3  UNL d   1       3.247  -5.455  -4.786  0.00  0.00     0.004 A 
ATOM      3  C4  UNL d   1       3.985  -5.819  -5.911  0.00  0.00    -0.003 A 
ATOM      4  C5  UNL d   1       5.360  -6.000  -5.810  0.00  0.00     0.000 A 
ATOM      5  C6  UNL d   1       5.994  -5.833  -4.580  0.00  0.00     0.000 A 
ATOM      6  C7  UNL d   1       5.263  -5.482  -3.432  0.00  0.00    -0.073 A 
ATOM      7  C8  UNL d   1       5.999  -5.309  -2.132  0.00  0.00     0.078 C 
ENDROOT
BRANCH   1   8
ATOM      8  C1  UNL d   1       3.025  -4.844  -2.362  0.00  0.00     0.053 C 
ATOM      9  C   UNL d   1       3.612  -5.295  -1.033  0.00  0.00     0.018 C 
ENDBRANCH   1   8
TORSDOF 1
ENDMDL
