MODEL 1
REMARK minimizedAffinity 15.7798147
REMARK minimizedRMSD -1
REMARK  1 active torsions:
REMARK  status: ('A' for Active; 'I' for Inactive)
REMARK    1  A    between atoms: C1_2  and  C2_3 
ROOT
ATOM      1  C2  UNL d   1       0.069   2.198   1.568  0.00  0.00    -0.076 A 
ATOM      2  C3  UNL d   1       1.136   1.716   2.346  0.00  0.00     0.004 A 
ATOM      3  C4  UNL d   1       2.444   1.742   1.866  0.00  0.00    -0.003 A 
ATOM      4  C5  UNL d   1       2.706   2.252   0.599  0.00  0.00     0.000 A 
ATOM      5  C6  UNL d   1       1.663   2.751  -0.180  0.00  0.00     0.000 A 
ATOM      6  C7  UNL d   1       0.340   2.746   0.296  0.00  0.00    -0.073 A 
ATOM      7  C8  UNL d   1      -0.747   3.291  -0.588  0.00  0.00     0.078 C 
ENDROOT
BRANCH   1   8
ATOM      8  C1  UNL d   1      -1.332   2.118   2.131  0.00  0.00     0.053 C 
ATOM      9  C   UNL d   1      -1.366   2.312   3.639  0.00  0.00     0.018 C 
ENDBRANCH   1   8
TORSDOF 1
ENDMDL
