MODEL 1
REMARK minimizedAffinity 15.8823557
REMARK minimizedRMSD -1
REMARK  1 active torsions:
REMARK  status: ('A' for Active; 'I' for Inactive)
REMARK    1  A    between atoms: C1_2  and  C2_3 
ROOT
ATOM      1  C2  UNL d   1       2.334  -5.591  -3.527  0.00  0.00    -0.076 A 
ATOM      2  C3  UNL d   1       0.982  -5.227  -3.650  0.00  0.00     0.004 A 
ATOM      3  C4  UNL d   1       0.457  -4.820  -4.875  0.00  0.00    -0.003 A 
ATOM      4  C5  UNL d   1       1.276  -4.771  -5.998  0.00  0.00     0.000 A 
ATOM      5  C6  UNL d   1       2.615  -5.145  -5.898  0.00  0.00     0.000 A 
ATOM      6  C7  UNL d   1       3.156  -5.573  -4.674  0.00  0.00    -0.073 A 
ATOM      7  C8  UNL d   1       4.609  -5.960  -4.622  0.00  0.00     0.078 C 
ENDROOT
BRANCH   1   8
ATOM      8  C1  UNL d   1       2.854  -5.998  -2.167  0.00  0.00     0.053 C 
ATOM      9  C   UNL d   1       1.800  -5.867  -1.078  0.00  0.00     0.018 C 
ENDBRANCH   1   8
TORSDOF 1
ENDMDL
