MODEL 1
REMARK minimizedAffinity 20.2893047
REMARK minimizedRMSD -1
REMARK  1 active torsions:
REMARK  status: ('A' for Active; 'I' for Inactive)
REMARK    1  A    between atoms: C1_2  and  C2_3 
ROOT
ATOM      1  C2  UNL d   1      -2.035  -4.304   1.002  0.00  0.00    -0.076 A 
ATOM      2  C3  UNL d   1      -2.594  -5.578   1.201  0.00  0.00     0.004 A 
ATOM      3  C4  UNL d   1      -2.991  -5.997   2.470  0.00  0.00    -0.003 A 
ATOM      4  C5  UNL d   1      -2.836  -5.148   3.560  0.00  0.00     0.000 A 
ATOM      5  C6  UNL d   1      -2.300  -3.874   3.378  0.00  0.00     0.000 A 
ATOM      6  C7  UNL d   1      -1.910  -3.430   2.103  0.00  0.00    -0.073 A 
ATOM      7  C8  UNL d   1      -1.332  -2.048   1.966  0.00  0.00     0.078 C 
ENDROOT
BRANCH   1   8
ATOM      8  C1  UNL d   1      -1.598  -3.914  -0.392  0.00  0.00     0.053 C 
ATOM      9  C   UNL d   1      -1.977  -4.956  -1.433  0.00  0.00     0.018 C 
ENDBRANCH   1   8
TORSDOF 1
ENDMDL
