MODEL 1
REMARK minimizedAffinity 8.61579895
REMARK minimizedRMSD -1
REMARK  1 active torsions:
REMARK  status: ('A' for Active; 'I' for Inactive)
REMARK    1  A    between atoms: C1_2  and  C2_3 
ROOT
ATOM      1  C2  UNL d   1       4.191  -4.171  -4.489  0.00  0.00    -0.076 A 
ATOM      2  C3  UNL d   1       2.862  -4.192  -4.030  0.00  0.00     0.004 A 
ATOM      3  C4  UNL d   1       1.937  -5.095  -4.551  0.00  0.00    -0.003 A 
ATOM      4  C5  UNL d   1       2.326  -5.993  -5.539  0.00  0.00     0.000 A 
ATOM      5  C6  UNL d   1       3.644  -5.998  -5.994  0.00  0.00     0.000 A 
ATOM      6  C7  UNL d   1       4.593  -5.105  -5.468  0.00  0.00    -0.073 A 
ATOM      7  C8  UNL d   1       6.000  -5.151  -5.999  0.00  0.00     0.078 C 
ENDROOT
BRANCH   1   8
ATOM      8  C1  UNL d   1       5.143  -3.151  -3.906  0.00  0.00     0.053 C 
ATOM      9  C   UNL d   1       5.385  -1.978  -4.843  0.00  0.00     0.018 C 
ENDBRANCH   1   8
TORSDOF 1
ENDMDL
