MODEL 1
REMARK minimizedAffinity 7.44454241
REMARK minimizedRMSD -1
REMARK  1 active torsions:
REMARK  status: ('A' for Active; 'I' for Inactive)
REMARK    1  A    between atoms: C1_2  and  C2_3 
ROOT
ATOM      1  C2  UNL d   1       4.424  -4.463  -4.233  0.00  0.00    -0.076 A 
ATOM      2  C3  UNL d   1       3.142  -4.312  -3.675  0.00  0.00     0.004 A 
ATOM      3  C4  UNL d   1       2.039  -4.963  -4.225  0.00  0.00    -0.003 A 
ATOM      4  C5  UNL d   1       2.200  -5.777  -5.341  0.00  0.00     0.000 A 
ATOM      5  C6  UNL d   1       3.467  -5.953  -5.896  0.00  0.00     0.000 A 
ATOM      6  C7  UNL d   1       4.592  -5.316  -5.344  0.00  0.00    -0.073 A 
ATOM      7  C8  UNL d   1       5.933  -5.537  -5.987  0.00  0.00     0.078 C 
ENDROOT
BRANCH   1   8
ATOM      8  C1  UNL d   1       5.578  -3.711  -3.610  0.00  0.00     0.053 C 
ATOM      9  C   UNL d   1       5.856  -2.389  -4.309  0.00  0.00     0.018 C 
ENDBRANCH   1   8
TORSDOF 1
ENDMDL
