MODEL 1
REMARK minimizedAffinity 23.3368969
REMARK minimizedRMSD -1
REMARK  1 active torsions:
REMARK  status: ('A' for Active; 'I' for Inactive)
REMARK    1  A    between atoms: C1_2  and  C2_3 
ROOT
ATOM      1  C2  UNL d   1       2.256   3.705   0.618  0.00  0.00    -0.076 A 
ATOM      2  C3  UNL d   1       0.949   3.602   0.111  0.00  0.00     0.004 A 
ATOM      3  C4  UNL d   1       0.302   2.370   0.039  0.00  0.00    -0.003 A 
ATOM      4  C5  UNL d   1       0.951   1.220   0.474  0.00  0.00     0.000 A 
ATOM      5  C6  UNL d   1       2.241   1.305   0.995  0.00  0.00     0.000 A 
ATOM      6  C7  UNL d   1       2.902   2.542   1.090  0.00  0.00    -0.073 A 
ATOM      7  C8  UNL d   1       4.295   2.575   1.655  0.00  0.00     0.078 C 
ENDROOT
BRANCH   1   8
ATOM      8  C1  UNL d   1       2.918   5.064   0.646  0.00  0.00     0.053 C 
ATOM      9  C   UNL d   1       2.372   6.000  -0.422  0.00  0.00     0.018 C 
ENDBRANCH   1   8
TORSDOF 1
ENDMDL
