MODEL 1
REMARK minimizedAffinity 6.72674465
REMARK minimizedRMSD -1
REMARK  1 active torsions:
REMARK  status: ('A' for Active; 'I' for Inactive)
REMARK    1  A    between atoms: C1_2  and  C2_3 
ROOT
ATOM      1  C2  UNL d   1       4.256   2.119  -3.902  0.00  0.00    -0.076 A 
ATOM      2  C3  UNL d   1       5.305   2.869  -3.342  0.00  0.00     0.004 A 
ATOM      3  C4  UNL d   1       5.999   3.809  -4.101  0.00  0.00    -0.003 A 
ATOM      4  C5  UNL d   1       5.655   4.016  -5.433  0.00  0.00     0.000 A 
ATOM      5  C6  UNL d   1       4.605   3.294  -5.999  0.00  0.00     0.000 A 
ATOM      6  C7  UNL d   1       3.884   2.354  -5.243  0.00  0.00    -0.073 A 
ATOM      7  C8  UNL d   1       2.765   1.599  -5.907  0.00  0.00     0.078 C 
ENDROOT
BRANCH   1   8
ATOM      8  C1  UNL d   1       3.557   1.094  -3.038  0.00  0.00     0.053 C 
ATOM      9  C   UNL d   1       3.526   1.492  -1.571  0.00  0.00     0.018 C 
ENDBRANCH   1   8
TORSDOF 1
ENDMDL
