MODEL 1
REMARK minimizedAffinity 17.0972576
REMARK minimizedRMSD -1
REMARK  1 active torsions:
REMARK  status: ('A' for Active; 'I' for Inactive)
REMARK    1  A    between atoms: C1_2  and  C2_3 
ROOT
ATOM      1  C2  UNL d   1      -2.118  -3.843   0.772  0.00  0.00    -0.076 A 
ATOM      2  C3  UNL d   1      -1.694  -3.244  -0.427  0.00  0.00     0.004 A 
ATOM      3  C4  UNL d   1      -1.443  -4.011  -1.563  0.00  0.00    -0.003 A 
ATOM      4  C5  UNL d   1      -1.614  -5.391  -1.519  0.00  0.00     0.000 A 
ATOM      5  C6  UNL d   1      -2.052  -6.000  -0.343  0.00  0.00     0.000 A 
ATOM      6  C7  UNL d   1      -2.324  -5.239   0.806  0.00  0.00    -0.073 A 
ATOM      7  C8  UNL d   1      -2.788  -5.948   2.049  0.00  0.00     0.078 C 
ENDROOT
BRANCH   1   8
ATOM      8  C1  UNL d   1      -2.349  -2.963   1.980  0.00  0.00     0.053 C 
ATOM      9  C   UNL d   1      -1.693  -1.598   1.840  0.00  0.00     0.018 C 
ENDBRANCH   1   8
TORSDOF 1
ENDMDL
