MODEL 1
REMARK minimizedAffinity 19.2712936
REMARK minimizedRMSD -1
REMARK  1 active torsions:
REMARK  status: ('A' for Active; 'I' for Inactive)
REMARK    1  A    between atoms: C1_2  and  C2_3 
ROOT
ATOM      1  C2  UNL d   1       3.399   2.108   0.569  0.00  0.00    -0.076 A 
ATOM      2  C3  UNL d   1       2.210   2.354  -0.139  0.00  0.00     0.004 A 
ATOM      3  C4  UNL d   1       0.977   2.359   0.510  0.00  0.00    -0.003 A 
ATOM      4  C5  UNL d   1       0.912   2.119   1.878  0.00  0.00     0.000 A 
ATOM      5  C6  UNL d   1       2.083   1.891   2.599  0.00  0.00     0.000 A 
ATOM      6  C7  UNL d   1       3.336   1.898   1.964  0.00  0.00    -0.073 A 
ATOM      7  C8  UNL d   1       4.566   1.640   2.790  0.00  0.00     0.078 C 
ENDROOT
BRANCH   1   8
ATOM      8  C1  UNL d   1       4.705   2.087  -0.192  0.00  0.00     0.053 C 
ATOM      9  C   UNL d   1       4.514   2.314  -1.684  0.00  0.00     0.018 C 
ENDBRANCH   1   8
TORSDOF 1
ENDMDL
