MODEL 1
REMARK minimizedAffinity 8.71649933
REMARK minimizedRMSD -1
REMARK  1 active torsions:
REMARK  status: ('A' for Active; 'I' for Inactive)
REMARK    1  A    between atoms: C1_2  and  C2_3 
ROOT
ATOM      1  C2  UNL d   1      -2.404  -3.609   0.571  0.00  0.00    -0.076 A 
ATOM      2  C3  UNL d   1      -1.928  -3.392  -0.734  0.00  0.00     0.004 A 
ATOM      3  C4  UNL d   1      -1.603  -4.461  -1.566  0.00  0.00    -0.003 A 
ATOM      4  C5  UNL d   1      -1.750  -5.766  -1.108  0.00  0.00     0.000 A 
ATOM      5  C6  UNL d   1      -2.238  -6.000   0.178  0.00  0.00     0.000 A 
ATOM      6  C7  UNL d   1      -2.586  -4.933   1.024  0.00  0.00    -0.073 A 
ATOM      7  C8  UNL d   1      -3.101  -5.243   2.402  0.00  0.00     0.078 C 
ENDROOT
BRANCH   1   8
ATOM      8  C1  UNL d   1      -2.715  -2.409   1.437  0.00  0.00     0.053 C 
ATOM      9  C   UNL d   1      -1.464  -1.646   1.846  0.00  0.00     0.018 C 
ENDBRANCH   1   8
TORSDOF 1
ENDMDL
