MODEL 1
REMARK minimizedAffinity 16.2285061
REMARK minimizedRMSD -1
REMARK  1 active torsions:
REMARK  status: ('A' for Active; 'I' for Inactive)
REMARK    1  A    between atoms: C1_2  and  C2_3 
ROOT
ATOM      1  C2  UNL d   1       3.441   1.939   0.070  0.00  0.00    -0.076 A 
ATOM      2  C3  UNL d   1       3.900   2.138   1.384  0.00  0.00     0.004 A 
ATOM      3  C4  UNL d   1       3.007   2.223   2.451  0.00  0.00    -0.003 A 
ATOM      4  C5  UNL d   1       1.640   2.109   2.221  0.00  0.00     0.000 A 
ATOM      5  C6  UNL d   1       1.168   1.893   0.927  0.00  0.00     0.000 A 
ATOM      6  C7  UNL d   1       2.056   1.789  -0.158  0.00  0.00    -0.073 A 
ATOM      7  C8  UNL d   1       1.492   1.562  -1.534  0.00  0.00     0.078 C 
ENDROOT
BRANCH   1   8
ATOM      8  C1  UNL d   1       4.455   1.883  -1.050  0.00  0.00     0.053 C 
ATOM      9  C   UNL d   1       5.663   2.768  -0.788  0.00  0.00     0.018 C 
ENDBRANCH   1   8
TORSDOF 1
ENDMDL
