MODEL 1
REMARK minimizedAffinity 12.7543993
REMARK minimizedRMSD -1
REMARK  1 active torsions:
REMARK  status: ('A' for Active; 'I' for Inactive)
REMARK    1  A    between atoms: C1_2  and  C2_3 
ROOT
ATOM      1  C2  UNL d   1       3.002   1.927   0.624  0.00  0.00    -0.076 A 
ATOM      2  C3  UNL d   1       3.341   1.839  -0.737  0.00  0.00     0.004 A 
ATOM      3  C4  UNL d   1       4.548   2.352  -1.210  0.00  0.00    -0.003 A 
ATOM      4  C5  UNL d   1       5.434   2.962  -0.330  0.00  0.00     0.000 A 
ATOM      5  C6  UNL d   1       5.122   3.042   1.027  0.00  0.00     0.000 A 
ATOM      6  C7  UNL d   1       3.917   2.515   1.523  0.00  0.00    -0.073 A 
ATOM      7  C8  UNL d   1       3.629   2.635   2.994  0.00  0.00     0.078 C 
ENDROOT
BRANCH   1   8
ATOM      8  C1  UNL d   1       1.668   1.376   1.075  0.00  0.00     0.053 C 
ATOM      9  C   UNL d   1       0.495   2.190   0.551  0.00  0.00     0.018 C 
ENDBRANCH   1   8
TORSDOF 1
ENDMDL
