MODEL 1
REMARK minimizedAffinity -6.42680073
REMARK minimizedRMSD -1
REMARK  3 active torsions:
REMARK  status: ('A' for Active; 'I' for Inactive)
REMARK    1  A    between atoms: C3'_2  and  C2'_3 
REMARK    2  A    between atoms: C2'_3  and  C1'_4 
REMARK    3  A    between atoms: C1'_4  and  C1_5 
ROOT
ATOM      1  C1  N4B d   1       0.365   0.036   0.324  0.00  0.00    -0.075 A 
ATOM      2  C2  N4B d   1      -1.031  -0.132   0.455  0.00  0.00     0.002 A 
ATOM      3  C3  N4B d   1      -1.717   0.554   1.427  0.00  0.00     0.002 A 
ATOM      4  C4  N4B d   1      -1.029   1.396   2.288  0.00  0.00    -0.004 A 
ATOM      5  C5  N4B d   1       0.315   1.572   2.139  0.00  0.00     0.002 A 
ATOM      6  C6  N4B d   1       1.017   0.892   1.163  0.00  0.00     0.002 A 
ENDROOT
BRANCH   1   7
ATOM      7  C1' N4B d   1       1.171  -0.757  -0.668  0.00  0.00     0.057 C 
BRANCH   7   8
ATOM      8  C2' N4B d   1       0.674  -0.449  -2.077  0.00  0.00     0.009 C 
BRANCH   8   9
ATOM      9  C3' N4B d   1       1.647   0.433  -2.842  0.00  0.00     0.004 C 
ATOM     10  C4' N4B d   1       0.960   1.354  -3.805  0.00  0.00     0.003 C 
ENDBRANCH   8   9
ENDBRANCH   7   8
ENDBRANCH   1   7
TORSDOF 3
ENDMDL
