MODEL 1
REMARK minimizedAffinity -1.81074059
REMARK minimizedRMSD -1
REMARK  3 active torsions:
REMARK  status: ('A' for Active; 'I' for Inactive)
REMARK    1  A    between atoms: C3'_2  and  C2'_3 
REMARK    2  A    between atoms: C2'_3  and  C1'_4 
REMARK    3  A    between atoms: C1'_4  and  C1_5 
ROOT
ATOM      1  C1  N4B d   1      -0.140  -0.099   0.462  0.00  0.00    -0.075 A 
ATOM      2  C2  N4B d   1      -1.280  -0.483   1.202  0.00  0.00     0.002 A 
ATOM      3  C3  N4B d   1      -1.515   0.069   2.437  0.00  0.00     0.002 A 
ATOM      4  C4  N4B d   1      -0.617   0.988   2.960  0.00  0.00    -0.004 A 
ATOM      5  C5  N4B d   1       0.468   1.372   2.228  0.00  0.00     0.002 A 
ATOM      6  C6  N4B d   1       0.715   0.829   0.983  0.00  0.00     0.002 A 
ENDROOT
BRANCH   1   7
ATOM      7  C1' N4B d   1       0.205  -0.739  -0.855  0.00  0.00     0.057 C 
BRANCH   7   8
ATOM      8  C2' N4B d   1       0.431   0.353  -1.897  0.00  0.00     0.009 C 
BRANCH   8   9
ATOM      9  C3' N4B d   1       0.357  -0.190  -3.314  0.00  0.00     0.004 C 
ATOM     10  C4' N4B d   1       0.944   0.747  -4.327  0.00  0.00     0.003 C 
ENDBRANCH   8   9
ENDBRANCH   7   8
ENDBRANCH   1   7
TORSDOF 3
ENDMDL
