MODEL 1
REMARK minimizedAffinity -3.66172767
REMARK minimizedRMSD -1
REMARK  3 active torsions:
REMARK  status: ('A' for Active; 'I' for Inactive)
REMARK    1  A    between atoms: C3'_2  and  C2'_3 
REMARK    2  A    between atoms: C2'_3  and  C1'_4 
REMARK    3  A    between atoms: C1'_4  and  C1_5 
ROOT
ATOM      1  C1  N4B d   1      -0.470   0.138   0.483  0.00  0.00    -0.075 A 
ATOM      2  C2  N4B d   1      -1.429  -0.222   1.455  0.00  0.00     0.002 A 
ATOM      3  C3  N4B d   1      -1.701   0.628   2.499  0.00  0.00     0.002 A 
ATOM      4  C4  N4B d   1      -1.016   1.829   2.602  0.00  0.00    -0.004 A 
ATOM      5  C5  N4B d   1      -0.110   2.181   1.644  0.00  0.00     0.002 A 
ATOM      6  C6  N4B d   1       0.171   1.338   0.587  0.00  0.00     0.002 A 
ENDROOT
BRANCH   1   7
ATOM      7  C1' N4B d   1      -0.077  -0.796  -0.629  0.00  0.00     0.057 C 
BRANCH   7   8
ATOM      8  C2' N4B d   1       0.583   0.006  -1.747  0.00  0.00     0.009 C 
BRANCH   8   9
ATOM      9  C3' N4B d   1       0.309  -0.595  -3.115  0.00  0.00     0.004 C 
ATOM     10  C4' N4B d   1      -0.450   0.333  -4.016  0.00  0.00     0.003 C 
ENDBRANCH   8   9
ENDBRANCH   7   8
ENDBRANCH   1   7
TORSDOF 3
ENDMDL
