MODEL 1
REMARK minimizedAffinity -5.61639881
REMARK minimizedRMSD -1
REMARK  3 active torsions:
REMARK  status: ('A' for Active; 'I' for Inactive)
REMARK    1  A    between atoms: C3'_2  and  C2'_3 
REMARK    2  A    between atoms: C2'_3  and  C1'_4 
REMARK    3  A    between atoms: C1'_4  and  C1_5 
ROOT
ATOM      1  C1  N4B d   1       0.431  -0.452  -1.951  0.00  0.00    -0.075 A 
ATOM      2  C2  N4B d   1      -0.081  -0.810  -3.218  0.00  0.00     0.002 A 
ATOM      3  C3  N4B d   1       0.476  -0.283  -4.357  0.00  0.00     0.002 A 
ATOM      4  C4  N4B d   1       1.529   0.614  -4.254  0.00  0.00    -0.004 A 
ATOM      5  C5  N4B d   1       2.034   0.934  -3.028  0.00  0.00     0.002 A 
ATOM      6  C6  N4B d   1       1.486   0.409  -1.875  0.00  0.00     0.002 A 
ENDROOT
BRANCH   1   7
ATOM      7  C1' N4B d   1      -0.201  -0.936  -0.674  0.00  0.00     0.057 C 
BRANCH   7   8
ATOM      8  C2' N4B d   1       0.103   0.058   0.442  0.00  0.00     0.009 C 
BRANCH   8   9
ATOM      9  C3' N4B d   1      -1.136   0.825   0.873  0.00  0.00     0.004 C 
ATOM     10  C4' N4B d   1      -0.978   1.476   2.215  0.00  0.00     0.003 C 
ENDBRANCH   8   9
ENDBRANCH   7   8
ENDBRANCH   1   7
TORSDOF 3
ENDMDL
