MODEL 1
REMARK minimizedAffinity -3.6476059
REMARK minimizedRMSD -1
REMARK  0 active torsions:
REMARK  status: ('A' for Active; 'I' for Inactive)
ROOT
ATOM      1  C4' PXY d   1      -1.776   2.399   2.065  0.00  0.00     0.077 C 
ATOM      2  C1' PXY d   1       1.178  -1.366  -1.177  0.00  0.00     0.077 C 
ATOM      3  C1  PXY d   1       0.406  -0.385  -0.316  0.00  0.00    -0.082 A 
ATOM      4  C2  PXY d   1      -0.547   0.354  -0.861  0.00  0.00     0.003 A 
ATOM      5  C3  PXY d   1      -1.233   1.269  -0.104  0.00  0.00     0.003 A 
ATOM      6  C4  PXY d   1      -0.978   1.390   1.236  0.00  0.00    -0.082 A 
ATOM      7  C5  PXY d   1      -0.015   0.631   1.801  0.00  0.00     0.003 A 
ATOM      8  C6  PXY d   1       0.699  -0.262   1.007  0.00  0.00     0.003 A 
ENDROOT
TORSDOF 0
ENDMDL
