MODEL 1
REMARK minimizedAffinity -3.81660891
REMARK minimizedRMSD -1
REMARK  0 active torsions:
REMARK  status: ('A' for Active; 'I' for Inactive)
ROOT
ATOM      1  C4' PXY d   1       0.273  -2.306  -1.129  0.00  0.00     0.077 C 
ATOM      2  C1' PXY d   1      -0.996   2.406   1.968  0.00  0.00     0.077 C 
ATOM      3  C1  PXY d   1      -0.674   1.173   1.148  0.00  0.00    -0.082 A 
ATOM      4  C2  PXY d   1       0.030   0.192   1.691  0.00  0.00     0.003 A 
ATOM      5  C3  PXY d   1       0.358  -0.916   0.953  0.00  0.00     0.003 A 
ATOM      6  C4  PXY d   1      -0.084  -1.047  -0.336  0.00  0.00    -0.082 A 
ATOM      7  C5  PXY d   1      -0.811  -0.055  -0.893  0.00  0.00     0.003 A 
ATOM      8  C6  PXY d   1      -1.099   1.080  -0.141  0.00  0.00     0.003 A 
ENDROOT
TORSDOF 0
ENDMDL
