MODEL 1
REMARK minimizedAffinity -4.17683077
REMARK minimizedRMSD -1
REMARK  0 active torsions:
REMARK  status: ('A' for Active; 'I' for Inactive)
ROOT
ATOM      1  C4' PXY d   1      -1.215   2.526   1.576  0.00  0.00     0.077 C 
ATOM      2  C1' PXY d   1       0.669  -2.120  -1.301  0.00  0.00     0.077 C 
ATOM      3  C1  PXY d   1       0.175  -0.895  -0.558  0.00  0.00    -0.082 A 
ATOM      4  C2  PXY d   1       0.426  -0.769   0.735  0.00  0.00     0.003 A 
ATOM      5  C3  PXY d   1      -0.042   0.317   1.430  0.00  0.00     0.003 A 
ATOM      6  C4  PXY d   1      -0.727   1.310   0.783  0.00  0.00    -0.082 A 
ATOM      7  C5  PXY d   1      -0.978   1.194  -0.538  0.00  0.00     0.003 A 
ATOM      8  C6  PXY d   1      -0.531   0.064  -1.217  0.00  0.00     0.003 A 
ENDROOT
TORSDOF 0
ENDMDL
