MODEL 1
REMARK minimizedAffinity -4.31290483
REMARK minimizedRMSD -1
REMARK  0 active torsions:
REMARK  status: ('A' for Active; 'I' for Inactive)
ROOT
ATOM      1  C4' PXY d   1       0.776  -1.170  -1.125  0.00  0.00     0.077 C 
ATOM      2  C1' PXY d   1      -1.841   3.117   1.736  0.00  0.00     0.077 C 
ATOM      3  C1  PXY d   1      -1.146   1.992   0.995  0.00  0.00    -0.082 A 
ATOM      4  C2  PXY d   1      -1.309   1.871  -0.313  0.00  0.00     0.003 A 
ATOM      5  C3  PXY d   1      -0.714   0.840  -0.993  0.00  0.00     0.003 A 
ATOM      6  C4  PXY d   1       0.101  -0.044  -0.338  0.00  0.00    -0.082 A 
ATOM      7  C5  PXY d   1       0.281   0.079   0.994  0.00  0.00     0.003 A 
ATOM      8  C6  PXY d   1      -0.366   1.108   1.674  0.00  0.00     0.003 A 
ENDROOT
TORSDOF 0
ENDMDL
