MODEL 1
REMARK minimizedAffinity -5.37140703
REMARK minimizedRMSD -1
REMARK  0 active torsions:
REMARK  status: ('A' for Active; 'I' for Inactive)
ROOT
ATOM      1  C4' PXY d   1      -1.201   3.482  -1.228  0.00  0.00     0.077 C 
ATOM      2  C1' PXY d   1       0.839  -0.868   1.986  0.00  0.00     0.077 C 
ATOM      3  C1  PXY d   1       0.297   0.278   1.153  0.00  0.00    -0.082 A 
ATOM      4  C2  PXY d   1       0.247   0.162  -0.164  0.00  0.00     0.003 A 
ATOM      5  C3  PXY d   1      -0.210   1.200  -0.934  0.00  0.00     0.003 A 
ATOM      6  C4  PXY d   1      -0.670   2.348  -0.347  0.00  0.00    -0.082 A 
ATOM      7  C5  PXY d   1      -0.632   2.469   0.997  0.00  0.00     0.003 A 
ATOM      8  C6  PXY d   1      -0.126   1.420   1.759  0.00  0.00     0.003 A 
ENDROOT
TORSDOF 0
ENDMDL
