MODEL 1
REMARK minimizedAffinity -4.39889812
REMARK minimizedRMSD -1
REMARK  0 active torsions:
REMARK  status: ('A' for Active; 'I' for Inactive)
ROOT
ATOM      1  C4' PXY d   1       1.102  -1.078  -1.176  0.00  0.00     0.077 C 
ATOM      2  C1' PXY d   1      -2.014   3.016   1.460  0.00  0.00     0.077 C 
ATOM      3  C1  PXY d   1      -1.188   1.943   0.779  0.00  0.00    -0.082 A 
ATOM      4  C2  PXY d   1      -1.255   1.802  -0.535  0.00  0.00     0.003 A 
ATOM      5  C3  PXY d   1      -0.540   0.815  -1.164  0.00  0.00     0.003 A 
ATOM      6  C4  PXY d   1       0.293  -0.001  -0.447  0.00  0.00    -0.082 A 
ATOM      7  C5  PXY d   1       0.375   0.143   0.893  0.00  0.00     0.003 A 
ATOM      8  C6  PXY d   1      -0.391   1.124   1.517  0.00  0.00     0.003 A 
ENDROOT
TORSDOF 0
ENDMDL
