MODEL 1
REMARK minimizedAffinity -4.82305861
REMARK minimizedRMSD -1
REMARK  0 active torsions:
REMARK  status: ('A' for Active; 'I' for Inactive)
ROOT
ATOM      1  C4' PXY d   1       1.144  -0.956  -1.569  0.00  0.00     0.077 C 
ATOM      2  C1' PXY d   1      -1.784   2.572   1.953  0.00  0.00     0.077 C 
ATOM      3  C1  PXY d   1      -1.008   1.644   1.039  0.00  0.00    -0.082 A 
ATOM      4  C2  PXY d   1      -1.070   1.814  -0.272  0.00  0.00     0.003 A 
ATOM      5  C3  PXY d   1      -0.400   0.964  -1.114  0.00  0.00     0.003 A 
ATOM      6  C4  PXY d   1       0.385  -0.037  -0.608  0.00  0.00    -0.082 A 
ATOM      7  C5  PXY d   1       0.462  -0.210   0.729  0.00  0.00     0.003 A 
ATOM      8  C6  PXY d   1      -0.258   0.638   1.565  0.00  0.00     0.003 A 
ENDROOT
TORSDOF 0
ENDMDL
