MODEL 1
REMARK minimizedAffinity -1.35771227
REMARK minimizedRMSD -1
REMARK  0 active torsions:
REMARK  status: ('A' for Active; 'I' for Inactive)
ROOT
ATOM      1  C4' PXY d   1       0.671  -1.963  -1.065  0.00  0.00     0.077 C 
ATOM      2  C1' PXY d   1      -0.053   2.920   1.941  0.00  0.00     0.077 C 
ATOM      3  C1  PXY d   1       0.129   1.644   1.144  0.00  0.00    -0.082 A 
ATOM      4  C2  PXY d   1       0.452   0.523   1.768  0.00  0.00     0.003 A 
ATOM      5  C3  PXY d   1       0.652  -0.633   1.058  0.00  0.00     0.003 A 
ATOM      6  C4  PXY d   1       0.468  -0.653  -0.299  0.00  0.00    -0.082 A 
ATOM      7  C5  PXY d   1       0.129   0.484  -0.942  0.00  0.00     0.003 A 
ATOM      8  C6  PXY d   1      -0.029   1.656  -0.208  0.00  0.00     0.003 A 
ENDROOT
TORSDOF 0
ENDMDL
