MODEL 1
REMARK minimizedAffinity -4.99192524
REMARK minimizedRMSD -1
REMARK  0 active torsions:
REMARK  status: ('A' for Active; 'I' for Inactive)
ROOT
ATOM      1  C4' PXY d   1       0.307  -1.680  -1.271  0.00  0.00     0.077 C 
ATOM      2  C1' PXY d   1      -0.423   3.141   1.834  0.00  0.00     0.077 C 
ATOM      3  C1  PXY d   1      -0.238   1.882   1.010  0.00  0.00    -0.082 A 
ATOM      4  C2  PXY d   1      -0.031   0.726   1.619  0.00  0.00     0.003 A 
ATOM      5  C3  PXY d   1       0.170  -0.417   0.889  0.00  0.00     0.003 A 
ATOM      6  C4  PXY d   1       0.106  -0.385  -0.479  0.00  0.00    -0.082 A 
ATOM      7  C5  PXY d   1      -0.115   0.789  -1.108  0.00  0.00     0.003 A 
ATOM      8  C6  PXY d   1      -0.276   1.945  -0.349  0.00  0.00     0.003 A 
ENDROOT
TORSDOF 0
ENDMDL
