MODEL 1
REMARK minimizedAffinity 7.71931219
REMARK minimizedRMSD -1
REMARK  1 active torsions:
REMARK  status: ('A' for Active; 'I' for Inactive)
REMARK    1  A    between atoms: C1_2  and  C2_3 
ROOT
ATOM      1  C2  UNL d   1      -2.666  -2.538  -1.929  0.00  0.00    -0.076 A 
ATOM      2  C3  UNL d   1      -1.574  -2.224  -1.101  0.00  0.00     0.004 A 
ATOM      3  C4  UNL d   1      -1.644  -2.407   0.279  0.00  0.00    -0.003 A 
ATOM      4  C5  UNL d   1      -2.807  -2.908   0.854  0.00  0.00     0.000 A 
ATOM      5  C6  UNL d   1      -3.893  -3.242   0.046  0.00  0.00     0.000 A 
ATOM      6  C7  UNL d   1      -3.833  -3.079  -1.349  0.00  0.00    -0.073 A 
ATOM      7  C8  UNL d   1      -5.037  -3.450  -2.171  0.00  0.00     0.078 C 
ENDROOT
BRANCH   1   8
ATOM      8  C1  UNL d   1      -2.542  -2.293  -3.416  0.00  0.00     0.053 C 
ATOM      9  C   UNL d   1      -1.415  -3.097  -4.046  0.00  0.00     0.018 C 
ENDBRANCH   1   8
TORSDOF 1
ENDMDL
