MODEL 1
REMARK minimizedAffinity 16.7536221
REMARK minimizedRMSD -1
REMARK  1 active torsions:
REMARK  status: ('A' for Active; 'I' for Inactive)
REMARK    1  A    between atoms: C1_2  and  C2_3 
ROOT
ATOM      1  C2  UNL d   1      -4.685   3.756   3.388  0.00  0.00    -0.076 A 
ATOM      2  C3  UNL d   1      -4.163   3.765   4.694  0.00  0.00     0.004 A 
ATOM      3  C4  UNL d   1      -4.317   4.878   5.519  0.00  0.00    -0.003 A 
ATOM      4  C5  UNL d   1      -4.996   5.998   5.054  0.00  0.00     0.000 A 
ATOM      5  C6  UNL d   1      -5.535   6.000   3.768  0.00  0.00     0.000 A 
ATOM      6  C7  UNL d   1      -5.403   4.880   2.928  0.00  0.00    -0.073 A 
ATOM      7  C8  UNL d   1      -5.999   4.939   1.548  0.00  0.00     0.078 C 
ENDROOT
BRANCH   1   8
ATOM      8  C1  UNL d   1      -4.464   2.532   2.529  0.00  0.00     0.053 C 
ATOM      9  C   UNL d   1      -4.444   1.246   3.341  0.00  0.00     0.018 C 
ENDBRANCH   1   8
TORSDOF 1
ENDMDL
