MODEL 1
REMARK minimizedAffinity 15.6850491
REMARK minimizedRMSD -1
REMARK  1 active torsions:
REMARK  status: ('A' for Active; 'I' for Inactive)
REMARK    1  A    between atoms: C1_2  and  C2_3 
ROOT
ATOM      1  C2  UNL d   1       1.316   1.563   2.166  0.00  0.00    -0.076 A 
ATOM      2  C3  UNL d   1       1.856   1.794   0.889  0.00  0.00     0.004 A 
ATOM      3  C4  UNL d   1       2.931   1.042   0.418  0.00  0.00    -0.003 A 
ATOM      4  C5  UNL d   1       3.484   0.047   1.216  0.00  0.00     0.000 A 
ATOM      5  C6  UNL d   1       2.950  -0.207   2.479  0.00  0.00     0.000 A 
ATOM      6  C7  UNL d   1       1.855   0.531   2.963  0.00  0.00    -0.073 A 
ATOM      7  C8  UNL d   1       1.324   0.218   4.334  0.00  0.00     0.078 C 
ENDROOT
BRANCH   1   8
ATOM      8  C1  UNL d   1       0.168   2.428   2.634  0.00  0.00     0.053 C 
ATOM      9  C   UNL d   1      -0.096   3.601   1.702  0.00  0.00     0.018 C 
ENDBRANCH   1   8
TORSDOF 1
ENDMDL
