MODEL 1
REMARK minimizedAffinity 9.2440815
REMARK minimizedRMSD -1
REMARK  1 active torsions:
REMARK  status: ('A' for Active; 'I' for Inactive)
REMARK    1  A    between atoms: C1_2  and  C2_3 
ROOT
ATOM      1  C2  UNL d   1      -3.602  -3.719  -2.313  0.00  0.00    -0.076 A 
ATOM      2  C3  UNL d   1      -4.926  -3.269  -2.457  0.00  0.00     0.004 A 
ATOM      3  C4  UNL d   1      -5.989  -4.169  -2.497  0.00  0.00    -0.003 A 
ATOM      4  C5  UNL d   1      -5.746  -5.535  -2.395  0.00  0.00     0.000 A 
ATOM      5  C6  UNL d   1      -4.441  -5.998  -2.234  0.00  0.00     0.000 A 
ATOM      6  C7  UNL d   1      -3.359  -5.102  -2.175  0.00  0.00    -0.073 A 
ATOM      7  C8  UNL d   1      -1.971  -5.657  -2.006  0.00  0.00     0.078 C 
ENDROOT
BRANCH   1   8
ATOM      8  C1  UNL d   1      -2.487  -2.698  -2.303  0.00  0.00     0.053 C 
ATOM      9  C   UNL d   1      -2.129  -2.241  -0.897  0.00  0.00     0.018 C 
ENDBRANCH   1   8
TORSDOF 1
ENDMDL
