MODEL 1
REMARK minimizedAffinity 5.76409626
REMARK minimizedRMSD -1
REMARK  1 active torsions:
REMARK  status: ('A' for Active; 'I' for Inactive)
REMARK    1  A    between atoms: C1_2  and  C2_3 
ROOT
ATOM      1  C2  UNL d   1       5.062   4.368   3.367  0.00  0.00    -0.076 A 
ATOM      2  C3  UNL d   1       5.935   3.880   4.354  0.00  0.00     0.004 A 
ATOM      3  C4  UNL d   1       5.964   4.442   5.629  0.00  0.00    -0.003 A 
ATOM      4  C5  UNL d   1       5.119   5.503   5.938  0.00  0.00     0.000 A 
ATOM      5  C6  UNL d   1       4.233   5.988   4.976  0.00  0.00     0.000 A 
ATOM      6  C7  UNL d   1       4.180   5.422   3.691  0.00  0.00    -0.073 A 
ATOM      7  C8  UNL d   1       3.211   5.989   2.691  0.00  0.00     0.078 C 
ENDROOT
BRANCH   1   8
ATOM      8  C1  UNL d   1       5.095   3.736   1.994  0.00  0.00     0.053 C 
ATOM      9  C   UNL d   1       3.710   3.349   1.498  0.00  0.00     0.018 C 
ENDBRANCH   1   8
TORSDOF 1
ENDMDL
