MODEL 1
REMARK minimizedAffinity 14.6795015
REMARK minimizedRMSD -1
REMARK  1 active torsions:
REMARK  status: ('A' for Active; 'I' for Inactive)
REMARK    1  A    between atoms: C1_2  and  C2_3 
ROOT
ATOM      1  C2  UNL d   1      -4.648   3.903   3.636  0.00  0.00    -0.076 A 
ATOM      2  C3  UNL d   1      -4.274   4.007   4.987  0.00  0.00     0.004 A 
ATOM      3  C4  UNL d   1      -4.748   5.047   5.785  0.00  0.00    -0.003 A 
ATOM      4  C5  UNL d   1      -5.604   6.000   5.244  0.00  0.00     0.000 A 
ATOM      5  C6  UNL d   1      -6.000   5.902   3.910  0.00  0.00     0.000 A 
ATOM      6  C7  UNL d   1      -5.544   4.851   3.097  0.00  0.00    -0.073 A 
ATOM      7  C8  UNL d   1      -5.998   4.797   1.664  0.00  0.00     0.078 C 
ENDROOT
BRANCH   1   8
ATOM      8  C1  UNL d   1      -4.081   2.768   2.813  0.00  0.00     0.053 C 
ATOM      9  C   UNL d   1      -4.188   1.426   3.519  0.00  0.00     0.018 C 
ENDBRANCH   1   8
TORSDOF 1
ENDMDL
