MODEL 1
REMARK minimizedAffinity 12.6480227
REMARK minimizedRMSD -1
REMARK  1 active torsions:
REMARK  status: ('A' for Active; 'I' for Inactive)
REMARK    1  A    between atoms: C1_2  and  C2_3 
ROOT
ATOM      1  C2  UNL d   1      -3.904  -3.752  -2.624  0.00  0.00    -0.076 A 
ATOM      2  C3  UNL d   1      -3.439  -4.827  -1.846  0.00  0.00     0.004 A 
ATOM      3  C4  UNL d   1      -4.243  -5.940  -1.607  0.00  0.00    -0.003 A 
ATOM      4  C5  UNL d   1      -5.525  -5.997  -2.142  0.00  0.00     0.000 A 
ATOM      5  C6  UNL d   1      -5.996  -4.947  -2.930  0.00  0.00     0.000 A 
ATOM      6  C7  UNL d   1      -5.192  -3.825  -3.195  0.00  0.00    -0.073 A 
ATOM      7  C8  UNL d   1      -5.754  -2.720  -4.046  0.00  0.00     0.078 C 
ENDROOT
BRANCH   1   8
ATOM      8  C1  UNL d   1      -2.997  -2.560  -2.827  0.00  0.00     0.053 C 
ATOM      9  C   UNL d   1      -2.344  -2.097  -1.534  0.00  0.00     0.018 C 
ENDBRANCH   1   8
TORSDOF 1
ENDMDL
