MODEL 1
REMARK minimizedAffinity 14.069706
REMARK minimizedRMSD -1
REMARK  1 active torsions:
REMARK  status: ('A' for Active; 'I' for Inactive)
REMARK    1  A    between atoms: C1_2  and  C2_3 
ROOT
ATOM      1  C2  UNL d   1      -2.192   2.767   1.071  0.00  0.00    -0.076 A 
ATOM      2  C3  UNL d   1      -0.905   2.571   0.540  0.00  0.00     0.004 A 
ATOM      3  C4  UNL d   1       0.116   2.027   1.317  0.00  0.00    -0.003 A 
ATOM      4  C5  UNL d   1      -0.133   1.668   2.637  0.00  0.00     0.000 A 
ATOM      5  C6  UNL d   1      -1.409   1.838   3.175  0.00  0.00     0.000 A 
ATOM      6  C7  UNL d   1      -2.454   2.371   2.400  0.00  0.00    -0.073 A 
ATOM      7  C8  UNL d   1      -3.808   2.538   3.033  0.00  0.00     0.078 C 
ENDROOT
BRANCH   1   8
ATOM      8  C1  UNL d   1      -3.252   3.387   0.189  0.00  0.00     0.053 C 
ATOM      9  C   UNL d   1      -3.097   2.995  -1.272  0.00  0.00     0.018 C 
ENDBRANCH   1   8
TORSDOF 1
ENDMDL
