MODEL 1
REMARK minimizedAffinity 1.73204958
REMARK minimizedRMSD -1
REMARK  1 active torsions:
REMARK  status: ('A' for Active; 'I' for Inactive)
REMARK    1  A    between atoms: C1_2  and  C2_3 
ROOT
ATOM      1  C2  UNL d   1      -0.716   0.946   2.155  0.00  0.00    -0.076 A 
ATOM      2  C3  UNL d   1      -1.342   2.080   2.700  0.00  0.00     0.004 A 
ATOM      3  C4  UNL d   1      -2.669   2.033   3.124  0.00  0.00    -0.003 A 
ATOM      4  C5  UNL d   1      -3.391   0.850   3.010  0.00  0.00     0.000 A 
ATOM      5  C6  UNL d   1      -2.781  -0.289   2.487  0.00  0.00     0.000 A 
ATOM      6  C7  UNL d   1      -1.439  -0.263   2.070  0.00  0.00    -0.073 A 
ATOM      7  C8  UNL d   1      -0.833  -1.520   1.509  0.00  0.00     0.078 C 
ENDROOT
BRANCH   1   8
ATOM      8  C1  UNL d   1       0.717   1.064   1.687  0.00  0.00     0.053 C 
ATOM      9  C   UNL d   1       1.716   0.675   2.766  0.00  0.00     0.018 C 
ENDBRANCH   1   8
TORSDOF 1
ENDMDL
