MODEL 1
REMARK minimizedAffinity 10.2663937
REMARK minimizedRMSD -1
REMARK  1 active torsions:
REMARK  status: ('A' for Active; 'I' for Inactive)
REMARK    1  A    between atoms: C1_2  and  C2_3 
ROOT
ATOM      1  C2  UNL d   1      -0.119   0.294   2.385  0.00  0.00    -0.076 A 
ATOM      2  C3  UNL d   1      -1.377  -0.042   2.914  0.00  0.00     0.004 A 
ATOM      3  C4  UNL d   1      -2.442   0.855   2.857  0.00  0.00    -0.003 A 
ATOM      4  C5  UNL d   1      -2.267   2.103   2.269  0.00  0.00     0.000 A 
ATOM      5  C6  UNL d   1      -1.030   2.447   1.724  0.00  0.00     0.000 A 
ATOM      6  C7  UNL d   1       0.049   1.548   1.759  0.00  0.00    -0.073 A 
ATOM      7  C8  UNL d   1       1.363   1.973   1.161  0.00  0.00     0.078 C 
ENDROOT
BRANCH   1   8
ATOM      8  C1  UNL d   1       1.006  -0.709   2.501  0.00  0.00     0.053 C 
ATOM      9  C   UNL d   1       1.527  -0.840   3.924  0.00  0.00     0.018 C 
ENDBRANCH   1   8
TORSDOF 1
ENDMDL
