MODEL 1
REMARK minimizedAffinity 2.85138011
REMARK minimizedRMSD -1
REMARK  1 active torsions:
REMARK  status: ('A' for Active; 'I' for Inactive)
REMARK    1  A    between atoms: C1_2  and  C2_3 
ROOT
ATOM      1  C2  UNL d   1      -1.213   0.709   2.328  0.00  0.00    -0.076 A 
ATOM      2  C3  UNL d   1      -1.045   2.083   2.084  0.00  0.00     0.004 A 
ATOM      3  C4  UNL d   1       0.227   2.650   2.018  0.00  0.00    -0.003 A 
ATOM      4  C5  UNL d   1       1.352   1.851   2.194  0.00  0.00     0.000 A 
ATOM      5  C6  UNL d   1       1.204   0.483   2.421  0.00  0.00     0.000 A 
ATOM      6  C7  UNL d   1      -0.071  -0.107   2.474  0.00  0.00    -0.073 A 
ATOM      7  C8  UNL d   1      -0.172  -1.586   2.727  0.00  0.00     0.078 C 
ENDROOT
BRANCH   1   8
ATOM      8  C1  UNL d   1      -2.618   0.156   2.416  0.00  0.00     0.053 C 
ATOM      9  C   UNL d   1      -3.538   1.032   3.252  0.00  0.00     0.018 C 
ENDBRANCH   1   8
TORSDOF 1
ENDMDL
