MODEL 1
REMARK minimizedAffinity 2.69926238
REMARK minimizedRMSD -1
REMARK  0 active torsions:
REMARK  status: ('A' for Active; 'I' for Inactive)
ROOT
ATOM      1  C   UNL d   1       0.003  -5.997   5.024  0.00  0.00     0.023 A 
ATOM      2  C1  UNL d   1       0.921  -5.014   4.655  0.00  0.00     0.003 A 
ATOM      3  C2  UNL d   1       0.657  -3.671   4.933  0.00  0.00     0.048 A 
ATOM      4  C3  UNL d   1      -0.526  -3.319   5.582  0.00  0.00     0.023 A 
ATOM      5  C4  UNL d   1      -1.447  -4.300   5.955  0.00  0.00     0.048 A 
ATOM      6  C5  UNL d   1      -1.179  -5.641   5.673  0.00  0.00     0.003 A 
ATOM      7  I   UNL d   1      -0.922  -1.321   5.998  0.00  0.00    -0.146 I 
ENDROOT
TORSDOF 0
ENDMDL
