MODEL 1
REMARK minimizedAffinity 9.03759193
REMARK minimizedRMSD -1
REMARK  0 active torsions:
REMARK  status: ('A' for Active; 'I' for Inactive)
ROOT
ATOM      1  C   UNL d   1       1.177  -0.660  -0.039  0.00  0.00     0.023 A 
ATOM      2  C1  UNL d   1       0.906  -0.275   1.274  0.00  0.00     0.003 A 
ATOM      3  C2  UNL d   1      -0.416  -0.153   1.709  0.00  0.00     0.048 A 
ATOM      4  C3  UNL d   1      -1.461  -0.419   0.825  0.00  0.00     0.023 A 
ATOM      5  C4  UNL d   1      -1.195  -0.806  -0.489  0.00  0.00     0.048 A 
ATOM      6  C5  UNL d   1       0.128  -0.926  -0.919  0.00  0.00     0.003 A 
ATOM      7  I   UNL d   1      -3.429  -0.239   1.470  0.00  0.00    -0.146 I 
ENDROOT
TORSDOF 0
ENDMDL
