MODEL 1
REMARK minimizedAffinity 9.28275681
REMARK minimizedRMSD -1
REMARK  0 active torsions:
REMARK  status: ('A' for Active; 'I' for Inactive)
ROOT
ATOM      1  C   UNL d   1       0.928   0.407   1.842  0.00  0.00     0.023 A 
ATOM      2  C1  UNL d   1      -0.403  -0.008   1.845  0.00  0.00     0.003 A 
ATOM      3  C2  UNL d   1      -0.947  -0.623   0.715  0.00  0.00     0.048 A 
ATOM      4  C3  UNL d   1      -0.154  -0.820  -0.414  0.00  0.00     0.023 A 
ATOM      5  C4  UNL d   1       1.180  -0.407  -0.422  0.00  0.00     0.048 A 
ATOM      6  C5  UNL d   1       1.719   0.208   0.710  0.00  0.00     0.003 A 
ATOM      7  I   UNL d   1      -0.961  -1.734  -2.097  0.00  0.00    -0.146 I 
ENDROOT
TORSDOF 0
ENDMDL
