MODEL 1
REMARK minimizedAffinity 10.3228874
REMARK minimizedRMSD -1
REMARK  0 active torsions:
REMARK  status: ('A' for Active; 'I' for Inactive)
ROOT
ATOM      1  C   UNL d   1       0.985  -0.025   0.405  0.00  0.00     0.023 A 
ATOM      2  C1  UNL d   1       1.479  -1.327   0.332  0.00  0.00     0.003 A 
ATOM      3  C2  UNL d   1       0.938  -2.230  -0.585  0.00  0.00     0.048 A 
ATOM      4  C3  UNL d   1      -0.098  -1.824  -1.426  0.00  0.00     0.023 A 
ATOM      5  C4  UNL d   1      -0.595  -0.522  -1.357  0.00  0.00     0.048 A 
ATOM      6  C5  UNL d   1      -0.051   0.377  -0.438  0.00  0.00     0.003 A 
ATOM      7  I   UNL d   1      -0.905  -3.167  -2.792  0.00  0.00    -0.146 I 
ENDROOT
TORSDOF 0
ENDMDL
