MODEL 1
REMARK minimizedAffinity 7.17176771
REMARK minimizedRMSD -1
REMARK  0 active torsions:
REMARK  status: ('A' for Active; 'I' for Inactive)
ROOT
ATOM      1  C   UNL d   1      -0.834  -1.043  -0.774  0.00  0.00     0.023 A 
ATOM      2  C1  UNL d   1       0.378  -0.518  -0.324  0.00  0.00     0.003 A 
ATOM      3  C2  UNL d   1       1.581  -1.131  -0.680  0.00  0.00     0.048 A 
ATOM      4  C3  UNL d   1       1.565  -2.267  -1.488  0.00  0.00     0.023 A 
ATOM      5  C4  UNL d   1       0.355  -2.796  -1.941  0.00  0.00     0.048 A 
ATOM      6  C5  UNL d   1      -0.845  -2.180  -1.581  0.00  0.00     0.003 A 
ATOM      7  I   UNL d   1       3.354  -3.181  -2.020  0.00  0.00    -0.146 I 
ENDROOT
TORSDOF 0
ENDMDL
