MODEL 1
REMARK minimizedAffinity 12.1535692
REMARK minimizedRMSD -1
REMARK  0 active torsions:
REMARK  status: ('A' for Active; 'I' for Inactive)
ROOT
ATOM      1  C   UNL d   1       1.145   4.102   5.515  0.00  0.00     0.023 A 
ATOM      2  C1  UNL d   1       1.354   5.450   5.223  0.00  0.00     0.003 A 
ATOM      3  C2  UNL d   1       2.636   5.996   5.316  0.00  0.00     0.048 A 
ATOM      4  C3  UNL d   1       3.705   5.188   5.701  0.00  0.00     0.023 A 
ATOM      5  C4  UNL d   1       3.501   3.838   5.993  0.00  0.00     0.048 A 
ATOM      6  C5  UNL d   1       2.217   3.297   5.899  0.00  0.00     0.003 A 
ATOM      7  I   UNL d   1       5.614   5.997   5.840  0.00  0.00    -0.146 I 
ENDROOT
TORSDOF 0
ENDMDL
