MODEL 1
REMARK minimizedAffinity 9.12538528
REMARK minimizedRMSD -1
REMARK  0 active torsions:
REMARK  status: ('A' for Active; 'I' for Inactive)
ROOT
ATOM      1  C   UNL d   1      -0.629  -0.875  -0.431  0.00  0.00     0.023 A 
ATOM      2  C1  UNL d   1      -0.742  -1.776  -1.489  0.00  0.00     0.003 A 
ATOM      3  C2  UNL d   1       0.399  -2.382  -2.017  0.00  0.00     0.048 A 
ATOM      4  C3  UNL d   1       1.651  -2.083  -1.481  0.00  0.00     0.023 A 
ATOM      5  C4  UNL d   1       1.770  -1.182  -0.421  0.00  0.00     0.048 A 
ATOM      6  C5  UNL d   1       0.625  -0.578   0.103  0.00  0.00     0.003 A 
ATOM      7  I   UNL d   1       3.353  -2.984  -2.265  0.00  0.00    -0.146 I 
ENDROOT
TORSDOF 0
ENDMDL
