MODEL 1
REMARK minimizedAffinity -0.557975531
REMARK minimizedRMSD -1
REMARK  0 active torsions:
REMARK  status: ('A' for Active; 'I' for Inactive)
ROOT
ATOM      1  N1  IND d   1       2.353  -0.755  -0.848  0.00  0.00    -0.196 N 
ATOM      2  C2  IND d   1       2.765   0.499  -1.203  0.00  0.00     0.054 A 
ATOM      3  C3  IND d   1       4.086   0.646  -0.960  0.00  0.00    -0.031 A 
ATOM      4  C4  IND d   1       5.789  -1.072  -0.078  0.00  0.00     0.051 A 
ATOM      5  C5  IND d   1       5.878  -2.342   0.418  0.00  0.00    -0.031 A 
ATOM      6  C6  IND d   1       4.776  -3.166   0.517  0.00  0.00     0.015 A 
ATOM      7  C7  IND d   1       3.539  -2.752   0.111  0.00  0.00    -0.016 A 
ATOM      8  C8  IND d   1       3.442  -1.460  -0.387  0.00  0.00    -0.047 A 
ATOM      9  C9  IND d   1       4.550  -0.605  -0.450  0.00  0.00    -0.096 A 
ATOM     10  HN1 IND d   1       1.548  -1.054  -0.904  0.00  0.00     0.298 HD
ENDROOT
TORSDOF 0
ENDMDL
