MODEL 1
REMARK minimizedAffinity 9.55021954
REMARK minimizedRMSD -1
REMARK  0 active torsions:
REMARK  status: ('A' for Active; 'I' for Inactive)
ROOT
ATOM      1  N1  IND d   1       5.641  -4.150   4.476  0.00  0.00    -0.196 N 
ATOM      2  C2  IND d   1       5.037  -3.379   5.430  0.00  0.00     0.054 A 
ATOM      3  C3  IND d   1       3.912  -2.816   4.936  0.00  0.00    -0.031 A 
ATOM      4  C4  IND d   1       2.818  -3.101   2.623  0.00  0.00     0.051 A 
ATOM      5  C5  IND d   1       3.020  -3.678   1.400  0.00  0.00    -0.031 A 
ATOM      6  C6  IND d   1       4.126  -4.459   1.135  0.00  0.00     0.015 A 
ATOM      7  C7  IND d   1       5.071  -4.703   2.092  0.00  0.00    -0.016 A 
ATOM      8  C8  IND d   1       4.873  -4.114   3.332  0.00  0.00    -0.047 A 
ATOM      9  C9  IND d   1       3.774  -3.285   3.594  0.00  0.00    -0.096 A 
ATOM     10  HN1 IND d   1       6.377  -4.584   4.573  0.00  0.00     0.298 HD
ENDROOT
TORSDOF 0
ENDMDL
