MODEL 1
REMARK minimizedAffinity 16.279747
REMARK minimizedRMSD -1
REMARK  0 active torsions:
REMARK  status: ('A' for Active; 'I' for Inactive)
ROOT
ATOM      1  N1  IND d   1       2.072  -1.056  -0.420  0.00  0.00    -0.196 N 
ATOM      2  C2  IND d   1       2.462   0.181  -0.852  0.00  0.00     0.054 A 
ATOM      3  C3  IND d   1       2.221   1.109   0.101  0.00  0.00    -0.031 A 
ATOM      4  C4  IND d   1       1.285   0.806   2.480  0.00  0.00     0.051 A 
ATOM      5  C5  IND d   1       0.751  -0.134   3.316  0.00  0.00    -0.031 A 
ATOM      6  C6  IND d   1       0.631  -1.457   2.942  0.00  0.00     0.015 A 
ATOM      7  C7  IND d   1       1.051  -1.893   1.718  0.00  0.00    -0.016 A 
ATOM      8  C8  IND d   1       1.587  -0.940   0.864  0.00  0.00    -0.047 A 
ATOM      9  C9  IND d   1       1.673   0.412   1.222  0.00  0.00    -0.096 A 
ATOM     10  HN1 IND d   1       2.120  -1.784  -0.875  0.00  0.00     0.298 HD
ENDROOT
TORSDOF 0
ENDMDL
