MODEL 1
REMARK minimizedAffinity 12.095974
REMARK minimizedRMSD -1
REMARK  0 active torsions:
REMARK  status: ('A' for Active; 'I' for Inactive)
ROOT
ATOM      1  N1  IND d   1      -4.133   0.743  -4.217  0.00  0.00    -0.196 N 
ATOM      2  C2  IND d   1      -5.107   0.011  -4.837  0.00  0.00     0.054 A 
ATOM      3  C3  IND d   1      -5.999   0.829  -5.439  0.00  0.00    -0.031 A 
ATOM      4  C4  IND d   1      -5.999   3.397  -5.621  0.00  0.00     0.051 A 
ATOM      5  C5  IND d   1      -5.334   4.508  -5.185  0.00  0.00    -0.031 A 
ATOM      6  C6  IND d   1      -4.209   4.419  -4.390  0.00  0.00     0.015 A 
ATOM      7  C7  IND d   1      -3.700   3.210  -4.009  0.00  0.00    -0.016 A 
ATOM      8  C8  IND d   1      -4.377   2.080  -4.445  0.00  0.00    -0.047 A 
ATOM      9  C9  IND d   1      -5.544   2.165  -5.216  0.00  0.00    -0.096 A 
ATOM     10  HN1 IND d   1      -3.478   0.423  -3.762  0.00  0.00     0.298 HD
ENDROOT
TORSDOF 0
ENDMDL
