MODEL 1
REMARK minimizedAffinity 13.0664587
REMARK minimizedRMSD -1
REMARK  0 active torsions:
REMARK  status: ('A' for Active; 'I' for Inactive)
ROOT
ATOM      1  N1  IND d   1       3.404  -2.659  -0.597  0.00  0.00    -0.196 N 
ATOM      2  C2  IND d   1       4.736  -2.902  -0.414  0.00  0.00     0.054 A 
ATOM      3  C3  IND d   1       5.426  -1.740  -0.374  0.00  0.00    -0.031 A 
ATOM      4  C4  IND d   1       4.558   0.681  -0.487  0.00  0.00     0.051 A 
ATOM      5  C5  IND d   1       3.419   1.409  -0.688  0.00  0.00    -0.031 A 
ATOM      6  C6  IND d   1       2.191   0.806  -0.871  0.00  0.00     0.015 A 
ATOM      7  C7  IND d   1       2.055  -0.554  -0.847  0.00  0.00    -0.016 A 
ATOM      8  C8  IND d   1       3.210  -1.296  -0.650  0.00  0.00    -0.047 A 
ATOM      9  C9  IND d   1       4.466  -0.691  -0.506  0.00  0.00    -0.096 A 
ATOM     10  HN1 IND d   1       2.790  -3.256  -0.668  0.00  0.00     0.298 HD
ENDROOT
TORSDOF 0
ENDMDL
