MODEL 1
REMARK minimizedAffinity 3.84861565
REMARK minimizedRMSD -1
REMARK  0 active torsions:
REMARK  status: ('A' for Active; 'I' for Inactive)
ROOT
ATOM      1  N1  IND d   1       2.095  -0.765  -0.994  0.00  0.00    -0.196 N 
ATOM      2  C2  IND d   1       2.257   0.589  -1.100  0.00  0.00     0.054 A 
ATOM      3  C3  IND d   1       3.507   0.944  -0.726  0.00  0.00    -0.031 A 
ATOM      4  C4  IND d   1       5.481  -0.541  -0.001  0.00  0.00     0.051 A 
ATOM      5  C5  IND d   1       5.806  -1.838   0.284  0.00  0.00    -0.031 A 
ATOM      6  C6  IND d   1       4.893  -2.864   0.152  0.00  0.00     0.015 A 
ATOM      7  C7  IND d   1       3.618  -2.632  -0.282  0.00  0.00    -0.016 A 
ATOM      8  C8  IND d   1       3.283  -1.316  -0.566  0.00  0.00    -0.047 A 
ATOM      9  C9  IND d   1       4.193  -0.265  -0.393  0.00  0.00    -0.096 A 
ATOM     10  HN1 IND d   1       1.373  -1.199  -1.166  0.00  0.00     0.298 HD
ENDROOT
TORSDOF 0
ENDMDL
