MODEL 1
REMARK minimizedAffinity 1.67919433
REMARK minimizedRMSD -1
REMARK  0 active torsions:
REMARK  status: ('A' for Active; 'I' for Inactive)
ROOT
ATOM      1  N1  IND d   1       1.327  -1.023  -0.326  0.00  0.00    -0.196 N 
ATOM      2  C2  IND d   1       0.464   0.038  -0.316  0.00  0.00     0.054 A 
ATOM      3  C3  IND d   1      -0.344  -0.023   0.765  0.00  0.00    -0.031 A 
ATOM      4  C4  IND d   1      -0.360  -1.720   2.702  0.00  0.00     0.051 A 
ATOM      5  C5  IND d   1       0.218  -2.887   3.116  0.00  0.00    -0.031 A 
ATOM      6  C6  IND d   1       1.217  -3.503   2.391  0.00  0.00     0.015 A 
ATOM      7  C7  IND d   1       1.685  -2.967   1.225  0.00  0.00    -0.016 A 
ATOM      8  C8  IND d   1       1.096  -1.786   0.797  0.00  0.00    -0.047 A 
ATOM      9  C9  IND d   1       0.052  -1.178   1.507  0.00  0.00    -0.096 A 
ATOM     10  HN1 IND d   1       1.914  -1.186  -0.932  0.00  0.00     0.298 HD
ENDROOT
TORSDOF 0
ENDMDL
