MODEL 1
REMARK minimizedAffinity -0.329480499
REMARK minimizedRMSD -1
REMARK  0 active torsions:
REMARK  status: ('A' for Active; 'I' for Inactive)
ROOT
ATOM      1  N1  IND d   1       3.290  -3.085   0.037  0.00  0.00    -0.196 N 
ATOM      2  C2  IND d   1       3.308  -4.115   0.936  0.00  0.00     0.054 A 
ATOM      3  C3  IND d   1       2.344  -3.941   1.869  0.00  0.00    -0.031 A 
ATOM      4  C4  IND d   1       0.560  -2.095   2.053  0.00  0.00     0.051 A 
ATOM      5  C5  IND d   1       0.167  -0.916   1.484  0.00  0.00    -0.031 A 
ATOM      6  C6  IND d   1       0.805  -0.391   0.379  0.00  0.00     0.015 A 
ATOM      7  C7  IND d   1       1.859  -1.034  -0.207  0.00  0.00    -0.016 A 
ATOM      8  C8  IND d   1       2.266  -2.227   0.373  0.00  0.00    -0.047 A 
ATOM      9  C9  IND d   1       1.649  -2.743   1.520  0.00  0.00    -0.096 A 
ATOM     10  HN1 IND d   1       3.828  -2.989  -0.627  0.00  0.00     0.298 HD
ENDROOT
TORSDOF 0
ENDMDL
