MODEL 1
REMARK minimizedAffinity 0.193730772
REMARK minimizedRMSD -1
REMARK  0 active torsions:
REMARK  status: ('A' for Active; 'I' for Inactive)
ROOT
ATOM      1  N1  IND d   1       1.729  -1.742  -0.068  0.00  0.00    -0.196 N 
ATOM      2  C2  IND d   1       1.119  -0.519  -0.060  0.00  0.00     0.054 A 
ATOM      3  C3  IND d   1       0.266  -0.426   0.985  0.00  0.00    -0.031 A 
ATOM      4  C4  IND d   1      -0.211  -2.122   2.862  0.00  0.00     0.051 A 
ATOM      5  C5  IND d   1       0.079  -3.396   3.262  0.00  0.00    -0.031 A 
ATOM      6  C6  IND d   1       0.953  -4.200   2.559  0.00  0.00     0.015 A 
ATOM      7  C7  IND d   1       1.582  -3.752   1.432  0.00  0.00    -0.016 A 
ATOM      8  C8  IND d   1       1.285  -2.461   1.019  0.00  0.00    -0.047 A 
ATOM      9  C9  IND d   1       0.366  -1.656   1.704  0.00  0.00    -0.096 A 
ATOM     10  HN1 IND d   1       2.295  -2.016  -0.655  0.00  0.00     0.298 HD
ENDROOT
TORSDOF 0
ENDMDL
