MODEL 1
REMARK minimizedAffinity 1.0447495
REMARK minimizedRMSD -1
REMARK  0 active torsions:
REMARK  status: ('A' for Active; 'I' for Inactive)
ROOT
ATOM      1  N1  IND d   1       1.592  -1.066   0.586  0.00  0.00    -0.196 N 
ATOM      2  C2  IND d   1       0.737  -0.009   0.445  0.00  0.00     0.054 A 
ATOM      3  C3  IND d   1      -0.326  -0.150   1.269  0.00  0.00    -0.031 A 
ATOM      4  C4  IND d   1      -0.815  -1.986   3.007  0.00  0.00     0.051 A 
ATOM      5  C5  IND d   1      -0.344  -3.180   3.474  0.00  0.00    -0.031 A 
ATOM      6  C6  IND d   1       0.822  -3.741   2.995  0.00  0.00     0.015 A 
ATOM      7  C7  IND d   1       1.569  -3.120   2.034  0.00  0.00    -0.016 A 
ATOM      8  C8  IND d   1       1.090  -1.910   1.552  0.00  0.00    -0.047 A 
ATOM      9  C9  IND d   1      -0.115  -1.357   2.004  0.00  0.00    -0.096 A 
ATOM     10  HN1 IND d   1       2.321  -1.184   0.146  0.00  0.00     0.298 HD
ENDROOT
TORSDOF 0
ENDMDL
