MODEL 1
REMARK minimizedAffinity 8.70975494
REMARK minimizedRMSD -1
REMARK  0 active torsions:
REMARK  status: ('A' for Active; 'I' for Inactive)
ROOT
ATOM      1  N1  IND d   1       1.035  -1.762   1.347  0.00  0.00    -0.196 N 
ATOM      2  C2  IND d   1       0.887  -2.449   2.520  0.00  0.00     0.054 A 
ATOM      3  C3  IND d   1      -0.210  -2.018   3.183  0.00  0.00    -0.031 A 
ATOM      4  C4  IND d   1      -1.963  -0.269   2.480  0.00  0.00     0.051 A 
ATOM      5  C5  IND d   1      -2.236   0.652   1.508  0.00  0.00    -0.031 A 
ATOM      6  C6  IND d   1      -1.418   0.817   0.409  0.00  0.00     0.015 A 
ATOM      7  C7  IND d   1      -0.297   0.055   0.235  0.00  0.00    -0.016 A 
ATOM      8  C8  IND d   1      -0.013  -0.876   1.224  0.00  0.00    -0.047 A 
ATOM      9  C9  IND d   1      -0.816  -1.018   2.362  0.00  0.00    -0.096 A 
ATOM     10  HN1 IND d   1       1.674  -1.866   0.782  0.00  0.00     0.298 HD
ENDROOT
TORSDOF 0
ENDMDL
