MODEL 1
REMARK minimizedAffinity 2.35952997
REMARK minimizedRMSD -1
REMARK  0 active torsions:
REMARK  status: ('A' for Active; 'I' for Inactive)
ROOT
ATOM      1  N1  IND d   1       0.609  -5.203   2.488  0.00  0.00    -0.196 N 
ATOM      2  C2  IND d   1       1.654  -4.940   1.646  0.00  0.00     0.054 A 
ATOM      3  C3  IND d   1       1.700  -3.622   1.351  0.00  0.00    -0.031 A 
ATOM      4  C4  IND d   1       0.224  -1.699   2.218  0.00  0.00     0.051 A 
ATOM      5  C5  IND d   1      -0.883  -1.450   2.978  0.00  0.00    -0.031 A 
ATOM      6  C6  IND d   1      -1.562  -2.459   3.630  0.00  0.00     0.015 A 
ATOM      7  C7  IND d   1      -1.150  -3.760   3.554  0.00  0.00    -0.016 A 
ATOM      8  C8  IND d   1      -0.030  -4.017   2.777  0.00  0.00    -0.047 A 
ATOM      9  C9  IND d   1       0.638  -3.003   2.079  0.00  0.00    -0.096 A 
ATOM     10  HN1 IND d   1       0.388  -5.978   2.787  0.00  0.00     0.298 HD
ENDROOT
TORSDOF 0
ENDMDL
