MODEL 1
REMARK minimizedAffinity 4.22450733
REMARK minimizedRMSD -1
REMARK  0 active torsions:
REMARK  status: ('A' for Active; 'I' for Inactive)
ROOT
ATOM      1  N1  IND d   1       1.651  -1.332   0.570  0.00  0.00    -0.196 N 
ATOM      2  C2  IND d   1       1.643  -0.821  -0.698  0.00  0.00     0.054 A 
ATOM      3  C3  IND d   1       0.506  -0.124  -0.917  0.00  0.00    -0.031 A 
ATOM      4  C4  IND d   1      -1.432   0.394   0.696  0.00  0.00     0.051 A 
ATOM      5  C5  IND d   1      -1.893   0.113   1.952  0.00  0.00    -0.031 A 
ATOM      6  C6  IND d   1      -1.180  -0.678   2.830  0.00  0.00     0.015 A 
ATOM      7  C7  IND d   1       0.031  -1.210   2.487  0.00  0.00    -0.016 A 
ATOM      8  C8  IND d   1       0.498  -0.933   1.211  0.00  0.00    -0.047 A 
ATOM      9  C9  IND d   1      -0.240  -0.166   0.300  0.00  0.00    -0.096 A 
ATOM     10  HN1 IND d   1       2.271  -1.820   0.911  0.00  0.00     0.298 HD
ENDROOT
TORSDOF 0
ENDMDL
