MODEL 1
REMARK minimizedAffinity 13.1268454
REMARK minimizedRMSD -1
REMARK  1 active torsions:
REMARK  status: ('A' for Active; 'I' for Inactive)
REMARK    1  A    between atoms: C1_2  and  C2_3 
ROOT
ATOM      1  C2  UNL d   1       2.218  -1.756   4.120  0.00  0.00    -0.077 A 
ATOM      2  C3  UNL d   1       1.914  -0.416   3.843  0.00  0.00     0.002 A 
ATOM      3  C4  UNL d   1       2.299   0.159   2.631  0.00  0.00     0.002 A 
ATOM      4  C5  UNL d   1       2.986  -0.599   1.685  0.00  0.00    -0.004 A 
ATOM      5  C6  UNL d   1       3.294  -1.932   1.952  0.00  0.00     0.002 A 
ATOM      6  C7  UNL d   1       2.911  -2.509   3.164  0.00  0.00     0.002 A 
ENDROOT
BRANCH   1   7
ATOM      7  C1  UNL d   1       1.760  -2.392   5.407  0.00  0.00     0.055 C 
ATOM      8  C   UNL d   1       0.664  -3.418   5.158  0.00  0.00     0.019 C 
ENDBRANCH   1   7
TORSDOF 1
ENDMDL
