MODEL 1
REMARK minimizedAffinity 7.29690456
REMARK minimizedRMSD -1
REMARK  1 active torsions:
REMARK  status: ('A' for Active; 'I' for Inactive)
REMARK    1  A    between atoms: C1_2  and  C2_3 
ROOT
ATOM      1  C2  UNL d   1       2.993  -2.786   3.157  0.00  0.00    -0.077 A 
ATOM      2  C3  UNL d   1       2.227  -2.128   4.129  0.00  0.00     0.002 A 
ATOM      3  C4  UNL d   1       1.631  -0.897   3.845  0.00  0.00     0.002 A 
ATOM      4  C5  UNL d   1       1.792  -0.317   2.588  0.00  0.00    -0.004 A 
ATOM      5  C6  UNL d   1       2.554  -0.963   1.616  0.00  0.00     0.002 A 
ATOM      6  C7  UNL d   1       3.151  -2.193   1.898  0.00  0.00     0.002 A 
ENDROOT
BRANCH   1   7
ATOM      7  C1  UNL d   1       3.595  -4.137   3.446  0.00  0.00     0.055 C 
ATOM      8  C   UNL d   1       5.113  -4.062   3.515  0.00  0.00     0.019 C 
ENDBRANCH   1   7
TORSDOF 1
ENDMDL
