MODEL 1
REMARK minimizedAffinity 7.0670085
REMARK minimizedRMSD -1
REMARK  1 active torsions:
REMARK  status: ('A' for Active; 'I' for Inactive)
REMARK    1  A    between atoms: C1_2  and  C2_3 
ROOT
ATOM      1  C2  UNL d   1       1.922   0.623   2.425  0.00  0.00    -0.077 A 
ATOM      2  C3  UNL d   1       1.749   0.090   3.709  0.00  0.00     0.002 A 
ATOM      3  C4  UNL d   1       2.098  -1.236   3.977  0.00  0.00     0.002 A 
ATOM      4  C5  UNL d   1       2.626  -2.036   2.966  0.00  0.00    -0.004 A 
ATOM      5  C6  UNL d   1       2.800  -1.515   1.684  0.00  0.00     0.002 A 
ATOM      6  C7  UNL d   1       2.451  -0.191   1.415  0.00  0.00     0.002 A 
ENDROOT
BRANCH   1   7
ATOM      7  C1  UNL d   1       1.592   2.067   2.147  0.00  0.00     0.055 C 
ATOM      8  C   UNL d   1       2.575   2.679   1.160  0.00  0.00     0.019 C 
ENDBRANCH   1   7
TORSDOF 1
ENDMDL
