MODEL 1
REMARK minimizedAffinity 13.8132296
REMARK minimizedRMSD -1
REMARK  1 active torsions:
REMARK  status: ('A' for Active; 'I' for Inactive)
REMARK    1  A    between atoms: C1_2  and  C2_3 
ROOT
ATOM      1  C2  UNL d   1       2.628  -2.328   3.542  0.00  0.00    -0.077 A 
ATOM      2  C3  UNL d   1       2.547  -2.354   2.142  0.00  0.00     0.002 A 
ATOM      3  C4  UNL d   1       2.190  -1.205   1.434  0.00  0.00     0.002 A 
ATOM      4  C5  UNL d   1       1.914  -0.021   2.116  0.00  0.00    -0.004 A 
ATOM      5  C6  UNL d   1       1.990   0.014   3.508  0.00  0.00     0.002 A 
ATOM      6  C7  UNL d   1       2.346  -1.134   4.218  0.00  0.00     0.002 A 
ENDROOT
BRANCH   1   7
ATOM      7  C1  UNL d   1       3.061  -3.553   4.304  0.00  0.00     0.055 C 
ATOM      8  C   UNL d   1       4.217  -3.240   5.243  0.00  0.00     0.019 C 
ENDBRANCH   1   7
TORSDOF 1
ENDMDL
