MODEL 1
REMARK minimizedAffinity 2.63542485
REMARK minimizedRMSD -1
REMARK  1 active torsions:
REMARK  status: ('A' for Active; 'I' for Inactive)
REMARK    1  A    between atoms: C1_2  and  C2_3 
ROOT
ATOM      1  C2  UNL d   1       2.828  -1.143   4.019  0.00  0.00    -0.077 A 
ATOM      2  C3  UNL d   1       3.189  -0.221   5.011  0.00  0.00     0.002 A 
ATOM      3  C4  UNL d   1       4.112  -0.572   5.999  0.00  0.00     0.002 A 
ATOM      4  C5  UNL d   1       4.684  -1.843   6.000  0.00  0.00    -0.004 A 
ATOM      5  C6  UNL d   1       4.330  -2.767   5.018  0.00  0.00     0.002 A 
ATOM      6  C7  UNL d   1       3.407  -2.418   4.031  0.00  0.00     0.002 A 
ENDROOT
BRANCH   1   7
ATOM      7  C1  UNL d   1       1.870  -0.750   2.924  0.00  0.00     0.055 C 
ATOM      8  C   UNL d   1       2.581   0.006   1.811  0.00  0.00     0.019 C 
ENDBRANCH   1   7
TORSDOF 1
ENDMDL
