MODEL 1
REMARK minimizedAffinity 2.83651018
REMARK minimizedRMSD -1
REMARK  1 active torsions:
REMARK  status: ('A' for Active; 'I' for Inactive)
REMARK    1  A    between atoms: C1_2  and  C2_3 
ROOT
ATOM      1  C2  UNL d   1       2.208  -4.770   5.488  0.00  0.00    -0.077 A 
ATOM      2  C3  UNL d   1       3.512  -4.949   5.970  0.00  0.00     0.002 A 
ATOM      3  C4  UNL d   1       4.548  -4.123   5.529  0.00  0.00     0.002 A 
ATOM      4  C5  UNL d   1       4.289  -3.111   4.607  0.00  0.00    -0.004 A 
ATOM      5  C6  UNL d   1       2.996  -2.926   4.120  0.00  0.00     0.002 A 
ATOM      6  C7  UNL d   1       1.960  -3.751   4.559  0.00  0.00     0.002 A 
ENDROOT
BRANCH   1   7
ATOM      7  C1  UNL d   1       1.080  -5.628   6.000  0.00  0.00     0.055 C 
ATOM      8  C   UNL d   1       0.116  -5.999   4.883  0.00  0.00     0.019 C 
ENDBRANCH   1   7
TORSDOF 1
ENDMDL
