MODEL 1
REMARK minimizedAffinity 2.84069753
REMARK minimizedRMSD -1
REMARK  1 active torsions:
REMARK  status: ('A' for Active; 'I' for Inactive)
REMARK    1  A    between atoms: C1_2  and  C2_3 
ROOT
ATOM      1  C2  UNL d   1       3.384   5.224  -1.233  0.00  0.00    -0.077 A 
ATOM      2  C3  UNL d   1       2.108   5.786  -1.093  0.00  0.00     0.002 A 
ATOM      3  C4  UNL d   1       1.100   5.091  -0.422  0.00  0.00     0.002 A 
ATOM      4  C5  UNL d   1       1.359   3.834   0.119  0.00  0.00    -0.004 A 
ATOM      5  C6  UNL d   1       2.625   3.266  -0.016  0.00  0.00     0.002 A 
ATOM      6  C7  UNL d   1       3.634   3.958  -0.689  0.00  0.00     0.002 A 
ENDROOT
BRANCH   1   7
ATOM      7  C1  UNL d   1       4.486   5.993  -1.914  0.00  0.00     0.055 C 
ATOM      8  C   UNL d   1       4.348   5.934  -3.429  0.00  0.00     0.019 C 
ENDBRANCH   1   7
TORSDOF 1
ENDMDL
