MODEL 1
REMARK minimizedAffinity 7.15252829
REMARK minimizedRMSD -1
REMARK  1 active torsions:
REMARK  status: ('A' for Active; 'I' for Inactive)
REMARK    1  A    between atoms: C1_2  and  C2_3 
ROOT
ATOM      1  C2  UNL d   1       2.309   0.065   4.430  0.00  0.00    -0.077 A 
ATOM      2  C3  UNL d   1       2.686  -1.107   5.101  0.00  0.00     0.002 A 
ATOM      3  C4  UNL d   1       3.014  -2.258   4.382  0.00  0.00     0.002 A 
ATOM      4  C5  UNL d   1       2.972  -2.247   2.989  0.00  0.00    -0.004 A 
ATOM      5  C6  UNL d   1       2.596  -1.087   2.313  0.00  0.00     0.002 A 
ATOM      6  C7  UNL d   1       2.267   0.064   3.030  0.00  0.00     0.002 A 
ENDROOT
BRANCH   1   7
ATOM      7  C1  UNL d   1       2.003   1.322   5.202  0.00  0.00     0.055 C 
ATOM      8  C   UNL d   1       3.212   1.791   5.998  0.00  0.00     0.019 C 
ENDBRANCH   1   7
TORSDOF 1
ENDMDL
