MODEL 1
REMARK minimizedAffinity 1.43324757
REMARK minimizedRMSD -1
REMARK  0 active torsions:
REMARK  status: ('A' for Active; 'I' for Inactive)
ROOT
ATOM      1  C   UNL d   1      -5.909  -5.941   1.078  0.00  0.00     0.077 C 
ATOM      2  C1  UNL d   1      -5.920  -5.241  -0.248  0.00  0.00    -0.074 A 
ATOM      3  C2  UNL d   1      -5.944  -5.967  -1.443  0.00  0.00    -0.005 A 
ATOM      4  C3  UNL d   1      -5.964  -5.302  -2.669  0.00  0.00     0.006 A 
ATOM      5  C4  UNL d   1      -5.960  -3.907  -2.712  0.00  0.00    -0.005 A 
ATOM      6  C5  UNL d   1      -5.938  -3.165  -1.527  0.00  0.00    -0.074 A 
ATOM      7  C6  UNL d   1      -5.943  -1.665  -1.555  0.00  0.00     0.077 C 
ATOM      8  C7  UNL d   1      -5.925  -3.840  -0.299  0.00  0.00    -0.001 A 
ENDROOT
TORSDOF 0
ENDMDL
