MODEL 1
REMARK minimizedAffinity 1.09110534
REMARK minimizedRMSD -1
REMARK  0 active torsions:
REMARK  status: ('A' for Active; 'I' for Inactive)
ROOT
ATOM      1  C   UNL d   1       0.595   3.089   1.899  0.00  0.00     0.077 C 
ATOM      2  C1  UNL d   1       1.262   1.798   2.273  0.00  0.00    -0.074 A 
ATOM      3  C2  UNL d   1       0.604   0.852   3.064  0.00  0.00    -0.005 A 
ATOM      4  C3  UNL d   1       1.234  -0.348   3.396  0.00  0.00     0.006 A 
ATOM      5  C4  UNL d   1       2.526  -0.613   2.939  0.00  0.00    -0.005 A 
ATOM      6  C5  UNL d   1       3.199   0.322   2.146  0.00  0.00    -0.074 A 
ATOM      7  C6  UNL d   1       4.584   0.049   1.639  0.00  0.00     0.077 C 
ATOM      8  C7  UNL d   1       2.557   1.522   1.812  0.00  0.00    -0.001 A 
ENDROOT
TORSDOF 0
ENDMDL
