MODEL 1
REMARK minimizedAffinity 9.45835114
REMARK minimizedRMSD -1
REMARK  0 active torsions:
REMARK  status: ('A' for Active; 'I' for Inactive)
ROOT
ATOM      1  C   UNL d   1       2.687   5.855  -4.094  0.00  0.00     0.077 C 
ATOM      2  C1  UNL d   1       3.700   4.851  -4.556  0.00  0.00    -0.074 A 
ATOM      3  C2  UNL d   1       5.069   5.130  -4.493  0.00  0.00    -0.005 A 
ATOM      4  C3  UNL d   1       6.000   4.182  -4.918  0.00  0.00     0.006 A 
ATOM      5  C4  UNL d   1       5.572   2.948  -5.409  0.00  0.00    -0.005 A 
ATOM      6  C5  UNL d   1       4.207   2.651  -5.479  0.00  0.00    -0.074 A 
ATOM      7  C6  UNL d   1       3.731   1.326  -5.995  0.00  0.00     0.077 C 
ATOM      8  C7  UNL d   1       3.278   3.606  -5.044  0.00  0.00    -0.001 A 
ENDROOT
TORSDOF 0
ENDMDL
