MODEL 1
REMARK minimizedAffinity 7.20357513
REMARK minimizedRMSD -1
REMARK  0 active torsions:
REMARK  status: ('A' for Active; 'I' for Inactive)
ROOT
ATOM      1  C   UNL d   1      -4.339  -6.000   1.604  0.00  0.00     0.077 C 
ATOM      2  C1  UNL d   1      -4.796  -5.287   0.366  0.00  0.00    -0.074 A 
ATOM      3  C2  UNL d   1      -5.144  -6.000  -0.786  0.00  0.00    -0.005 A 
ATOM      4  C3  UNL d   1      -5.577  -5.324  -1.927  0.00  0.00     0.006 A 
ATOM      5  C4  UNL d   1      -5.666  -3.931  -1.927  0.00  0.00    -0.005 A 
ATOM      6  C5  UNL d   1      -5.323  -3.202  -0.784  0.00  0.00    -0.074 A 
ATOM      7  C6  UNL d   1      -5.423  -1.706  -0.764  0.00  0.00     0.077 C 
ATOM      8  C7  UNL d   1      -4.896  -3.889   0.361  0.00  0.00    -0.001 A 
ENDROOT
TORSDOF 0
ENDMDL
