MODEL 1
REMARK minimizedAffinity -4.03320837
REMARK minimizedRMSD -1
REMARK  0 active torsions:
REMARK  status: ('A' for Active; 'I' for Inactive)
ROOT
ATOM      1  C   UNL d   1      -4.397  -6.000   1.641  0.00  0.00     0.077 C 
ATOM      2  C1  UNL d   1      -4.935  -4.972   0.690  0.00  0.00    -0.074 A 
ATOM      3  C2  UNL d   1      -5.256  -5.311  -0.629  0.00  0.00    -0.005 A 
ATOM      4  C3  UNL d   1      -5.764  -4.346  -1.499  0.00  0.00     0.006 A 
ATOM      5  C4  UNL d   1      -5.955  -3.035  -1.061  0.00  0.00    -0.005 A 
ATOM      6  C5  UNL d   1      -5.640  -2.678   0.254  0.00  0.00    -0.074 A 
ATOM      7  C6  UNL d   1      -5.849  -1.276   0.744  0.00  0.00     0.077 C 
ATOM      8  C7  UNL d   1      -5.137  -3.654   1.125  0.00  0.00    -0.001 A 
ENDROOT
TORSDOF 0
ENDMDL
