MODEL 1
REMARK minimizedAffinity -1.0221045
REMARK minimizedRMSD -1
REMARK  0 active torsions:
REMARK  status: ('A' for Active; 'I' for Inactive)
ROOT
ATOM      1  C   UNL d   1      -5.636  -3.596   2.033  0.00  0.00     0.077 C 
ATOM      2  C1  UNL d   1      -5.756  -4.090   0.621  0.00  0.00    -0.074 A 
ATOM      3  C2  UNL d   1      -5.844  -5.457   0.343  0.00  0.00    -0.005 A 
ATOM      4  C3  UNL d   1      -5.964  -5.901  -0.974  0.00  0.00     0.006 A 
ATOM      5  C4  UNL d   1      -5.999  -4.983  -2.024  0.00  0.00    -0.005 A 
ATOM      6  C5  UNL d   1      -5.913  -3.611  -1.765  0.00  0.00    -0.074 A 
ATOM      7  C6  UNL d   1      -5.959  -2.610  -2.881  0.00  0.00     0.077 C 
ATOM      8  C7  UNL d   1      -5.799  -3.173  -0.439  0.00  0.00    -0.001 A 
ENDROOT
TORSDOF 0
ENDMDL
