MODEL 1
REMARK minimizedAffinity 3.78427863
REMARK minimizedRMSD -1
REMARK  0 active torsions:
REMARK  status: ('A' for Active; 'I' for Inactive)
ROOT
ATOM      1  C   UNL d   1       4.089  -0.457   2.508  0.00  0.00     0.077 C 
ATOM      2  C1  UNL d   1       2.644  -0.056   2.540  0.00  0.00    -0.074 A 
ATOM      3  C2  UNL d   1       2.193   1.063   1.834  0.00  0.00    -0.005 A 
ATOM      4  C3  UNL d   1       0.844   1.418   1.866  0.00  0.00     0.006 A 
ATOM      5  C4  UNL d   1      -0.065   0.658   2.603  0.00  0.00    -0.005 A 
ATOM      6  C5  UNL d   1       0.368  -0.465   3.314  0.00  0.00    -0.074 A 
ATOM      7  C6  UNL d   1      -0.598  -1.298   4.104  0.00  0.00     0.077 C 
ATOM      8  C7  UNL d   1       1.723  -0.819   3.272  0.00  0.00    -0.001 A 
ENDROOT
TORSDOF 0
ENDMDL
