MODEL 1
REMARK minimizedAffinity 1.9784857
REMARK minimizedRMSD -1
REMARK  0 active torsions:
REMARK  status: ('A' for Active; 'I' for Inactive)
ROOT
ATOM      1  C   UNL d   1      -5.586  -5.877  -2.977  0.00  0.00     0.077 C 
ATOM      2  C1  UNL d   1      -5.724  -5.036  -1.743  0.00  0.00    -0.074 A 
ATOM      3  C2  UNL d   1      -5.853  -3.646  -1.831  0.00  0.00    -0.005 A 
ATOM      4  C3  UNL d   1      -5.990  -2.878  -0.675  0.00  0.00     0.006 A 
ATOM      5  C4  UNL d   1      -5.999  -3.490   0.579  0.00  0.00    -0.005 A 
ATOM      6  C5  UNL d   1      -5.871  -4.879   0.687  0.00  0.00    -0.074 A 
ATOM      7  C6  UNL d   1      -5.888  -5.554   2.026  0.00  0.00     0.077 C 
ATOM      8  C7  UNL d   1      -5.741  -5.645  -0.480  0.00  0.00    -0.001 A 
ENDROOT
TORSDOF 0
ENDMDL
