MODEL 1
REMARK minimizedAffinity 12.1397066
REMARK minimizedRMSD -1
REMARK  0 active torsions:
REMARK  status: ('A' for Active; 'I' for Inactive)
ROOT
ATOM      1  C   UNL d   1       5.999   3.826  -3.922  0.00  0.00     0.077 C 
ATOM      2  C1  UNL d   1       4.558   3.999  -3.544  0.00  0.00    -0.074 A 
ATOM      3  C2  UNL d   1       3.665   4.655  -4.397  0.00  0.00    -0.005 A 
ATOM      4  C3  UNL d   1       2.325   4.800  -4.036  0.00  0.00     0.006 A 
ATOM      5  C4  UNL d   1       1.866   4.291  -2.821  0.00  0.00    -0.005 A 
ATOM      6  C5  UNL d   1       2.744   3.631  -1.955  0.00  0.00    -0.074 A 
ATOM      7  C6  UNL d   1       2.265   3.069  -0.650  0.00  0.00     0.077 C 
ATOM      8  C7  UNL d   1       4.087   3.483  -2.328  0.00  0.00    -0.001 A 
ENDROOT
TORSDOF 0
ENDMDL
