MODEL 1
REMARK minimizedAffinity 8.17150593
REMARK minimizedRMSD -1
REMARK  0 active torsions:
REMARK  status: ('A' for Active; 'I' for Inactive)
ROOT
ATOM      1  C   UNL d   1       1.263   5.988  -5.000  0.00  0.00     0.077 C 
ATOM      2  C1  UNL d   1       2.268   4.897  -5.224  0.00  0.00    -0.074 A 
ATOM      3  C2  UNL d   1       1.888   3.676  -5.789  0.00  0.00    -0.005 A 
ATOM      4  C3  UNL d   1       2.835   2.674  -6.000  0.00  0.00     0.006 A 
ATOM      5  C4  UNL d   1       4.170   2.883  -5.649  0.00  0.00    -0.005 A 
ATOM      6  C5  UNL d   1       4.568   4.099  -5.084  0.00  0.00    -0.074 A 
ATOM      7  C6  UNL d   1       6.000   4.344  -4.710  0.00  0.00     0.077 C 
ATOM      8  C7  UNL d   1       3.611   5.103  -4.881  0.00  0.00    -0.001 A 
ENDROOT
TORSDOF 0
ENDMDL
