MODEL 1
REMARK minimizedAffinity 9.49933052
REMARK minimizedRMSD -1
REMARK  0 active torsions:
REMARK  status: ('A' for Active; 'I' for Inactive)
ROOT
ATOM      1  C   UNL d   1       1.744   2.550  -1.112  0.00  0.00     0.077 C 
ATOM      2  C1  UNL d   1       2.270   3.435  -2.203  0.00  0.00    -0.074 A 
ATOM      3  C2  UNL d   1       1.662   4.661  -2.491  0.00  0.00    -0.005 A 
ATOM      4  C3  UNL d   1       2.168   5.477  -3.502  0.00  0.00     0.006 A 
ATOM      5  C4  UNL d   1       3.286   5.077  -4.235  0.00  0.00    -0.005 A 
ATOM      6  C5  UNL d   1       3.908   3.855  -3.961  0.00  0.00    -0.074 A 
ATOM      7  C6  UNL d   1       5.117   3.414  -4.732  0.00  0.00     0.077 C 
ATOM      8  C7  UNL d   1       3.398   3.043  -2.938  0.00  0.00    -0.001 A 
ENDROOT
TORSDOF 0
ENDMDL
