MODEL 1
REMARK minimizedAffinity 1.16246712
REMARK minimizedRMSD -1
REMARK  0 active torsions:
REMARK  status: ('A' for Active; 'I' for Inactive)
ROOT
ATOM      1  C   UNL d   1      -5.986  -5.423  -2.173  0.00  0.00     0.077 C 
ATOM      2  C1  UNL d   1      -5.870  -5.030  -0.731  0.00  0.00    -0.074 A 
ATOM      3  C2  UNL d   1      -5.760  -5.999   0.272  0.00  0.00    -0.005 A 
ATOM      4  C3  UNL d   1      -5.644  -5.618   1.609  0.00  0.00     0.006 A 
ATOM      5  C4  UNL d   1      -5.635  -4.267   1.956  0.00  0.00    -0.005 A 
ATOM      6  C5  UNL d   1      -5.743  -3.283   0.967  0.00  0.00    -0.074 A 
ATOM      7  C6  UNL d   1      -5.726  -1.826   1.322  0.00  0.00     0.077 C 
ATOM      8  C7  UNL d   1      -5.853  -3.674  -0.375  0.00  0.00    -0.001 A 
ENDROOT
TORSDOF 0
ENDMDL
