MODEL 1
REMARK minimizedAffinity 3.24279475
REMARK minimizedRMSD -1
REMARK  0 active torsions:
REMARK  status: ('A' for Active; 'I' for Inactive)
ROOT
ATOM      1  C   UNL d   1      -0.507  -0.104   4.384  0.00  0.00     0.077 C 
ATOM      2  C1  UNL d   1       0.371   0.860   3.644  0.00  0.00    -0.074 A 
ATOM      3  C2  UNL d   1       0.018   2.208   3.525  0.00  0.00    -0.005 A 
ATOM      4  C3  UNL d   1       0.849   3.096   2.842  0.00  0.00     0.006 A 
ATOM      5  C4  UNL d   1       2.039   2.645   2.271  0.00  0.00    -0.005 A 
ATOM      6  C5  UNL d   1       2.409   1.300   2.380  0.00  0.00    -0.074 A 
ATOM      7  C6  UNL d   1       3.690   0.801   1.780  0.00  0.00     0.077 C 
ATOM      8  C7  UNL d   1       1.572   0.416   3.074  0.00  0.00    -0.001 A 
ENDROOT
TORSDOF 0
ENDMDL
