MODEL 1
REMARK minimizedAffinity 9.84272194
REMARK minimizedRMSD -1
REMARK  0 active torsions:
REMARK  status: ('A' for Active; 'I' for Inactive)
ROOT
ATOM      1  C   UNL d   1      -5.960  -0.765  -1.457  0.00  0.00     0.077 C 
ATOM      2  C1  UNL d   1      -5.976  -2.020  -2.276  0.00  0.00    -0.074 A 
ATOM      3  C2  UNL d   1      -5.975  -1.967  -3.674  0.00  0.00    -0.005 A 
ATOM      4  C3  UNL d   1      -5.981  -3.143  -4.423  0.00  0.00     0.006 A 
ATOM      5  C4  UNL d   1      -5.988  -4.383  -3.783  0.00  0.00    -0.005 A 
ATOM      6  C5  UNL d   1      -5.988  -4.457  -2.387  0.00  0.00    -0.074 A 
ATOM      7  C6  UNL d   1      -5.985  -5.782  -1.684  0.00  0.00     0.077 C 
ATOM      8  C7  UNL d   1      -5.975  -3.270  -1.641  0.00  0.00    -0.001 A 
ENDROOT
TORSDOF 0
ENDMDL
