MODEL 1
REMARK minimizedAffinity 2.3838706
REMARK minimizedRMSD -1
REMARK  0 active torsions:
REMARK  status: ('A' for Active; 'I' for Inactive)
ROOT
ATOM      1  C   UNL d   1      -4.165  -5.774   0.501  0.00  0.00     0.077 C 
ATOM      2  C1  UNL d   1      -4.799  -5.188  -0.725  0.00  0.00    -0.074 A 
ATOM      3  C2  UNL d   1      -5.117  -5.992  -1.824  0.00  0.00    -0.005 A 
ATOM      4  C3  UNL d   1      -5.714  -5.434  -2.954  0.00  0.00     0.006 A 
ATOM      5  C4  UNL d   1      -6.000  -4.068  -2.996  0.00  0.00    -0.005 A 
ATOM      6  C5  UNL d   1      -5.690  -3.249  -1.906  0.00  0.00    -0.074 A 
ATOM      7  C6  UNL d   1      -5.999  -1.781  -1.931  0.00  0.00     0.077 C 
ATOM      8  C7  UNL d   1      -5.096  -3.818  -0.772  0.00  0.00    -0.001 A 
ENDROOT
TORSDOF 0
ENDMDL
