MODEL 1
REMARK minimizedAffinity 10.4681339
REMARK minimizedRMSD -1
REMARK  0 active torsions:
REMARK  status: ('A' for Active; 'I' for Inactive)
ROOT
ATOM      1  C   UNL d   1       5.472   4.097  -4.897  0.00  0.00     0.077 C 
ATOM      2  C1  UNL d   1       4.038   4.204  -4.471  0.00  0.00    -0.074 A 
ATOM      3  C2  UNL d   1       3.077   4.770  -5.316  0.00  0.00    -0.005 A 
ATOM      4  C3  UNL d   1       1.745   4.854  -4.910  0.00  0.00     0.006 A 
ATOM      5  C4  UNL d   1       1.361   4.376  -3.657  0.00  0.00    -0.005 A 
ATOM      6  C5  UNL d   1       2.308   3.806  -2.799  0.00  0.00    -0.074 A 
ATOM      7  C6  UNL d   1       1.910   3.278  -1.452  0.00  0.00     0.077 C 
ATOM      8  C7  UNL d   1       3.642   3.718  -3.217  0.00  0.00    -0.001 A 
ENDROOT
TORSDOF 0
ENDMDL
