MODEL 1
REMARK minimizedAffinity 3.08841515
REMARK minimizedRMSD -1
REMARK  0 active torsions:
REMARK  status: ('A' for Active; 'I' for Inactive)
ROOT
ATOM      1  C   UNL d   1      -1.880   3.212   3.067  0.00  0.00     0.077 C 
ATOM      2  C1  UNL d   1      -0.616   2.421   3.230  0.00  0.00    -0.074 A 
ATOM      3  C2  UNL d   1       0.596   3.056   3.520  0.00  0.00    -0.005 A 
ATOM      4  C3  UNL d   1       1.762   2.307   3.678  0.00  0.00     0.006 A 
ATOM      5  C4  UNL d   1       1.728   0.918   3.548  0.00  0.00    -0.005 A 
ATOM      6  C5  UNL d   1       0.525   0.266   3.260  0.00  0.00    -0.074 A 
ATOM      7  C6  UNL d   1       0.469  -1.227   3.127  0.00  0.00     0.077 C 
ATOM      8  C7  UNL d   1      -0.644   1.025   3.109  0.00  0.00    -0.001 A 
ENDROOT
TORSDOF 0
ENDMDL
