MODEL 1
REMARK minimizedAffinity 1.0821532
REMARK minimizedRMSD -1
REMARK  0 active torsions:
REMARK  status: ('A' for Active; 'I' for Inactive)
ROOT
ATOM      1  C   UNL d   1       1.012  -1.488  -3.088  0.00  0.00     0.077 C 
ATOM      2  C1  UNL d   1       1.206  -0.140  -2.459  0.00  0.00    -0.074 A 
ATOM      3  C2  UNL d   1       0.378   0.294  -1.419  0.00  0.00    -0.005 A 
ATOM      4  C3  UNL d   1       0.577   1.546  -0.837  0.00  0.00     0.006 A 
ATOM      5  C4  UNL d   1       1.605   2.375  -1.288  0.00  0.00    -0.005 A 
ATOM      6  C5  UNL d   1       2.444   1.957  -2.326  0.00  0.00    -0.074 A 
ATOM      7  C6  UNL d   1       3.560   2.832  -2.816  0.00  0.00     0.077 C 
ATOM      8  C7  UNL d   1       2.242   0.695  -2.901  0.00  0.00    -0.001 A 
ENDROOT
TORSDOF 0
ENDMDL
