MODEL 1
REMARK minimizedAffinity 9.50995922
REMARK minimizedRMSD -1
REMARK  0 active torsions:
REMARK  status: ('A' for Active; 'I' for Inactive)
ROOT
ATOM      1  C   UNL d   1       1.191   5.662  -5.205  0.00  0.00     0.077 C 
ATOM      2  C1  UNL d   1       2.245   4.602  -5.317  0.00  0.00    -0.074 A 
ATOM      3  C2  UNL d   1       1.958   3.360  -5.893  0.00  0.00    -0.005 A 
ATOM      4  C3  UNL d   1       2.951   2.387  -6.000  0.00  0.00     0.006 A 
ATOM      5  C4  UNL d   1       4.240   2.645  -5.532  0.00  0.00    -0.005 A 
ATOM      6  C5  UNL d   1       4.547   3.881  -4.954  0.00  0.00    -0.074 A 
ATOM      7  C6  UNL d   1       5.930   4.178  -4.455  0.00  0.00     0.077 C 
ATOM      8  C7  UNL d   1       3.545   4.856  -4.857  0.00  0.00    -0.001 A 
ENDROOT
TORSDOF 0
ENDMDL
