MODEL 1
REMARK minimizedAffinity 3.68056822
REMARK minimizedRMSD -1
REMARK  1 active torsions:
REMARK  status: ('A' for Active; 'I' for Inactive)
REMARK    1  A    between atoms: C1_2  and  C2_3 
ROOT
ATOM      1  C2  UNL d   1       2.380  -1.965   1.051  0.00  0.00    -0.073 A 
ATOM      2  C3  UNL d   1       2.732  -1.028   0.072  0.00  0.00    -0.002 A 
ATOM      3  C4  UNL d   1       2.202  -1.121  -1.215  0.00  0.00     0.004 A 
ATOM      4  C5  UNL d   1       1.311  -2.145  -1.536  0.00  0.00    -0.004 A 
ATOM      5  C6  UNL d   1       0.938  -3.084  -0.568  0.00  0.00    -0.075 A 
ATOM      6  C7  UNL d   1      -0.018  -4.193  -0.897  0.00  0.00     0.076 C 
ATOM      7  C8  UNL d   1       1.477  -2.986   0.722  0.00  0.00     0.001 A 
ENDROOT
BRANCH   1   8
ATOM      8  C1  UNL d   1       2.945  -1.865   2.444  0.00  0.00     0.053 C 
ATOM      9  C   UNL d   1       1.959  -2.350   3.495  0.00  0.00     0.018 C 
ENDBRANCH   1   8
TORSDOF 1
ENDMDL
