MODEL 1
REMARK minimizedAffinity 0.701599538
REMARK minimizedRMSD -1
REMARK  1 active torsions:
REMARK  status: ('A' for Active; 'I' for Inactive)
REMARK    1  A    between atoms: C1_2  and  C2_3 
ROOT
ATOM      1  C2  UNL d   1       1.536  -2.130  -0.362  0.00  0.00    -0.073 A 
ATOM      2  C3  UNL d   1       0.651  -1.160  -0.846  0.00  0.00    -0.002 A 
ATOM      3  C4  UNL d   1       0.911   0.196  -0.642  0.00  0.00     0.004 A 
ATOM      4  C5  UNL d   1       2.060   0.595   0.041  0.00  0.00    -0.004 A 
ATOM      5  C6  UNL d   1       2.962  -0.359   0.522  0.00  0.00    -0.075 A 
ATOM      6  C7  UNL d   1       4.202   0.054   1.260  0.00  0.00     0.076 C 
ATOM      7  C8  UNL d   1       2.693  -1.719   0.315  0.00  0.00     0.001 A 
ENDROOT
BRANCH   1   8
ATOM      8  C1  UNL d   1       1.263  -3.595  -0.586  0.00  0.00     0.053 C 
ATOM      9  C   UNL d   1      -0.159  -3.975  -0.204  0.00  0.00     0.018 C 
ENDBRANCH   1   8
TORSDOF 1
ENDMDL
