MODEL 1
REMARK minimizedAffinity 2.26682615
REMARK minimizedRMSD -1
REMARK  1 active torsions:
REMARK  status: ('A' for Active; 'I' for Inactive)
REMARK    1  A    between atoms: C1_2  and  C2_3 
ROOT
ATOM      1  C2  UNL d   1      -3.963   1.343  -2.703  0.00  0.00    -0.073 A 
ATOM      2  C3  UNL d   1      -4.490   2.606  -2.997  0.00  0.00    -0.002 A 
ATOM      3  C4  UNL d   1      -5.506   3.147  -2.208  0.00  0.00     0.004 A 
ATOM      4  C5  UNL d   1      -6.000   2.437  -1.114  0.00  0.00    -0.004 A 
ATOM      5  C6  UNL d   1      -5.478   1.178  -0.797  0.00  0.00    -0.075 A 
ATOM      6  C7  UNL d   1      -6.000   0.400   0.375  0.00  0.00     0.076 C 
ATOM      7  C8  UNL d   1      -4.460   0.640  -1.596  0.00  0.00     0.001 A 
ENDROOT
BRANCH   1   8
ATOM      8  C1  UNL d   1      -2.862   0.757  -3.548  0.00  0.00     0.053 C 
ATOM      9  C   UNL d   1      -1.484   1.097  -3.004  0.00  0.00     0.018 C 
ENDBRANCH   1   8
TORSDOF 1
ENDMDL
