MODEL 1
REMARK minimizedAffinity 14.3761873
REMARK minimizedRMSD -1
REMARK  1 active torsions:
REMARK  status: ('A' for Active; 'I' for Inactive)
REMARK    1  A    between atoms: C1_2  and  C2_3 
ROOT
ATOM      1  C2  UNL d   1       1.097   1.428   0.233  0.00  0.00    -0.073 A 
ATOM      2  C3  UNL d   1       2.316   2.116   0.214  0.00  0.00    -0.002 A 
ATOM      3  C4  UNL d   1       3.521   1.415   0.267  0.00  0.00     0.004 A 
ATOM      4  C5  UNL d   1       3.521   0.022   0.334  0.00  0.00    -0.004 A 
ATOM      5  C6  UNL d   1       2.314  -0.684   0.343  0.00  0.00    -0.075 A 
ATOM      6  C7  UNL d   1       2.296  -2.183   0.416  0.00  0.00     0.076 C 
ATOM      7  C8  UNL d   1       1.107   0.027   0.291  0.00  0.00     0.001 A 
ENDROOT
BRANCH   1   8
ATOM      8  C1  UNL d   1      -0.207   2.180   0.169  0.00  0.00     0.053 C 
ATOM      9  C   UNL d   1      -0.944   2.157   1.499  0.00  0.00     0.018 C 
ENDBRANCH   1   8
TORSDOF 1
ENDMDL
