MODEL 1
REMARK minimizedAffinity 2.30215883
REMARK minimizedRMSD -1
REMARK  1 active torsions:
REMARK  status: ('A' for Active; 'I' for Inactive)
REMARK    1  A    between atoms: C1_2  and  C2_3 
ROOT
ATOM      1  C2  UNL d   1      -0.185   0.973   0.456  0.00  0.00    -0.073 A 
ATOM      2  C3  UNL d   1      -0.939   0.886  -0.720  0.00  0.00    -0.002 A 
ATOM      3  C4  UNL d   1      -0.498   0.098  -1.784  0.00  0.00     0.004 A 
ATOM      4  C5  UNL d   1       0.696  -0.615  -1.681  0.00  0.00    -0.004 A 
ATOM      5  C6  UNL d   1       1.458  -0.551  -0.509  0.00  0.00    -0.075 A 
ATOM      6  C7  UNL d   1       2.746  -1.310  -0.383  0.00  0.00     0.076 C 
ATOM      7  C8  UNL d   1       1.009   0.245   0.553  0.00  0.00     0.001 A 
ENDROOT
BRANCH   1   8
ATOM      8  C1  UNL d   1      -0.661   1.818   1.609  0.00  0.00     0.053 C 
ATOM      9  C   UNL d   1      -0.865   0.995   2.872  0.00  0.00     0.018 C 
ENDBRANCH   1   8
TORSDOF 1
ENDMDL
