MODEL 1
REMARK minimizedAffinity 12.2805977
REMARK minimizedRMSD -1
REMARK  1 active torsions:
REMARK  status: ('A' for Active; 'I' for Inactive)
REMARK    1  A    between atoms: C1_2  and  C2_3 
ROOT
ATOM      1  C2  UNL d   1       2.256  -2.037   2.215  0.00  0.00    -0.073 A 
ATOM      2  C3  UNL d   1       3.399  -1.428   1.685  0.00  0.00    -0.002 A 
ATOM      3  C4  UNL d   1       3.637  -1.451   0.310  0.00  0.00     0.004 A 
ATOM      4  C5  UNL d   1       2.733  -2.076  -0.548  0.00  0.00    -0.004 A 
ATOM      5  C6  UNL d   1       1.579  -2.679  -0.039  0.00  0.00    -0.075 A 
ATOM      6  C7  UNL d   1       0.597  -3.358  -0.949  0.00  0.00     0.076 C 
ATOM      7  C8  UNL d   1       1.348  -2.654   1.343  0.00  0.00     0.001 A 
ENDROOT
BRANCH   1   8
ATOM      8  C1  UNL d   1       1.992  -2.009   3.698  0.00  0.00     0.053 C 
ATOM      9  C   UNL d   1       0.540  -1.683   4.013  0.00  0.00     0.018 C 
ENDBRANCH   1   8
TORSDOF 1
ENDMDL
