MODEL 1
REMARK minimizedAffinity -0.413008839
REMARK minimizedRMSD -1
REMARK  1 active torsions:
REMARK  status: ('A' for Active; 'I' for Inactive)
REMARK    1  A    between atoms: C1_2  and  C2_3 
ROOT
ATOM      1  C2  UNL d   1       3.029   0.371  -1.195  0.00  0.00    -0.073 A 
ATOM      2  C3  UNL d   1       3.549  -0.815  -0.665  0.00  0.00    -0.002 A 
ATOM      3  C4  UNL d   1       2.722  -1.921  -0.466  0.00  0.00     0.004 A 
ATOM      4  C5  UNL d   1       1.370  -1.856  -0.801  0.00  0.00    -0.004 A 
ATOM      5  C6  UNL d   1       0.833  -0.683  -1.343  0.00  0.00    -0.075 A 
ATOM      6  C7  UNL d   1      -0.620  -0.596  -1.706  0.00  0.00     0.076 C 
ATOM      7  C8  UNL d   1       1.670   0.424  -1.537  0.00  0.00     0.001 A 
ENDROOT
BRANCH   1   8
ATOM      8  C1  UNL d   1       3.919   1.565  -1.418  0.00  0.00     0.053 C 
ATOM      9  C   UNL d   1       5.036   1.268  -2.406  0.00  0.00     0.018 C 
ENDBRANCH   1   8
TORSDOF 1
ENDMDL
