MODEL 1
REMARK minimizedAffinity 17.955965
REMARK minimizedRMSD -1
REMARK  0 active torsions:
REMARK  status: ('A' for Active; 'I' for Inactive)
ROOT
ATOM      1  C   UNL d   1      -5.123  -2.393  -2.331  0.00  0.00     0.124 A 
ATOM      2  C1  UNL d   1      -5.180  -3.723  -1.939  0.00  0.00     0.062 A 
ATOM      3  C2  UNL d   1      -5.404  -4.722  -2.883  0.00  0.00     0.162 A 
ATOM      4  C3  UNL d   1      -5.572  -4.394  -4.228  0.00  0.00    -0.034 A 
ATOM      5  C4  UNL d   1      -5.514  -3.053  -4.615  0.00  0.00     0.162 A 
ATOM      6  C5  UNL d   1      -5.290  -2.059  -3.668  0.00  0.00     0.062 A 
ATOM      7  F   UNL d   1      -5.235  -0.774  -4.048  0.00  0.00    -0.097 F 
ATOM      8  F1  UNL d   1      -5.670  -2.703  -5.900  0.00  0.00    -0.096 F 
ATOM      9  I   UNL d   1      -5.907  -5.884  -5.642  0.00  0.00    -0.060 I 
ATOM     10  F2  UNL d   1      -5.455  -5.999  -2.476  0.00  0.00    -0.096 F 
ATOM     11  F3  UNL d   1      -5.020  -4.048  -0.648  0.00  0.00    -0.097 F 
ATOM     12  F4  UNL d   1      -4.908  -1.434  -1.421  0.00  0.00    -0.092 F 
ENDROOT
TORSDOF 0
ENDMDL
