MODEL 1
REMARK minimizedAffinity 12.921195
REMARK minimizedRMSD -1
REMARK  0 active torsions:
REMARK  status: ('A' for Active; 'I' for Inactive)
ROOT
ATOM      1  C   UNL d   1       2.412  -2.430  -3.119  0.00  0.00     0.124 A 
ATOM      2  C1  UNL d   1       3.719  -2.881  -3.003  0.00  0.00     0.062 A 
ATOM      3  C2  UNL d   1       4.746  -2.234  -3.686  0.00  0.00     0.162 A 
ATOM      4  C3  UNL d   1       4.468  -1.129  -4.490  0.00  0.00    -0.034 A 
ATOM      5  C4  UNL d   1       3.150  -0.682  -4.603  0.00  0.00     0.162 A 
ATOM      6  C5  UNL d   1       2.128  -1.332  -3.919  0.00  0.00     0.062 A 
ATOM      7  F   UNL d   1       0.865  -0.896  -4.032  0.00  0.00    -0.097 F 
ATOM      8  F1  UNL d   1       2.849   0.378  -5.368  0.00  0.00    -0.096 F 
ATOM      9  I   UNL d   1       6.000  -0.159  -5.513  0.00  0.00    -0.060 I 
ATOM     10  F2  UNL d   1       6.000  -2.691  -3.555  0.00  0.00    -0.096 F 
ATOM     11  F3  UNL d   1       3.996  -3.942  -2.232  0.00  0.00    -0.097 F 
ATOM     12  F4  UNL d   1       1.426  -3.055  -2.462  0.00  0.00    -0.092 F 
ENDROOT
TORSDOF 0
ENDMDL
