MODEL 1
REMARK minimizedAffinity 14.577589
REMARK minimizedRMSD -1
REMARK  0 active torsions:
REMARK  status: ('A' for Active; 'I' for Inactive)
ROOT
ATOM      1  C   UNL d   1      -5.094  -4.508  -4.318  0.00  0.00     0.124 A 
ATOM      2  C1  UNL d   1      -5.485  -4.747  -3.008  0.00  0.00     0.062 A 
ATOM      3  C2  UNL d   1      -5.615  -3.689  -2.113  0.00  0.00     0.162 A 
ATOM      4  C3  UNL d   1      -5.354  -2.382  -2.525  0.00  0.00    -0.034 A 
ATOM      5  C4  UNL d   1      -4.960  -2.150  -3.844  0.00  0.00     0.162 A 
ATOM      6  C5  UNL d   1      -4.831  -3.211  -4.735  0.00  0.00     0.062 A 
ATOM      7  F   UNL d   1      -4.453  -2.978  -6.000  0.00  0.00    -0.097 F 
ATOM      8  F1  UNL d   1      -4.701  -0.906  -4.273  0.00  0.00    -0.096 F 
ATOM      9  I   UNL d   1      -5.547  -0.798  -1.189  0.00  0.00    -0.060 I 
ATOM     10  F2  UNL d   1      -5.995  -3.949  -0.853  0.00  0.00    -0.096 F 
ATOM     11  F3  UNL d   1      -5.738  -5.999  -2.603  0.00  0.00    -0.097 F 
ATOM     12  F4  UNL d   1      -4.968  -5.528  -5.177  0.00  0.00    -0.092 F 
ENDROOT
TORSDOF 0
ENDMDL
