MODEL 1
REMARK minimizedAffinity 5.7694521
REMARK minimizedRMSD -1
REMARK  0 active torsions:
REMARK  status: ('A' for Active; 'I' for Inactive)
ROOT
ATOM      1  C   UNL d   1       1.314  -3.068   0.749  0.00  0.00     0.124 A 
ATOM      2  C1  UNL d   1       1.319  -3.784  -0.441  0.00  0.00     0.062 A 
ATOM      3  C2  UNL d   1       2.172  -3.415  -1.476  0.00  0.00     0.162 A 
ATOM      4  C3  UNL d   1       3.030  -2.325  -1.326  0.00  0.00    -0.034 A 
ATOM      5  C4  UNL d   1       3.020  -1.610  -0.127  0.00  0.00     0.162 A 
ATOM      6  C5  UNL d   1       2.164  -1.983   0.904  0.00  0.00     0.062 A 
ATOM      7  F   UNL d   1       2.162  -1.291   2.053  0.00  0.00    -0.097 F 
ATOM      8  F1  UNL d   1       3.832  -0.557   0.050  0.00  0.00    -0.096 F 
ATOM      9  I   UNL d   1       4.309  -1.770  -2.872  0.00  0.00    -0.060 I 
ATOM     10  F2  UNL d   1       2.155  -4.124  -2.615  0.00  0.00    -0.096 F 
ATOM     11  F3  UNL d   1       0.498  -4.833  -0.594  0.00  0.00    -0.097 F 
ATOM     12  F4  UNL d   1       0.491  -3.425   1.743  0.00  0.00    -0.092 F 
ENDROOT
TORSDOF 0
ENDMDL
