MODEL 1
REMARK minimizedAffinity 13.1308851
REMARK minimizedRMSD -1
REMARK  0 active torsions:
REMARK  status: ('A' for Active; 'I' for Inactive)
ROOT
ATOM      1  C   UNL d   1      -4.721  -2.377  -2.512  0.00  0.00     0.124 A 
ATOM      2  C1  UNL d   1      -5.195  -2.081  -3.782  0.00  0.00     0.062 A 
ATOM      3  C2  UNL d   1      -5.541  -3.106  -4.657  0.00  0.00     0.162 A 
ATOM      4  C3  UNL d   1      -5.415  -4.439  -4.265  0.00  0.00    -0.034 A 
ATOM      5  C4  UNL d   1      -4.936  -4.729  -2.986  0.00  0.00     0.162 A 
ATOM      6  C5  UNL d   1      -4.592  -3.701  -2.115  0.00  0.00     0.062 A 
ATOM      7  F   UNL d   1      -4.133  -3.989  -0.888  0.00  0.00    -0.097 F 
ATOM      8  F1  UNL d   1      -4.802  -6.000  -2.576  0.00  0.00    -0.096 F 
ATOM      9  I   UNL d   1      -5.932  -5.975  -5.570  0.00  0.00    -0.060 I 
ATOM     10  F2  UNL d   1      -5.997  -2.791  -5.878  0.00  0.00    -0.096 F 
ATOM     11  F3  UNL d   1      -5.320  -0.803  -4.168  0.00  0.00    -0.097 F 
ATOM     12  F4  UNL d   1      -4.387  -1.389  -1.672  0.00  0.00    -0.092 F 
ENDROOT
TORSDOF 0
ENDMDL
