MODEL 1
REMARK minimizedAffinity 20.9082127
REMARK minimizedRMSD -1
REMARK  0 active torsions:
REMARK  status: ('A' for Active; 'I' for Inactive)
ROOT
ATOM      1  C   UNL d   1       0.862  -3.886   0.827  0.00  0.00     0.124 A 
ATOM      2  C1  UNL d   1       0.677  -2.810   1.684  0.00  0.00     0.062 A 
ATOM      3  C2  UNL d   1       1.281  -2.801   2.938  0.00  0.00     0.162 A 
ATOM      4  C3  UNL d   1       2.076  -3.873   3.344  0.00  0.00    -0.034 A 
ATOM      5  C4  UNL d   1       2.257  -4.952   2.477  0.00  0.00     0.162 A 
ATOM      6  C5  UNL d   1       1.652  -4.956   1.225  0.00  0.00     0.062 A 
ATOM      7  F   UNL d   1       1.832  -5.997   0.399  0.00  0.00    -0.097 F 
ATOM      8  F1  UNL d   1       3.015  -5.999   2.836  0.00  0.00    -0.096 F 
ATOM      9  I   UNL d   1       2.980  -3.863   5.218  0.00  0.00    -0.060 I 
ATOM     10  F2  UNL d   1       1.084  -1.747   3.745  0.00  0.00    -0.096 F 
ATOM     11  F3  UNL d   1      -0.086  -1.775   1.302  0.00  0.00    -0.097 F 
ATOM     12  F4  UNL d   1       0.280  -3.892  -0.378  0.00  0.00    -0.092 F 
ENDROOT
TORSDOF 0
ENDMDL
