MODEL 1
REMARK minimizedAffinity 8.227705
REMARK minimizedRMSD -1
REMARK  0 active torsions:
REMARK  status: ('A' for Active; 'I' for Inactive)
ROOT
ATOM      1  C   UNL d   1       4.581   1.450  -2.367  0.00  0.00     0.124 A 
ATOM      2  C1  UNL d   1       5.094   0.191  -2.087  0.00  0.00     0.062 A 
ATOM      3  C2  UNL d   1       5.500  -0.646  -3.123  0.00  0.00     0.162 A 
ATOM      4  C3  UNL d   1       5.395  -0.226  -4.449  0.00  0.00    -0.034 A 
ATOM      5  C4  UNL d   1       4.877   1.041  -4.723  0.00  0.00     0.162 A 
ATOM      6  C5  UNL d   1       4.473   1.874  -3.685  0.00  0.00     0.062 A 
ATOM      7  F   UNL d   1       3.977   3.089  -3.957  0.00  0.00    -0.097 F 
ATOM      8  F1  UNL d   1       4.761   1.475  -5.987  0.00  0.00    -0.096 F 
ATOM      9  I   UNL d   1       6.000  -1.475  -6.000  0.00  0.00    -0.060 I 
ATOM     10  F2  UNL d   1       5.992  -1.857  -2.822  0.00  0.00    -0.096 F 
ATOM     11  F3  UNL d   1       5.199  -0.220  -0.815  0.00  0.00    -0.097 F 
ATOM     12  F4  UNL d   1       4.191   2.253  -1.369  0.00  0.00    -0.092 F 
ENDROOT
TORSDOF 0
ENDMDL
