MODEL 1
REMARK minimizedAffinity 10.7366657
REMARK minimizedRMSD -1
REMARK  1 active torsions:
REMARK  status: ('A' for Active; 'I' for Inactive)
REMARK    1  A    between atoms: C3_4  and  O_7 
ROOT
ATOM      1  C   UNL d   1      -1.525   1.790   0.455  0.00  0.00    -0.033 A 
ATOM      2  C1  UNL d   1      -0.683   2.446   1.355  0.00  0.00     0.039 A 
ATOM      3  C2  UNL d   1       0.140   3.484   0.914  0.00  0.00    -0.080 A 
ATOM      4  C3  UNL d   1       0.109   3.858  -0.426  0.00  0.00     0.150 A 
ATOM      5  C4  UNL d   1      -0.730   3.212  -1.328  0.00  0.00    -0.007 A 
ATOM      6  C5  UNL d   1      -1.550   2.174  -0.886  0.00  0.00     0.039 A 
ENDROOT
BRANCH   4   7
ATOM      7  O   UNL d   1       0.897   4.863  -0.904  0.00  0.00    -0.526 OA
ATOM      8  H5  UNL d   1       1.445   5.198  -0.174  0.00  0.00     0.418 HD
ENDBRANCH   4   7
TORSDOF 1
ENDMDL
