MODEL 1
REMARK minimizedAffinity -4.20299196
REMARK minimizedRMSD -1
REMARK  1 active torsions:
REMARK  status: ('A' for Active; 'I' for Inactive)
REMARK    1  A    between atoms: C3_4  and  O_7 
ROOT
ATOM      1  C   UNL d   1       3.230  -3.137   5.451  0.00  0.00    -0.033 A 
ATOM      2  C1  UNL d   1       1.889  -2.785   5.614  0.00  0.00     0.039 A 
ATOM      3  C2  UNL d   1       1.154  -2.305   4.528  0.00  0.00    -0.080 A 
ATOM      4  C3  UNL d   1       1.772  -2.182   3.287  0.00  0.00     0.150 A 
ATOM      5  C4  UNL d   1       3.106  -2.534   3.116  0.00  0.00    -0.007 A 
ATOM      6  C5  UNL d   1       3.839  -3.013   4.202  0.00  0.00     0.039 A 
ENDROOT
BRANCH   4   7
ATOM      7  O   UNL d   1       1.097  -1.714   2.198  0.00  0.00    -0.526 OA
ATOM      8  H5  UNL d   1       0.193  -1.483   2.472  0.00  0.00     0.418 HD
ENDBRANCH   4   7
TORSDOF 1
ENDMDL
