MODEL 1
REMARK minimizedAffinity 4.15166664
REMARK minimizedRMSD -1
REMARK  1 active torsions:
REMARK  status: ('A' for Active; 'I' for Inactive)
REMARK    1  A    between atoms: C3_4  and  O_7 
ROOT
ATOM      1  C   UNL d   1       3.568   2.579  -5.396  0.00  0.00    -0.033 A 
ATOM      2  C1  UNL d   1       4.893   2.416  -5.802  0.00  0.00     0.039 A 
ATOM      3  C2  UNL d   1       5.709   3.532  -5.998  0.00  0.00    -0.080 A 
ATOM      4  C3  UNL d   1       5.187   4.805  -5.783  0.00  0.00     0.150 A 
ATOM      5  C4  UNL d   1       3.868   4.975  -5.374  0.00  0.00    -0.007 A 
ATOM      6  C5  UNL d   1       3.056   3.859  -5.181  0.00  0.00     0.039 A 
ENDROOT
BRANCH   4   7
ATOM      7  O   UNL d   1       5.943   5.925  -5.965  0.00  0.00    -0.526 OA
ATOM      8  H5  UNL d   1       6.823   5.655  -6.275  0.00  0.00     0.418 HD
ENDBRANCH   4   7
TORSDOF 1
ENDMDL
