MODEL 1
REMARK minimizedAffinity 9.50706768
REMARK minimizedRMSD -1
REMARK  1 active torsions:
REMARK  status: ('A' for Active; 'I' for Inactive)
REMARK    1  A    between atoms: C3_4  and  O_7 
ROOT
ATOM      1  C   UNL d   1       1.004  -3.506   3.643  0.00  0.00    -0.033 A 
ATOM      2  C1  UNL d   1       1.381  -2.292   4.220  0.00  0.00     0.039 A 
ATOM      3  C2  UNL d   1       1.452  -1.138   3.438  0.00  0.00    -0.080 A 
ATOM      4  C3  UNL d   1       1.143  -1.210   2.083  0.00  0.00     0.150 A 
ATOM      5  C4  UNL d   1       0.762  -2.416   1.502  0.00  0.00    -0.007 A 
ATOM      6  C5  UNL d   1       0.693  -3.568   2.284  0.00  0.00     0.039 A 
ENDROOT
BRANCH   4   7
ATOM      7  O   UNL d   1       1.202  -0.111   1.278  0.00  0.00    -0.526 OA
ATOM      8  H5  UNL d   1       1.507   0.643   1.810  0.00  0.00     0.418 HD
ENDBRANCH   4   7
TORSDOF 1
ENDMDL
