MODEL 1
REMARK minimizedAffinity 3.04941845
REMARK minimizedRMSD -1
REMARK  1 active torsions:
REMARK  status: ('A' for Active; 'I' for Inactive)
REMARK    1  A    between atoms: C3_4  and  O_7 
ROOT
ATOM      1  C   UNL d   1      -6.000  -3.947  -5.925  0.00  0.00    -0.033 A 
ATOM      2  C1  UNL d   1      -5.891  -5.337  -6.000  0.00  0.00     0.039 A 
ATOM      3  C2  UNL d   1      -4.891  -6.000  -5.286  0.00  0.00    -0.080 A 
ATOM      4  C3  UNL d   1      -4.008  -5.263  -4.501  0.00  0.00     0.150 A 
ATOM      5  C4  UNL d   1      -4.114  -3.878  -4.419  0.00  0.00    -0.007 A 
ATOM      6  C5  UNL d   1      -5.112  -3.218  -5.133  0.00  0.00     0.039 A 
ENDROOT
BRANCH   4   7
ATOM      7  O   UNL d   1      -3.013  -5.865  -3.791  0.00  0.00    -0.526 OA
ATOM      8  H5  UNL d   1      -3.044  -6.820  -3.966  0.00  0.00     0.418 HD
ENDBRANCH   4   7
TORSDOF 1
ENDMDL
