MODEL 1
REMARK minimizedAffinity -5.7215476
REMARK minimizedRMSD -1
REMARK  0 active torsions:
REMARK  status: ('A' for Active; 'I' for Inactive)
ROOT
ATOM      1  C   UNL d   1      -2.031  -2.616   1.455  0.00  0.00     0.077 C 
ATOM      2  C1  UNL d   1      -0.989  -1.589   1.125  0.00  0.00    -0.074 A 
ATOM      3  C2  UNL d   1      -1.333  -0.244   0.958  0.00  0.00    -0.005 A 
ATOM      4  C3  UNL d   1      -0.351   0.701   0.660  0.00  0.00     0.006 A 
ATOM      5  C4  UNL d   1       0.982   0.311   0.527  0.00  0.00    -0.005 A 
ATOM      6  C5  UNL d   1       1.345  -1.030   0.691  0.00  0.00    -0.074 A 
ATOM      7  C6  UNL d   1       2.774  -1.464   0.560  0.00  0.00     0.077 C 
ATOM      8  C7  UNL d   1       0.353  -1.972   0.997  0.00  0.00    -0.001 A 
ENDROOT
TORSDOF 0
ENDMDL
