MODEL 1
REMARK minimizedAffinity 0.114242926
REMARK minimizedRMSD -1
REMARK  0 active torsions:
REMARK  status: ('A' for Active; 'I' for Inactive)
ROOT
ATOM      1  C   UNL d   1      -0.576  -0.308  -2.996  0.00  0.00     0.077 C 
ATOM      2  C1  UNL d   1       0.107   0.970  -3.383  0.00  0.00    -0.074 A 
ATOM      3  C2  UNL d   1      -0.632   2.110  -3.714  0.00  0.00    -0.005 A 
ATOM      4  C3  UNL d   1       0.018   3.293  -4.063  0.00  0.00     0.006 A 
ATOM      5  C4  UNL d   1       1.412   3.349  -4.084  0.00  0.00    -0.005 A 
ATOM      6  C5  UNL d   1       2.168   2.220  -3.755  0.00  0.00    -0.074 A 
ATOM      7  C6  UNL d   1       3.667   2.266  -3.764  0.00  0.00     0.077 C 
ATOM      8  C7  UNL d   1       1.508   1.036  -3.399  0.00  0.00    -0.001 A 
ENDROOT
TORSDOF 0
ENDMDL
