MODEL 1
REMARK minimizedAffinity -2.08773565
REMARK minimizedRMSD -1
REMARK  0 active torsions:
REMARK  status: ('A' for Active; 'I' for Inactive)
ROOT
ATOM      1  C   UNL d   1      -1.292  -1.454   0.051  0.00  0.00     0.077 C 
ATOM      2  C1  UNL d   1      -0.948  -0.019  -0.218  0.00  0.00    -0.074 A 
ATOM      3  C2  UNL d   1      -1.119   0.957   0.769  0.00  0.00    -0.005 A 
ATOM      4  C3  UNL d   1      -0.786   2.286   0.508  0.00  0.00     0.006 A 
ATOM      5  C4  UNL d   1      -0.280   2.652  -0.740  0.00  0.00    -0.005 A 
ATOM      6  C5  UNL d   1      -0.102   1.689  -1.739  0.00  0.00    -0.074 A 
ATOM      7  C6  UNL d   1       0.450   2.064  -3.082  0.00  0.00     0.077 C 
ATOM      8  C7  UNL d   1      -0.432   0.355  -1.466  0.00  0.00    -0.001 A 
ENDROOT
TORSDOF 0
ENDMDL
