MODEL 1
REMARK minimizedAffinity -2.78060246
REMARK minimizedRMSD -1
REMARK  0 active torsions:
REMARK  status: ('A' for Active; 'I' for Inactive)
ROOT
ATOM      1  C   UNL d   1      -0.008  -2.693   1.063  0.00  0.00     0.077 C 
ATOM      2  C1  UNL d   1      -0.279  -1.255   0.734  0.00  0.00    -0.074 A 
ATOM      3  C2  UNL d   1      -1.222  -0.518   1.458  0.00  0.00    -0.005 A 
ATOM      4  C3  UNL d   1      -1.456   0.822   1.147  0.00  0.00     0.006 A 
ATOM      5  C4  UNL d   1      -0.750   1.437   0.112  0.00  0.00    -0.005 A 
ATOM      6  C5  UNL d   1       0.197   0.716  -0.622  0.00  0.00    -0.074 A 
ATOM      7  C6  UNL d   1       0.971   1.364  -1.731  0.00  0.00     0.077 C 
ATOM      8  C7  UNL d   1       0.431  -0.628  -0.299  0.00  0.00    -0.001 A 
ENDROOT
TORSDOF 0
ENDMDL
