MODEL 1
REMARK minimizedAffinity -4.62772036
REMARK minimizedRMSD -1
REMARK  0 active torsions:
REMARK  status: ('A' for Active; 'I' for Inactive)
ROOT
ATOM      1  C   UNL d   1      -1.518   1.496   1.086  0.00  0.00     0.077 C 
ATOM      2  C1  UNL d   1      -1.193   0.045   0.891  0.00  0.00    -0.074 A 
ATOM      3  C2  UNL d   1      -2.200  -0.926   0.908  0.00  0.00    -0.005 A 
ATOM      4  C3  UNL d   1      -1.884  -2.271   0.717  0.00  0.00     0.006 A 
ATOM      5  C4  UNL d   1      -0.560  -2.658   0.506  0.00  0.00    -0.005 A 
ATOM      6  C5  UNL d   1       0.460  -1.701   0.485  0.00  0.00    -0.074 A 
ATOM      7  C6  UNL d   1       1.887  -2.100   0.251  0.00  0.00     0.077 C 
ATOM      8  C7  UNL d   1       0.134  -0.351   0.672  0.00  0.00    -0.001 A 
ENDROOT
TORSDOF 0
ENDMDL
