MODEL 1
REMARK minimizedAffinity -1.65916979
REMARK minimizedRMSD -1
REMARK  0 active torsions:
REMARK  status: ('A' for Active; 'I' for Inactive)
ROOT
ATOM      1  C   UNL d   1      -2.261   1.142  -0.363  0.00  0.00     0.077 C 
ATOM      2  C1  UNL d   1      -1.826   0.083   0.606  0.00  0.00    -0.074 A 
ATOM      3  C2  UNL d   1      -2.381   0.010   1.888  0.00  0.00    -0.005 A 
ATOM      4  C3  UNL d   1      -1.974  -0.986   2.775  0.00  0.00     0.006 A 
ATOM      5  C4  UNL d   1      -1.009  -1.918   2.391  0.00  0.00    -0.005 A 
ATOM      6  C5  UNL d   1      -0.444  -1.861   1.113  0.00  0.00    -0.074 A 
ATOM      7  C6  UNL d   1       0.587  -2.861   0.680  0.00  0.00     0.077 C 
ATOM      8  C7  UNL d   1      -0.863  -0.862   0.225  0.00  0.00    -0.001 A 
ENDROOT
TORSDOF 0
ENDMDL
