MODEL 1
REMARK minimizedAffinity -2.87852287
REMARK minimizedRMSD -1
REMARK  0 active torsions:
REMARK  status: ('A' for Active; 'I' for Inactive)
ROOT
ATOM      1  C   UNL d   1       1.189  -3.998   4.406  0.00  0.00     0.077 C 
ATOM      2  C1  UNL d   1       0.487  -3.017   3.514  0.00  0.00    -0.074 A 
ATOM      3  C2  UNL d   1      -0.738  -2.455   3.887  0.00  0.00    -0.005 A 
ATOM      4  C3  UNL d   1      -1.374  -1.537   3.052  0.00  0.00     0.006 A 
ATOM      5  C4  UNL d   1      -0.792  -1.171   1.837  0.00  0.00    -0.005 A 
ATOM      6  C5  UNL d   1       0.433  -1.721   1.448  0.00  0.00    -0.074 A 
ATOM      7  C6  UNL d   1       1.078  -1.332   0.151  0.00  0.00     0.077 C 
ATOM      8  C7  UNL d   1       1.070  -2.638   2.296  0.00  0.00    -0.001 A 
ENDROOT
TORSDOF 0
ENDMDL
