MODEL 1
REMARK minimizedAffinity -2.96524334
REMARK minimizedRMSD -1
REMARK  0 active torsions:
REMARK  status: ('A' for Active; 'I' for Inactive)
ROOT
ATOM      1  C   UNL d   1      -2.232  -1.170   4.654  0.00  0.00     0.077 C 
ATOM      2  C1  UNL d   1      -1.412  -1.536   3.452  0.00  0.00    -0.074 A 
ATOM      3  C2  UNL d   1      -1.292  -2.867   3.041  0.00  0.00    -0.005 A 
ATOM      4  C3  UNL d   1      -0.533  -3.190   1.916  0.00  0.00     0.006 A 
ATOM      5  C4  UNL d   1       0.112  -2.187   1.192  0.00  0.00    -0.005 A 
ATOM      6  C5  UNL d   1       0.003  -0.850   1.587  0.00  0.00    -0.074 A 
ATOM      7  C6  UNL d   1       0.681   0.241   0.814  0.00  0.00     0.077 C 
ATOM      8  C7  UNL d   1      -0.767  -0.533   2.715  0.00  0.00    -0.001 A 
ENDROOT
TORSDOF 0
ENDMDL
