MODEL 1
REMARK minimizedAffinity 2.98975825
REMARK minimizedRMSD -1
REMARK  0 active torsions:
REMARK  status: ('A' for Active; 'I' for Inactive)
ROOT
ATOM      1  C   UNL d   1      -4.083   4.235  -1.258  0.00  0.00     0.077 C 
ATOM      2  C1  UNL d   1      -2.971   3.728  -2.126  0.00  0.00    -0.074 A 
ATOM      3  C2  UNL d   1      -2.762   2.356  -2.299  0.00  0.00    -0.005 A 
ATOM      4  C3  UNL d   1      -1.729   1.899  -3.118  0.00  0.00     0.006 A 
ATOM      5  C4  UNL d   1      -0.896   2.808  -3.771  0.00  0.00    -0.005 A 
ATOM      6  C5  UNL d   1      -1.090   4.184  -3.611  0.00  0.00    -0.074 A 
ATOM      7  C6  UNL d   1      -0.210   5.174  -4.314  0.00  0.00     0.077 C 
ATOM      8  C7  UNL d   1      -2.134   4.635  -2.792  0.00  0.00    -0.001 A 
ENDROOT
TORSDOF 0
ENDMDL
