MODEL 1
REMARK minimizedAffinity -3.26305389
REMARK minimizedRMSD -1
REMARK  0 active torsions:
REMARK  status: ('A' for Active; 'I' for Inactive)
ROOT
ATOM      1  C   UNL d   1       0.193   0.546   0.474  0.00  0.00     0.077 C 
ATOM      2  C1  UNL d   1       0.118  -0.759   1.208  0.00  0.00    -0.074 A 
ATOM      3  C2  UNL d   1       0.899  -1.851   0.814  0.00  0.00    -0.005 A 
ATOM      4  C3  UNL d   1       0.825  -3.056   1.513  0.00  0.00     0.006 A 
ATOM      5  C4  UNL d   1      -0.027  -3.181   2.610  0.00  0.00    -0.005 A 
ATOM      6  C5  UNL d   1      -0.814  -2.100   3.019  0.00  0.00    -0.074 A 
ATOM      7  C6  UNL d   1      -1.729  -2.215   4.203  0.00  0.00     0.077 C 
ATOM      8  C7  UNL d   1      -0.730  -0.891   2.317  0.00  0.00    -0.001 A 
ENDROOT
TORSDOF 0
ENDMDL
