MODEL 1
REMARK minimizedAffinity -0.577045143
REMARK minimizedRMSD -1
REMARK  0 active torsions:
REMARK  status: ('A' for Active; 'I' for Inactive)
ROOT
ATOM      1  C   UNL d   1      -1.958   1.657  -1.976  0.00  0.00     0.077 C 
ATOM      2  C1  UNL d   1      -1.406   0.596  -1.070  0.00  0.00    -0.074 A 
ATOM      3  C2  UNL d   1      -2.256  -0.287  -0.397  0.00  0.00    -0.005 A 
ATOM      4  C3  UNL d   1      -1.729  -1.275   0.434  0.00  0.00     0.006 A 
ATOM      5  C4  UNL d   1      -0.348  -1.390   0.600  0.00  0.00    -0.005 A 
ATOM      6  C5  UNL d   1       0.518  -0.517  -0.066  0.00  0.00    -0.074 A 
ATOM      7  C6  UNL d   1       2.005  -0.633   0.093  0.00  0.00     0.077 C 
ATOM      8  C7  UNL d   1      -0.020   0.469  -0.905  0.00  0.00    -0.001 A 
ENDROOT
TORSDOF 0
ENDMDL
