MODEL 1
REMARK minimizedAffinity 5.00101614
REMARK minimizedRMSD -1
REMARK  0 active torsions:
REMARK  status: ('A' for Active; 'I' for Inactive)
ROOT
ATOM      1  C   UNL d   1       0.250  -1.386   1.162  0.00  0.00     0.077 C 
ATOM      2  C1  UNL d   1       0.194  -2.138   2.459  0.00  0.00    -0.074 A 
ATOM      3  C2  UNL d   1      -0.941  -2.081   3.274  0.00  0.00    -0.005 A 
ATOM      4  C3  UNL d   1      -0.982  -2.792   4.473  0.00  0.00     0.006 A 
ATOM      5  C4  UNL d   1       0.110  -3.567   4.868  0.00  0.00    -0.005 A 
ATOM      6  C5  UNL d   1       1.253  -3.637   4.065  0.00  0.00    -0.074 A 
ATOM      7  C6  UNL d   1       2.431  -4.472   4.470  0.00  0.00     0.077 C 
ATOM      8  C7  UNL d   1       1.284  -2.924   2.859  0.00  0.00    -0.001 A 
ENDROOT
TORSDOF 0
ENDMDL
