MODEL 1
REMARK minimizedAffinity 5.66792059
REMARK minimizedRMSD -1
REMARK  0 active torsions:
REMARK  status: ('A' for Active; 'I' for Inactive)
ROOT
ATOM      1  C   UNL d   1      -0.026   0.614   0.201  0.00  0.00     0.077 C 
ATOM      2  C1  UNL d   1       0.326  -0.696   0.840  0.00  0.00    -0.074 A 
ATOM      3  C2  UNL d   1       1.213  -1.582   0.221  0.00  0.00    -0.005 A 
ATOM      4  C3  UNL d   1       1.539  -2.793   0.833  0.00  0.00     0.006 A 
ATOM      5  C4  UNL d   1       0.983  -3.128   2.068  0.00  0.00    -0.005 A 
ATOM      6  C5  UNL d   1       0.095  -2.254   2.702  0.00  0.00    -0.074 A 
ATOM      7  C6  UNL d   1      -0.504  -2.595   4.034  0.00  0.00     0.077 C 
ATOM      8  C7  UNL d   1      -0.222  -1.036   2.085  0.00  0.00    -0.001 A 
ENDROOT
TORSDOF 0
ENDMDL
