MODEL 1
REMARK minimizedAffinity 3.79116678
REMARK minimizedRMSD -1
REMARK  0 active torsions:
REMARK  status: ('A' for Active; 'I' for Inactive)
ROOT
ATOM      1  C   UNL d   1      -0.257  -5.636  -5.590  0.00  0.00     0.077 C 
ATOM      2  C1  UNL d   1      -1.662  -5.123  -5.701  0.00  0.00    -0.074 A 
ATOM      3  C2  UNL d   1      -2.733  -5.999  -5.907  0.00  0.00    -0.005 A 
ATOM      4  C3  UNL d   1      -4.035  -5.508  -5.999  0.00  0.00     0.006 A 
ATOM      5  C4  UNL d   1      -4.279  -4.139  -5.887  0.00  0.00    -0.005 A 
ATOM      6  C5  UNL d   1      -3.221  -3.248  -5.680  0.00  0.00    -0.074 A 
ATOM      7  C6  UNL d   1      -3.468  -1.774  -5.547  0.00  0.00     0.077 C 
ATOM      8  C7  UNL d   1      -1.916  -3.750  -5.581  0.00  0.00    -0.001 A 
ENDROOT
TORSDOF 0
ENDMDL
