MODEL 1
REMARK minimizedAffinity 3.17729402
REMARK minimizedRMSD -1
REMARK  0 active torsions:
REMARK  status: ('A' for Active; 'I' for Inactive)
ROOT
ATOM      1  C   UNL d   1      -0.710  -0.270   0.315  0.00  0.00     0.077 C 
ATOM      2  C1  UNL d   1      -0.063  -1.338   1.145  0.00  0.00    -0.074 A 
ATOM      3  C2  UNL d   1       0.867  -2.219   0.585  0.00  0.00    -0.005 A 
ATOM      4  C3  UNL d   1       1.468  -3.201   1.372  0.00  0.00     0.006 A 
ATOM      5  C4  UNL d   1       1.145  -3.312   2.725  0.00  0.00    -0.005 A 
ATOM      6  C5  UNL d   1       0.218  -2.439   3.303  0.00  0.00    -0.074 A 
ATOM      7  C6  UNL d   1      -0.133  -2.538   4.758  0.00  0.00     0.077 C 
ATOM      8  C7  UNL d   1      -0.376  -1.450   2.507  0.00  0.00    -0.001 A 
ENDROOT
TORSDOF 0
ENDMDL
