MODEL 1
REMARK minimizedAffinity -3.48357868
REMARK minimizedRMSD -1
REMARK  0 active torsions:
REMARK  status: ('A' for Active; 'I' for Inactive)
ROOT
ATOM      1  C   UNL d   1      -1.023  -4.285  -5.878  0.00  0.00     0.077 C 
ATOM      2  C1  UNL d   1      -2.496  -4.007  -5.914  0.00  0.00    -0.074 A 
ATOM      3  C2  UNL d   1      -2.979  -2.695  -5.942  0.00  0.00    -0.005 A 
ATOM      4  C3  UNL d   1      -4.352  -2.452  -5.984  0.00  0.00     0.006 A 
ATOM      5  C4  UNL d   1      -5.254  -3.516  -6.000  0.00  0.00    -0.005 A 
ATOM      6  C5  UNL d   1      -4.789  -4.835  -5.974  0.00  0.00    -0.074 A 
ATOM      7  C6  UNL d   1      -5.745  -5.991  -6.000  0.00  0.00     0.077 C 
ATOM      8  C7  UNL d   1      -3.408  -5.071  -5.938  0.00  0.00    -0.001 A 
ENDROOT
TORSDOF 0
ENDMDL
