MODEL 1
REMARK minimizedAffinity -5.18810701
REMARK minimizedRMSD -1
REMARK  3 active torsions:
REMARK  status: ('A' for Active; 'I' for Inactive)
REMARK    1  A    between atoms: C3'_2  and  C2'_3 
REMARK    2  A    between atoms: C2'_3  and  C1'_4 
REMARK    3  A    between atoms: C1'_4  and  C1_5 
ROOT
ATOM      1  C1  N4B d   1      -0.570  -1.494  -1.093  0.00  0.00    -0.075 A 
ATOM      2  C2  N4B d   1      -0.275  -1.203  -2.443  0.00  0.00     0.002 A 
ATOM      3  C3  N4B d   1      -0.443  -2.169  -3.405  0.00  0.00     0.002 A 
ATOM      4  C4  N4B d   1      -0.884  -3.432  -3.040  0.00  0.00    -0.004 A 
ATOM      5  C5  N4B d   1      -1.192  -3.696  -1.738  0.00  0.00     0.002 A 
ATOM      6  C6  N4B d   1      -1.032  -2.734  -0.761  0.00  0.00     0.002 A 
ENDROOT
BRANCH   1   7
ATOM      7  C1' N4B d   1      -0.322  -0.497   0.006  0.00  0.00     0.057 C 
BRANCH   7   8
ATOM      8  C2' N4B d   1      -0.654   0.903  -0.502  0.00  0.00     0.009 C 
BRANCH   8   9
ATOM      9  C3' N4B d   1       0.539   1.838  -0.411  0.00  0.00     0.004 C 
ATOM     10  C4' N4B d   1       0.144   3.259  -0.137  0.00  0.00     0.003 C 
ENDBRANCH   8   9
ENDBRANCH   7   8
ENDBRANCH   1   7
TORSDOF 3
ENDMDL
