MODEL 1
REMARK minimizedAffinity -2.87547445
REMARK minimizedRMSD -1
REMARK  3 active torsions:
REMARK  status: ('A' for Active; 'I' for Inactive)
REMARK    1  A    between atoms: C3'_2  and  C2'_3 
REMARK    2  A    between atoms: C2'_3  and  C1'_4 
REMARK    3  A    between atoms: C1'_4  and  C1_5 
ROOT
ATOM      1  C1  N4B d   1      -0.313   0.202   0.388  0.00  0.00    -0.075 A 
ATOM      2  C2  N4B d   1       0.102   1.551   0.456  0.00  0.00     0.002 A 
ATOM      3  C3  N4B d   1      -0.810   2.536   0.744  0.00  0.00     0.002 A 
ATOM      4  C4  N4B d   1      -2.140   2.201   0.947  0.00  0.00    -0.004 A 
ATOM      5  C5  N4B d   1      -2.528   0.894   0.905  0.00  0.00     0.002 A 
ATOM      6  C6  N4B d   1      -1.622  -0.107   0.621  0.00  0.00     0.002 A 
ENDROOT
BRANCH   1   7
ATOM      7  C1' N4B d   1       0.631  -0.900  -0.008  0.00  0.00     0.057 C 
BRANCH   7   8
ATOM      8  C2' N4B d   1       0.170  -1.503  -1.331  0.00  0.00     0.009 C 
BRANCH   8   9
ATOM      9  C3' N4B d   1      -0.855  -2.606  -1.127  0.00  0.00     0.004 C 
ATOM     10  C4' N4B d   1      -1.424  -3.117  -2.417  0.00  0.00     0.003 C 
ENDBRANCH   8   9
ENDBRANCH   7   8
ENDBRANCH   1   7
TORSDOF 3
ENDMDL
