MODEL 1
REMARK minimizedAffinity -2.6559906
REMARK minimizedRMSD -1
REMARK  3 active torsions:
REMARK  status: ('A' for Active; 'I' for Inactive)
REMARK    1  A    between atoms: C3'_2  and  C2'_3 
REMARK    2  A    between atoms: C2'_3  and  C1'_4 
REMARK    3  A    between atoms: C1'_4  and  C1_5 
ROOT
ATOM      1  C1  N4B d   1      -0.293   0.730   0.369  0.00  0.00    -0.075 A 
ATOM      2  C2  N4B d   1      -1.036   1.696   1.082  0.00  0.00     0.002 A 
ATOM      3  C3  N4B d   1      -0.825   3.033   0.849  0.00  0.00     0.002 A 
ATOM      4  C4  N4B d   1       0.134   3.426  -0.073  0.00  0.00    -0.004 A 
ATOM      5  C5  N4B d   1       0.829   2.486  -0.776  0.00  0.00     0.002 A 
ATOM      6  C6  N4B d   1       0.625   1.139  -0.555  0.00  0.00     0.002 A 
ENDROOT
BRANCH   1   7
ATOM      7  C1' N4B d   1      -0.427  -0.742   0.650  0.00  0.00     0.057 C 
BRANCH   7   8
ATOM      8  C2' N4B d   1      -0.782  -1.469  -0.644  0.00  0.00     0.009 C 
BRANCH   8   9
ATOM      9  C3' N4B d   1      -1.197  -2.908  -0.391  0.00  0.00     0.004 C 
ATOM     10  C4' N4B d   1      -1.566  -3.635  -1.650  0.00  0.00     0.003 C 
ENDBRANCH   8   9
ENDBRANCH   7   8
ENDBRANCH   1   7
TORSDOF 3
ENDMDL
