MODEL 1
REMARK minimizedAffinity -3.47312069
REMARK minimizedRMSD -1
REMARK  3 active torsions:
REMARK  status: ('A' for Active; 'I' for Inactive)
REMARK    1  A    between atoms: C3'_2  and  C2'_3 
REMARK    2  A    between atoms: C2'_3  and  C1'_4 
REMARK    3  A    between atoms: C1'_4  and  C1_5 
ROOT
ATOM      1  C1  N4B d   1      -0.007  -0.216   0.253  0.00  0.00    -0.075 A 
ATOM      2  C2  N4B d   1      -0.727   0.189  -0.892  0.00  0.00     0.002 A 
ATOM      3  C3  N4B d   1      -1.365   1.405  -0.907  0.00  0.00     0.002 A 
ATOM      4  C4  N4B d   1      -1.313   2.221   0.214  0.00  0.00    -0.004 A 
ATOM      5  C5  N4B d   1      -0.595   1.833   1.306  0.00  0.00     0.002 A 
ATOM      6  C6  N4B d   1       0.055   0.615   1.334  0.00  0.00     0.002 A 
ENDROOT
BRANCH   1   7
ATOM      7  C1' N4B d   1       0.635  -1.573   0.349  0.00  0.00     0.057 C 
BRANCH   7   8
ATOM      8  C2' N4B d   1      -0.352  -2.629  -0.141  0.00  0.00     0.009 C 
BRANCH   8   9
ATOM      9  C3' N4B d   1       0.057  -3.209  -1.484  0.00  0.00     0.004 C 
ATOM     10  C4' N4B d   1      -1.064  -3.213  -2.480  0.00  0.00     0.003 C 
ENDBRANCH   8   9
ENDBRANCH   7   8
ENDBRANCH   1   7
TORSDOF 3
ENDMDL
