MODEL 1
REMARK minimizedAffinity 0.185795441
REMARK minimizedRMSD -1
REMARK  3 active torsions:
REMARK  status: ('A' for Active; 'I' for Inactive)
REMARK    1  A    between atoms: C3'_2  and  C2'_3 
REMARK    2  A    between atoms: C2'_3  and  C1'_4 
REMARK    3  A    between atoms: C1'_4  and  C1_5 
ROOT
ATOM      1  C1  N4B d   1      -0.315   0.664   0.107  0.00  0.00    -0.075 A 
ATOM      2  C2  N4B d   1      -1.024   0.613   1.327  0.00  0.00     0.002 A 
ATOM      3  C3  N4B d   1      -1.233   1.762   2.048  0.00  0.00     0.002 A 
ATOM      4  C4  N4B d   1      -0.729   2.967   1.581  0.00  0.00    -0.004 A 
ATOM      5  C5  N4B d   1      -0.066   3.012   0.389  0.00  0.00     0.002 A 
ATOM      6  C6  N4B d   1       0.148   1.864  -0.349  0.00  0.00     0.002 A 
ENDROOT
BRANCH   1   7
ATOM      7  C1' N4B d   1       0.013  -0.580  -0.674  0.00  0.00     0.057 C 
BRANCH   7   8
ATOM      8  C2' N4B d   1      -0.776  -1.753  -0.101  0.00  0.00     0.009 C 
BRANCH   8   9
ATOM      9  C3' N4B d   1      -0.780  -2.947  -1.041  0.00  0.00     0.004 C 
ATOM     10  C4' N4B d   1      -2.164  -3.379  -1.424  0.00  0.00     0.003 C 
ENDBRANCH   8   9
ENDBRANCH   7   8
ENDBRANCH   1   7
TORSDOF 3
ENDMDL
