MODEL 1
REMARK minimizedAffinity -0.167913646
REMARK minimizedRMSD -1
REMARK  3 active torsions:
REMARK  status: ('A' for Active; 'I' for Inactive)
REMARK    1  A    between atoms: C3'_2  and  C2'_3 
REMARK    2  A    between atoms: C2'_3  and  C1'_4 
REMARK    3  A    between atoms: C1'_4  and  C1_5 
ROOT
ATOM      1  C1  N4B d   1       0.333  -0.885   0.357  0.00  0.00    -0.075 A 
ATOM      2  C2  N4B d   1       1.543  -0.157   0.347  0.00  0.00     0.002 A 
ATOM      3  C3  N4B d   1       1.519   1.216   0.325  0.00  0.00     0.002 A 
ATOM      4  C4  N4B d   1       0.302   1.880   0.293  0.00  0.00    -0.004 A 
ATOM      5  C5  N4B d   1      -0.863   1.170   0.329  0.00  0.00     0.002 A 
ATOM      6  C6  N4B d   1      -0.854  -0.210   0.355  0.00  0.00     0.002 A 
ENDROOT
BRANCH   1   7
ATOM      7  C1' N4B d   1       0.309  -2.387   0.295  0.00  0.00     0.057 C 
BRANCH   7   8
ATOM      8  C2' N4B d   1       0.199  -2.826  -1.162  0.00  0.00     0.009 C 
BRANCH   8   9
ATOM      9  C3' N4B d   1      -0.803  -3.954  -1.341  0.00  0.00     0.004 C 
ATOM     10  C4' N4B d   1      -2.081  -3.500  -1.981  0.00  0.00     0.003 C 
ENDBRANCH   8   9
ENDBRANCH   7   8
ENDBRANCH   1   7
TORSDOF 3
ENDMDL
