MODEL 1
REMARK minimizedAffinity 4.72858429
REMARK minimizedRMSD -1
REMARK  3 active torsions:
REMARK  status: ('A' for Active; 'I' for Inactive)
REMARK    1  A    between atoms: C3'_2  and  C2'_3 
REMARK    2  A    between atoms: C2'_3  and  C1'_4 
REMARK    3  A    between atoms: C1'_4  and  C1_5 
ROOT
ATOM      1  C1  N4B d   1       0.517  -2.284  -0.890  0.00  0.00    -0.075 A 
ATOM      2  C2  N4B d   1       1.426  -2.312  -1.971  0.00  0.00     0.002 A 
ATOM      3  C3  N4B d   1       1.183  -3.124  -3.051  0.00  0.00     0.002 A 
ATOM      4  C4  N4B d   1       0.053  -3.928  -3.065  0.00  0.00    -0.004 A 
ATOM      5  C5  N4B d   1      -0.833  -3.876  -2.029  0.00  0.00     0.002 A 
ATOM      6  C6  N4B d   1      -0.604  -3.061  -0.939  0.00  0.00     0.002 A 
ENDROOT
BRANCH   1   7
ATOM      7  C1' N4B d   1       0.783  -1.477   0.351  0.00  0.00     0.057 C 
BRANCH   7   8
ATOM      8  C2' N4B d   1       2.239  -1.020   0.348  0.00  0.00     0.009 C 
BRANCH   8   9
ATOM      9  C3' N4B d   1       2.360   0.493   0.396  0.00  0.00     0.004 C 
ATOM     10  C4' N4B d   1       3.709   0.982  -0.038  0.00  0.00     0.003 C 
ENDBRANCH   8   9
ENDBRANCH   7   8
ENDBRANCH   1   7
TORSDOF 3
ENDMDL
