MODEL 1
REMARK minimizedAffinity 4.65175676
REMARK minimizedRMSD -1
REMARK  3 active torsions:
REMARK  status: ('A' for Active; 'I' for Inactive)
REMARK    1  A    between atoms: C3'_2  and  C2'_3 
REMARK    2  A    between atoms: C2'_3  and  C1'_4 
REMARK    3  A    between atoms: C1'_4  and  C1_5 
ROOT
ATOM      1  C1  N4B d   1       1.465   2.194  -0.044  0.00  0.00    -0.075 A 
ATOM      2  C2  N4B d   1       1.141   3.290  -0.873  0.00  0.00     0.002 A 
ATOM      3  C3  N4B d   1       0.029   4.049  -0.604  0.00  0.00     0.002 A 
ATOM      4  C4  N4B d   1      -0.781   3.722   0.473  0.00  0.00    -0.004 A 
ATOM      5  C5  N4B d   1      -0.447   2.678   1.284  0.00  0.00     0.002 A 
ATOM      6  C6  N4B d   1       0.670   1.908   1.028  0.00  0.00     0.002 A 
ENDROOT
BRANCH   1   7
ATOM      7  C1' N4B d   1       2.622   1.282  -0.348  0.00  0.00     0.057 C 
BRANCH   7   8
ATOM      8  C2' N4B d   1       2.497   0.016   0.495  0.00  0.00     0.009 C 
BRANCH   8   9
ATOM      9  C3' N4B d   1       1.792  -1.099  -0.257  0.00  0.00     0.004 C 
ATOM     10  C4' N4B d   1       0.646  -1.685   0.514  0.00  0.00     0.003 C 
ENDBRANCH   8   9
ENDBRANCH   7   8
ENDBRANCH   1   7
TORSDOF 3
ENDMDL
