MODEL 1
REMARK minimizedAffinity 4.35175419
REMARK minimizedRMSD -1
REMARK  0 active torsions:
REMARK  status: ('A' for Active; 'I' for Inactive)
ROOT
ATOM      1  C4' PXY d   1      -4.862   0.796   0.518  0.00  0.00     0.077 C 
ATOM      2  C1' PXY d   1      -4.920   4.829  -3.623  0.00  0.00     0.077 C 
ATOM      3  C1  PXY d   1      -4.892   3.770  -2.539  0.00  0.00    -0.082 A 
ATOM      4  C2  PXY d   1      -6.000   3.112  -2.239  0.00  0.00     0.003 A 
ATOM      5  C3  PXY d   1      -6.000   2.173  -1.240  0.00  0.00     0.003 A 
ATOM      6  C4  PXY d   1      -4.842   1.868  -0.576  0.00  0.00    -0.082 A 
ATOM      7  C5  PXY d   1      -3.705   2.527  -0.883  0.00  0.00     0.003 A 
ATOM      8  C6  PXY d   1      -3.735   3.506  -1.873  0.00  0.00     0.003 A 
ENDROOT
TORSDOF 0
ENDMDL
