MODEL 1
REMARK minimizedAffinity 3.98398876
REMARK minimizedRMSD -1
REMARK  0 active torsions:
REMARK  status: ('A' for Active; 'I' for Inactive)
ROOT
ATOM      1  C4' PXY d   1       3.687  -1.192   3.068  0.00  0.00     0.077 C 
ATOM      2  C1' PXY d   1      -0.844  -0.034  -0.329  0.00  0.00     0.077 C 
ATOM      3  C1  PXY d   1       0.339  -0.331   0.572  0.00  0.00    -0.082 A 
ATOM      4  C2  PXY d   1       1.506  -0.647   0.035  0.00  0.00     0.003 A 
ATOM      5  C3  PXY d   1       2.578  -0.949   0.835  0.00  0.00     0.003 A 
ATOM      6  C4  PXY d   1       2.468  -0.875   2.198  0.00  0.00    -0.082 A 
ATOM      7  C5  PXY d   1       1.283  -0.543   2.753  0.00  0.00     0.003 A 
ATOM      8  C6  PXY d   1       0.196  -0.280   1.924  0.00  0.00     0.003 A 
ENDROOT
TORSDOF 0
ENDMDL
