MODEL 1
REMARK minimizedAffinity 4.45152426
REMARK minimizedRMSD -1
REMARK  0 active torsions:
REMARK  status: ('A' for Active; 'I' for Inactive)
ROOT
ATOM      1  C4' PXY d   1      -0.041  -0.771   2.289  0.00  0.00     0.077 C 
ATOM      2  C1' PXY d   1       1.357   4.821   1.848  0.00  0.00     0.077 C 
ATOM      3  C1  PXY d   1       0.981   3.356   1.954  0.00  0.00    -0.082 A 
ATOM      4  C2  PXY d   1       1.242   2.693   3.069  0.00  0.00     0.003 A 
ATOM      5  C3  PXY d   1       0.938   1.360   3.171  0.00  0.00     0.003 A 
ATOM      6  C4  PXY d   1       0.312   0.712   2.140  0.00  0.00    -0.082 A 
ATOM      7  C5  PXY d   1       0.033   1.384   1.003  0.00  0.00     0.003 A 
ATOM      8  C6  PXY d   1       0.387   2.726   0.905  0.00  0.00     0.003 A 
ENDROOT
TORSDOF 0
ENDMDL
