MODEL 1
REMARK minimizedAffinity 10.5085411
REMARK minimizedRMSD -1
REMARK  0 active torsions:
REMARK  status: ('A' for Active; 'I' for Inactive)
ROOT
ATOM      1  C4' PXY d   1       2.633  -5.820   0.244  0.00  0.00     0.077 C 
ATOM      2  C1' PXY d   1      -1.988  -3.330  -2.177  0.00  0.00     0.077 C 
ATOM      3  C1  PXY d   1      -0.772  -3.972  -1.537  0.00  0.00    -0.082 A 
ATOM      4  C2  PXY d   1      -0.248  -5.061  -2.075  0.00  0.00     0.003 A 
ATOM      5  C3  PXY d   1       0.832  -5.672  -1.490  0.00  0.00     0.003 A 
ATOM      6  C4  PXY d   1       1.412  -5.133  -0.374  0.00  0.00    -0.082 A 
ATOM      7  C5  PXY d   1       0.890  -4.016   0.175  0.00  0.00     0.003 A 
ATOM      8  C6  PXY d   1      -0.231  -3.434  -0.410  0.00  0.00     0.003 A 
ENDROOT
TORSDOF 0
ENDMDL
