MODEL 1
REMARK minimizedAffinity -2.78526115
REMARK minimizedRMSD -1
REMARK  0 active torsions:
REMARK  status: ('A' for Active; 'I' for Inactive)
ROOT
ATOM      1  C4' PXY d   1      -0.208  -4.439  -0.373  0.00  0.00     0.077 C 
ATOM      2  C1' PXY d   1      -0.144   1.307  -0.997  0.00  0.00     0.077 C 
ATOM      3  C1  PXY d   1      -0.174  -0.200  -0.836  0.00  0.00    -0.082 A 
ATOM      4  C2  PXY d   1       0.722  -0.793  -0.063  0.00  0.00     0.003 A 
ATOM      5  C3  PXY d   1       0.730  -2.158   0.068  0.00  0.00     0.003 A 
ATOM      6  C4  PXY d   1      -0.222  -2.919  -0.557  0.00  0.00    -0.082 A 
ATOM      7  C5  PXY d   1      -1.145  -2.321  -1.338  0.00  0.00     0.003 A 
ATOM      8  C6  PXY d   1      -1.111  -0.938  -1.491  0.00  0.00     0.003 A 
ENDROOT
TORSDOF 0
ENDMDL
