MODEL 1
REMARK minimizedAffinity 3.19651294
REMARK minimizedRMSD -1
REMARK  0 active torsions:
REMARK  status: ('A' for Active; 'I' for Inactive)
ROOT
ATOM      1  C4' PXY d   1       0.148   3.834  -0.622  0.00  0.00     0.077 C 
ATOM      2  C1' PXY d   1       0.568  -0.133   3.561  0.00  0.00     0.077 C 
ATOM      3  C1  PXY d   1       0.461   0.898   2.455  0.00  0.00    -0.082 A 
ATOM      4  C2  PXY d   1       0.638   2.179   2.736  0.00  0.00     0.003 A 
ATOM      5  C3  PXY d   1       0.513   3.128   1.754  0.00  0.00     0.003 A 
ATOM      6  C4  PXY d   1       0.256   2.757   0.461  0.00  0.00    -0.082 A 
ATOM      7  C5  PXY d   1       0.085   1.451   0.164  0.00  0.00     0.003 A 
ATOM      8  C6  PXY d   1       0.176   0.507   1.183  0.00  0.00     0.003 A 
ENDROOT
TORSDOF 0
ENDMDL
