MODEL 1
REMARK minimizedAffinity 7.97876024
REMARK minimizedRMSD -1
REMARK  0 active torsions:
REMARK  status: ('A' for Active; 'I' for Inactive)
ROOT
ATOM      1  C4' PXY d   1       0.364   4.677   0.625  0.00  0.00     0.077 C 
ATOM      2  C1' PXY d   1       0.197  -0.711   2.712  0.00  0.00     0.077 C 
ATOM      3  C1  PXY d   1       0.243   0.697   2.153  0.00  0.00    -0.082 A 
ATOM      4  C2  PXY d   1       0.595   1.702   2.938  0.00  0.00     0.003 A 
ATOM      5  C3  PXY d   1       0.611   2.986   2.457  0.00  0.00     0.003 A 
ATOM      6  C4  PXY d   1       0.313   3.237   1.145  0.00  0.00    -0.082 A 
ATOM      7  C5  PXY d   1      -0.037   2.216   0.334  0.00  0.00     0.003 A 
ATOM      8  C6  PXY d   1      -0.086   0.926   0.852  0.00  0.00     0.003 A 
ENDROOT
TORSDOF 0
ENDMDL
