MODEL 1
REMARK minimizedAffinity 3.88473749
REMARK minimizedRMSD -1
REMARK  0 active torsions:
REMARK  status: ('A' for Active; 'I' for Inactive)
ROOT
ATOM      1  C4' PXY d   1      -5.998  -4.070   5.990  0.00  0.00     0.077 C 
ATOM      2  C1' PXY d   1      -5.978  -0.729   1.273  0.00  0.00     0.077 C 
ATOM      3  C1  PXY d   1      -5.988  -1.615   2.503  0.00  0.00    -0.082 A 
ATOM      4  C2  PXY d   1      -6.000  -1.064   3.706  0.00  0.00     0.003 A 
ATOM      5  C3  PXY d   1      -5.977  -1.850   4.829  0.00  0.00     0.003 A 
ATOM      6  C4  PXY d   1      -5.996  -3.214   4.721  0.00  0.00    -0.082 A 
ATOM      7  C5  PXY d   1      -5.996  -3.784   3.497  0.00  0.00     0.003 A 
ATOM      8  C6  PXY d   1      -5.977  -2.969   2.369  0.00  0.00     0.003 A 
ENDROOT
TORSDOF 0
ENDMDL
