MODEL 1
REMARK minimizedAffinity 6.65399456
REMARK minimizedRMSD -1
REMARK  0 active torsions:
REMARK  status: ('A' for Active; 'I' for Inactive)
ROOT
ATOM      1  C4' PXY d   1       1.912  -0.851   3.069  0.00  0.00     0.077 C 
ATOM      2  C1' PXY d   1      -0.770   0.537  -1.860  0.00  0.00     0.077 C 
ATOM      3  C1  PXY d   1      -0.065   0.186  -0.565  0.00  0.00    -0.082 A 
ATOM      4  C2  PXY d   1       0.518  -0.995  -0.437  0.00  0.00     0.003 A 
ATOM      5  C3  PXY d   1       1.132  -1.341   0.739  0.00  0.00     0.003 A 
ATOM      6  C4  PXY d   1       1.196  -0.449   1.776  0.00  0.00    -0.082 A 
ATOM      7  C5  PXY d   1       0.613   0.761   1.649  0.00  0.00     0.003 A 
ATOM      8  C6  PXY d   1      -0.041   1.078   0.462  0.00  0.00     0.003 A 
ENDROOT
TORSDOF 0
ENDMDL
