MODEL 1
REMARK minimizedAffinity 4.23493433
REMARK minimizedRMSD -1
REMARK  0 active torsions:
REMARK  status: ('A' for Active; 'I' for Inactive)
ROOT
ATOM      1  C4' PXY d   1       2.382  -5.133   0.349  0.00  0.00     0.077 C 
ATOM      2  C1' PXY d   1      -2.333  -2.680  -1.923  0.00  0.00     0.077 C 
ATOM      3  C1  PXY d   1      -1.090  -3.312  -1.329  0.00  0.00    -0.082 A 
ATOM      4  C2  PXY d   1      -0.923  -4.622  -1.403  0.00  0.00     0.003 A 
ATOM      5  C3  PXY d   1       0.179  -5.214  -0.842  0.00  0.00     0.003 A 
ATOM      6  C4  PXY d   1       1.147  -4.451  -0.246  0.00  0.00    -0.082 A 
ATOM      7  C5  PXY d   1       0.989  -3.112  -0.175  0.00  0.00     0.003 A 
ATOM      8  C6  PXY d   1      -0.157  -2.535  -0.714  0.00  0.00     0.003 A 
ENDROOT
TORSDOF 0
ENDMDL
