MODEL 1
REMARK minimizedAffinity -2.65488338
REMARK minimizedRMSD -1
REMARK  0 active torsions:
REMARK  status: ('A' for Active; 'I' for Inactive)
ROOT
ATOM      1  C4' PXY d   1       0.345  -0.675   2.273  0.00  0.00     0.077 C 
ATOM      2  C1' PXY d   1       0.317   4.310  -0.652  0.00  0.00     0.077 C 
ATOM      3  C1  PXY d   1       0.330   3.009   0.125  0.00  0.00    -0.082 A 
ATOM      4  C2  PXY d   1       0.245   1.859  -0.524  0.00  0.00     0.003 A 
ATOM      5  C3  PXY d   1       0.223   0.674   0.165  0.00  0.00     0.003 A 
ATOM      6  C4  PXY d   1       0.344   0.663   1.529  0.00  0.00    -0.082 A 
ATOM      7  C5  PXY d   1       0.443   1.832   2.197  0.00  0.00     0.003 A 
ATOM      8  C6  PXY d   1       0.421   3.026   1.482  0.00  0.00     0.003 A 
ENDROOT
TORSDOF 0
ENDMDL
