MODEL 1
REMARK minimizedAffinity 19.9914322
REMARK minimizedRMSD -1
REMARK  0 active torsions:
REMARK  status: ('A' for Active; 'I' for Inactive)
ROOT
ATOM      1  C   UNL d   1       1.188  -2.543   2.016  0.00  0.00     0.124 A 
ATOM      2  C1  UNL d   1       1.285  -1.558   2.988  0.00  0.00     0.062 A 
ATOM      3  C2  UNL d   1       2.344  -1.567   3.891  0.00  0.00     0.162 A 
ATOM      4  C3  UNL d   1       3.317  -2.565   3.825  0.00  0.00    -0.034 A 
ATOM      5  C4  UNL d   1       3.212  -3.553   2.845  0.00  0.00     0.162 A 
ATOM      6  C5  UNL d   1       2.152  -3.540   1.945  0.00  0.00     0.062 A 
ATOM      7  F   UNL d   1       2.060  -4.493   1.006  0.00  0.00    -0.097 F 
ATOM      8  F1  UNL d   1       4.130  -4.527   2.753  0.00  0.00    -0.096 F 
ATOM      9  I   UNL d   1       4.902  -2.582   5.173  0.00  0.00    -0.060 I 
ATOM     10  F2  UNL d   1       2.412  -0.602   4.821  0.00  0.00    -0.096 F 
ATOM     11  F3  UNL d   1       0.355  -0.595   3.060  0.00  0.00    -0.097 F 
ATOM     12  F4  UNL d   1       0.167  -2.533   1.149  0.00  0.00    -0.092 F 
ENDROOT
TORSDOF 0
ENDMDL
