MODEL 1
REMARK minimizedAffinity 10.8472824
REMARK minimizedRMSD -1
REMARK  0 active torsions:
REMARK  status: ('A' for Active; 'I' for Inactive)
ROOT
ATOM      1  C   UNL d   1      -0.111  -2.437   2.570  0.00  0.00     0.124 A 
ATOM      2  C1  UNL d   1      -0.332  -3.807   2.579  0.00  0.00     0.062 A 
ATOM      3  C2  UNL d   1       0.656  -4.680   2.133  0.00  0.00     0.162 A 
ATOM      4  C3  UNL d   1       1.876  -4.185   1.673  0.00  0.00    -0.034 A 
ATOM      5  C4  UNL d   1       2.092  -2.805   1.665  0.00  0.00     0.162 A 
ATOM      6  C5  UNL d   1       1.101  -1.938   2.113  0.00  0.00     0.062 A 
ATOM      7  F   UNL d   1       1.317  -0.614   2.103  0.00  0.00    -0.097 F 
ATOM      8  F1  UNL d   1       3.253  -2.296   1.230  0.00  0.00    -0.096 F 
ATOM      9  I   UNL d   1       3.356  -5.486   1.004  0.00  0.00    -0.060 I 
ATOM     10  F2  UNL d   1       0.414  -5.999   2.153  0.00  0.00    -0.096 F 
ATOM     11  F3  UNL d   1      -1.502  -4.293   3.019  0.00  0.00    -0.097 F 
ATOM     12  F4  UNL d   1      -1.064  -1.600   2.999  0.00  0.00    -0.092 F 
ENDROOT
TORSDOF 0
ENDMDL
