MODEL 1
REMARK minimizedAffinity 11.6751165
REMARK minimizedRMSD -1
REMARK  0 active torsions:
REMARK  status: ('A' for Active; 'I' for Inactive)
ROOT
ATOM      1  C   UNL d   1      -2.638  -0.635   1.598  0.00  0.00     0.124 A 
ATOM      2  C1  UNL d   1      -2.277  -0.821   0.271  0.00  0.00     0.062 A 
ATOM      3  C2  UNL d   1      -0.969  -1.167  -0.057  0.00  0.00     0.162 A 
ATOM      4  C3  UNL d   1      -0.012  -1.329   0.944  0.00  0.00    -0.034 A 
ATOM      5  C4  UNL d   1      -0.382  -1.139   2.277  0.00  0.00     0.162 A 
ATOM      6  C5  UNL d   1      -1.690  -0.794   2.600  0.00  0.00     0.062 A 
ATOM      7  F   UNL d   1      -2.036  -0.614   3.883  0.00  0.00    -0.097 F 
ATOM      8  F1  UNL d   1       0.514  -1.287   3.264  0.00  0.00    -0.096 F 
ATOM      9  I   UNL d   1       1.945  -1.846   0.457  0.00  0.00    -0.060 I 
ATOM     10  F2  UNL d   1      -0.649  -1.340  -1.348  0.00  0.00    -0.096 F 
ATOM     11  F3  UNL d   1      -3.191  -0.667  -0.698  0.00  0.00    -0.097 F 
ATOM     12  F4  UNL d   1      -3.896  -0.302   1.911  0.00  0.00    -0.092 F 
ENDROOT
TORSDOF 0
ENDMDL
