MODEL 1
REMARK minimizedAffinity 24.0891075
REMARK minimizedRMSD -1
REMARK  0 active torsions:
REMARK  status: ('A' for Active; 'I' for Inactive)
ROOT
ATOM      1  C   UNL d   1      -3.401   3.969  -4.112  0.00  0.00     0.124 A 
ATOM      2  C1  UNL d   1      -2.710   3.002  -3.395  0.00  0.00     0.062 A 
ATOM      3  C2  UNL d   1      -3.125   1.673  -3.432  0.00  0.00     0.162 A 
ATOM      4  C3  UNL d   1      -4.236   1.304  -4.189  0.00  0.00    -0.034 A 
ATOM      5  C4  UNL d   1      -4.927   2.282  -4.907  0.00  0.00     0.162 A 
ATOM      6  C5  UNL d   1      -4.508   3.608  -4.867  0.00  0.00     0.062 A 
ATOM      7  F   UNL d   1      -5.177   4.541  -5.560  0.00  0.00    -0.097 F 
ATOM      8  F1  UNL d   1      -5.999   1.961  -5.645  0.00  0.00    -0.096 F 
ATOM      9  I   UNL d   1      -4.859  -0.681  -4.247  0.00  0.00    -0.060 I 
ATOM     10  F2  UNL d   1      -2.438   0.760  -2.729  0.00  0.00    -0.096 F 
ATOM     11  F3  UNL d   1      -1.641   3.348  -2.664  0.00  0.00    -0.097 F 
ATOM     12  F4  UNL d   1      -3.001   5.246  -4.073  0.00  0.00    -0.092 F 
ENDROOT
TORSDOF 0
ENDMDL
