MODEL 1
REMARK minimizedAffinity 25.9450455
REMARK minimizedRMSD -1
REMARK  0 active torsions:
REMARK  status: ('A' for Active; 'I' for Inactive)
ROOT
ATOM      1  C   UNL d   1       0.353  -2.454   2.147  0.00  0.00     0.124 A 
ATOM      2  C1  UNL d   1       0.201  -3.832   2.218  0.00  0.00     0.062 A 
ATOM      3  C2  UNL d   1       1.214  -4.672   1.763  0.00  0.00     0.162 A 
ATOM      4  C3  UNL d   1       2.388  -4.136   1.234  0.00  0.00    -0.034 A 
ATOM      5  C4  UNL d   1       2.532  -2.750   1.165  0.00  0.00     0.162 A 
ATOM      6  C5  UNL d   1       1.518  -1.914   1.621  0.00  0.00     0.062 A 
ATOM      7  F   UNL d   1       1.666  -0.584   1.551  0.00  0.00    -0.097 F 
ATOM      8  F1  UNL d   1       3.648  -2.201   0.662  0.00  0.00    -0.096 F 
ATOM      9  I   UNL d   1       3.904  -5.389   0.552  0.00  0.00    -0.060 I 
ATOM     10  F2  UNL d   1       1.040  -6.000   1.844  0.00  0.00    -0.096 F 
ATOM     11  F3  UNL d   1      -0.924  -4.356   2.726  0.00  0.00    -0.097 F 
ATOM     12  F4  UNL d   1      -0.623  -1.649   2.585  0.00  0.00    -0.092 F 
ENDROOT
TORSDOF 0
ENDMDL
