MODEL 1
REMARK minimizedAffinity 14.1497126
REMARK minimizedRMSD -1
REMARK  0 active torsions:
REMARK  status: ('A' for Active; 'I' for Inactive)
ROOT
ATOM      1  C   UNL d   1      -1.429   1.119  -2.767  0.00  0.00     0.124 A 
ATOM      2  C1  UNL d   1      -1.402   1.680  -4.037  0.00  0.00     0.062 A 
ATOM      3  C2  UNL d   1      -2.585   1.867  -4.745  0.00  0.00     0.162 A 
ATOM      4  C3  UNL d   1      -3.807   1.493  -4.185  0.00  0.00    -0.034 A 
ATOM      5  C4  UNL d   1      -3.826   0.929  -2.908  0.00  0.00     0.162 A 
ATOM      6  C5  UNL d   1      -2.641   0.744  -2.204  0.00  0.00     0.062 A 
ATOM      7  F   UNL d   1      -2.669   0.201  -0.978  0.00  0.00    -0.097 F 
ATOM      8  F1  UNL d   1      -4.983   0.558  -2.340  0.00  0.00    -0.096 F 
ATOM      9  I   UNL d   1      -5.579   1.771  -5.240  0.00  0.00    -0.060 I 
ATOM     10  F2  UNL d   1      -2.529   2.411  -5.969  0.00  0.00    -0.096 F 
ATOM     11  F3  UNL d   1      -0.232   2.042  -4.583  0.00  0.00    -0.097 F 
ATOM     12  F4  UNL d   1      -0.289   0.939  -2.089  0.00  0.00    -0.092 F 
ENDROOT
TORSDOF 0
ENDMDL
