MODEL 1
REMARK minimizedAffinity 9.63849831
REMARK minimizedRMSD -1
REMARK  0 active torsions:
REMARK  status: ('A' for Active; 'I' for Inactive)
ROOT
ATOM      1  C   UNL d   1       0.311  -0.091  -0.812  0.00  0.00     0.124 A 
ATOM      2  C1  UNL d   1       0.552   1.261  -1.015  0.00  0.00     0.062 A 
ATOM      3  C2  UNL d   1       1.717   1.846  -0.525  0.00  0.00     0.162 A 
ATOM      4  C3  UNL d   1       2.651   1.078   0.171  0.00  0.00    -0.034 A 
ATOM      5  C4  UNL d   1       2.401  -0.281   0.371  0.00  0.00     0.162 A 
ATOM      6  C5  UNL d   1       1.235  -0.860  -0.120  0.00  0.00     0.062 A 
ATOM      7  F   UNL d   1       1.004  -2.166   0.076  0.00  0.00    -0.097 F 
ATOM      8  F1  UNL d   1       3.277  -1.048   1.036  0.00  0.00    -0.096 F 
ATOM      9  I   UNL d   1       4.393   1.948   0.904  0.00  0.00    -0.060 I 
ATOM     10  F2  UNL d   1       1.924   3.154  -0.735  0.00  0.00    -0.096 F 
ATOM     11  F3  UNL d   1      -0.340   2.007  -1.682  0.00  0.00    -0.097 F 
ATOM     12  F4  UNL d   1      -0.811  -0.650  -1.284  0.00  0.00    -0.092 F 
ENDROOT
TORSDOF 0
ENDMDL
