MODEL 1
REMARK minimizedAffinity 6.60489607
REMARK minimizedRMSD -1
REMARK  0 active torsions:
REMARK  status: ('A' for Active; 'I' for Inactive)
ROOT
ATOM      1  C   UNL d   1       5.949   3.246   0.463  0.00  0.00     0.124 A 
ATOM      2  C1  UNL d   1       5.916   1.886   0.736  0.00  0.00     0.062 A 
ATOM      3  C2  UNL d   1       5.899   0.963  -0.306  0.00  0.00     0.162 A 
ATOM      4  C3  UNL d   1       5.916   1.398  -1.632  0.00  0.00    -0.034 A 
ATOM      5  C4  UNL d   1       5.948   2.768  -1.898  0.00  0.00     0.162 A 
ATOM      6  C5  UNL d   1       5.965   3.686  -0.853  0.00  0.00     0.062 A 
ATOM      7  F   UNL d   1       5.996   5.000  -1.119  0.00  0.00    -0.097 F 
ATOM      8  F1  UNL d   1       5.964   3.220  -3.161  0.00  0.00    -0.096 F 
ATOM      9  I   UNL d   1       5.891   0.021  -3.192  0.00  0.00    -0.060 I 
ATOM     10  F2  UNL d   1       5.868  -0.346  -0.013  0.00  0.00    -0.096 F 
ATOM     11  F3  UNL d   1       5.900   1.458   2.007  0.00  0.00    -0.097 F 
ATOM     12  F4  UNL d   1       5.964   4.132   1.467  0.00  0.00    -0.092 F 
ENDROOT
TORSDOF 0
ENDMDL
