MODEL 1
REMARK minimizedAffinity 13.4072218
REMARK minimizedRMSD -1
REMARK  0 active torsions:
REMARK  status: ('A' for Active; 'I' for Inactive)
ROOT
ATOM      1  C   UNL d   1       1.646  -3.764   1.226  0.00  0.00     0.124 A 
ATOM      2  C1  UNL d   1       0.535  -4.207   1.929  0.00  0.00     0.062 A 
ATOM      3  C2  UNL d   1      -0.289  -3.295   2.583  0.00  0.00     0.162 A 
ATOM      4  C3  UNL d   1      -0.006  -1.930   2.536  0.00  0.00    -0.034 A 
ATOM      5  C4  UNL d   1       1.115  -1.492   1.827  0.00  0.00     0.162 A 
ATOM      6  C5  UNL d   1       1.935  -2.407   1.176  0.00  0.00     0.062 A 
ATOM      7  F   UNL d   1       3.009  -1.977   0.497  0.00  0.00    -0.097 F 
ATOM      8  F1  UNL d   1       1.417  -0.187   1.761  0.00  0.00    -0.096 F 
ATOM      9  I   UNL d   1      -1.235  -0.564   3.512  0.00  0.00    -0.060 I 
ATOM     10  F2  UNL d   1      -1.357  -3.752   3.255  0.00  0.00    -0.096 F 
ATOM     11  F3  UNL d   1       0.254  -5.517   1.980  0.00  0.00    -0.097 F 
ATOM     12  F4  UNL d   1       2.438  -4.643   0.599  0.00  0.00    -0.092 F 
ENDROOT
TORSDOF 0
ENDMDL
