MODEL 1
REMARK minimizedAffinity 7.20705509
REMARK minimizedRMSD -1
REMARK  0 active torsions:
REMARK  status: ('A' for Active; 'I' for Inactive)
ROOT
ATOM      1  C   UNL d   1       2.049  -3.016   2.663  0.00  0.00     0.124 A 
ATOM      2  C1  UNL d   1       2.644  -4.156   2.141  0.00  0.00     0.062 A 
ATOM      3  C2  UNL d   1       3.527  -4.901   2.917  0.00  0.00     0.162 A 
ATOM      4  C3  UNL d   1       3.819  -4.510   4.224  0.00  0.00    -0.034 A 
ATOM      5  C4  UNL d   1       3.216  -3.362   4.741  0.00  0.00     0.162 A 
ATOM      6  C5  UNL d   1       2.335  -2.620   3.961  0.00  0.00     0.062 A 
ATOM      7  F   UNL d   1       1.760  -1.519   4.467  0.00  0.00    -0.097 F 
ATOM      8  F1  UNL d   1       3.475  -2.957   5.993  0.00  0.00    -0.096 F 
ATOM      9  I   UNL d   1       5.138  -5.622   5.387  0.00  0.00    -0.060 I 
ATOM     10  F2  UNL d   1       4.088  -5.999   2.388  0.00  0.00    -0.096 F 
ATOM     11  F3  UNL d   1       2.370  -4.540   0.886  0.00  0.00    -0.097 F 
ATOM     12  F4  UNL d   1       1.200  -2.300   1.913  0.00  0.00    -0.092 F 
ENDROOT
TORSDOF 0
ENDMDL
