MODEL 1
REMARK minimizedAffinity -4.87854528
REMARK minimizedRMSD -1
REMARK  1 active torsions:
REMARK  status: ('A' for Active; 'I' for Inactive)
REMARK    1  A    between atoms: C1_2  and  C2_3 
ROOT
ATOM      1  C2  UNL d   1      -0.099   0.457   0.093  0.00  0.00    -0.077 A 
ATOM      2  C3  UNL d   1      -1.411   0.685   0.530  0.00  0.00     0.002 A 
ATOM      3  C4  UNL d   1      -1.723   0.630   1.890  0.00  0.00     0.002 A 
ATOM      4  C5  UNL d   1      -0.727   0.351   2.824  0.00  0.00    -0.004 A 
ATOM      5  C6  UNL d   1       0.581   0.121   2.399  0.00  0.00     0.002 A 
ATOM      6  C7  UNL d   1       0.894   0.174   1.040  0.00  0.00     0.002 A 
ENDROOT
BRANCH   1   7
ATOM      7  C1  UNL d   1       0.249   0.564  -1.368  0.00  0.00     0.055 C 
ATOM      8  C   UNL d   1       0.514  -0.805  -1.977  0.00  0.00     0.019 C 
ENDBRANCH   1   7
TORSDOF 1
ENDMDL
