MODEL 1
REMARK minimizedAffinity -5.35215998
REMARK minimizedRMSD -1
REMARK  1 active torsions:
REMARK  status: ('A' for Active; 'I' for Inactive)
REMARK    1  A    between atoms: C1_2  and  C2_3 
ROOT
ATOM      1  C2  UNL d   1       2.608  -0.747  -2.827  0.00  0.00    -0.077 A 
ATOM      2  C3  UNL d   1       1.923   0.170  -2.017  0.00  0.00     0.002 A 
ATOM      3  C4  UNL d   1       0.536   0.087  -1.875  0.00  0.00     0.002 A 
ATOM      4  C5  UNL d   1      -0.176  -0.911  -2.536  0.00  0.00    -0.004 A 
ATOM      5  C6  UNL d   1       0.497  -1.826  -3.345  0.00  0.00     0.002 A 
ATOM      6  C7  UNL d   1       1.882  -1.745  -3.490  0.00  0.00     0.002 A 
ENDROOT
BRANCH   1   7
ATOM      7  C1  UNL d   1       4.109  -0.690  -2.942  0.00  0.00     0.055 C 
ATOM      8  C   UNL d   1       4.601   0.744  -3.073  0.00  0.00     0.019 C 
ENDBRANCH   1   7
TORSDOF 1
ENDMDL
