MODEL 1
REMARK minimizedAffinity -5.50248051
REMARK minimizedRMSD -1
REMARK  1 active torsions:
REMARK  status: ('A' for Active; 'I' for Inactive)
REMARK    1  A    between atoms: C1_2  and  C2_3 
ROOT
ATOM      1  C2  UNL d   1       0.011   0.304   0.104  0.00  0.00    -0.077 A 
ATOM      2  C3  UNL d   1      -1.080  -0.137   0.867  0.00  0.00     0.002 A 
ATOM      3  C4  UNL d   1      -0.935  -0.373   2.236  0.00  0.00     0.002 A 
ATOM      4  C5  UNL d   1       0.297  -0.168   2.853  0.00  0.00    -0.004 A 
ATOM      5  C6  UNL d   1       1.388   0.269   2.103  0.00  0.00     0.002 A 
ATOM      6  C7  UNL d   1       1.245   0.505   0.735  0.00  0.00     0.002 A 
ENDROOT
BRANCH   1   7
ATOM      7  C1  UNL d   1      -0.156   0.607  -1.362  0.00  0.00     0.055 C 
ATOM      8  C   UNL d   1       0.618  -0.381  -2.222  0.00  0.00     0.019 C 
ENDBRANCH   1   7
TORSDOF 1
ENDMDL
