MODEL 1
REMARK minimizedAffinity -3.76050067
REMARK minimizedRMSD -1
REMARK  1 active torsions:
REMARK  status: ('A' for Active; 'I' for Inactive)
REMARK    1  A    between atoms: C1_2  and  C2_3 
ROOT
ATOM      1  C2  UNL d   1      -0.098   0.017   0.241  0.00  0.00    -0.077 A 
ATOM      2  C3  UNL d   1      -1.031  -0.777   0.923  0.00  0.00     0.002 A 
ATOM      3  C4  UNL d   1      -1.046  -0.809   2.318  0.00  0.00     0.002 A 
ATOM      4  C5  UNL d   1      -0.133  -0.047   3.044  0.00  0.00    -0.004 A 
ATOM      5  C6  UNL d   1       0.801   0.743   2.376  0.00  0.00     0.002 A 
ATOM      6  C7  UNL d   1       0.818   0.776   0.981  0.00  0.00     0.002 A 
ENDROOT
BRANCH   1   7
ATOM      7  C1  UNL d   1      -0.112   0.091  -1.263  0.00  0.00     0.055 C 
ATOM      8  C   UNL d   1       1.230  -0.321  -1.851  0.00  0.00     0.019 C 
ENDBRANCH   1   7
TORSDOF 1
ENDMDL
