MODEL 1
REMARK minimizedAffinity -4.3769865
REMARK minimizedRMSD -1
REMARK  1 active torsions:
REMARK  status: ('A' for Active; 'I' for Inactive)
REMARK    1  A    between atoms: C1_2  and  C2_3 
ROOT
ATOM      1  C2  UNL d   1       0.977  -0.167  -1.540  0.00  0.00    -0.077 A 
ATOM      2  C3  UNL d   1       1.884   0.043  -0.491  0.00  0.00     0.002 A 
ATOM      3  C4  UNL d   1       1.434   0.114   0.828  0.00  0.00     0.002 A 
ATOM      4  C5  UNL d   1       0.077  -0.027   1.112  0.00  0.00    -0.004 A 
ATOM      5  C6  UNL d   1      -0.833  -0.234   0.076  0.00  0.00     0.002 A 
ATOM      6  C7  UNL d   1      -0.385  -0.304  -1.244  0.00  0.00     0.002 A 
ENDROOT
BRANCH   1   7
ATOM      7  C1  UNL d   1       1.467  -0.293  -2.959  0.00  0.00     0.055 C 
ATOM      8  C   UNL d   1       0.967  -1.578  -3.604  0.00  0.00     0.019 C 
ENDBRANCH   1   7
TORSDOF 1
ENDMDL
