MODEL 1
REMARK minimizedAffinity -4.635952
REMARK minimizedRMSD -1
REMARK  1 active torsions:
REMARK  status: ('A' for Active; 'I' for Inactive)
REMARK    1  A    between atoms: C1_2  and  C2_3 
ROOT
ATOM      1  C2  UNL d   1      -0.166  -0.463   0.471  0.00  0.00    -0.077 A 
ATOM      2  C3  UNL d   1      -0.987  -1.421   1.083  0.00  0.00     0.002 A 
ATOM      3  C4  UNL d   1      -1.190  -1.399   2.464  0.00  0.00     0.002 A 
ATOM      4  C5  UNL d   1      -0.581  -0.419   3.244  0.00  0.00    -0.004 A 
ATOM      5  C6  UNL d   1       0.239   0.538   2.645  0.00  0.00     0.002 A 
ATOM      6  C7  UNL d   1       0.445   0.516   1.265  0.00  0.00     0.002 A 
ENDROOT
BRANCH   1   7
ATOM      7  C1  UNL d   1       0.015  -0.456  -1.024  0.00  0.00     0.055 C 
ATOM      8  C   UNL d   1       0.865   0.724  -1.473  0.00  0.00     0.019 C 
ENDBRANCH   1   7
TORSDOF 1
ENDMDL
