MODEL 1
REMARK minimizedAffinity -5.53783512
REMARK minimizedRMSD -1
REMARK  1 active torsions:
REMARK  status: ('A' for Active; 'I' for Inactive)
REMARK    1  A    between atoms: C1_2  and  C2_3 
ROOT
ATOM      1  C2  UNL d   1       0.989  -0.130  -1.586  0.00  0.00    -0.077 A 
ATOM      2  C3  UNL d   1       0.357  -0.615  -2.739  0.00  0.00     0.002 A 
ATOM      3  C4  UNL d   1       1.112  -1.134  -3.793  0.00  0.00     0.002 A 
ATOM      4  C5  UNL d   1       2.502  -1.176  -3.702  0.00  0.00    -0.004 A 
ATOM      5  C6  UNL d   1       3.140  -0.695  -2.559  0.00  0.00     0.002 A 
ATOM      6  C7  UNL d   1       2.387  -0.175  -1.506  0.00  0.00     0.002 A 
ENDROOT
BRANCH   1   7
ATOM      7  C1  UNL d   1       0.174   0.384  -0.428  0.00  0.00     0.055 C 
ATOM      8  C   UNL d   1       0.880   0.139   0.898  0.00  0.00     0.019 C 
ENDBRANCH   1   7
TORSDOF 1
ENDMDL
