MODEL 1
REMARK minimizedAffinity -4.51488256
REMARK minimizedRMSD -1
REMARK  1 active torsions:
REMARK  status: ('A' for Active; 'I' for Inactive)
REMARK    1  A    between atoms: C1_2  and  C2_3 
ROOT
ATOM      1  C2  UNL d   1       0.011   0.529   0.498  0.00  0.00    -0.077 A 
ATOM      2  C3  UNL d   1      -0.729   0.016   1.573  0.00  0.00     0.002 A 
ATOM      3  C4  UNL d   1      -0.288   0.201   2.885  0.00  0.00     0.002 A 
ATOM      4  C5  UNL d   1       0.890   0.902   3.134  0.00  0.00    -0.004 A 
ATOM      5  C6  UNL d   1       1.633   1.414   2.072  0.00  0.00     0.002 A 
ATOM      6  C7  UNL d   1       1.195   1.229   0.760  0.00  0.00     0.002 A 
ENDROOT
BRANCH   1   7
ATOM      7  C1  UNL d   1      -0.488   0.373  -0.915  0.00  0.00     0.055 C 
ATOM      8  C   UNL d   1       0.650   0.046  -1.870  0.00  0.00     0.019 C 
ENDBRANCH   1   7
TORSDOF 1
ENDMDL
