MODEL 1
REMARK minimizedAffinity -6.18142939
REMARK minimizedRMSD -1
REMARK  1 active torsions:
REMARK  status: ('A' for Active; 'I' for Inactive)
REMARK    1  A    between atoms: C1_2  and  C2_3 
ROOT
ATOM      1  C2  UNL d   1      -0.295   0.150   0.274  0.00  0.00    -0.077 A 
ATOM      2  C3  UNL d   1      -1.656   0.013   0.582  0.00  0.00     0.002 A 
ATOM      3  C4  UNL d   1      -2.061  -0.236   1.895  0.00  0.00     0.002 A 
ATOM      4  C5  UNL d   1      -1.112  -0.346   2.910  0.00  0.00    -0.004 A 
ATOM      5  C6  UNL d   1       0.244  -0.213   2.613  0.00  0.00     0.002 A 
ATOM      6  C7  UNL d   1       0.650   0.035   1.301  0.00  0.00     0.002 A 
ENDROOT
BRANCH   1   7
ATOM      7  C1  UNL d   1       0.141   0.468  -1.133  0.00  0.00     0.055 C 
ATOM      8  C   UNL d   1      -0.923   1.263  -1.876  0.00  0.00     0.019 C 
ENDBRANCH   1   7
TORSDOF 1
ENDMDL
