MODEL 1
REMARK minimizedAffinity -5.33707809
REMARK minimizedRMSD -1
REMARK  1 active torsions:
REMARK  status: ('A' for Active; 'I' for Inactive)
REMARK    1  A    between atoms: C1_2  and  C2_3 
ROOT
ATOM      1  C2  UNL d   1      -0.430   0.060   0.722  0.00  0.00    -0.077 A 
ATOM      2  C3  UNL d   1      -1.680   0.264   0.120  0.00  0.00     0.002 A 
ATOM      3  C4  UNL d   1      -2.833   0.358   0.902  0.00  0.00     0.002 A 
ATOM      4  C5  UNL d   1      -2.748   0.253   2.288  0.00  0.00    -0.004 A 
ATOM      5  C6  UNL d   1      -1.510   0.047   2.896  0.00  0.00     0.002 A 
ATOM      6  C7  UNL d   1      -0.356  -0.048   2.117  0.00  0.00     0.002 A 
ENDROOT
BRANCH   1   7
ATOM      7  C1  UNL d   1       0.821   0.008  -0.115  0.00  0.00     0.055 C 
ATOM      8  C   UNL d   1       0.500   0.127  -1.598  0.00  0.00     0.019 C 
ENDBRANCH   1   7
TORSDOF 1
ENDMDL
