MODEL 1
REMARK minimizedAffinity -4.96739864
REMARK minimizedRMSD -1
REMARK  1 active torsions:
REMARK  status: ('A' for Active; 'I' for Inactive)
REMARK    1  A    between atoms: C1_2  and  C2_3 
ROOT
ATOM      1  C2  UNL d   1      -0.168   0.004   0.556  0.00  0.00    -0.077 A 
ATOM      2  C3  UNL d   1      -1.528  -0.294   0.719  0.00  0.00     0.002 A 
ATOM      3  C4  UNL d   1      -2.113  -0.253   1.986  0.00  0.00     0.002 A 
ATOM      4  C5  UNL d   1      -1.347   0.089   3.099  0.00  0.00    -0.004 A 
ATOM      5  C6  UNL d   1       0.007   0.385   2.947  0.00  0.00     0.002 A 
ATOM      6  C7  UNL d   1       0.594   0.344   1.682  0.00  0.00     0.002 A 
ENDROOT
BRANCH   1   7
ATOM      7  C1  UNL d   1       0.453   0.009  -0.816  0.00  0.00     0.055 C 
ATOM      8  C   UNL d   1      -0.112   1.130  -1.676  0.00  0.00     0.019 C 
ENDBRANCH   1   7
TORSDOF 1
ENDMDL
