MODEL 1
REMARK minimizedAffinity -5.26744843
REMARK minimizedRMSD -1
REMARK  1 active torsions:
REMARK  status: ('A' for Active; 'I' for Inactive)
REMARK    1  A    between atoms: C1_2  and  C2_3 
ROOT
ATOM      1  C2  UNL d   1      -1.057   0.094   2.299  0.00  0.00    -0.077 A 
ATOM      2  C3  UNL d   1      -0.035   0.507   3.165  0.00  0.00     0.002 A 
ATOM      3  C4  UNL d   1       1.273   0.648   2.697  0.00  0.00     0.002 A 
ATOM      4  C5  UNL d   1       1.569   0.382   1.362  0.00  0.00    -0.004 A 
ATOM      5  C6  UNL d   1       0.560  -0.030   0.493  0.00  0.00     0.002 A 
ATOM      6  C7  UNL d   1      -0.748  -0.173   0.960  0.00  0.00     0.002 A 
ENDROOT
BRANCH   1   7
ATOM      7  C1  UNL d   1      -2.478  -0.011   2.790  0.00  0.00     0.055 C 
ATOM      8  C   UNL d   1      -3.470   0.370   1.700  0.00  0.00     0.019 C 
ENDBRANCH   1   7
TORSDOF 1
ENDMDL
