MODEL 1
REMARK minimizedAffinity 17.0775337
REMARK minimizedRMSD -1
REMARK  0 active torsions:
REMARK  status: ('A' for Active; 'I' for Inactive)
ROOT
ATOM      1  C   UNL d   1       1.175   3.522   0.643  0.00  0.00     0.124 A 
ATOM      2  C1  UNL d   1       1.187   3.161   1.984  0.00  0.00     0.062 A 
ATOM      3  C2  UNL d   1       0.100   2.491   2.538  0.00  0.00     0.162 A 
ATOM      4  C3  UNL d   1      -1.009   2.177   1.752  0.00  0.00    -0.034 A 
ATOM      5  C4  UNL d   1      -1.014   2.545   0.405  0.00  0.00     0.162 A 
ATOM      6  C5  UNL d   1       0.075   3.214  -0.144  0.00  0.00     0.062 A 
ATOM      7  F   UNL d   1       0.061   3.562  -1.439  0.00  0.00    -0.097 F 
ATOM      8  F1  UNL d   1      -2.064   2.259  -0.379  0.00  0.00    -0.096 F 
ATOM      9  I   UNL d   1      -2.636   1.176   2.577  0.00  0.00    -0.060 I 
ATOM     10  F2  UNL d   1       0.139   2.154   3.836  0.00  0.00    -0.096 F 
ATOM     11  F3  UNL d   1       2.249   3.458   2.747  0.00  0.00    -0.097 F 
ATOM     12  F4  UNL d   1       2.222   4.167   0.113  0.00  0.00    -0.092 F 
ENDROOT
TORSDOF 0
ENDMDL
