MODEL 1
REMARK minimizedAffinity 10.5806208
REMARK minimizedRMSD -1
REMARK  0 active torsions:
REMARK  status: ('A' for Active; 'I' for Inactive)
ROOT
ATOM      1  C   UNL d   1       2.263   4.575   1.257  0.00  0.00     0.124 A 
ATOM      2  C1  UNL d   1       2.112   3.713   2.334  0.00  0.00     0.062 A 
ATOM      3  C2  UNL d   1       0.907   3.044   2.532  0.00  0.00     0.162 A 
ATOM      4  C3  UNL d   1      -0.156   3.234   1.649  0.00  0.00    -0.034 A 
ATOM      5  C4  UNL d   1       0.003   4.103   0.568  0.00  0.00     0.162 A 
ATOM      6  C5  UNL d   1       1.209   4.769   0.375  0.00  0.00     0.062 A 
ATOM      7  F   UNL d   1       1.354   5.601  -0.667  0.00  0.00    -0.097 F 
ATOM      8  F1  UNL d   1      -0.998   4.308  -0.300  0.00  0.00    -0.096 F 
ATOM      9  I   UNL d   1      -1.959   2.236   1.941  0.00  0.00    -0.060 I 
ATOM     10  F2  UNL d   1       0.789   2.218   3.582  0.00  0.00    -0.096 F 
ATOM     11  F3  UNL d   1       3.128   3.525   3.188  0.00  0.00    -0.097 F 
ATOM     12  F4  UNL d   1       3.423   5.218   1.069  0.00  0.00    -0.092 F 
ENDROOT
TORSDOF 0
ENDMDL
