MODEL 1
REMARK minimizedAffinity 6.30871677
REMARK minimizedRMSD -1
REMARK  0 active torsions:
REMARK  status: ('A' for Active; 'I' for Inactive)
ROOT
ATOM      1  C   UNL d   1      -1.162   1.762  -0.649  0.00  0.00     0.124 A 
ATOM      2  C1  UNL d   1       0.180   1.595  -0.963  0.00  0.00     0.062 A 
ATOM      3  C2  UNL d   1       0.686   0.324  -1.216  0.00  0.00     0.162 A 
ATOM      4  C3  UNL d   1      -0.150  -0.791  -1.158  0.00  0.00    -0.034 A 
ATOM      5  C4  UNL d   1      -1.498  -0.615  -0.841  0.00  0.00     0.162 A 
ATOM      6  C5  UNL d   1      -1.999   0.657  -0.589  0.00  0.00     0.062 A 
ATOM      7  F   UNL d   1      -3.296   0.817  -0.286  0.00  0.00    -0.097 F 
ATOM      8  F1  UNL d   1      -2.330  -1.666  -0.777  0.00  0.00    -0.096 F 
ATOM      9  I   UNL d   1       0.604  -2.694  -1.536  0.00  0.00    -0.060 I 
ATOM     10  F2  UNL d   1       1.987   0.192  -1.517  0.00  0.00    -0.096 F 
ATOM     11  F3  UNL d   1       0.991   2.661  -1.021  0.00  0.00    -0.097 F 
ATOM     12  F4  UNL d   1      -1.646   2.987  -0.405  0.00  0.00    -0.092 F 
ENDROOT
TORSDOF 0
ENDMDL
