MODEL 1
REMARK minimizedAffinity 12.9388103
REMARK minimizedRMSD -1
REMARK  0 active torsions:
REMARK  status: ('A' for Active; 'I' for Inactive)
ROOT
ATOM      1  C   UNL d   1       0.679   2.392   2.908  0.00  0.00     0.124 A 
ATOM      2  C1  UNL d   1      -0.384   2.500   2.022  0.00  0.00     0.062 A 
ATOM      3  C2  UNL d   1      -0.296   3.349   0.923  0.00  0.00     0.162 A 
ATOM      4  C3  UNL d   1       0.861   4.096   0.702  0.00  0.00    -0.034 A 
ATOM      5  C4  UNL d   1       1.926   3.983   1.597  0.00  0.00     0.162 A 
ATOM      6  C5  UNL d   1       1.833   3.133   2.695  0.00  0.00     0.062 A 
ATOM      7  F   UNL d   1       2.861   3.030   3.549  0.00  0.00    -0.097 F 
ATOM      8  F1  UNL d   1       3.053   4.687   1.415  0.00  0.00    -0.096 F 
ATOM      9  I   UNL d   1       0.997   5.367  -0.941  0.00  0.00    -0.060 I 
ATOM     10  F2  UNL d   1      -1.339   3.434   0.083  0.00  0.00    -0.096 F 
ATOM     11  F3  UNL d   1      -1.500   1.785   2.226  0.00  0.00    -0.097 F 
ATOM     12  F4  UNL d   1       0.591   1.575   3.965  0.00  0.00    -0.092 F 
ENDROOT
TORSDOF 0
ENDMDL
