MODEL 1
REMARK minimizedAffinity 16.7228413
REMARK minimizedRMSD -1
REMARK  0 active torsions:
REMARK  status: ('A' for Active; 'I' for Inactive)
ROOT
ATOM      1  C   UNL d   1       0.539   2.311   2.902  0.00  0.00     0.124 A 
ATOM      2  C1  UNL d   1      -0.549   2.729   2.149  0.00  0.00     0.062 A 
ATOM      3  C2  UNL d   1      -0.631   2.407   0.797  0.00  0.00     0.162 A 
ATOM      4  C3  UNL d   1       0.379   1.660   0.190  0.00  0.00    -0.034 A 
ATOM      5  C4  UNL d   1       1.471   1.244   0.954  0.00  0.00     0.162 A 
ATOM      6  C5  UNL d   1       1.548   1.569   2.304  0.00  0.00     0.062 A 
ATOM      7  F   UNL d   1       2.600   1.164   3.030  0.00  0.00    -0.097 F 
ATOM      8  F1  UNL d   1       2.459   0.525   0.402  0.00  0.00    -0.096 F 
ATOM      9  I   UNL d   1       0.261   1.176  -1.831  0.00  0.00    -0.060 I 
ATOM     10  F2  UNL d   1      -1.694   2.824   0.094  0.00  0.00    -0.096 F 
ATOM     11  F3  UNL d   1      -1.525   3.447   2.724  0.00  0.00    -0.097 F 
ATOM     12  F4  UNL d   1       0.615   2.624   4.202  0.00  0.00    -0.092 F 
ENDROOT
TORSDOF 0
ENDMDL
