MODEL 1
REMARK minimizedAffinity 13.2136822
REMARK minimizedRMSD -1
REMARK  0 active torsions:
REMARK  status: ('A' for Active; 'I' for Inactive)
ROOT
ATOM      1  C   UNL d   1       2.176  -0.366   0.579  0.00  0.00     0.124 A 
ATOM      2  C1  UNL d   1       1.650   0.044  -0.638  0.00  0.00     0.062 A 
ATOM      3  C2  UNL d   1       0.975   1.257  -0.736  0.00  0.00     0.162 A 
ATOM      4  C3  UNL d   1       0.822   2.070   0.388  0.00  0.00    -0.034 A 
ATOM      5  C4  UNL d   1       1.352   1.650   1.609  0.00  0.00     0.162 A 
ATOM      6  C5  UNL d   1       2.026   0.436   1.701  0.00  0.00     0.062 A 
ATOM      7  F   UNL d   1       2.533   0.041   2.878  0.00  0.00    -0.097 F 
ATOM      8  F1  UNL d   1       1.223   2.406   2.709  0.00  0.00    -0.096 F 
ATOM      9  I   UNL d   1      -0.188   3.884   0.246  0.00  0.00    -0.060 I 
ATOM     10  F2  UNL d   1       0.477   1.629  -1.925  0.00  0.00    -0.096 F 
ATOM     11  F3  UNL d   1       1.793  -0.730  -1.724  0.00  0.00    -0.097 F 
ATOM     12  F4  UNL d   1       2.825  -1.534   0.670  0.00  0.00    -0.092 F 
ENDROOT
TORSDOF 0
ENDMDL
