MODEL 1
REMARK minimizedAffinity 13.6154766
REMARK minimizedRMSD -1
REMARK  0 active torsions:
REMARK  status: ('A' for Active; 'I' for Inactive)
ROOT
ATOM      1  C   UNL d   1      -0.720   1.351  -0.620  0.00  0.00     0.124 A 
ATOM      2  C1  UNL d   1      -1.677   0.350  -0.531  0.00  0.00     0.062 A 
ATOM      3  C2  UNL d   1      -1.378  -0.944  -0.949  0.00  0.00     0.162 A 
ATOM      4  C3  UNL d   1      -0.115  -1.245  -1.459  0.00  0.00    -0.034 A 
ATOM      5  C4  UNL d   1       0.842  -0.232  -1.546  0.00  0.00     0.162 A 
ATOM      6  C5  UNL d   1       0.538   1.059  -1.127  0.00  0.00     0.062 A 
ATOM      7  F   UNL d   1       1.465   2.025  -1.214  0.00  0.00    -0.097 F 
ATOM      8  F1  UNL d   1       2.066  -0.487  -2.031  0.00  0.00    -0.096 F 
ATOM      9  I   UNL d   1       0.336  -3.178  -2.084  0.00  0.00    -0.060 I 
ATOM     10  F2  UNL d   1      -2.323  -1.891  -0.852  0.00  0.00    -0.096 F 
ATOM     11  F3  UNL d   1      -2.894   0.629  -0.043  0.00  0.00    -0.097 F 
ATOM     12  F4  UNL d   1      -1.011   2.595  -0.219  0.00  0.00    -0.092 F 
ENDROOT
TORSDOF 0
ENDMDL
