MODEL 1
REMARK minimizedAffinity 21.5516663
REMARK minimizedRMSD -1
REMARK  0 active torsions:
REMARK  status: ('A' for Active; 'I' for Inactive)
ROOT
ATOM      1  C   UNL d   1       0.214  -3.825  -0.872  0.00  0.00     0.124 A 
ATOM      2  C1  UNL d   1      -1.039  -3.265  -1.081  0.00  0.00     0.062 A 
ATOM      3  C2  UNL d   1      -1.200  -1.883  -1.061  0.00  0.00     0.162 A 
ATOM      4  C3  UNL d   1      -0.105  -1.050  -0.833  0.00  0.00    -0.034 A 
ATOM      5  C4  UNL d   1       1.152  -1.620  -0.623  0.00  0.00     0.162 A 
ATOM      6  C5  UNL d   1       1.308  -3.002  -0.643  0.00  0.00     0.062 A 
ATOM      7  F   UNL d   1       2.519  -3.541  -0.441  0.00  0.00    -0.097 F 
ATOM      8  F1  UNL d   1       2.226  -0.848  -0.400  0.00  0.00    -0.096 F 
ATOM      9  I   UNL d   1      -0.342   1.018  -0.803  0.00  0.00    -0.060 I 
ATOM     10  F2  UNL d   1      -2.422  -1.370  -1.266  0.00  0.00    -0.096 F 
ATOM     11  F3  UNL d   1      -2.097  -4.058  -1.301  0.00  0.00    -0.097 F 
ATOM     12  F4  UNL d   1       0.366  -5.155  -0.890  0.00  0.00    -0.092 F 
ENDROOT
TORSDOF 0
ENDMDL
