MODEL 1
REMARK minimizedAffinity 7.96445894
REMARK minimizedRMSD -1
REMARK  0 active torsions:
REMARK  status: ('A' for Active; 'I' for Inactive)
ROOT
ATOM      1  C   UNL d   1       0.446   1.710   1.478  0.00  0.00     0.124 A 
ATOM      2  C1  UNL d   1       0.451   1.864   0.098  0.00  0.00     0.062 A 
ATOM      3  C2  UNL d   1      -0.009   3.046  -0.475  0.00  0.00     0.162 A 
ATOM      4  C3  UNL d   1      -0.477   4.084   0.331  0.00  0.00    -0.034 A 
ATOM      5  C4  UNL d   1      -0.479   3.921   1.718  0.00  0.00     0.162 A 
ATOM      6  C5  UNL d   1      -0.018   2.738   2.286  0.00  0.00     0.062 A 
ATOM      7  F   UNL d   1      -0.023   2.590   3.619  0.00  0.00    -0.097 F 
ATOM      8  F1  UNL d   1      -0.922   4.899   2.522  0.00  0.00    -0.096 F 
ATOM      9  I   UNL d   1      -1.165   5.853  -0.522  0.00  0.00    -0.060 I 
ATOM     10  F2  UNL d   1       0.006   3.168  -1.810  0.00  0.00    -0.096 F 
ATOM     11  F3  UNL d   1       0.898   0.872  -0.685  0.00  0.00    -0.097 F 
ATOM     12  F4  UNL d   1       0.888   0.571   2.027  0.00  0.00    -0.092 F 
ENDROOT
TORSDOF 0
ENDMDL
