MODEL 1
REMARK minimizedAffinity -4.19764471
REMARK minimizedRMSD -1
REMARK  2 active torsions:
REMARK  status: ('A' for Active; 'I' for Inactive)
REMARK    1  A    between atoms: C1_2  and  C2_3 
REMARK    2  A    between atoms: C2_3  and  C3_4 
ROOT
ATOM      1  C3  UNL d   1       0.336  -1.106  -1.007  0.00  0.00    -0.075 A 
ATOM      2  C4  UNL d   1      -0.470  -0.602   0.025  0.00  0.00     0.002 A 
ATOM      3  C5  UNL d   1      -0.810   0.750   0.062  0.00  0.00     0.002 A 
ATOM      4  C6  UNL d   1      -0.342   1.617  -0.923  0.00  0.00    -0.004 A 
ATOM      5  C7  UNL d   1       0.474   1.131  -1.943  0.00  0.00     0.002 A 
ATOM      6  C8  UNL d   1       0.812  -0.223  -1.985  0.00  0.00     0.002 A 
ENDROOT
BRANCH   1   7
ATOM      7  C2  UNL d   1       0.683  -2.574  -1.069  0.00  0.00     0.056 C 
BRANCH   7   8
ATOM      8  C1  UNL d   1      -0.533  -3.505  -1.029  0.00  0.00     0.007 C 
ATOM      9  C   UNL d   1      -1.437  -3.365  -2.247  0.00  0.00     0.009 C 
ENDBRANCH   7   8
ENDBRANCH   1   7
TORSDOF 2
ENDMDL
