MODEL 1
REMARK minimizedAffinity -3.66739178
REMARK minimizedRMSD -1
REMARK  2 active torsions:
REMARK  status: ('A' for Active; 'I' for Inactive)
REMARK    1  A    between atoms: C1_2  and  C2_3 
REMARK    2  A    between atoms: C2_3  and  C3_4 
ROOT
ATOM      1  C3  UNL d   1      -0.037  -0.653  -0.265  0.00  0.00    -0.075 A 
ATOM      2  C4  UNL d   1       0.090  -0.490   1.123  0.00  0.00     0.002 A 
ATOM      3  C5  UNL d   1      -0.408   0.652   1.750  0.00  0.00     0.002 A 
ATOM      4  C6  UNL d   1      -1.027   1.649   1.000  0.00  0.00    -0.004 A 
ATOM      5  C7  UNL d   1      -1.144   1.506  -0.381  0.00  0.00     0.002 A 
ATOM      6  C8  UNL d   1      -0.651   0.362  -1.011  0.00  0.00     0.002 A 
ENDROOT
BRANCH   1   7
ATOM      7  C2  UNL d   1       0.473  -1.900  -0.946  0.00  0.00     0.056 C 
BRANCH   7   8
ATOM      8  C1  UNL d   1      -0.634  -2.832  -1.450  0.00  0.00     0.007 C 
ATOM      9  C   UNL d   1      -0.817  -4.071  -0.583  0.00  0.00     0.009 C 
ENDBRANCH   7   8
ENDBRANCH   1   7
TORSDOF 2
ENDMDL
