MODEL 1
REMARK minimizedAffinity -5.63606119
REMARK minimizedRMSD -1
REMARK  2 active torsions:
REMARK  status: ('A' for Active; 'I' for Inactive)
REMARK    1  A    between atoms: C1_2  and  C2_3 
REMARK    2  A    between atoms: C2_3  and  C3_4 
ROOT
ATOM      1  C3  UNL d   1      -0.100   0.217   0.027  0.00  0.00    -0.075 A 
ATOM      2  C4  UNL d   1      -0.693   1.369  -0.511  0.00  0.00     0.002 A 
ATOM      3  C5  UNL d   1      -1.131   2.397   0.324  0.00  0.00     0.002 A 
ATOM      4  C6  UNL d   1      -0.992   2.283   1.705  0.00  0.00    -0.004 A 
ATOM      5  C7  UNL d   1      -0.420   1.136   2.252  0.00  0.00     0.002 A 
ATOM      6  C8  UNL d   1       0.024   0.108   1.418  0.00  0.00     0.002 A 
ENDROOT
BRANCH   1   7
ATOM      7  C2  UNL d   1       0.403  -0.886  -0.873  0.00  0.00     0.056 C 
BRANCH   7   8
ATOM      8  C1  UNL d   1      -0.451  -2.158  -0.838  0.00  0.00     0.007 C 
ATOM      9  C   UNL d   1      -0.019  -3.200  -1.861  0.00  0.00     0.009 C 
ENDBRANCH   7   8
ENDBRANCH   1   7
TORSDOF 2
ENDMDL
