MODEL 1
REMARK minimizedAffinity -2.20086861
REMARK minimizedRMSD -1
REMARK  2 active torsions:
REMARK  status: ('A' for Active; 'I' for Inactive)
REMARK    1  A    between atoms: C1_2  and  C2_3 
REMARK    2  A    between atoms: C2_3  and  C3_4 
ROOT
ATOM      1  C3  UNL d   1       0.065  -1.083  -0.871  0.00  0.00    -0.075 A 
ATOM      2  C4  UNL d   1      -0.574  -0.370   0.154  0.00  0.00     0.002 A 
ATOM      3  C5  UNL d   1      -1.004   0.940  -0.056  0.00  0.00     0.002 A 
ATOM      4  C6  UNL d   1      -0.792   1.558  -1.286  0.00  0.00    -0.004 A 
ATOM      5  C7  UNL d   1      -0.144   0.865  -2.307  0.00  0.00     0.002 A 
ATOM      6  C8  UNL d   1       0.283  -0.448  -2.101  0.00  0.00     0.002 A 
ENDROOT
BRANCH   1   7
ATOM      7  C2  UNL d   1       0.506  -2.511  -0.661  0.00  0.00     0.056 C 
BRANCH   7   8
ATOM      8  C1  UNL d   1       0.450  -3.374  -1.926  0.00  0.00     0.007 C 
ATOM      9  C   UNL d   1      -0.960  -3.820  -2.287  0.00  0.00     0.009 C 
ENDBRANCH   7   8
ENDBRANCH   1   7
TORSDOF 2
ENDMDL
