MODEL 1
REMARK minimizedAffinity -2.93301582
REMARK minimizedRMSD -1
REMARK  2 active torsions:
REMARK  status: ('A' for Active; 'I' for Inactive)
REMARK    1  A    between atoms: C2'_3  and  C1'_4 
REMARK    2  A    between atoms: C1'_4  and  C1_5 
ROOT
ATOM      1  C1  I4B d   1      -0.551   0.219  -1.066  0.00  0.00    -0.075 A 
ATOM      2  C2  I4B d   1       0.683  -0.380  -1.116  0.00  0.00     0.003 A 
ATOM      3  C3  I4B d   1       1.199  -1.046   0.022  0.00  0.00     0.002 A 
ATOM      4  C4  I4B d   1       0.475  -1.044   1.197  0.00  0.00    -0.004 A 
ATOM      5  C5  I4B d   1      -0.785  -0.456   1.239  0.00  0.00     0.002 A 
ATOM      6  C6  I4B d   1      -1.307   0.169   0.097  0.00  0.00     0.003 A 
ENDROOT
BRANCH   1   7
ATOM      7  C1' I4B d   1      -1.051   0.941  -2.277  0.00  0.00     0.060 C 
BRANCH   7   8
ATOM      8  C2' I4B d   1      -0.724   2.412  -2.111  0.00  0.00    -0.013 C 
ATOM      9  C4' I4B d   1       0.289   2.863  -3.130  0.00  0.00     0.013 C 
ATOM     10  C3' I4B d   1      -2.001   3.187  -2.238  0.00  0.00     0.013 C 
ENDBRANCH   7   8
ENDBRANCH   1   7
TORSDOF 2
ENDMDL
