MODEL 1
REMARK minimizedAffinity 1.52373898
REMARK minimizedRMSD -1
REMARK  2 active torsions:
REMARK  status: ('A' for Active; 'I' for Inactive)
REMARK    1  A    between atoms: C2'_3  and  C1'_4 
REMARK    2  A    between atoms: C1'_4  and  C1_5 
ROOT
ATOM      1  C1  I4B d   1       0.440  -1.219   1.646  0.00  0.00    -0.075 A 
ATOM      2  C2  I4B d   1       0.377  -0.850   0.326  0.00  0.00     0.003 A 
ATOM      3  C3  I4B d   1      -0.788  -0.231  -0.188  0.00  0.00     0.002 A 
ATOM      4  C4  I4B d   1      -1.880  -0.048   0.637  0.00  0.00    -0.004 A 
ATOM      5  C5  I4B d   1      -1.806  -0.402   1.981  0.00  0.00     0.002 A 
ATOM      6  C6  I4B d   1      -0.635  -0.980   2.492  0.00  0.00     0.003 A 
ENDROOT
BRANCH   1   7
ATOM      7  C1' I4B d   1       1.674  -1.900   2.147  0.00  0.00     0.060 C 
BRANCH   7   8
ATOM      8  C2' I4B d   1       1.863  -3.172   1.347  0.00  0.00    -0.013 C 
ATOM      9  C4' I4B d   1       3.276  -3.681   1.456  0.00  0.00     0.013 C 
ATOM     10  C3' I4B d   1       0.881  -4.187   1.852  0.00  0.00     0.013 C 
ENDBRANCH   7   8
ENDBRANCH   1   7
TORSDOF 2
ENDMDL
