MODEL 1
REMARK minimizedAffinity -1.66276205
REMARK minimizedRMSD -1
REMARK  2 active torsions:
REMARK  status: ('A' for Active; 'I' for Inactive)
REMARK    1  A    between atoms: C2'_3  and  C1'_4 
REMARK    2  A    between atoms: C1'_4  and  C1_5 
ROOT
ATOM      1  C1  I4B d   1       4.404   5.516   3.414  0.00  0.00    -0.075 A 
ATOM      2  C2  I4B d   1       5.398   4.570   3.443  0.00  0.00     0.003 A 
ATOM      3  C3  I4B d   1       5.941   4.070   2.235  0.00  0.00     0.002 A 
ATOM      4  C4  I4B d   1       5.430   4.503   1.029  0.00  0.00    -0.004 A 
ATOM      5  C5  I4B d   1       4.438   5.479   1.001  0.00  0.00     0.002 A 
ATOM      6  C6  I4B d   1       3.930   5.998   2.201  0.00  0.00     0.003 A 
ENDROOT
BRANCH   1   7
ATOM      7  C1' I4B d   1       3.831   5.999   4.709  0.00  0.00     0.060 C 
BRANCH   7   8
ATOM      8  C2' I4B d   1       2.321   5.915   4.610  0.00  0.00    -0.013 C 
ATOM      9  C4' I4B d   1       1.889   4.650   3.916  0.00  0.00     0.013 C 
ATOM     10  C3' I4B d   1       1.762   5.987   6.000  0.00  0.00     0.013 C 
ENDBRANCH   7   8
ENDBRANCH   1   7
TORSDOF 2
ENDMDL
