MODEL 1
REMARK minimizedAffinity 2.73598647
REMARK minimizedRMSD -1
REMARK  2 active torsions:
REMARK  status: ('A' for Active; 'I' for Inactive)
REMARK    1  A    between atoms: C2'_3  and  C1'_4 
REMARK    2  A    between atoms: C1'_4  and  C1_5 
ROOT
ATOM      1  C1  I4B d   1       2.158   5.175   3.413  0.00  0.00    -0.075 A 
ATOM      2  C2  I4B d   1       3.192   5.874   2.841  0.00  0.00     0.003 A 
ATOM      3  C3  I4B d   1       4.129   5.210   2.013  0.00  0.00     0.002 A 
ATOM      4  C4  I4B d   1       4.025   3.847   1.826  0.00  0.00    -0.004 A 
ATOM      5  C5  I4B d   1       2.963   3.144   2.388  0.00  0.00     0.002 A 
ATOM      6  C6  I4B d   1       2.016   3.814   3.177  0.00  0.00     0.003 A 
ENDROOT
BRANCH   1   7
ATOM      7  C1' I4B d   1       1.206   5.902   4.309  0.00  0.00     0.060 C 
BRANCH   7   8
ATOM      8  C2' I4B d   1       1.555   5.554   5.742  0.00  0.00    -0.013 C 
ATOM      9  C4' I4B d   1       1.394   4.079   6.000  0.00  0.00     0.013 C 
ATOM     10  C3' I4B d   1       2.965   5.998   5.996  0.00  0.00     0.013 C 
ENDBRANCH   7   8
ENDBRANCH   1   7
TORSDOF 2
ENDMDL
