MODEL 1
REMARK minimizedAffinity 2.48691964
REMARK minimizedRMSD -1
REMARK  2 active torsions:
REMARK  status: ('A' for Active; 'I' for Inactive)
REMARK    1  A    between atoms: C2'_3  and  C1'_4 
REMARK    2  A    between atoms: C1'_4  and  C1_5 
ROOT
ATOM      1  C1  I4B d   1       3.228   5.942   4.448  0.00  0.00    -0.075 A 
ATOM      2  C2  I4B d   1       4.565   5.951   4.139  0.00  0.00     0.003 A 
ATOM      3  C3  I4B d   1       4.983   5.998   2.787  0.00  0.00     0.002 A 
ATOM      4  C4  I4B d   1       4.038   5.985   1.782  0.00  0.00    -0.004 A 
ATOM      5  C5  I4B d   1       2.682   6.000   2.098  0.00  0.00     0.002 A 
ATOM      6  C6  I4B d   1       2.274   5.991   3.440  0.00  0.00     0.003 A 
ENDROOT
BRANCH   1   7
ATOM      7  C1' I4B d   1       2.821   5.858   5.885  0.00  0.00     0.060 C 
BRANCH   7   8
ATOM      8  C2' I4B d   1       1.668   4.881   5.988  0.00  0.00    -0.013 C 
ATOM      9  C4' I4B d   1       0.697   5.062   4.851  0.00  0.00     0.013 C 
ATOM     10  C3' I4B d   1       2.237   3.493   5.998  0.00  0.00     0.013 C 
ENDBRANCH   7   8
ENDBRANCH   1   7
TORSDOF 2
ENDMDL
