MODEL 1
REMARK minimizedAffinity 1.32791281
REMARK minimizedRMSD -1
REMARK  2 active torsions:
REMARK  status: ('A' for Active; 'I' for Inactive)
REMARK    1  A    between atoms: C2'_3  and  C1'_4 
REMARK    2  A    between atoms: C1'_4  and  C1_5 
ROOT
ATOM      1  C1  I4B d   1       3.066   5.461   3.619  0.00  0.00    -0.075 A 
ATOM      2  C2  I4B d   1       3.733   5.628   4.807  0.00  0.00     0.003 A 
ATOM      3  C3  I4B d   1       3.011   5.877   6.000  0.00  0.00     0.002 A 
ATOM      4  C4  I4B d   1       1.638   6.000   5.950  0.00  0.00    -0.004 A 
ATOM      5  C5  I4B d   1       0.962   5.807   4.749  0.00  0.00     0.002 A 
ATOM      6  C6  I4B d   1       1.679   5.524   3.577  0.00  0.00     0.003 A 
ENDROOT
BRANCH   1   7
ATOM      7  C1' I4B d   1       3.861   5.233   2.372  0.00  0.00     0.060 C 
BRANCH   7   8
ATOM      8  C2' I4B d   1       4.089   3.741   2.230  0.00  0.00    -0.013 C 
ATOM      9  C4' I4B d   1       5.380   3.322   2.882  0.00  0.00     0.013 C 
ATOM     10  C3' I4B d   1       2.917   3.034   2.844  0.00  0.00     0.013 C 
ENDBRANCH   7   8
ENDBRANCH   1   7
TORSDOF 2
ENDMDL
