MODEL 1
REMARK minimizedAffinity -2.12439609
REMARK minimizedRMSD -1
REMARK  1 active torsions:
REMARK  status: ('A' for Active; 'I' for Inactive)
REMARK    1  A    between atoms: C3_4  and  O_7 
ROOT
ATOM      1  C   UNL d   1       1.434   0.464  -2.975  0.00  0.00    -0.033 A 
ATOM      2  C1  UNL d   1       1.120   1.575  -3.762  0.00  0.00     0.039 A 
ATOM      3  C2  UNL d   1       0.158   1.471  -4.768  0.00  0.00    -0.080 A 
ATOM      4  C3  UNL d   1      -0.484   0.253  -4.976  0.00  0.00     0.150 A 
ATOM      5  C4  UNL d   1      -0.179  -0.856  -4.194  0.00  0.00    -0.007 A 
ATOM      6  C5  UNL d   1       0.783  -0.751  -3.191  0.00  0.00     0.039 A 
ENDROOT
BRANCH   4   7
ATOM      7  O   UNL d   1      -1.427   0.102  -5.949  0.00  0.00    -0.526 OA
ATOM      8  H5  UNL d   1      -1.513   0.943  -6.428  0.00  0.00     0.418 HD
ENDBRANCH   4   7
TORSDOF 1
ENDMDL
