MODEL 1
REMARK minimizedAffinity -3.69043088
REMARK minimizedRMSD -1
REMARK  1 active torsions:
REMARK  status: ('A' for Active; 'I' for Inactive)
REMARK    1  A    between atoms: C3_4  and  O_7 
ROOT
ATOM      1  C   UNL d   1      -1.901   0.419   1.640  0.00  0.00    -0.033 A 
ATOM      2  C1  UNL d   1      -2.520   0.269   0.397  0.00  0.00     0.039 A 
ATOM      3  C2  UNL d   1      -1.748   0.096  -0.753  0.00  0.00    -0.080 A 
ATOM      4  C3  UNL d   1      -0.360   0.073  -0.647  0.00  0.00     0.150 A 
ATOM      5  C4  UNL d   1       0.263   0.218   0.588  0.00  0.00    -0.007 A 
ATOM      6  C5  UNL d   1      -0.510   0.392   1.735  0.00  0.00     0.039 A 
ENDROOT
BRANCH   4   7
ATOM      7  O   UNL d   1       0.436  -0.089  -1.742  0.00  0.00    -0.526 OA
ATOM      8  H5  UNL d   1      -0.131  -0.147  -2.529  0.00  0.00     0.418 HD
ENDBRANCH   4   7
TORSDOF 1
ENDMDL
