MODEL 1
REMARK minimizedAffinity -3.91199017
REMARK minimizedRMSD -1
REMARK  1 active torsions:
REMARK  status: ('A' for Active; 'I' for Inactive)
REMARK    1  A    between atoms: C3_4  and  O_7 
ROOT
ATOM      1  C   UNL d   1       1.393  -0.252  -0.703  0.00  0.00    -0.033 A 
ATOM      2  C1  UNL d   1       2.322   0.500  -1.425  0.00  0.00     0.039 A 
ATOM      3  C2  UNL d   1       2.124   0.737  -2.787  0.00  0.00    -0.080 A 
ATOM      4  C3  UNL d   1       0.994   0.218  -3.414  0.00  0.00     0.150 A 
ATOM      5  C4  UNL d   1       0.063  -0.529  -2.700  0.00  0.00    -0.007 A 
ATOM      6  C5  UNL d   1       0.262  -0.765  -1.340  0.00  0.00     0.039 A 
ENDROOT
BRANCH   4   7
ATOM      7  O   UNL d   1       0.760   0.419  -4.741  0.00  0.00    -0.526 OA
ATOM      8  H5  UNL d   1       1.501   0.927  -5.111  0.00  0.00     0.418 HD
ENDBRANCH   4   7
TORSDOF 1
ENDMDL
