MODEL 1
REMARK minimizedAffinity -1.88468099
REMARK minimizedRMSD -1
REMARK  1 active torsions:
REMARK  status: ('A' for Active; 'I' for Inactive)
REMARK    1  A    between atoms: C3_4  and  O_7 
ROOT
ATOM      1  C   UNL d   1       1.189   0.091  -4.094  0.00  0.00    -0.033 A 
ATOM      2  C1  UNL d   1      -0.022  -0.447  -3.653  0.00  0.00     0.039 A 
ATOM      3  C2  UNL d   1      -0.275  -0.574  -2.286  0.00  0.00    -0.080 A 
ATOM      4  C3  UNL d   1       0.689  -0.159  -1.371  0.00  0.00     0.150 A 
ATOM      5  C4  UNL d   1       1.896   0.382  -1.803  0.00  0.00    -0.007 A 
ATOM      6  C5  UNL d   1       2.147   0.507  -3.169  0.00  0.00     0.039 A 
ENDROOT
BRANCH   4   7
ATOM      7  O   UNL d   1       0.489  -0.267  -0.027  0.00  0.00    -0.526 OA
ATOM      8  H5  UNL d   1      -0.376  -0.684   0.123  0.00  0.00     0.418 HD
ENDBRANCH   4   7
TORSDOF 1
ENDMDL
