MODEL 1
REMARK minimizedAffinity -2.55540085
REMARK minimizedRMSD -1
REMARK  1 active torsions:
REMARK  status: ('A' for Active; 'I' for Inactive)
REMARK    1  A    between atoms: C3_4  and  O_7 
ROOT
ATOM      1  C   UNL d   1      -1.379   0.360   0.097  0.00  0.00    -0.033 A 
ATOM      2  C1  UNL d   1      -1.254   0.530   1.477  0.00  0.00     0.039 A 
ATOM      3  C2  UNL d   1      -0.049   0.223   2.113  0.00  0.00    -0.080 A 
ATOM      4  C3  UNL d   1       1.021  -0.250   1.359  0.00  0.00     0.150 A 
ATOM      5  C4  UNL d   1       0.904  -0.418  -0.017  0.00  0.00    -0.007 A 
ATOM      6  C5  UNL d   1      -0.300  -0.112  -0.651  0.00  0.00     0.039 A 
ENDROOT
BRANCH   4   7
ATOM      7  O   UNL d   1       2.214  -0.567   1.936  0.00  0.00    -0.526 OA
ATOM      8  H5  UNL d   1       2.139  -0.428   2.894  0.00  0.00     0.418 HD
ENDBRANCH   4   7
TORSDOF 1
ENDMDL
