MODEL 1
REMARK minimizedAffinity -2.03780341
REMARK minimizedRMSD -1
REMARK  1 active torsions:
REMARK  status: ('A' for Active; 'I' for Inactive)
REMARK    1  A    between atoms: C3_4  and  O_7 
ROOT
ATOM      1  C   UNL d   1      -1.082  -0.036   0.335  0.00  0.00    -0.033 A 
ATOM      2  C1  UNL d   1      -0.991  -1.157  -0.493  0.00  0.00     0.039 A 
ATOM      3  C2  UNL d   1      -0.204  -1.114  -1.645  0.00  0.00    -0.080 A 
ATOM      4  C3  UNL d   1       0.486   0.054  -1.958  0.00  0.00     0.150 A 
ATOM      5  C4  UNL d   1       0.404   1.172  -1.136  0.00  0.00    -0.007 A 
ATOM      6  C5  UNL d   1      -0.383   1.128   0.014  0.00  0.00     0.039 A 
ENDROOT
BRANCH   4   7
ATOM      7  O   UNL d   1       1.263   0.145  -3.075  0.00  0.00    -0.526 OA
ATOM      8  H5  UNL d   1       1.202  -0.694  -3.562  0.00  0.00     0.418 HD
ENDBRANCH   4   7
TORSDOF 1
ENDMDL
