MODEL 1
REMARK minimizedAffinity -3.08638096
REMARK minimizedRMSD -1
REMARK  1 active torsions:
REMARK  status: ('A' for Active; 'I' for Inactive)
REMARK    1  A    between atoms: C3_4  and  O_7 
ROOT
ATOM      1  C   UNL d   1      -0.731   0.572   2.684  0.00  0.00    -0.033 A 
ATOM      2  C1  UNL d   1      -1.669   0.744   1.664  0.00  0.00     0.039 A 
ATOM      3  C2  UNL d   1      -1.324   0.465   0.341  0.00  0.00    -0.080 A 
ATOM      4  C3  UNL d   1      -0.040   0.014   0.050  0.00  0.00     0.150 A 
ATOM      5  C4  UNL d   1       0.899  -0.164   1.061  0.00  0.00    -0.007 A 
ATOM      6  C5  UNL d   1       0.553   0.116   2.382  0.00  0.00     0.039 A 
ENDROOT
BRANCH   4   7
ATOM      7  O   UNL d   1       0.345  -0.267  -1.228  0.00  0.00    -0.526 OA
ATOM      8  H5  UNL d   1      -0.398  -0.071  -1.823  0.00  0.00     0.418 HD
ENDBRANCH   4   7
TORSDOF 1
ENDMDL
