MODEL 1
REMARK minimizedAffinity -2.2050209
REMARK minimizedRMSD -1
REMARK  1 active torsions:
REMARK  status: ('A' for Active; 'I' for Inactive)
REMARK    1  A    between atoms: C3_4  and  O_7 
ROOT
ATOM      1  C   UNL d   1      -0.652  -0.190  -0.216  0.00  0.00    -0.033 A 
ATOM      2  C1  UNL d   1      -0.760   1.029  -0.888  0.00  0.00     0.039 A 
ATOM      3  C2  UNL d   1       0.011   1.272  -2.027  0.00  0.00    -0.080 A 
ATOM      4  C3  UNL d   1       0.885   0.288  -2.482  0.00  0.00     0.150 A 
ATOM      5  C4  UNL d   1       0.995  -0.930  -1.819  0.00  0.00    -0.007 A 
ATOM      6  C5  UNL d   1       0.224  -1.170  -0.682  0.00  0.00     0.039 A 
ENDROOT
BRANCH   4   7
ATOM      7  O   UNL d   1       1.662   0.480  -3.585  0.00  0.00    -0.526 OA
ATOM      8  H5  UNL d   1       1.501   1.378  -3.922  0.00  0.00     0.418 HD
ENDBRANCH   4   7
TORSDOF 1
ENDMDL
