MODEL 1
REMARK minimizedAffinity -3.53233457
REMARK minimizedRMSD -1
REMARK  3 active torsions:
REMARK  status: ('A' for Active; 'I' for Inactive)
REMARK    1  A    between atoms: C3'_2  and  C2'_3 
REMARK    2  A    between atoms: C2'_3  and  C1'_4 
REMARK    3  A    between atoms: C1'_4  and  C1_5 
ROOT
ATOM      1  C1  N4B d   1      -0.102  -0.120   0.082  0.00  0.00    -0.075 A 
ATOM      2  C2  N4B d   1       0.261  -1.467   0.298  0.00  0.00     0.002 A 
ATOM      3  C3  N4B d   1       1.206  -2.061  -0.503  0.00  0.00     0.002 A 
ATOM      4  C4  N4B d   1       1.785  -1.335  -1.533  0.00  0.00    -0.004 A 
ATOM      5  C5  N4B d   1       1.448  -0.027  -1.719  0.00  0.00     0.002 A 
ATOM      6  C6  N4B d   1       0.503   0.584  -0.919  0.00  0.00     0.002 A 
ENDROOT
BRANCH   1   7
ATOM      7  C1' N4B d   1      -1.192   0.546   0.876  0.00  0.00     0.057 C 
BRANCH   7   8
ATOM      8  C2' N4B d   1      -1.276  -0.103   2.254  0.00  0.00     0.009 C 
BRANCH   8   9
ATOM      9  C3' N4B d   1      -2.280   0.598   3.153  0.00  0.00     0.004 C 
ATOM     10  C4' N4B d   1      -1.626   1.420   4.224  0.00  0.00     0.003 C 
ENDBRANCH   8   9
ENDBRANCH   7   8
ENDBRANCH   1   7
TORSDOF 3
ENDMDL
