MODEL 1
REMARK minimizedAffinity -3.84113407
REMARK minimizedRMSD -1
REMARK  3 active torsions:
REMARK  status: ('A' for Active; 'I' for Inactive)
REMARK    1  A    between atoms: C3'_2  and  C2'_3 
REMARK    2  A    between atoms: C2'_3  and  C1'_4 
REMARK    3  A    between atoms: C1'_4  and  C1_5 
ROOT
ATOM      1  C1  N4B d   1      -0.073  -0.509   0.193  0.00  0.00    -0.075 A 
ATOM      2  C2  N4B d   1       0.604  -1.732  -0.005  0.00  0.00     0.002 A 
ATOM      3  C3  N4B d   1       1.593  -1.824  -0.954  0.00  0.00     0.002 A 
ATOM      4  C4  N4B d   1       1.907  -0.716  -1.726  0.00  0.00    -0.004 A 
ATOM      5  C5  N4B d   1       1.266   0.469  -1.511  0.00  0.00     0.002 A 
ATOM      6  C6  N4B d   1       0.273   0.577  -0.558  0.00  0.00     0.002 A 
ENDROOT
BRANCH   1   7
ATOM      7  C1' N4B d   1      -1.219  -0.383   1.159  0.00  0.00     0.057 C 
BRANCH   7   8
ATOM      8  C2' N4B d   1      -1.692   1.067   1.189  0.00  0.00     0.009 C 
BRANCH   8   9
ATOM      9  C3' N4B d   1      -1.932   1.558   2.606  0.00  0.00     0.004 C 
ATOM     10  C4' N4B d   1      -1.835   0.462   3.625  0.00  0.00     0.003 C 
ENDBRANCH   8   9
ENDBRANCH   7   8
ENDBRANCH   1   7
TORSDOF 3
ENDMDL
