MODEL 1
REMARK minimizedAffinity -5.49102879
REMARK minimizedRMSD -1
REMARK  3 active torsions:
REMARK  status: ('A' for Active; 'I' for Inactive)
REMARK    1  A    between atoms: C3'_2  and  C2'_3 
REMARK    2  A    between atoms: C2'_3  and  C1'_4 
REMARK    3  A    between atoms: C1'_4  and  C1_5 
ROOT
ATOM      1  C1  N4B d   1      -0.185   0.037  -0.359  0.00  0.00    -0.075 A 
ATOM      2  C2  N4B d   1       0.789   0.679  -1.156  0.00  0.00     0.002 A 
ATOM      3  C3  N4B d   1       1.945   0.019  -1.492  0.00  0.00     0.002 A 
ATOM      4  C4  N4B d   1       2.158  -1.271  -1.029  0.00  0.00    -0.004 A 
ATOM      5  C5  N4B d   1       1.201  -1.893  -0.281  0.00  0.00     0.002 A 
ATOM      6  C6  N4B d   1       0.032  -1.243   0.060  0.00  0.00     0.002 A 
ENDROOT
BRANCH   1   7
ATOM      7  C1' N4B d   1      -1.426   0.749   0.105  0.00  0.00     0.057 C 
BRANCH   7   8
ATOM      8  C2' N4B d   1      -1.761   0.298   1.523  0.00  0.00     0.009 C 
BRANCH   8   9
ATOM      9  C3' N4B d   1      -1.402   1.354   2.555  0.00  0.00     0.004 C 
ATOM     10  C4' N4B d   1      -1.726   0.931   3.956  0.00  0.00     0.003 C 
ENDBRANCH   8   9
ENDBRANCH   7   8
ENDBRANCH   1   7
TORSDOF 3
ENDMDL
