MODEL 1
REMARK minimizedAffinity -1.59800029
REMARK minimizedRMSD -1
REMARK  3 active torsions:
REMARK  status: ('A' for Active; 'I' for Inactive)
REMARK    1  A    between atoms: C3'_2  and  C2'_3 
REMARK    2  A    between atoms: C2'_3  and  C1'_4 
REMARK    3  A    between atoms: C1'_4  and  C1_5 
ROOT
ATOM      1  C1  N4B d   1      -0.763   0.850   2.357  0.00  0.00    -0.075 A 
ATOM      2  C2  N4B d   1      -0.898   0.038   1.210  0.00  0.00     0.002 A 
ATOM      3  C3  N4B d   1      -0.676   0.568  -0.037  0.00  0.00     0.002 A 
ATOM      4  C4  N4B d   1      -0.339   1.907  -0.163  0.00  0.00    -0.004 A 
ATOM      5  C5  N4B d   1      -0.186   2.679   0.952  0.00  0.00     0.002 A 
ATOM      6  C6  N4B d   1      -0.402   2.158   2.212  0.00  0.00     0.002 A 
ENDROOT
BRANCH   1   7
ATOM      7  C1' N4B d   1      -1.079   0.337   3.736  0.00  0.00     0.057 C 
BRANCH   7   8
ATOM      8  C2' N4B d   1      -2.579   0.465   3.986  0.00  0.00     0.009 C 
BRANCH   8   9
ATOM      9  C3' N4B d   1      -3.388   0.237   2.720  0.00  0.00     0.004 C 
ATOM     10  C4' N4B d   1      -4.083  -1.091   2.707  0.00  0.00     0.003 C 
ENDBRANCH   8   9
ENDBRANCH   7   8
ENDBRANCH   1   7
TORSDOF 3
ENDMDL
