MODEL 1
REMARK minimizedAffinity -4.06656218
REMARK minimizedRMSD -1
REMARK  3 active torsions:
REMARK  status: ('A' for Active; 'I' for Inactive)
REMARK    1  A    between atoms: C3'_2  and  C2'_3 
REMARK    2  A    between atoms: C2'_3  and  C1'_4 
REMARK    3  A    between atoms: C1'_4  and  C1_5 
ROOT
ATOM      1  C1  N4B d   1      -1.401   0.407   1.167  0.00  0.00    -0.075 A 
ATOM      2  C2  N4B d   1      -2.404  -0.363   1.794  0.00  0.00     0.002 A 
ATOM      3  C3  N4B d   1      -2.707  -0.150   3.117  0.00  0.00     0.002 A 
ATOM      4  C4  N4B d   1      -2.009   0.811   3.834  0.00  0.00    -0.004 A 
ATOM      5  C5  N4B d   1      -1.059   1.568   3.213  0.00  0.00     0.002 A 
ATOM      6  C6  N4B d   1      -0.748   1.368   1.884  0.00  0.00     0.002 A 
ENDROOT
BRANCH   1   7
ATOM      7  C1' N4B d   1      -0.975   0.152  -0.254  0.00  0.00     0.057 C 
BRANCH   7   8
ATOM      8  C2' N4B d   1       0.535   0.342  -0.366  0.00  0.00     0.009 C 
BRANCH   8   9
ATOM      9  C3' N4B d   1       1.283  -0.976  -0.257  0.00  0.00     0.004 C 
ATOM     10  C4' N4B d   1       2.352  -1.124  -1.297  0.00  0.00     0.003 C 
ENDBRANCH   8   9
ENDBRANCH   7   8
ENDBRANCH   1   7
TORSDOF 3
ENDMDL
