MODEL 1
REMARK minimizedAffinity -5.18680191
REMARK minimizedRMSD -1
REMARK  3 active torsions:
REMARK  status: ('A' for Active; 'I' for Inactive)
REMARK    1  A    between atoms: C3'_2  and  C2'_3 
REMARK    2  A    between atoms: C2'_3  and  C1'_4 
REMARK    3  A    between atoms: C1'_4  and  C1_5 
ROOT
ATOM      1  C1  N4B d   1       0.716  -0.550  -0.416  0.00  0.00    -0.075 A 
ATOM      2  C2  N4B d   1       1.679  -1.542  -0.701  0.00  0.00     0.002 A 
ATOM      3  C3  N4B d   1       2.492  -1.414  -1.801  0.00  0.00     0.002 A 
ATOM      4  C4  N4B d   1       2.346  -0.317  -2.637  0.00  0.00    -0.004 A 
ATOM      5  C5  N4B d   1       1.430   0.649  -2.340  0.00  0.00     0.002 A 
ATOM      6  C6  N4B d   1       0.610   0.535  -1.236  0.00  0.00     0.002 A 
ENDROOT
BRANCH   1   7
ATOM      7  C1' N4B d   1      -0.253  -0.689   0.727  0.00  0.00     0.057 C 
BRANCH   7   8
ATOM      8  C2' N4B d   1      -1.253   0.462   0.678  0.00  0.00     0.009 C 
BRANCH   8   9
ATOM      9  C3' N4B d   1      -2.302   0.350   1.772  0.00  0.00     0.004 C 
ATOM     10  C4' N4B d   1      -2.066   1.305   2.903  0.00  0.00     0.003 C 
ENDBRANCH   8   9
ENDBRANCH   7   8
ENDBRANCH   1   7
TORSDOF 3
ENDMDL
