MODEL 1
REMARK minimizedAffinity 0.681558609
REMARK minimizedRMSD -1
REMARK  3 active torsions:
REMARK  status: ('A' for Active; 'I' for Inactive)
REMARK    1  A    between atoms: C3'_2  and  C2'_3 
REMARK    2  A    between atoms: C2'_3  and  C1'_4 
REMARK    3  A    between atoms: C1'_4  and  C1_5 
ROOT
ATOM      1  C1  N4B d   1       1.526  -0.751  -1.795  0.00  0.00    -0.075 A 
ATOM      2  C2  N4B d   1       0.467  -0.122  -1.103  0.00  0.00     0.002 A 
ATOM      3  C3  N4B d   1      -0.041  -0.692   0.038  0.00  0.00     0.002 A 
ATOM      4  C4  N4B d   1       0.479  -1.895   0.495  0.00  0.00    -0.004 A 
ATOM      5  C5  N4B d   1       1.518  -2.482  -0.165  0.00  0.00     0.002 A 
ATOM      6  C6  N4B d   1       2.041  -1.919  -1.312  0.00  0.00     0.002 A 
ENDROOT
BRANCH   1   7
ATOM      7  C1' N4B d   1       2.057  -0.210  -3.095  0.00  0.00     0.057 C 
BRANCH   7   8
ATOM      8  C2' N4B d   1       1.477   1.181  -3.332  0.00  0.00     0.009 C 
BRANCH   8   9
ATOM      9  C3' N4B d   1       1.413   1.525  -4.811  0.00  0.00     0.004 C 
ATOM     10  C4' N4B d   1       1.369   0.310  -5.688  0.00  0.00     0.003 C 
ENDBRANCH   8   9
ENDBRANCH   7   8
ENDBRANCH   1   7
TORSDOF 3
ENDMDL
