MODEL 1
REMARK minimizedAffinity -4.27636433
REMARK minimizedRMSD -1
REMARK  3 active torsions:
REMARK  status: ('A' for Active; 'I' for Inactive)
REMARK    1  A    between atoms: C3'_2  and  C2'_3 
REMARK    2  A    between atoms: C2'_3  and  C1'_4 
REMARK    3  A    between atoms: C1'_4  and  C1_5 
ROOT
ATOM      1  C1  N4B d   1       0.392  -0.215  -0.584  0.00  0.00    -0.075 A 
ATOM      2  C2  N4B d   1       1.454  -0.982  -1.112  0.00  0.00     0.002 A 
ATOM      3  C3  N4B d   1       2.192  -0.498  -2.164  0.00  0.00     0.002 A 
ATOM      4  C4  N4B d   1       1.877   0.735  -2.715  0.00  0.00    -0.004 A 
ATOM      5  C5  N4B d   1       0.866   1.481  -2.182  0.00  0.00     0.002 A 
ATOM      6  C6  N4B d   1       0.118   1.009  -1.122  0.00  0.00     0.002 A 
ENDROOT
BRANCH   1   7
ATOM      7  C1' N4B d   1      -0.499  -0.739   0.510  0.00  0.00     0.057 C 
BRANCH   7   8
ATOM      8  C2' N4B d   1      -1.153   0.437   1.229  0.00  0.00     0.009 C 
BRANCH   8   9
ATOM      9  C3' N4B d   1      -1.966  -0.013   2.430  0.00  0.00     0.004 C 
ATOM     10  C4' N4B d   1      -1.620   0.739   3.681  0.00  0.00     0.003 C 
ENDBRANCH   8   9
ENDBRANCH   7   8
ENDBRANCH   1   7
TORSDOF 3
ENDMDL
