MODEL 1
REMARK minimizedAffinity 3.85224748
REMARK minimizedRMSD -1
REMARK  0 active torsions:
REMARK  status: ('A' for Active; 'I' for Inactive)
ROOT
ATOM      1  C1  DEN d   1       0.635   2.432  -1.183  0.00  0.00     0.130 A 
ATOM      2  C2  DEN d   1       0.123   1.083  -0.959  0.00  0.00    -0.031 A 
ATOM      3  C3  DEN d   1      -0.221   0.957   0.471  0.00  0.00     0.027 A 
ATOM      4  C4  DEN d   1      -0.017   2.712   2.350  0.00  0.00     0.027 A 
ATOM      5  C5  DEN d   1       0.376   3.998   2.647  0.00  0.00    -0.003 A 
ATOM      6  C6  DEN d   1       0.909   4.835   1.702  0.00  0.00     0.001 A 
ATOM      7  C7  DEN d   1       1.023   4.409   0.405  0.00  0.00     0.017 A 
ATOM      8  C8  DEN d   1       0.636   3.111   0.100  0.00  0.00    -0.094 A 
ATOM      9  C9  DEN d   1       0.088   2.285   1.066  0.00  0.00    -0.072 A 
ENDROOT
TORSDOF 0
ENDMDL
