MODEL 1
REMARK minimizedAffinity -3.23947763
REMARK minimizedRMSD -1
REMARK  0 active torsions:
REMARK  status: ('A' for Active; 'I' for Inactive)
ROOT
ATOM      1  C1  DEN d   1      -5.719   4.512  -4.661  0.00  0.00     0.130 A 
ATOM      2  C2  DEN d   1      -5.226   3.709  -5.777  0.00  0.00    -0.031 A 
ATOM      3  C3  DEN d   1      -4.692   2.446  -5.229  0.00  0.00     0.027 A 
ATOM      4  C4  DEN d   1      -4.587   1.657  -2.776  0.00  0.00     0.027 A 
ATOM      5  C5  DEN d   1      -4.873   2.000  -1.473  0.00  0.00    -0.003 A 
ATOM      6  C6  DEN d   1      -5.426   3.209  -1.141  0.00  0.00     0.001 A 
ATOM      7  C7  DEN d   1      -5.751   4.101  -2.129  0.00  0.00     0.017 A 
ATOM      8  C8  DEN d   1      -5.459   3.765  -3.444  0.00  0.00    -0.094 A 
ATOM      9  C9  DEN d   1      -4.911   2.533  -3.760  0.00  0.00    -0.072 A 
ENDROOT
TORSDOF 0
ENDMDL
