MODEL 1
REMARK minimizedAffinity 1.4430449
REMARK minimizedRMSD -1
REMARK  0 active torsions:
REMARK  status: ('A' for Active; 'I' for Inactive)
ROOT
ATOM      1  C1  DEN d   1      -4.136   1.125  -2.402  0.00  0.00     0.130 A 
ATOM      2  C2  DEN d   1      -4.472   2.294  -1.593  0.00  0.00    -0.031 A 
ATOM      3  C3  DEN d   1      -5.258   3.220  -2.433  0.00  0.00     0.027 A 
ATOM      4  C4  DEN d   1      -5.987   2.957  -4.893  0.00  0.00     0.027 A 
ATOM      5  C5  DEN d   1      -5.928   2.139  -6.000  0.00  0.00    -0.003 A 
ATOM      6  C6  DEN d   1      -5.245   0.952  -5.995  0.00  0.00     0.001 A 
ATOM      7  C7  DEN d   1      -4.631   0.527  -4.847  0.00  0.00     0.017 A 
ATOM      8  C8  DEN d   1      -4.679   1.349  -3.729  0.00  0.00    -0.094 A 
ATOM      9  C9  DEN d   1      -5.385   2.540  -3.751  0.00  0.00    -0.072 A 
ENDROOT
TORSDOF 0
ENDMDL
