MODEL 1
REMARK minimizedAffinity 0.69472909
REMARK minimizedRMSD -1
REMARK  0 active torsions:
REMARK  status: ('A' for Active; 'I' for Inactive)
ROOT
ATOM      1  C1  DEN d   1      -4.272   1.415  -4.369  0.00  0.00     0.130 A 
ATOM      2  C2  DEN d   1      -5.163   0.619  -5.209  0.00  0.00    -0.031 A 
ATOM      3  C3  DEN d   1      -6.000   1.547  -5.995  0.00  0.00     0.027 A 
ATOM      4  C4  DEN d   1      -5.998   4.127  -5.998  0.00  0.00     0.027 A 
ATOM      5  C5  DEN d   1      -5.426   5.249  -5.442  0.00  0.00    -0.003 A 
ATOM      6  C6  DEN d   1      -4.460   5.174  -4.474  0.00  0.00     0.001 A 
ATOM      7  C7  DEN d   1      -4.006   3.948  -4.063  0.00  0.00     0.017 A 
ATOM      8  C8  DEN d   1      -4.584   2.812  -4.613  0.00  0.00    -0.094 A 
ATOM      9  C9  DEN d   1      -5.550   2.909  -5.600  0.00  0.00    -0.072 A 
ENDROOT
TORSDOF 0
ENDMDL
