MODEL 1
REMARK minimizedAffinity 2.28555369
REMARK minimizedRMSD -1
REMARK  0 active torsions:
REMARK  status: ('A' for Active; 'I' for Inactive)
ROOT
ATOM      1  C1  DEN d   1       3.259  -4.226  -1.048  0.00  0.00     0.130 A 
ATOM      2  C2  DEN d   1       4.667  -4.161  -1.430  0.00  0.00    -0.031 A 
ATOM      3  C3  DEN d   1       4.735  -3.858  -2.874  0.00  0.00     0.027 A 
ATOM      4  C4  DEN d   1       2.807  -3.478  -4.544  0.00  0.00     0.027 A 
ATOM      5  C5  DEN d   1       1.438  -3.443  -4.689  0.00  0.00    -0.003 A 
ATOM      6  C6  DEN d   1       0.587  -3.697  -3.646  0.00  0.00     0.001 A 
ATOM      7  C7  DEN d   1       1.096  -3.954  -2.401  0.00  0.00     0.017 A 
ATOM      8  C8  DEN d   1       2.476  -3.999  -2.249  0.00  0.00    -0.094 A 
ATOM      9  C9  DEN d   1       3.320  -3.727  -3.312  0.00  0.00    -0.072 A 
ENDROOT
TORSDOF 0
ENDMDL
