MODEL 1
REMARK minimizedAffinity -0.505523682
REMARK minimizedRMSD -1
REMARK  0 active torsions:
REMARK  status: ('A' for Active; 'I' for Inactive)
ROOT
ATOM      1  C1  DEN d   1       0.860   2.473  -1.036  0.00  0.00     0.130 A 
ATOM      2  C2  DEN d   1       0.482   1.164  -0.511  0.00  0.00    -0.031 A 
ATOM      3  C3  DEN d   1       0.074   1.338   0.898  0.00  0.00     0.027 A 
ATOM      4  C4  DEN d   1      -0.014   3.496   2.307  0.00  0.00     0.027 A 
ATOM      5  C5  DEN d   1       0.223   4.853   2.299  0.00  0.00    -0.003 A 
ATOM      6  C6  DEN d   1       0.717   5.501   1.197  0.00  0.00     0.001 A 
ATOM      7  C7  DEN d   1       0.947   4.799   0.044  0.00  0.00     0.017 A 
ATOM      8  C8  DEN d   1       0.718   3.429   0.047  0.00  0.00    -0.094 A 
ATOM      9  C9  DEN d   1       0.207   2.795   1.167  0.00  0.00    -0.072 A 
ENDROOT
TORSDOF 0
ENDMDL
