MODEL 1
REMARK minimizedAffinity 4.71243429
REMARK minimizedRMSD -1
REMARK  0 active torsions:
REMARK  status: ('A' for Active; 'I' for Inactive)
ROOT
ATOM      1  C1  DEN d   1      -4.945   4.617  -5.999  0.00  0.00     0.130 A 
ATOM      2  C2  DEN d   1      -6.000   3.607  -6.000  0.00  0.00    -0.031 A 
ATOM      3  C3  DEN d   1      -5.576   2.504  -5.113  0.00  0.00     0.027 A 
ATOM      4  C4  DEN d   1      -3.404   2.267  -3.743  0.00  0.00     0.027 A 
ATOM      5  C5  DEN d   1      -2.203   2.864  -3.431  0.00  0.00    -0.003 A 
ATOM      6  C6  DEN d   1      -1.819   4.061  -3.976  0.00  0.00     0.001 A 
ATOM      7  C7  DEN d   1      -2.666   4.722  -4.826  0.00  0.00     0.017 A 
ATOM      8  C8  DEN d   1      -3.875   4.123  -5.151  0.00  0.00    -0.094 A 
ATOM      9  C9  DEN d   1      -4.250   2.918  -4.581  0.00  0.00    -0.072 A 
ENDROOT
TORSDOF 0
ENDMDL
