MODEL 1
REMARK minimizedAffinity 4.39778042
REMARK minimizedRMSD -1
REMARK  0 active torsions:
REMARK  status: ('A' for Active; 'I' for Inactive)
ROOT
ATOM      1  C1  DEN d   1      -0.419  -0.797  -0.165  0.00  0.00     0.130 A 
ATOM      2  C2  DEN d   1       0.977  -0.942   0.238  0.00  0.00    -0.031 A 
ATOM      3  C3  DEN d   1       1.714   0.247  -0.235  0.00  0.00     0.027 A 
ATOM      4  C4  DEN d   1       0.833   2.290  -1.539  0.00  0.00     0.027 A 
ATOM      5  C5  DEN d   1      -0.281   2.858  -2.117  0.00  0.00    -0.003 A 
ATOM      6  C6  DEN d   1      -1.502   2.236  -2.114  0.00  0.00     0.001 A 
ATOM      7  C7  DEN d   1      -1.648   1.030  -1.482  0.00  0.00     0.017 A 
ATOM      8  C8  DEN d   1      -0.527   0.448  -0.904  0.00  0.00    -0.094 A 
ATOM      9  C9  DEN d   1       0.695   1.098  -0.906  0.00  0.00    -0.072 A 
ENDROOT
TORSDOF 0
ENDMDL
