MODEL 1
REMARK minimizedAffinity 7.618155
REMARK minimizedRMSD -1
REMARK  0 active torsions:
REMARK  status: ('A' for Active; 'I' for Inactive)
ROOT
ATOM      1  C1  DEN d   1      -4.310   0.176  -3.948  0.00  0.00     0.130 A 
ATOM      2  C2  DEN d   1      -3.881   0.470  -2.584  0.00  0.00    -0.031 A 
ATOM      3  C3  DEN d   1      -4.254   1.866  -2.279  0.00  0.00     0.027 A 
ATOM      4  C4  DEN d   1      -5.451   3.590  -3.778  0.00  0.00     0.027 A 
ATOM      5  C5  DEN d   1      -6.000   3.806  -5.022  0.00  0.00    -0.003 A 
ATOM      6  C6  DEN d   1      -5.994   2.847  -6.000  0.00  0.00     0.001 A 
ATOM      7  C7  DEN d   1      -5.467   1.610  -5.734  0.00  0.00     0.017 A 
ATOM      8  C8  DEN d   1      -4.905   1.387  -4.484  0.00  0.00    -0.094 A 
ATOM      9  C9  DEN d   1      -4.932   2.366  -3.505  0.00  0.00    -0.072 A 
ENDROOT
TORSDOF 0
ENDMDL
