MODEL 1
REMARK minimizedAffinity 1.29481387
REMARK minimizedRMSD -1
REMARK  0 active torsions:
REMARK  status: ('A' for Active; 'I' for Inactive)
ROOT
ATOM      1  C1  DEN d   1      -0.844  -2.915   5.938  0.00  0.00     0.130 A 
ATOM      2  C2  DEN d   1      -2.160  -2.374   5.609  0.00  0.00    -0.031 A 
ATOM      3  C3  DEN d   1      -2.081  -1.767   4.265  0.00  0.00     0.027 A 
ATOM      4  C4  DEN d   1      -0.062  -1.618   2.668  0.00  0.00     0.027 A 
ATOM      5  C5  DEN d   1       1.272  -1.926   2.513  0.00  0.00    -0.003 A 
ATOM      6  C6  DEN d   1       1.996  -2.549   3.494  0.00  0.00     0.001 A 
ATOM      7  C7  DEN d   1       1.379  -2.926   4.658  0.00  0.00     0.017 A 
ATOM      8  C8  DEN d   1       0.037  -2.613   4.824  0.00  0.00    -0.094 A 
ATOM      9  C9  DEN d   1      -0.681  -1.993   3.816  0.00  0.00    -0.072 A 
ENDROOT
TORSDOF 0
ENDMDL
