MODEL 1
REMARK minimizedAffinity -0.44662416
REMARK minimizedRMSD -1
REMARK  0 active torsions:
REMARK  status: ('A' for Active; 'I' for Inactive)
ROOT
ATOM      1  C1  DEN d   1      -0.042  -2.341  -3.337  0.00  0.00     0.130 A 
ATOM      2  C2  DEN d   1       0.405  -3.504  -2.576  0.00  0.00    -0.031 A 
ATOM      3  C3  DEN d   1       0.795  -3.046  -1.227  0.00  0.00     0.027 A 
ATOM      4  C4  DEN d   1       0.744  -0.660  -0.247  0.00  0.00     0.027 A 
ATOM      5  C5  DEN d   1       0.452   0.658  -0.518  0.00  0.00    -0.003 A 
ATOM      6  C6  DEN d   1       0.011   1.071  -1.747  0.00  0.00     0.001 A 
ATOM      7  C7  DEN d   1      -0.194   0.150  -2.739  0.00  0.00     0.017 A 
ATOM      8  C8  DEN d   1       0.105  -1.181  -2.477  0.00  0.00    -0.094 A 
ATOM      9  C9  DEN d   1       0.538  -1.580  -1.224  0.00  0.00    -0.072 A 
ENDROOT
TORSDOF 0
ENDMDL
