MODEL 1
REMARK minimizedAffinity 4.99818563
REMARK minimizedRMSD -1
REMARK  0 active torsions:
REMARK  status: ('A' for Active; 'I' for Inactive)
ROOT
ATOM      1  C1  DEN d   1      -2.495   2.669  -3.004  0.00  0.00     0.130 A 
ATOM      2  C2  DEN d   1      -3.034   2.268  -1.708  0.00  0.00    -0.031 A 
ATOM      3  C3  DEN d   1      -4.508   2.304  -1.795  0.00  0.00     0.027 A 
ATOM      4  C4  DEN d   1      -6.000   2.933  -3.802  0.00  0.00     0.027 A 
ATOM      5  C5  DEN d   1      -5.998   3.354  -5.114  0.00  0.00    -0.003 A 
ATOM      6  C6  DEN d   1      -4.839   3.606  -5.798  0.00  0.00     0.001 A 
ATOM      7  C7  DEN d   1      -3.631   3.397  -5.187  0.00  0.00     0.017 A 
ATOM      8  C8  DEN d   1      -3.624   2.980  -3.863  0.00  0.00    -0.094 A 
ATOM      9  C9  DEN d   1      -4.807   2.718  -3.192  0.00  0.00    -0.072 A 
ENDROOT
TORSDOF 0
ENDMDL
