MODEL 1
REMARK minimizedAffinity 7.95359087
REMARK minimizedRMSD -1
REMARK  0 active torsions:
REMARK  status: ('A' for Active; 'I' for Inactive)
ROOT
ATOM      1  C1  DEN d   1      -5.998   3.749  -5.528  0.00  0.00     0.130 A 
ATOM      2  C2  DEN d   1      -5.117   4.809  -5.045  0.00  0.00    -0.031 A 
ATOM      3  C3  DEN d   1      -4.062   4.186  -4.221  0.00  0.00     0.027 A 
ATOM      4  C4  DEN d   1      -3.706   1.696  -3.652  0.00  0.00     0.027 A 
ATOM      5  C5  DEN d   1      -4.203   0.423  -3.823  0.00  0.00    -0.003 A 
ATOM      6  C6  DEN d   1      -5.344   0.175  -4.540  0.00  0.00     0.001 A 
ATOM      7  C7  DEN d   1      -6.000   1.211  -5.151  0.00  0.00     0.017 A 
ATOM      8  C8  DEN d   1      -5.508   2.498  -4.977  0.00  0.00    -0.094 A 
ATOM      9  C9  DEN d   1      -4.347   2.727  -4.258  0.00  0.00    -0.072 A 
ENDROOT
TORSDOF 0
ENDMDL
