MODEL 1
REMARK minimizedAffinity 5.22386885
REMARK minimizedRMSD -1
REMARK  0 active torsions:
REMARK  status: ('A' for Active; 'I' for Inactive)
ROOT
ATOM      1  C1  DEN d   1      -1.458   0.870   2.034  0.00  0.00     0.130 A 
ATOM      2  C2  DEN d   1      -0.366   0.460   2.913  0.00  0.00    -0.031 A 
ATOM      3  C3  DEN d   1       0.826   0.217   2.077  0.00  0.00     0.027 A 
ATOM      4  C4  DEN d   1       1.088   0.438  -0.480  0.00  0.00     0.027 A 
ATOM      5  C5  DEN d   1       0.434   0.746  -1.652  0.00  0.00    -0.003 A 
ATOM      6  C6  DEN d   1      -0.894   1.080  -1.682  0.00  0.00     0.001 A 
ATOM      7  C7  DEN d   1      -1.600   1.159  -0.511  0.00  0.00     0.017 A 
ATOM      8  C8  DEN d   1      -0.950   0.844   0.674  0.00  0.00    -0.094 A 
ATOM      9  C9  DEN d   1       0.396   0.520   0.685  0.00  0.00    -0.072 A 
ENDROOT
TORSDOF 0
ENDMDL
