MODEL 1
REMARK minimizedAffinity 7.5176301
REMARK minimizedRMSD -1
REMARK  1 active torsions:
REMARK  status: ('A' for Active; 'I' for Inactive)
REMARK    1  A    between atoms: N_2  and  C1_3 
ROOT
ATOM      1  C1  UNL d   1       0.197   0.956   3.264  0.00  0.00     0.143 A 
ATOM      2  C2  UNL d   1       0.385   2.239   3.789  0.00  0.00    -0.057 A 
ATOM      3  C3  UNL d   1      -0.293   3.345   3.262  0.00  0.00     0.033 A 
ATOM      4  C4  UNL d   1      -1.152   3.191   2.179  0.00  0.00    -0.042 A 
ATOM      5  C5  UNL d   1      -1.336   1.929   1.626  0.00  0.00     0.033 A 
ATOM      6  C6  UNL d   1      -0.661   0.827   2.160  0.00  0.00    -0.057 A 
ENDROOT
BRANCH   1   7
ATOM      7  N   UNL d   1       0.916  -0.168   3.680  0.00  0.00    -0.732 N 
ATOM      8  C   UNL d   1       0.460  -1.500   3.345  0.00  0.00     0.284 C 
ATOM      9  H3  UNL d   1       1.921  -0.038   3.595  0.00  0.00     0.395 HD
ENDBRANCH   1   7
TORSDOF 1
ENDMDL
