MODEL 1
REMARK minimizedAffinity 7.31693506
REMARK minimizedRMSD -1
REMARK  1 active torsions:
REMARK  status: ('A' for Active; 'I' for Inactive)
REMARK    1  A    between atoms: N_2  and  C1_3 
ROOT
ATOM      1  C1  UNL d   1       3.288  -0.467  -0.809  0.00  0.00     0.143 A 
ATOM      2  C2  UNL d   1       2.470  -1.284  -0.020  0.00  0.00    -0.057 A 
ATOM      3  C3  UNL d   1       2.092  -2.562  -0.448  0.00  0.00     0.033 A 
ATOM      4  C4  UNL d   1       2.503  -3.037  -1.689  0.00  0.00    -0.042 A 
ATOM      5  C5  UNL d   1       3.296  -2.233  -2.500  0.00  0.00     0.033 A 
ATOM      6  C6  UNL d   1       3.675  -0.960  -2.065  0.00  0.00    -0.057 A 
ENDROOT
BRANCH   1   7
ATOM      7  N   UNL d   1       3.616   0.851  -0.483  0.00  0.00    -0.732 N 
ATOM      8  C   UNL d   1       4.965   1.342  -0.670  0.00  0.00     0.284 C 
ATOM      9  H3  UNL d   1       2.892   1.511  -0.757  0.00  0.00     0.395 HD
ENDBRANCH   1   7
TORSDOF 1
ENDMDL
