MODEL 1
REMARK minimizedAffinity 4.44849586
REMARK minimizedRMSD -1
REMARK  1 active torsions:
REMARK  status: ('A' for Active; 'I' for Inactive)
REMARK    1  A    between atoms: N_2  and  C1_3 
ROOT
ATOM      1  C1  UNL d   1       1.239  -2.556  -0.779  0.00  0.00     0.143 A 
ATOM      2  C2  UNL d   1       0.615  -3.752  -0.410  0.00  0.00    -0.057 A 
ATOM      3  C3  UNL d   1      -0.563  -4.179  -1.035  0.00  0.00     0.033 A 
ATOM      4  C4  UNL d   1      -1.155  -3.400  -2.023  0.00  0.00    -0.042 A 
ATOM      5  C5  UNL d   1      -0.565  -2.195  -2.389  0.00  0.00     0.033 A 
ATOM      6  C6  UNL d   1       0.615  -1.777  -1.766  0.00  0.00    -0.057 A 
ENDROOT
BRANCH   1   7
ATOM      7  N   UNL d   1       2.357  -2.029  -0.128  0.00  0.00    -0.732 N 
ATOM      8  C   UNL d   1       2.962  -0.795  -0.583  0.00  0.00     0.284 C 
ATOM      9  H3  UNL d   1       2.292  -2.111   0.884  0.00  0.00     0.395 HD
ENDBRANCH   1   7
TORSDOF 1
ENDMDL
