MODEL 1
REMARK minimizedAffinity 0.772354722
REMARK minimizedRMSD -1
REMARK  1 active torsions:
REMARK  status: ('A' for Active; 'I' for Inactive)
REMARK    1  A    between atoms: N_2  and  C1_3 
ROOT
ATOM      1  C1  UNL d   1      -2.173   2.062   2.018  0.00  0.00     0.143 A 
ATOM      2  C2  UNL d   1      -1.977   3.435   1.833  0.00  0.00    -0.057 A 
ATOM      3  C3  UNL d   1      -3.050   4.291   1.556  0.00  0.00     0.033 A 
ATOM      4  C4  UNL d   1      -4.338   3.782   1.430  0.00  0.00    -0.042 A 
ATOM      5  C5  UNL d   1      -4.553   2.418   1.584  0.00  0.00     0.033 A 
ATOM      6  C6  UNL d   1      -3.479   1.569   1.867  0.00  0.00    -0.057 A 
ENDROOT
BRANCH   1   7
ATOM      7  N   UNL d   1      -1.135   1.145   2.197  0.00  0.00    -0.732 N 
ATOM      8  C   UNL d   1      -0.201   1.295   3.293  0.00  0.00     0.284 C 
ATOM      9  H3  UNL d   1      -1.430   0.186   2.031  0.00  0.00     0.395 HD
ENDBRANCH   1   7
TORSDOF 1
ENDMDL
