MODEL 1
REMARK minimizedAffinity 3.78937268
REMARK minimizedRMSD -1
REMARK  1 active torsions:
REMARK  status: ('A' for Active; 'I' for Inactive)
REMARK    1  A    between atoms: N_2  and  C1_3 
ROOT
ATOM      1  C1  UNL d   1      -4.921   2.088  -2.739  0.00  0.00     0.143 A 
ATOM      2  C2  UNL d   1      -3.605   1.751  -3.070  0.00  0.00    -0.057 A 
ATOM      3  C3  UNL d   1      -2.926   0.728  -2.396  0.00  0.00     0.033 A 
ATOM      4  C4  UNL d   1      -3.545   0.042  -1.356  0.00  0.00    -0.042 A 
ATOM      5  C5  UNL d   1      -4.845   0.378  -0.993  0.00  0.00     0.033 A 
ATOM      6  C6  UNL d   1      -5.519   1.396  -1.675  0.00  0.00    -0.057 A 
ENDROOT
BRANCH   1   7
ATOM      7  N   UNL d   1      -5.615   3.161  -3.306  0.00  0.00    -0.732 N 
ATOM      8  C   UNL d   1      -4.937   4.406  -3.597  0.00  0.00     0.284 C 
ATOM      9  H3  UNL d   1      -6.267   2.863  -4.028  0.00  0.00     0.395 HD
ENDBRANCH   1   7
TORSDOF 1
ENDMDL
