MODEL 1
REMARK minimizedAffinity 5.56543827
REMARK minimizedRMSD -1
REMARK  1 active torsions:
REMARK  status: ('A' for Active; 'I' for Inactive)
REMARK    1  A    between atoms: N_2  and  C1_3 
ROOT
ATOM      1  C1  UNL d   1       2.593  -0.701  -0.981  0.00  0.00     0.143 A 
ATOM      2  C2  UNL d   1       3.067  -1.704  -0.129  0.00  0.00    -0.057 A 
ATOM      3  C3  UNL d   1       2.408  -2.934  -0.018  0.00  0.00     0.033 A 
ATOM      4  C4  UNL d   1       1.242  -3.173  -0.737  0.00  0.00    -0.042 A 
ATOM      5  C5  UNL d   1       0.738  -2.181  -1.571  0.00  0.00     0.033 A 
ATOM      6  C6  UNL d   1       1.405  -0.957  -1.683  0.00  0.00    -0.057 A 
ENDROOT
BRANCH   1   7
ATOM      7  N   UNL d   1       3.147   0.578  -1.061  0.00  0.00    -0.732 N 
ATOM      8  C   UNL d   1       4.582   0.757  -1.120  0.00  0.00     0.284 C 
ATOM      9  H3  UNL d   1       2.626   1.189  -1.686  0.00  0.00     0.395 HD
ENDBRANCH   1   7
TORSDOF 1
ENDMDL
