MODEL 1
REMARK minimizedAffinity -4.16447973
REMARK minimizedRMSD -1
REMARK  1 active torsions:
REMARK  status: ('A' for Active; 'I' for Inactive)
REMARK    1  A    between atoms: C1_2  and  C2_3 
ROOT
ATOM      1  C2  UNL d   1      -0.023  -0.494   0.721  0.00  0.00    -0.081 A 
ATOM      2  C3  UNL d   1      -0.425   0.533  -0.142  0.00  0.00     0.006 A 
ATOM      3  C4  UNL d   1       0.326   1.707  -0.245  0.00  0.00     0.002 A 
ATOM      4  C5  UNL d   1       1.494   1.870   0.508  0.00  0.00    -0.080 A 
ATOM      5  C6  UNL d   1       2.325   3.112   0.385  0.00  0.00     0.076 C 
ATOM      6  C7  UNL d   1       1.886   0.852   1.383  0.00  0.00     0.002 A 
ATOM      7  C8  UNL d   1       1.135  -0.322   1.486  0.00  0.00     0.006 A 
ENDROOT
BRANCH   1   8
ATOM      8  C1  UNL d   1      -0.795  -1.787   0.785  0.00  0.00     0.054 C 
ATOM      9  C   UNL d   1       0.139  -2.989   0.790  0.00  0.00     0.018 C 
ENDBRANCH   1   8
TORSDOF 1
ENDMDL
