MODEL 1
REMARK minimizedAffinity -3.07729745
REMARK minimizedRMSD -1
REMARK  1 active torsions:
REMARK  status: ('A' for Active; 'I' for Inactive)
REMARK    1  A    between atoms: C1_2  and  C2_3 
ROOT
ATOM      1  C2  UNL d   1       0.534   1.499  -0.015  0.00  0.00    -0.081 A 
ATOM      2  C3  UNL d   1       0.303   0.689  -1.133  0.00  0.00     0.006 A 
ATOM      3  C4  UNL d   1      -0.102  -0.638  -0.975  0.00  0.00     0.002 A 
ATOM      4  C5  UNL d   1      -0.289  -1.176   0.303  0.00  0.00    -0.080 A 
ATOM      5  C6  UNL d   1      -0.752  -2.590   0.487  0.00  0.00     0.076 C 
ATOM      6  C7  UNL d   1      -0.041  -0.372   1.421  0.00  0.00     0.002 A 
ATOM      7  C8  UNL d   1       0.364   0.956   1.263  0.00  0.00     0.006 A 
ENDROOT
BRANCH   1   8
ATOM      8  C1  UNL d   1       0.907   2.950  -0.183  0.00  0.00     0.054 C 
ATOM      9  C   UNL d   1       2.384   3.106  -0.518  0.00  0.00     0.018 C 
ENDBRANCH   1   8
TORSDOF 1
ENDMDL
