MODEL 1
REMARK minimizedAffinity -4.09685183
REMARK minimizedRMSD -1
REMARK  1 active torsions:
REMARK  status: ('A' for Active; 'I' for Inactive)
REMARK    1  A    between atoms: C1_2  and  C2_3 
ROOT
ATOM      1  C2  UNL d   1      -0.091   0.264  -1.037  0.00  0.00    -0.081 A 
ATOM      2  C3  UNL d   1      -0.371  -0.170   0.264  0.00  0.00     0.006 A 
ATOM      3  C4  UNL d   1      -0.413  -1.534   0.562  0.00  0.00     0.002 A 
ATOM      4  C5  UNL d   1      -0.168  -2.486  -0.433  0.00  0.00    -0.080 A 
ATOM      5  C6  UNL d   1      -0.180  -3.952  -0.120  0.00  0.00     0.076 C 
ATOM      6  C7  UNL d   1       0.095  -2.052  -1.737  0.00  0.00     0.002 A 
ATOM      7  C8  UNL d   1       0.136  -0.689  -2.036  0.00  0.00     0.006 A 
ENDROOT
BRANCH   1   8
ATOM      8  C1  UNL d   1       0.019   1.735  -1.347  0.00  0.00     0.054 C 
ATOM      9  C   UNL d   1       0.687   2.493  -0.208  0.00  0.00     0.018 C 
ENDBRANCH   1   8
TORSDOF 1
ENDMDL
