MODEL 1
REMARK minimizedAffinity -4.93246269
REMARK minimizedRMSD -1
REMARK  1 active torsions:
REMARK  status: ('A' for Active; 'I' for Inactive)
REMARK    1  A    between atoms: C1_2  and  C2_3 
ROOT
ATOM      1  C2  UNL d   1      -0.575  -0.494  -0.019  0.00  0.00    -0.081 A 
ATOM      2  C3  UNL d   1      -0.417   0.557  -0.930  0.00  0.00     0.006 A 
ATOM      3  C4  UNL d   1       0.078   0.314  -2.214  0.00  0.00     0.002 A 
ATOM      4  C5  UNL d   1       0.415  -0.984  -2.610  0.00  0.00    -0.080 A 
ATOM      5  C6  UNL d   1       0.918  -1.263  -3.995  0.00  0.00     0.076 C 
ATOM      6  C7  UNL d   1       0.273  -2.033  -1.695  0.00  0.00     0.002 A 
ATOM      7  C8  UNL d   1      -0.221  -1.790  -0.411  0.00  0.00     0.006 A 
ENDROOT
BRANCH   1   8
ATOM      8  C1  UNL d   1      -1.169  -0.245   1.343  0.00  0.00     0.054 C 
ATOM      9  C   UNL d   1      -2.324   0.744   1.271  0.00  0.00     0.018 C 
ENDBRANCH   1   8
TORSDOF 1
ENDMDL
