MODEL 1
REMARK minimizedAffinity -3.94114089
REMARK minimizedRMSD -1
REMARK  1 active torsions:
REMARK  status: ('A' for Active; 'I' for Inactive)
REMARK    1  A    between atoms: C1_2  and  C2_3 
ROOT
ATOM      1  C2  UNL d   1       0.449   1.984  -0.189  0.00  0.00    -0.081 A 
ATOM      2  C3  UNL d   1      -0.288   1.466  -1.261  0.00  0.00     0.006 A 
ATOM      3  C4  UNL d   1      -0.643   0.115  -1.291  0.00  0.00     0.002 A 
ATOM      4  C5  UNL d   1      -0.272  -0.738  -0.246  0.00  0.00    -0.080 A 
ATOM      5  C6  UNL d   1      -0.672  -2.184  -0.251  0.00  0.00     0.076 C 
ATOM      6  C7  UNL d   1       0.479  -0.226   0.816  0.00  0.00     0.002 A 
ATOM      7  C8  UNL d   1       0.834   1.125   0.846  0.00  0.00     0.006 A 
ENDROOT
BRANCH   1   8
ATOM      8  C1  UNL d   1       0.777   3.453  -0.123  0.00  0.00     0.054 C 
ATOM      9  C   UNL d   1       2.279   3.689  -0.189  0.00  0.00     0.018 C 
ENDBRANCH   1   8
TORSDOF 1
ENDMDL
