MODEL 1
REMARK minimizedAffinity -2.84108043
REMARK minimizedRMSD -1
REMARK  1 active torsions:
REMARK  status: ('A' for Active; 'I' for Inactive)
REMARK    1  A    between atoms: C1_2  and  C2_3 
ROOT
ATOM      1  C2  UNL d   1       0.650   1.610   0.363  0.00  0.00    -0.081 A 
ATOM      2  C3  UNL d   1       0.985   0.769   1.431  0.00  0.00     0.006 A 
ATOM      3  C4  UNL d   1       0.363  -0.473   1.576  0.00  0.00     0.002 A 
ATOM      4  C5  UNL d   1      -0.598  -0.898   0.652  0.00  0.00    -0.080 A 
ATOM      5  C6  UNL d   1      -1.251  -2.242   0.779  0.00  0.00     0.076 C 
ATOM      6  C7  UNL d   1      -0.945  -0.050  -0.405  0.00  0.00     0.002 A 
ATOM      7  C8  UNL d   1      -0.324   1.192  -0.550  0.00  0.00     0.006 A 
ENDROOT
BRANCH   1   8
ATOM      8  C1  UNL d   1       1.366   2.923   0.168  0.00  0.00     0.054 C 
ATOM      9  C   UNL d   1       2.188   3.292   1.394  0.00  0.00     0.018 C 
ENDBRANCH   1   8
TORSDOF 1
ENDMDL
