MODEL 1
REMARK minimizedAffinity -4.834795
REMARK minimizedRMSD -1
REMARK  1 active torsions:
REMARK  status: ('A' for Active; 'I' for Inactive)
REMARK    1  A    between atoms: C1_2  and  C2_3 
ROOT
ATOM      1  C2  UNL d   1      -0.823  -2.015  -0.818  0.00  0.00    -0.081 A 
ATOM      2  C3  UNL d   1      -0.357  -1.283  -1.917  0.00  0.00     0.006 A 
ATOM      3  C4  UNL d   1      -0.128   0.091  -1.807  0.00  0.00     0.002 A 
ATOM      4  C5  UNL d   1      -0.354   0.753  -0.595  0.00  0.00    -0.080 A 
ATOM      5  C6  UNL d   1      -0.083   2.222  -0.455  0.00  0.00     0.076 C 
ATOM      6  C7  UNL d   1      -0.836   0.025   0.497  0.00  0.00     0.002 A 
ATOM      7  C8  UNL d   1      -1.066  -1.348   0.388  0.00  0.00     0.006 A 
ENDROOT
BRANCH   1   8
ATOM      8  C1  UNL d   1      -1.009  -3.508  -0.915  0.00  0.00     0.054 C 
ATOM      9  C   UNL d   1      -0.942  -4.164   0.456  0.00  0.00     0.018 C 
ENDBRANCH   1   8
TORSDOF 1
ENDMDL
