MODEL 1
REMARK minimizedAffinity -5.78714705
REMARK minimizedRMSD -1
REMARK  1 active torsions:
REMARK  status: ('A' for Active; 'I' for Inactive)
REMARK    1  A    between atoms: C1_2  and  C2_3 
ROOT
ATOM      1  C2  UNL d   1       0.315  -2.015  -1.270  0.00  0.00    -0.081 A 
ATOM      2  C3  UNL d   1       1.250  -1.848  -0.241  0.00  0.00     0.006 A 
ATOM      3  C4  UNL d   1       1.463  -0.588   0.324  0.00  0.00     0.002 A 
ATOM      4  C5  UNL d   1       0.741   0.523  -0.124  0.00  0.00    -0.080 A 
ATOM      5  C6  UNL d   1       0.939   1.875   0.495  0.00  0.00     0.076 C 
ATOM      6  C7  UNL d   1      -0.180   0.359  -1.164  0.00  0.00     0.002 A 
ATOM      7  C8  UNL d   1      -0.394  -0.900  -1.730  0.00  0.00     0.006 A 
ENDROOT
BRANCH   1   8
ATOM      8  C1  UNL d   1       0.036  -3.383  -1.837  0.00  0.00     0.054 C 
ATOM      9  C   UNL d   1      -1.456  -3.687  -1.840  0.00  0.00     0.018 C 
ENDBRANCH   1   8
TORSDOF 1
ENDMDL
