MODEL 1
REMARK minimizedAffinity -4.71442986
REMARK minimizedRMSD -1
REMARK  1 active torsions:
REMARK  status: ('A' for Active; 'I' for Inactive)
REMARK    1  A    between atoms: C1_2  and  C2_3 
ROOT
ATOM      1  C2  UNL d   1      -0.056   0.372   0.110  0.00  0.00    -0.081 A 
ATOM      2  C3  UNL d   1      -0.652  -0.365   1.141  0.00  0.00     0.006 A 
ATOM      3  C4  UNL d   1      -0.656  -1.761   1.103  0.00  0.00     0.002 A 
ATOM      4  C5  UNL d   1      -0.057  -2.444   0.038  0.00  0.00    -0.080 A 
ATOM      5  C6  UNL d   1      -0.028  -3.943   0.001  0.00  0.00     0.076 C 
ATOM      6  C7  UNL d   1       0.523  -1.708  -1.000  0.00  0.00     0.002 A 
ATOM      7  C8  UNL d   1       0.526  -0.312  -0.963  0.00  0.00     0.006 A 
ENDROOT
BRANCH   1   8
ATOM      8  C1  UNL d   1       0.007   1.876   0.180  0.00  0.00     0.054 C 
ATOM      9  C   UNL d   1       1.362   2.351   0.685  0.00  0.00     0.018 C 
ENDBRANCH   1   8
TORSDOF 1
ENDMDL
