MODEL 1
REMARK minimizedAffinity -3.43633723
REMARK minimizedRMSD -1
REMARK  3 active torsions:
REMARK  status: ('A' for Active; 'I' for Inactive)
REMARK    1  A    between atoms: C3'_2  and  C2'_3 
REMARK    2  A    between atoms: C2'_3  and  C1'_4 
REMARK    3  A    between atoms: C1'_4  and  C1_5 
ROOT
ATOM      1  C1  N4B d   1       0.151   0.089   0.228  0.00  0.00    -0.075 A 
ATOM      2  C2  N4B d   1      -1.055  -0.414   0.763  0.00  0.00     0.002 A 
ATOM      3  C3  N4B d   1      -1.616   0.178   1.868  0.00  0.00     0.002 A 
ATOM      4  C4  N4B d   1      -0.981   1.258   2.463  0.00  0.00    -0.004 A 
ATOM      5  C5  N4B d   1       0.171   1.753   1.926  0.00  0.00     0.002 A 
ATOM      6  C6  N4B d   1       0.743   1.170   0.813  0.00  0.00     0.002 A 
ENDROOT
BRANCH   1   7
ATOM      7  C1' N4B d   1       0.847  -0.579  -0.927  0.00  0.00     0.057 C 
BRANCH   7   8
ATOM      8  C2' N4B d   1       0.201  -0.122  -2.232  0.00  0.00     0.009 C 
BRANCH   8   9
ATOM      9  C3' N4B d   1       1.231   0.376  -3.231  0.00  0.00     0.004 C 
ATOM     10  C4' N4B d   1       0.694   1.448  -4.133  0.00  0.00     0.003 C 
ENDBRANCH   8   9
ENDBRANCH   7   8
ENDBRANCH   1   7
TORSDOF 3
ENDMDL
