MODEL 1
REMARK minimizedAffinity -5.11629868
REMARK minimizedRMSD -1
REMARK  3 active torsions:
REMARK  status: ('A' for Active; 'I' for Inactive)
REMARK    1  A    between atoms: C3'_2  and  C2'_3 
REMARK    2  A    between atoms: C2'_3  and  C1'_4 
REMARK    3  A    between atoms: C1'_4  and  C1_5 
ROOT
ATOM      1  C1  N4B d   1       0.028   0.036   0.246  0.00  0.00    -0.075 A 
ATOM      2  C2  N4B d   1       0.527   0.457   1.498  0.00  0.00     0.002 A 
ATOM      3  C3  N4B d   1      -0.281   1.161   2.357  0.00  0.00     0.002 A 
ATOM      4  C4  N4B d   1      -1.579   1.469   1.980  0.00  0.00    -0.004 A 
ATOM      5  C5  N4B d   1      -2.061   1.037   0.779  0.00  0.00     0.002 A 
ATOM      6  C6  N4B d   1      -1.262   0.326  -0.093  0.00  0.00     0.002 A 
ENDROOT
BRANCH   1   7
ATOM      7  C1' N4B d   1       0.900  -0.660  -0.763  0.00  0.00     0.057 C 
BRANCH   7   8
ATOM      8  C2' N4B d   1       0.473  -0.244  -2.167  0.00  0.00     0.009 C 
BRANCH   8   9
ATOM      9  C3' N4B d   1       1.596   0.447  -2.921  0.00  0.00     0.004 C 
ATOM     10  C4' N4B d   1       1.109   1.574  -3.784  0.00  0.00     0.003 C 
ENDBRANCH   8   9
ENDBRANCH   7   8
ENDBRANCH   1   7
TORSDOF 3
ENDMDL
