MODEL 1
REMARK minimizedAffinity -3.14732027
REMARK minimizedRMSD -1
REMARK  0 active torsions:
REMARK  status: ('A' for Active; 'I' for Inactive)
ROOT
ATOM      1  C1  DEN d   1       1.155   1.562  -0.188  0.00  0.00     0.130 A 
ATOM      2  C2  DEN d   1       0.069   1.328  -1.136  0.00  0.00    -0.031 A 
ATOM      3  C3  DEN d   1      -0.751   0.212  -0.625  0.00  0.00     0.027 A 
ATOM      4  C4  DEN d   1      -0.451  -1.167   1.533  0.00  0.00     0.027 A 
ATOM      5  C5  DEN d   1       0.334  -1.346   2.651  0.00  0.00    -0.003 A 
ATOM      6  C6  DEN d   1       1.458  -0.597   2.882  0.00  0.00     0.001 A 
ATOM      7  C7  DEN d   1       1.803   0.397   2.004  0.00  0.00     0.017 A 
ATOM      8  C8  DEN d   1       1.020   0.578   0.871  0.00  0.00    -0.094 A 
ATOM      9  C9  DEN d   1      -0.118  -0.181   0.662  0.00  0.00    -0.072 A 
ENDROOT
TORSDOF 0
ENDMDL
