MODEL 1
REMARK minimizedAffinity -1.83538508
REMARK minimizedRMSD -1
REMARK  0 active torsions:
REMARK  status: ('A' for Active; 'I' for Inactive)
ROOT
ATOM      1  C1  DEN d   1       2.158  -2.594   1.025  0.00  0.00     0.130 A 
ATOM      2  C2  DEN d   1       1.767  -1.197   0.855  0.00  0.00    -0.031 A 
ATOM      3  C3  DEN d   1       0.632  -0.927   1.760  0.00  0.00     0.027 A 
ATOM      4  C4  DEN d   1      -0.548  -2.526   3.405  0.00  0.00     0.027 A 
ATOM      5  C5  DEN d   1      -0.577  -3.814   3.892  0.00  0.00    -0.003 A 
ATOM      6  C6  DEN d   1       0.274  -4.786   3.437  0.00  0.00     0.001 A 
ATOM      7  C7  DEN d   1       1.221  -4.474   2.498  0.00  0.00     0.017 A 
ATOM      8  C8  DEN d   1       1.252  -3.180   1.996  0.00  0.00    -0.094 A 
ATOM      9  C9  DEN d   1       0.391  -2.208   2.478  0.00  0.00    -0.072 A 
ENDROOT
TORSDOF 0
ENDMDL
