MODEL 1
REMARK minimizedAffinity -3.51950455
REMARK minimizedRMSD -1
REMARK  0 active torsions:
REMARK  status: ('A' for Active; 'I' for Inactive)
ROOT
ATOM      1  C1  DEN d   1       1.586   0.843  -0.388  0.00  0.00     0.130 A 
ATOM      2  C2  DEN d   1       0.371   1.150  -1.138  0.00  0.00    -0.031 A 
ATOM      3  C3  DEN d   1      -0.774   0.568  -0.410  0.00  0.00     0.027 A 
ATOM      4  C4  DEN d   1      -0.785  -0.768   1.796  0.00  0.00     0.027 A 
ATOM      5  C5  DEN d   1       0.006  -1.291   2.795  0.00  0.00    -0.003 A 
ATOM      6  C6  DEN d   1       1.370  -1.170   2.786  0.00  0.00     0.001 A 
ATOM      7  C7  DEN d   1       1.982  -0.471   1.780  0.00  0.00     0.017 A 
ATOM      8  C8  DEN d   1       1.193   0.053   0.765  0.00  0.00    -0.094 A 
ATOM      9  C9  DEN d   1      -0.186  -0.069   0.799  0.00  0.00    -0.072 A 
ENDROOT
TORSDOF 0
ENDMDL
