MODEL 1
REMARK minimizedAffinity -4.00793314
REMARK minimizedRMSD -1
REMARK  0 active torsions:
REMARK  status: ('A' for Active; 'I' for Inactive)
ROOT
ATOM      1  C1  DEN d   1       0.156  -0.880   2.762  0.00  0.00     0.130 A 
ATOM      2  C2  DEN d   1       1.584  -0.591   2.656  0.00  0.00    -0.031 A 
ATOM      3  C3  DEN d   1       1.883  -0.280   1.243  0.00  0.00     0.027 A 
ATOM      4  C4  DEN d   1       0.282  -0.215  -0.778  0.00  0.00     0.027 A 
ATOM      5  C5  DEN d   1      -1.021  -0.400  -1.185  0.00  0.00    -0.003 A 
ATOM      6  C6  DEN d   1      -2.008  -0.788  -0.318  0.00  0.00     0.001 A 
ATOM      7  C7  DEN d   1      -1.717  -0.960   1.010  0.00  0.00     0.017 A 
ATOM      8  C8  DEN d   1      -0.404  -0.782   1.426  0.00  0.00    -0.094 A 
ATOM      9  C9  DEN d   1       0.578  -0.378   0.536  0.00  0.00    -0.072 A 
ENDROOT
TORSDOF 0
ENDMDL
