MODEL 1
REMARK minimizedAffinity -0.113706231
REMARK minimizedRMSD -1
REMARK  0 active torsions:
REMARK  status: ('A' for Active; 'I' for Inactive)
ROOT
ATOM      1  C1  DEN d   1       1.280  -1.903   2.209  0.00  0.00     0.130 A 
ATOM      2  C2  DEN d   1       0.427  -1.919   3.395  0.00  0.00    -0.031 A 
ATOM      3  C3  DEN d   1      -0.781  -1.123   3.099  0.00  0.00     0.027 A 
ATOM      4  C4  DEN d   1      -1.414   0.121   0.930  0.00  0.00     0.027 A 
ATOM      5  C5  DEN d   1      -1.001   0.433  -0.346  0.00  0.00    -0.003 A 
ATOM      6  C6  DEN d   1       0.206   0.020  -0.845  0.00  0.00     0.001 A 
ATOM      7  C7  DEN d   1       1.023  -0.767  -0.078  0.00  0.00     0.017 A 
ATOM      8  C8  DEN d   1       0.618  -1.079   1.213  0.00  0.00    -0.094 A 
ATOM      9  C9  DEN d   1      -0.612  -0.662   1.695  0.00  0.00    -0.072 A 
ENDROOT
TORSDOF 0
ENDMDL
