MODEL 1
REMARK minimizedAffinity 5.64379787
REMARK minimizedRMSD -1
REMARK  2 active torsions:
REMARK  status: ('A' for Active; 'I' for Inactive)
REMARK    1  A    between atoms: C1_2  and  C2_3 
REMARK    2  A    between atoms: C2_3  and  C3_4 
ROOT
ATOM      1  C3  UNL d   1       1.744   1.809   1.966  0.00  0.00    -0.075 A 
ATOM      2  C4  UNL d   1       2.865   2.295   1.278  0.00  0.00     0.002 A 
ATOM      3  C5  UNL d   1       3.282   1.696   0.089  0.00  0.00     0.002 A 
ATOM      4  C6  UNL d   1       2.591   0.599  -0.421  0.00  0.00    -0.004 A 
ATOM      5  C7  UNL d   1       1.486   0.097   0.262  0.00  0.00     0.002 A 
ATOM      6  C8  UNL d   1       1.064   0.697   1.450  0.00  0.00     0.002 A 
ENDROOT
BRANCH   1   7
ATOM      7  C2  UNL d   1       1.270   2.471   3.237  0.00  0.00     0.056 C 
BRANCH   7   8
ATOM      8  C1  UNL d   1       0.403   1.571   4.124  0.00  0.00     0.007 C 
ATOM      9  C   UNL d   1       0.639   1.789   5.613  0.00  0.00     0.009 C 
ENDBRANCH   7   8
ENDBRANCH   1   7
TORSDOF 2
ENDMDL
