MODEL 1
REMARK minimizedAffinity 16.1862011
REMARK minimizedRMSD -1
REMARK  2 active torsions:
REMARK  status: ('A' for Active; 'I' for Inactive)
REMARK    1  A    between atoms: C1_2  and  C2_3 
REMARK    2  A    between atoms: C2_3  and  C3_4 
ROOT
ATOM      1  C3  UNL d   1       2.815   1.525  -0.755  0.00  0.00    -0.075 A 
ATOM      2  C4  UNL d   1       2.060   0.344  -0.767  0.00  0.00     0.002 A 
ATOM      3  C5  UNL d   1       0.704   0.367  -0.440  0.00  0.00     0.002 A 
ATOM      4  C6  UNL d   1       0.089   1.567  -0.089  0.00  0.00    -0.004 A 
ATOM      5  C7  UNL d   1       0.834   2.744  -0.059  0.00  0.00     0.002 A 
ATOM      6  C8  UNL d   1       2.190   2.725  -0.389  0.00  0.00     0.002 A 
ENDROOT
BRANCH   1   7
ATOM      7  C2  UNL d   1       4.277   1.512  -1.136  0.00  0.00     0.056 C 
BRANCH   7   8
ATOM      8  C1  UNL d   1       4.747   2.783  -1.852  0.00  0.00     0.007 C 
ATOM      9  C   UNL d   1       5.993   3.397  -1.228  0.00  0.00     0.009 C 
ENDBRANCH   7   8
ENDBRANCH   1   7
TORSDOF 2
ENDMDL
