MODEL 1
REMARK minimizedAffinity 8.90845394
REMARK minimizedRMSD -1
REMARK  2 active torsions:
REMARK  status: ('A' for Active; 'I' for Inactive)
REMARK    1  A    between atoms: C1_2  and  C2_3 
REMARK    2  A    between atoms: C2_3  and  C3_4 
ROOT
ATOM      1  C3  UNL d   1       4.085   3.836   3.185  0.00  0.00    -0.075 A 
ATOM      2  C4  UNL d   1       3.581   5.041   3.696  0.00  0.00     0.002 A 
ATOM      3  C5  UNL d   1       3.964   5.490   4.960  0.00  0.00     0.002 A 
ATOM      4  C6  UNL d   1       4.846   4.736   5.732  0.00  0.00    -0.004 A 
ATOM      5  C7  UNL d   1       5.340   3.530   5.241  0.00  0.00     0.002 A 
ATOM      6  C8  UNL d   1       4.961   3.081   3.975  0.00  0.00     0.002 A 
ENDROOT
BRANCH   1   7
ATOM      7  C2  UNL d   1       3.697   3.360   1.805  0.00  0.00     0.056 C 
BRANCH   7   8
ATOM      8  C1  UNL d   1       2.217   2.990   1.666  0.00  0.00     0.007 C 
ATOM      9  C   UNL d   1       1.896   2.275   0.361  0.00  0.00     0.009 C 
ENDBRANCH   7   8
ENDBRANCH   1   7
TORSDOF 2
ENDMDL
