MODEL 1
REMARK minimizedAffinity 10.0847082
REMARK minimizedRMSD -1
REMARK  2 active torsions:
REMARK  status: ('A' for Active; 'I' for Inactive)
REMARK    1  A    between atoms: C1_2  and  C2_3 
REMARK    2  A    between atoms: C2_3  and  C3_4 
ROOT
ATOM      1  C3  UNL d   1       2.605  -1.244  -0.063  0.00  0.00    -0.075 A 
ATOM      2  C4  UNL d   1       1.744  -0.155   0.141  0.00  0.00     0.002 A 
ATOM      3  C5  UNL d   1       1.955   0.725   1.203  0.00  0.00     0.002 A 
ATOM      4  C6  UNL d   1       3.019   0.523   2.079  0.00  0.00    -0.004 A 
ATOM      5  C7  UNL d   1       3.870  -0.565   1.896  0.00  0.00     0.002 A 
ATOM      6  C8  UNL d   1       3.665  -1.445   0.832  0.00  0.00     0.002 A 
ENDROOT
BRANCH   1   7
ATOM      7  C2  UNL d   1       2.400  -2.183  -1.227  0.00  0.00     0.056 C 
BRANCH   7   8
ATOM      8  C1  UNL d   1       3.148  -1.771  -2.499  0.00  0.00     0.007 C 
ATOM      9  C   UNL d   1       3.624  -0.325  -2.475  0.00  0.00     0.009 C 
ENDBRANCH   7   8
ENDBRANCH   1   7
TORSDOF 2
ENDMDL
