MODEL 1
REMARK minimizedAffinity 6.3022213
REMARK minimizedRMSD -1
REMARK  2 active torsions:
REMARK  status: ('A' for Active; 'I' for Inactive)
REMARK    1  A    between atoms: C1_2  and  C2_3 
REMARK    2  A    between atoms: C2_3  and  C3_4 
ROOT
ATOM      1  C3  UNL d   1       3.269   1.236  -0.438  0.00  0.00    -0.075 A 
ATOM      2  C4  UNL d   1       4.071   1.273  -1.589  0.00  0.00     0.002 A 
ATOM      3  C5  UNL d   1       5.131   2.175  -1.684  0.00  0.00     0.002 A 
ATOM      4  C6  UNL d   1       5.396   3.056  -0.639  0.00  0.00    -0.004 A 
ATOM      5  C7  UNL d   1       4.596   3.039   0.502  0.00  0.00     0.002 A 
ATOM      6  C8  UNL d   1       3.538   2.135   0.602  0.00  0.00     0.002 A 
ENDROOT
BRANCH   1   7
ATOM      7  C2  UNL d   1       2.139   0.242  -0.316  0.00  0.00     0.056 C 
BRANCH   7   8
ATOM      8  C1  UNL d   1       2.535  -1.198  -0.658  0.00  0.00     0.007 C 
ATOM      9  C   UNL d   1       1.897  -2.231   0.263  0.00  0.00     0.009 C 
ENDBRANCH   7   8
ENDBRANCH   1   7
TORSDOF 2
ENDMDL
