MODEL 1
REMARK minimizedAffinity 4.65128422
REMARK minimizedRMSD -1
REMARK  2 active torsions:
REMARK  status: ('A' for Active; 'I' for Inactive)
REMARK    1  A    between atoms: C1_2  and  C2_3 
REMARK    2  A    between atoms: C2_3  and  C3_4 
ROOT
ATOM      1  C3  UNL d   1       3.411   1.331  -0.419  0.00  0.00    -0.075 A 
ATOM      2  C4  UNL d   1       4.130   1.442  -1.618  0.00  0.00     0.002 A 
ATOM      3  C5  UNL d   1       5.226   2.300  -1.709  0.00  0.00     0.002 A 
ATOM      4  C6  UNL d   1       5.611   3.063  -0.609  0.00  0.00    -0.004 A 
ATOM      5  C7  UNL d   1       4.895   2.972   0.582  0.00  0.00     0.002 A 
ATOM      6  C8  UNL d   1       3.799   2.112   0.678  0.00  0.00     0.002 A 
ENDROOT
BRANCH   1   7
ATOM      7  C2  UNL d   1       2.241   0.383  -0.304  0.00  0.00     0.056 C 
BRANCH   7   8
ATOM      8  C1  UNL d   1       2.611  -1.091  -0.504  0.00  0.00     0.007 C 
ATOM      9  C   UNL d   1       2.622  -1.888   0.794  0.00  0.00     0.009 C 
ENDBRANCH   7   8
ENDBRANCH   1   7
TORSDOF 2
ENDMDL
