MODEL 1
REMARK minimizedAffinity 12.1153994
REMARK minimizedRMSD -1
REMARK  2 active torsions:
REMARK  status: ('A' for Active; 'I' for Inactive)
REMARK    1  A    between atoms: C1_2  and  C2_3 
REMARK    2  A    between atoms: C2_3  and  C3_4 
ROOT
ATOM      1  C3  UNL d   1       4.634   0.292   0.340  0.00  0.00    -0.075 A 
ATOM      2  C4  UNL d   1       4.404   1.296  -0.612  0.00  0.00     0.002 A 
ATOM      3  C5  UNL d   1       3.142   1.450  -1.187  0.00  0.00     0.002 A 
ATOM      4  C6  UNL d   1       2.100   0.599  -0.827  0.00  0.00    -0.004 A 
ATOM      5  C7  UNL d   1       2.321  -0.412   0.106  0.00  0.00     0.002 A 
ATOM      6  C8  UNL d   1       3.582  -0.566   0.686  0.00  0.00     0.002 A 
ENDROOT
BRANCH   1   7
ATOM      7  C2  UNL d   1       5.989   0.138   0.987  0.00  0.00     0.056 C 
BRANCH   7   8
ATOM      8  C1  UNL d   1       5.999  -0.803   2.197  0.00  0.00     0.007 C 
ATOM      9  C   UNL d   1       5.999  -0.068   3.530  0.00  0.00     0.009 C 
ENDBRANCH   7   8
ENDBRANCH   1   7
TORSDOF 2
ENDMDL
