MODEL 1
REMARK minimizedAffinity 16.1465778
REMARK minimizedRMSD -1
REMARK  2 active torsions:
REMARK  status: ('A' for Active; 'I' for Inactive)
REMARK    1  A    between atoms: C1_2  and  C2_3 
REMARK    2  A    between atoms: C2_3  and  C3_4 
ROOT
ATOM      1  C3  UNL d   1      -3.594   0.762  -3.993  0.00  0.00    -0.075 A 
ATOM      2  C4  UNL d   1      -3.563   1.532  -5.164  0.00  0.00     0.002 A 
ATOM      3  C5  UNL d   1      -4.682   1.604  -5.995  0.00  0.00     0.002 A 
ATOM      4  C6  UNL d   1      -5.840   0.900  -5.671  0.00  0.00    -0.004 A 
ATOM      5  C7  UNL d   1      -5.876   0.118  -4.519  0.00  0.00     0.002 A 
ATOM      6  C8  UNL d   1      -4.760   0.048  -3.683  0.00  0.00     0.002 A 
ENDROOT
BRANCH   1   7
ATOM      7  C2  UNL d   1      -2.397   0.704  -3.074  0.00  0.00     0.056 C 
BRANCH   7   8
ATOM      8  C1  UNL d   1      -2.644  -0.072  -1.776  0.00  0.00     0.007 C 
ATOM      9  C   UNL d   1      -3.014   0.824  -0.602  0.00  0.00     0.009 C 
ENDBRANCH   7   8
ENDBRANCH   1   7
TORSDOF 2
ENDMDL
