MODEL 1
REMARK minimizedAffinity 4.8120594
REMARK minimizedRMSD -1
REMARK  2 active torsions:
REMARK  status: ('A' for Active; 'I' for Inactive)
REMARK    1  A    between atoms: C1_2  and  C2_3 
REMARK    2  A    between atoms: C2_3  and  C3_4 
ROOT
ATOM      1  C3  UNL d   1       4.323   3.747   5.317  0.00  0.00    -0.075 A 
ATOM      2  C4  UNL d   1       4.004   4.077   3.992  0.00  0.00     0.002 A 
ATOM      3  C5  UNL d   1       4.634   5.149   3.358  0.00  0.00     0.002 A 
ATOM      4  C6  UNL d   1       5.580   5.909   4.042  0.00  0.00    -0.004 A 
ATOM      5  C7  UNL d   1       5.893   5.600   5.364  0.00  0.00     0.002 A 
ATOM      6  C8  UNL d   1       5.268   4.525   6.000  0.00  0.00     0.002 A 
ENDROOT
BRANCH   1   7
ATOM      7  C2  UNL d   1       3.667   2.571   6.000  0.00  0.00     0.056 C 
BRANCH   7   8
ATOM      8  C1  UNL d   1       2.451   2.014   5.251  0.00  0.00     0.007 C 
ATOM      9  C   UNL d   1       1.800   0.833   5.958  0.00  0.00     0.009 C 
ENDBRANCH   7   8
ENDBRANCH   1   7
TORSDOF 2
ENDMDL
