MODEL 1
REMARK minimizedAffinity -0.896627665
REMARK minimizedRMSD -1
REMARK  2 active torsions:
REMARK  status: ('A' for Active; 'I' for Inactive)
REMARK    1  A    between atoms: C1_2  and  C2_3 
REMARK    2  A    between atoms: C2_3  and  C3_4 
ROOT
ATOM      1  C3  UNL d   1       2.672   0.703  -0.609  0.00  0.00    -0.075 A 
ATOM      2  C4  UNL d   1       1.563   1.553  -0.495  0.00  0.00     0.002 A 
ATOM      3  C5  UNL d   1       0.268   1.035  -0.508  0.00  0.00     0.002 A 
ATOM      4  C6  UNL d   1       0.066  -0.337  -0.646  0.00  0.00    -0.004 A 
ATOM      5  C7  UNL d   1       1.159  -1.189  -0.777  0.00  0.00     0.002 A 
ATOM      6  C8  UNL d   1       2.457  -0.673  -0.760  0.00  0.00     0.002 A 
ENDROOT
BRANCH   1   7
ATOM      7  C2  UNL d   1       4.077   1.255  -0.565  0.00  0.00     0.056 C 
BRANCH   7   8
ATOM      8  C1  UNL d   1       4.548   1.868  -1.889  0.00  0.00     0.007 C 
ATOM      9  C   UNL d   1       5.814   2.702  -1.747  0.00  0.00     0.009 C 
ENDBRANCH   7   8
ENDBRANCH   1   7
TORSDOF 2
ENDMDL
