MODEL 1
REMARK minimizedAffinity 6.64370489
REMARK minimizedRMSD -1
REMARK  2 active torsions:
REMARK  status: ('A' for Active; 'I' for Inactive)
REMARK    1  A    between atoms: C1_2  and  C2_3 
REMARK    2  A    between atoms: C2_3  and  C3_4 
ROOT
ATOM      1  C3  UNL d   1       2.847   3.226   4.806  0.00  0.00    -0.075 A 
ATOM      2  C4  UNL d   1       3.543   3.443   3.608  0.00  0.00     0.002 A 
ATOM      3  C5  UNL d   1       4.761   4.124   3.609  0.00  0.00     0.002 A 
ATOM      4  C6  UNL d   1       5.292   4.605   4.804  0.00  0.00    -0.004 A 
ATOM      5  C7  UNL d   1       4.601   4.409   5.998  0.00  0.00     0.002 A 
ATOM      6  C8  UNL d   1       3.385   3.724   6.000  0.00  0.00     0.002 A 
ENDROOT
BRANCH   1   7
ATOM      7  C2  UNL d   1       1.544   2.464   4.815  0.00  0.00     0.056 C 
BRANCH   7   8
ATOM      8  C1  UNL d   1       0.317   3.323   4.491  0.00  0.00     0.007 C 
ATOM      9  C   UNL d   1       0.001   3.380   3.002  0.00  0.00     0.009 C 
ENDBRANCH   7   8
ENDBRANCH   1   7
TORSDOF 2
ENDMDL
