MODEL 1
REMARK minimizedAffinity -3.91038632
REMARK minimizedRMSD -1
REMARK  2 active torsions:
REMARK  status: ('A' for Active; 'I' for Inactive)
REMARK    1  A    between atoms: C1_2  and  C2_3 
REMARK    2  A    between atoms: C2_3  and  C3_4 
ROOT
ATOM      1  C3  UNL d   1       2.654   4.584   4.331  0.00  0.00    -0.075 A 
ATOM      2  C4  UNL d   1       3.170   4.068   3.134  0.00  0.00     0.002 A 
ATOM      3  C5  UNL d   1       4.548   3.959   2.945  0.00  0.00     0.002 A 
ATOM      4  C6  UNL d   1       5.426   4.373   3.943  0.00  0.00    -0.004 A 
ATOM      5  C7  UNL d   1       4.926   4.903   5.131  0.00  0.00     0.002 A 
ATOM      6  C8  UNL d   1       3.547   5.009   5.325  0.00  0.00     0.002 A 
ENDROOT
BRANCH   1   7
ATOM      7  C2  UNL d   1       1.164   4.678   4.554  0.00  0.00     0.056 C 
BRANCH   7   8
ATOM      8  C1  UNL d   1       0.620   3.663   5.566  0.00  0.00     0.007 C 
ATOM      9  C   UNL d   1       0.954   2.221   5.209  0.00  0.00     0.009 C 
ENDBRANCH   7   8
ENDBRANCH   1   7
TORSDOF 2
ENDMDL
