MODEL 1
REMARK minimizedAffinity 6.85460424
REMARK minimizedRMSD -1
REMARK  2 active torsions:
REMARK  status: ('A' for Active; 'I' for Inactive)
REMARK    1  A    between atoms: C1_2  and  C2_3 
REMARK    2  A    between atoms: C2_3  and  C3_4 
ROOT
ATOM      1  C3  UNL d   1       2.200   3.628   4.628  0.00  0.00    -0.075 A 
ATOM      2  C4  UNL d   1       2.154   3.336   3.257  0.00  0.00     0.002 A 
ATOM      3  C5  UNL d   1       3.139   3.819   2.396  0.00  0.00     0.002 A 
ATOM      4  C6  UNL d   1       4.176   4.607   2.891  0.00  0.00    -0.004 A 
ATOM      5  C7  UNL d   1       4.224   4.917   4.248  0.00  0.00     0.002 A 
ATOM      6  C8  UNL d   1       3.241   4.431   5.113  0.00  0.00     0.002 A 
ENDROOT
BRANCH   1   7
ATOM      7  C2  UNL d   1       1.153   3.084   5.570  0.00  0.00     0.056 C 
BRANCH   7   8
ATOM      8  C1  UNL d   1       0.021   2.323   4.872  0.00  0.00     0.007 C 
ATOM      9  C   UNL d   1       0.054   0.823   5.138  0.00  0.00     0.009 C 
ENDBRANCH   7   8
ENDBRANCH   1   7
TORSDOF 2
ENDMDL
