MODEL 1
REMARK minimizedAffinity 7.32009172
REMARK minimizedRMSD -1
REMARK  2 active torsions:
REMARK  status: ('A' for Active; 'I' for Inactive)
REMARK    1  A    between atoms: C1_2  and  C2_3 
REMARK    2  A    between atoms: C2_3  and  C3_4 
ROOT
ATOM      1  C3  UNL d   1       3.437   3.611   4.341  0.00  0.00    -0.075 A 
ATOM      2  C4  UNL d   1       3.038   3.337   3.024  0.00  0.00     0.002 A 
ATOM      3  C5  UNL d   1       1.738   2.911   2.753  0.00  0.00     0.002 A 
ATOM      4  C6  UNL d   1       0.825   2.744   3.791  0.00  0.00    -0.004 A 
ATOM      5  C7  UNL d   1       1.215   2.996   5.105  0.00  0.00     0.002 A 
ATOM      6  C8  UNL d   1       2.515   3.427   5.379  0.00  0.00     0.002 A 
ENDROOT
BRANCH   1   7
ATOM      7  C2  UNL d   1       4.835   4.100   4.638  0.00  0.00     0.056 C 
BRANCH   7   8
ATOM      8  C1  UNL d   1       4.977   4.789   6.000  0.00  0.00     0.007 C 
ATOM      9  C   UNL d   1       5.902   5.999   5.966  0.00  0.00     0.009 C 
ENDBRANCH   7   8
ENDBRANCH   1   7
TORSDOF 2
ENDMDL
