MODEL 1
REMARK minimizedAffinity 9.4634552
REMARK minimizedRMSD -1
REMARK  2 active torsions:
REMARK  status: ('A' for Active; 'I' for Inactive)
REMARK    1  A    between atoms: C1_2  and  C2_3 
REMARK    2  A    between atoms: C2_3  and  C3_4 
ROOT
ATOM      1  C3  UNL d   1       2.473   3.243   4.089  0.00  0.00    -0.075 A 
ATOM      2  C4  UNL d   1       2.656   3.365   5.474  0.00  0.00     0.002 A 
ATOM      3  C5  UNL d   1       3.811   3.958   5.986  0.00  0.00     0.002 A 
ATOM      4  C6  UNL d   1       4.799   4.425   5.123  0.00  0.00    -0.004 A 
ATOM      5  C7  UNL d   1       4.635   4.294   3.745  0.00  0.00     0.002 A 
ATOM      6  C8  UNL d   1       3.479   3.705   3.230  0.00  0.00     0.002 A 
ENDROOT
BRANCH   1   7
ATOM      7  C2  UNL d   1       1.212   2.629   3.528  0.00  0.00     0.056 C 
BRANCH   7   8
ATOM      8  C1  UNL d   1       0.089   2.463   4.556  0.00  0.00     0.007 C 
ATOM      9  C   UNL d   1       0.073   1.088   5.212  0.00  0.00     0.009 C 
ENDBRANCH   7   8
ENDBRANCH   1   7
TORSDOF 2
ENDMDL
