MODEL 1
REMARK minimizedAffinity 1.30085158
REMARK minimizedRMSD -1
REMARK  2 active torsions:
REMARK  status: ('A' for Active; 'I' for Inactive)
REMARK    1  A    between atoms: C1_2  and  C2_3 
REMARK    2  A    between atoms: C2_3  and  C3_4 
ROOT
ATOM      1  C3  UNL d   1       3.096   4.875   4.157  0.00  0.00    -0.075 A 
ATOM      2  C4  UNL d   1       4.327   4.324   3.770  0.00  0.00     0.002 A 
ATOM      3  C5  UNL d   1       5.485   4.598   4.498  0.00  0.00     0.002 A 
ATOM      4  C6  UNL d   1       5.430   5.431   5.613  0.00  0.00    -0.004 A 
ATOM      5  C7  UNL d   1       4.216   5.997   5.997  0.00  0.00     0.002 A 
ATOM      6  C8  UNL d   1       3.055   5.721   5.273  0.00  0.00     0.002 A 
ENDROOT
BRANCH   1   7
ATOM      7  C2  UNL d   1       1.833   4.559   3.391  0.00  0.00     0.056 C 
BRANCH   7   8
ATOM      8  C1  UNL d   1       1.665   3.075   3.051  0.00  0.00     0.007 C 
ATOM      9  C   UNL d   1       0.220   2.600   3.133  0.00  0.00     0.009 C 
ENDBRANCH   7   8
ENDBRANCH   1   7
TORSDOF 2
ENDMDL
