MODEL 1
REMARK minimizedAffinity 2.61139727
REMARK minimizedRMSD -1
REMARK  2 active torsions:
REMARK  status: ('A' for Active; 'I' for Inactive)
REMARK    1  A    between atoms: C1_2  and  C2_3 
REMARK    2  A    between atoms: C2_3  and  C3_4 
ROOT
ATOM      1  C3  UNL d   1       5.175   1.893  -2.177  0.00  0.00    -0.075 A 
ATOM      2  C4  UNL d   1       4.142   1.111  -2.713  0.00  0.00     0.002 A 
ATOM      3  C5  UNL d   1       3.413   0.245  -1.899  0.00  0.00     0.002 A 
ATOM      4  C6  UNL d   1       3.713   0.141  -0.542  0.00  0.00    -0.004 A 
ATOM      5  C7  UNL d   1       4.748   0.900  -0.002  0.00  0.00     0.002 A 
ATOM      6  C8  UNL d   1       5.477   1.771  -0.814  0.00  0.00     0.002 A 
ENDROOT
BRANCH   1   7
ATOM      7  C2  UNL d   1       5.948   2.854  -3.047  0.00  0.00     0.056 C 
BRANCH   7   8
ATOM      8  C1  UNL d   1       5.192   4.146  -3.375  0.00  0.00     0.007 C 
ATOM      9  C   UNL d   1       5.778   5.375  -2.693  0.00  0.00     0.009 C 
ENDBRANCH   7   8
ENDBRANCH   1   7
TORSDOF 2
ENDMDL
