MODEL 1
REMARK minimizedAffinity 13.1650171
REMARK minimizedRMSD -1
REMARK  0 active torsions:
REMARK  status: ('A' for Active; 'I' for Inactive)
ROOT
ATOM      1  C   UNL d   1      -1.876  -5.682   1.929  0.00  0.00     0.020 A 
ATOM      2  C1  UNL d   1      -2.971  -6.000   1.127  0.00  0.00     0.020 A 
ATOM      3  C2  UNL d   1      -3.332  -5.157   0.073  0.00  0.00     0.034 A 
ATOM      4  C3  UNL d   1      -2.599  -3.993  -0.180  0.00  0.00     0.017 A 
ATOM      5  C4  UNL d   1      -1.500  -3.674   0.626  0.00  0.00     0.017 A 
ATOM      6  C5  UNL d   1      -1.142  -4.521   1.679  0.00  0.00     0.034 A 
ATOM      7 Cl   UNL d   1      -0.547  -2.255   0.375  0.00  0.00    -0.070 Cl
ATOM      8 Cl1  UNL d   1      -3.103  -2.997  -1.500  0.00  0.00    -0.070 Cl
ENDROOT
TORSDOF 0
ENDMDL
