MODEL 1
REMARK minimizedAffinity 20.5740337
REMARK minimizedRMSD -1
REMARK  0 active torsions:
REMARK  status: ('A' for Active; 'I' for Inactive)
ROOT
ATOM      1  C   UNL d   1       5.394   1.931  -3.366  0.00  0.00     0.020 A 
ATOM      2  C1  UNL d   1       4.004   2.003  -3.456  0.00  0.00     0.020 A 
ATOM      3  C2  UNL d   1       3.208   1.258  -2.584  0.00  0.00     0.034 A 
ATOM      4  C3  UNL d   1       3.801   0.437  -1.617  0.00  0.00     0.017 A 
ATOM      5  C4  UNL d   1       5.196   0.366  -1.527  0.00  0.00     0.017 A 
ATOM      6  C5  UNL d   1       5.988   1.114  -2.403  0.00  0.00     0.034 A 
ATOM      7 Cl   UNL d   1       5.999  -0.624  -0.360  0.00  0.00    -0.070 Cl
ATOM      8 Cl1  UNL d   1       2.755  -0.456  -0.571  0.00  0.00    -0.070 Cl
ENDROOT
TORSDOF 0
ENDMDL
