MODEL 1
REMARK minimizedAffinity 11.5126333
REMARK minimizedRMSD -1
REMARK  0 active torsions:
REMARK  status: ('A' for Active; 'I' for Inactive)
ROOT
ATOM      1  C   UNL d   1      -2.421  -2.659  -1.251  0.00  0.00     0.020 A 
ATOM      2  C1  UNL d   1      -1.112  -2.925  -0.850  0.00  0.00     0.020 A 
ATOM      3  C2  UNL d   1      -0.728  -2.700   0.474  0.00  0.00     0.034 A 
ATOM      4  C3  UNL d   1      -1.654  -2.209   1.401  0.00  0.00     0.017 A 
ATOM      5  C4  UNL d   1      -2.968  -1.943   0.998  0.00  0.00     0.017 A 
ATOM      6  C5  UNL d   1      -3.347  -2.169  -0.329  0.00  0.00     0.034 A 
ATOM      7 Cl   UNL d   1      -4.166  -1.335   2.085  0.00  0.00    -0.070 Cl
ATOM      8 Cl1  UNL d   1      -1.111  -1.956   3.022  0.00  0.00    -0.070 Cl
ENDROOT
TORSDOF 0
ENDMDL
