MODEL 1
REMARK minimizedAffinity 18.7171555
REMARK minimizedRMSD -1
REMARK  0 active torsions:
REMARK  status: ('A' for Active; 'I' for Inactive)
ROOT
ATOM      1  C   UNL d   1      -2.049  -3.156  -5.998  0.00  0.00     0.020 A 
ATOM      2  C1  UNL d   1      -2.551  -1.967  -5.471  0.00  0.00     0.020 A 
ATOM      3  C2  UNL d   1      -3.016  -1.927  -4.155  0.00  0.00     0.034 A 
ATOM      4  C3  UNL d   1      -2.979  -3.079  -3.361  0.00  0.00     0.017 A 
ATOM      5  C4  UNL d   1      -2.474  -4.273  -3.891  0.00  0.00     0.017 A 
ATOM      6  C5  UNL d   1      -2.011  -4.306  -5.209  0.00  0.00     0.034 A 
ATOM      7 Cl   UNL d   1      -2.397  -5.735  -2.972  0.00  0.00    -0.070 Cl
ATOM      8 Cl1  UNL d   1      -3.569  -2.958  -1.741  0.00  0.00    -0.070 Cl
ENDROOT
TORSDOF 0
ENDMDL
