MODEL 1
REMARK minimizedAffinity 13.0823078
REMARK minimizedRMSD -1
REMARK  0 active torsions:
REMARK  status: ('A' for Active; 'I' for Inactive)
ROOT
ATOM      1  C   UNL d   1       2.774   1.178  -0.533  0.00  0.00     0.020 A 
ATOM      2  C1  UNL d   1       1.537   1.669  -0.116  0.00  0.00     0.020 A 
ATOM      3  C2  UNL d   1       1.135   1.509   1.212  0.00  0.00     0.034 A 
ATOM      4  C3  UNL d   1       1.969   0.857   2.127  0.00  0.00     0.017 A 
ATOM      5  C4  UNL d   1       3.210   0.364   1.707  0.00  0.00     0.017 A 
ATOM      6  C5  UNL d   1       3.608   0.527   0.376  0.00  0.00     0.034 A 
ATOM      7 Cl   UNL d   1       4.294  -0.451   2.777  0.00  0.00    -0.070 Cl
ATOM      8 Cl1  UNL d   1       1.408   0.695   3.753  0.00  0.00    -0.070 Cl
ENDROOT
TORSDOF 0
ENDMDL
