MODEL 1
REMARK minimizedAffinity 12.9854984
REMARK minimizedRMSD -1
REMARK  0 active torsions:
REMARK  status: ('A' for Active; 'I' for Inactive)
ROOT
ATOM      1  C   UNL d   1       1.809  -0.034   0.215  0.00  0.00     0.020 A 
ATOM      2  C1  UNL d   1       3.142   0.250  -0.078  0.00  0.00     0.020 A 
ATOM      3  C2  UNL d   1       3.605   1.566  -0.020  0.00  0.00     0.034 A 
ATOM      4  C3  UNL d   1       2.734   2.604   0.333  0.00  0.00     0.017 A 
ATOM      5  C4  UNL d   1       1.396   2.318   0.627  0.00  0.00     0.017 A 
ATOM      6  C5  UNL d   1       0.938   0.998   0.567  0.00  0.00     0.034 A 
ATOM      7 Cl   UNL d   1       0.262   3.545   1.070  0.00  0.00    -0.070 Cl
ATOM      8 Cl1  UNL d   1       3.375   4.207   0.385  0.00  0.00    -0.070 Cl
ENDROOT
TORSDOF 0
ENDMDL
