MODEL 1
REMARK minimizedAffinity 7.62966824
REMARK minimizedRMSD -1
REMARK  0 active torsions:
REMARK  status: ('A' for Active; 'I' for Inactive)
ROOT
ATOM      1  C   UNL d   1       3.415   0.941  -1.400  0.00  0.00     0.020 A 
ATOM      2  C1  UNL d   1       2.948  -0.203  -0.755  0.00  0.00     0.020 A 
ATOM      3  C2  UNL d   1       2.106  -0.085   0.353  0.00  0.00     0.034 A 
ATOM      4  C3  UNL d   1       1.729   1.180   0.819  0.00  0.00     0.017 A 
ATOM      5  C4  UNL d   1       2.199   2.328   0.170  0.00  0.00     0.017 A 
ATOM      6  C5  UNL d   1       3.041   2.204  -0.939  0.00  0.00     0.034 A 
ATOM      7 Cl   UNL d   1       1.777   3.923   0.687  0.00  0.00    -0.070 Cl
ATOM      8 Cl1  UNL d   1       0.686   1.252   2.194  0.00  0.00    -0.070 Cl
ENDROOT
TORSDOF 0
ENDMDL
