MODEL 1
REMARK minimizedAffinity 20.1711388
REMARK minimizedRMSD -1
REMARK  0 active torsions:
REMARK  status: ('A' for Active; 'I' for Inactive)
ROOT
ATOM      1  C   UNL d   1      -5.169   1.395   5.998  0.00  0.00     0.020 A 
ATOM      2  C1  UNL d   1      -5.999   0.335   5.637  0.00  0.00     0.020 A 
ATOM      3  C2  UNL d   1      -5.914  -0.214   4.356  0.00  0.00     0.034 A 
ATOM      4  C3  UNL d   1      -4.996   0.297   3.432  0.00  0.00     0.017 A 
ATOM      5  C4  UNL d   1      -4.162   1.361   3.795  0.00  0.00     0.017 A 
ATOM      6  C5  UNL d   1      -4.252   1.907   5.079  0.00  0.00     0.034 A 
ATOM      7 Cl   UNL d   1      -3.005   2.045   2.709  0.00  0.00    -0.070 Cl
ATOM      8 Cl1  UNL d   1      -4.943  -0.431   1.865  0.00  0.00    -0.070 Cl
ENDROOT
TORSDOF 0
ENDMDL
