MODEL 1
REMARK minimizedAffinity 18.0027523
REMARK minimizedRMSD -1
REMARK  0 active torsions:
REMARK  status: ('A' for Active; 'I' for Inactive)
ROOT
ATOM      1  C   UNL d   1       0.670   1.618   2.219  0.00  0.00     0.020 A 
ATOM      2  C1  UNL d   1      -0.455   0.925   2.665  0.00  0.00     0.020 A 
ATOM      3  C2  UNL d   1      -0.780  -0.313   2.105  0.00  0.00     0.034 A 
ATOM      4  C3  UNL d   1       0.020  -0.861   1.096  0.00  0.00     0.017 A 
ATOM      5  C4  UNL d   1       1.149  -0.165   0.649  0.00  0.00     0.017 A 
ATOM      6  C5  UNL d   1       1.470   1.074   1.213  0.00  0.00     0.034 A 
ATOM      7 Cl   UNL d   1       2.185  -0.778  -0.591  0.00  0.00    -0.070 Cl
ATOM      8 Cl1  UNL d   1      -0.441  -2.396   0.450  0.00  0.00    -0.070 Cl
ENDROOT
TORSDOF 0
ENDMDL
