MODEL 1
REMARK minimizedAffinity 20.3349514
REMARK minimizedRMSD -1
REMARK  0 active torsions:
REMARK  status: ('A' for Active; 'I' for Inactive)
ROOT
ATOM      1  C   UNL d   1       2.723   0.840  -2.304  0.00  0.00     0.020 A 
ATOM      2  C1  UNL d   1       2.739  -0.319  -1.530  0.00  0.00     0.020 A 
ATOM      3  C2  UNL d   1       2.198  -0.306  -0.242  0.00  0.00     0.034 A 
ATOM      4  C3  UNL d   1       1.639   0.868   0.275  0.00  0.00     0.017 A 
ATOM      5  C4  UNL d   1       1.624   2.031  -0.503  0.00  0.00     0.017 A 
ATOM      6  C5  UNL d   1       2.166   2.013  -1.792  0.00  0.00     0.034 A 
ATOM      7 Cl   UNL d   1       0.952   3.518   0.066  0.00  0.00    -0.070 Cl
ATOM      8 Cl1  UNL d   1       0.989   0.812   1.874  0.00  0.00    -0.070 Cl
ENDROOT
TORSDOF 0
ENDMDL
