MODEL 1
REMARK minimizedAffinity 13.6507559
REMARK minimizedRMSD -1
REMARK  0 active torsions:
REMARK  status: ('A' for Active; 'I' for Inactive)
ROOT
ATOM      1  C   UNL d   1      -1.125  -4.153   2.625  0.00  0.00     0.020 A 
ATOM      2  C1  UNL d   1      -1.624  -5.442   2.810  0.00  0.00     0.020 A 
ATOM      3  C2  UNL d   1      -2.499  -5.993   1.872  0.00  0.00     0.034 A 
ATOM      4  C3  UNL d   1      -2.878  -5.256   0.744  0.00  0.00     0.017 A 
ATOM      5  C4  UNL d   1      -2.377  -3.962   0.560  0.00  0.00     0.017 A 
ATOM      6  C5  UNL d   1      -1.501  -3.415   1.502  0.00  0.00     0.034 A 
ATOM      7 Cl   UNL d   1      -2.800  -2.991  -0.806  0.00  0.00    -0.070 Cl
ATOM      8 Cl1  UNL d   1      -3.964  -6.000  -0.375  0.00  0.00    -0.070 Cl
ENDROOT
TORSDOF 0
ENDMDL
