MODEL 1
REMARK minimizedAffinity 13.1465569
REMARK minimizedRMSD -1
REMARK  0 active torsions:
REMARK  status: ('A' for Active; 'I' for Inactive)
ROOT
ATOM      1  C   UNL d   1       5.999  -0.322   1.711  0.00  0.00     0.020 A 
ATOM      2  C1  UNL d   1       5.726  -0.293   0.344  0.00  0.00     0.020 A 
ATOM      3  C2  UNL d   1       4.404  -0.230  -0.102  0.00  0.00     0.034 A 
ATOM      4  C3  UNL d   1       3.351  -0.196   0.819  0.00  0.00     0.017 A 
ATOM      5  C4  UNL d   1       3.626  -0.225   2.190  0.00  0.00     0.017 A 
ATOM      6  C5  UNL d   1       4.951  -0.288   2.632  0.00  0.00     0.034 A 
ATOM      7 Cl   UNL d   1       2.380  -0.185   3.387  0.00  0.00    -0.070 Cl
ATOM      8 Cl1  UNL d   1       1.741  -0.117   0.195  0.00  0.00    -0.070 Cl
ENDROOT
TORSDOF 0
ENDMDL
