MODEL 1
REMARK minimizedAffinity 11.7735319
REMARK minimizedRMSD -1
REMARK  0 active torsions:
REMARK  status: ('A' for Active; 'I' for Inactive)
ROOT
ATOM      1  C   UNL d   1      -1.128  -2.384   1.950  0.00  0.00     0.020 A 
ATOM      2  C1  UNL d   1      -2.352  -2.377   1.283  0.00  0.00     0.020 A 
ATOM      3  C2  UNL d   1      -3.183  -3.498   1.336  0.00  0.00     0.034 A 
ATOM      4  C3  UNL d   1      -2.790  -4.632   2.057  0.00  0.00     0.017 A 
ATOM      5  C4  UNL d   1      -1.560  -4.638   2.726  0.00  0.00     0.017 A 
ATOM      6  C5  UNL d   1      -0.733  -3.512   2.670  0.00  0.00     0.034 A 
ATOM      7 Cl   UNL d   1      -1.007  -5.999   3.636  0.00  0.00    -0.070 Cl
ATOM      8 Cl1  UNL d   1      -3.866  -5.983   2.080  0.00  0.00    -0.070 Cl
ENDROOT
TORSDOF 0
ENDMDL
