MODEL 1
REMARK minimizedAffinity 15.3493633
REMARK minimizedRMSD -1
REMARK  0 active torsions:
REMARK  status: ('A' for Active; 'I' for Inactive)
ROOT
ATOM      1  C   UNL d   1       0.558  -0.080   2.549  0.00  0.00     0.020 A 
ATOM      2  C1  UNL d   1       1.186   0.501   1.448  0.00  0.00     0.020 A 
ATOM      3  C2  UNL d   1       0.933   1.835   1.122  0.00  0.00     0.034 A 
ATOM      4  C3  UNL d   1       0.049   2.593   1.899  0.00  0.00     0.017 A 
ATOM      5  C4  UNL d   1      -0.581   2.009   3.004  0.00  0.00     0.017 A 
ATOM      6  C5  UNL d   1      -0.323   0.673   3.325  0.00  0.00     0.034 A 
ATOM      7 Cl   UNL d   1      -1.684   2.880   4.010  0.00  0.00    -0.070 Cl
ATOM      8 Cl1  UNL d   1      -0.218   4.237   1.439  0.00  0.00    -0.070 Cl
ENDROOT
TORSDOF 0
ENDMDL
