MODEL 1
REMARK minimizedAffinity 16.3637714
REMARK minimizedRMSD -1
REMARK  0 active torsions:
REMARK  status: ('A' for Active; 'I' for Inactive)
ROOT
ATOM      1  C   UNL d   1      -1.607  -2.753   1.211  0.00  0.00     0.020 A 
ATOM      2  C1  UNL d   1      -1.332  -2.304  -0.080  0.00  0.00     0.020 A 
ATOM      3  C2  UNL d   1      -0.522  -1.182  -0.271  0.00  0.00     0.034 A 
ATOM      4  C3  UNL d   1       0.015  -0.506   0.831  0.00  0.00     0.017 A 
ATOM      5  C4  UNL d   1      -0.261  -0.958   2.126  0.00  0.00     0.017 A 
ATOM      6  C5  UNL d   1      -1.073  -2.081   2.312  0.00  0.00     0.034 A 
ATOM      7 Cl   UNL d   1       0.366  -0.176   3.534  0.00  0.00    -0.070 Cl
ATOM      8 Cl1  UNL d   1       1.009   0.874   0.520  0.00  0.00    -0.070 Cl
ENDROOT
TORSDOF 0
ENDMDL
