MODEL 1
REMARK minimizedAffinity 15.8093748
REMARK minimizedRMSD -1
REMARK  0 active torsions:
REMARK  status: ('A' for Active; 'I' for Inactive)
ROOT
ATOM      1  C   UNL d   1       0.878   0.401   2.106  0.00  0.00     0.020 A 
ATOM      2  C1  UNL d   1       1.241   1.009   0.905  0.00  0.00     0.020 A 
ATOM      3  C2  UNL d   1       0.759   2.282   0.593  0.00  0.00     0.034 A 
ATOM      4  C3  UNL d   1      -0.089   2.951   1.483  0.00  0.00     0.017 A 
ATOM      5  C4  UNL d   1      -0.453   2.339   2.689  0.00  0.00     0.017 A 
ATOM      6  C5  UNL d   1       0.033   1.065   2.996  0.00  0.00     0.034 A 
ATOM      7 Cl   UNL d   1      -1.495   3.102   3.837  0.00  0.00    -0.070 Cl
ATOM      8 Cl1  UNL d   1      -0.647   4.523   1.034  0.00  0.00    -0.070 Cl
ENDROOT
TORSDOF 0
ENDMDL
