MODEL 1
REMARK minimizedAffinity 14.7479801
REMARK minimizedRMSD -1
REMARK  0 active torsions:
REMARK  status: ('A' for Active; 'I' for Inactive)
ROOT
ATOM      1  C   UNL d   1       1.704   1.978   0.003  0.00  0.00     0.020 A 
ATOM      2  C1  UNL d   1       2.082   0.639   0.085  0.00  0.00     0.020 A 
ATOM      3  C2  UNL d   1       1.649  -0.145   1.156  0.00  0.00     0.034 A 
ATOM      4  C3  UNL d   1       0.835   0.410   2.150  0.00  0.00     0.017 A 
ATOM      5  C4  UNL d   1       0.456   1.754   2.067  0.00  0.00     0.017 A 
ATOM      6  C5  UNL d   1       0.892   2.535   0.992  0.00  0.00     0.034 A 
ATOM      7 Cl   UNL d   1      -0.547   2.510   3.255  0.00  0.00    -0.070 Cl
ATOM      8 Cl1  UNL d   1       0.336  -0.618   3.447  0.00  0.00    -0.070 Cl
ENDROOT
TORSDOF 0
ENDMDL
