MODEL 1
REMARK minimizedAffinity 16.2209034
REMARK minimizedRMSD -1
REMARK  0 active torsions:
REMARK  status: ('A' for Active; 'I' for Inactive)
ROOT
ATOM      1  C   UNL d   1      -4.717   5.180   5.996  0.00  0.00     0.020 A 
ATOM      2  C1  UNL d   1      -5.820   5.397   5.171  0.00  0.00     0.020 A 
ATOM      3  C2  UNL d   1      -5.984   4.638   4.010  0.00  0.00     0.034 A 
ATOM      4  C3  UNL d   1      -5.043   3.659   3.671  0.00  0.00     0.017 A 
ATOM      5  C4  UNL d   1      -3.936   3.442   4.500  0.00  0.00     0.017 A 
ATOM      6  C5  UNL d   1      -3.777   4.205   5.661  0.00  0.00     0.034 A 
ATOM      7 Cl   UNL d   1      -2.733   2.252   4.147  0.00  0.00    -0.070 Cl
ATOM      8 Cl1  UNL d   1      -5.309   2.757   2.221  0.00  0.00    -0.070 Cl
ENDROOT
TORSDOF 0
ENDMDL
