MODEL 1
REMARK minimizedAffinity -2.47844195
REMARK minimizedRMSD -1
REMARK  0 active torsions:
REMARK  status: ('A' for Active; 'I' for Inactive)
ROOT
ATOM      1  O1  BZF d   1       1.665  -1.201  -0.151  0.00  0.00    -0.204 OA
ATOM      2  C2  BZF d   1       2.572  -0.880   0.840  0.00  0.00     0.174 A 
ATOM      3  C3  BZF d   1       2.017  -0.050   1.747  0.00  0.00    -0.012 A 
ATOM      4  C3A BZF d   1       0.651   0.088   1.344  0.00  0.00    -0.107 A 
ATOM      5  C4  BZF d   1      -0.414   0.774   1.854  0.00  0.00     0.055 A 
ATOM      6  C5  BZF d   1      -1.594   0.758   1.180  0.00  0.00    -0.016 A 
ATOM      7  C6  BZF d   1      -1.743   0.073  -0.007  0.00  0.00     0.022 A 
ATOM      8  C7  BZF d   1      -0.716  -0.626  -0.551  0.00  0.00     0.029 A 
ATOM      9  C7A BZF d   1       0.468  -0.639   0.145  0.00  0.00     0.058 A 
ENDROOT
TORSDOF 0
ENDMDL
