MODEL 1
REMARK minimizedAffinity -4.41154718
REMARK minimizedRMSD -1
REMARK  0 active torsions:
REMARK  status: ('A' for Active; 'I' for Inactive)
ROOT
ATOM      1  O1  BZF d   1       1.115  -0.638  -0.541  0.00  0.00    -0.204 OA
ATOM      2  C2  BZF d   1       0.028  -0.771  -1.383  0.00  0.00     0.174 A 
ATOM      3  C3  BZF d   1      -1.103  -0.359  -0.774  0.00  0.00    -0.012 A 
ATOM      4  C3A BZF d   1      -0.683   0.143   0.498  0.00  0.00    -0.107 A 
ATOM      5  C4  BZF d   1      -1.347   0.705   1.551  0.00  0.00     0.055 A 
ATOM      6  C5  BZF d   1      -0.653   1.021   2.676  0.00  0.00    -0.016 A 
ATOM      7  C6  BZF d   1       0.702   0.784   2.785  0.00  0.00     0.022 A 
ATOM      8  C7  BZF d   1       1.404   0.234   1.765  0.00  0.00     0.029 A 
ATOM      9  C7A BZF d   1       0.712  -0.056   0.614  0.00  0.00     0.058 A 
ENDROOT
TORSDOF 0
ENDMDL
