MODEL 1
REMARK minimizedAffinity -5.85802698
REMARK minimizedRMSD -1
REMARK  0 active torsions:
REMARK  status: ('A' for Active; 'I' for Inactive)
ROOT
ATOM      1  O1  BZF d   1       0.869  -0.227  -0.173  0.00  0.00    -0.204 OA
ATOM      2  C2  BZF d   1      -0.277   0.030  -0.901  0.00  0.00     0.174 A 
ATOM      3  C3  BZF d   1      -1.272   0.451  -0.094  0.00  0.00    -0.012 A 
ATOM      4  C3A BZF d   1      -0.686   0.546   1.208  0.00  0.00    -0.107 A 
ATOM      5  C4  BZF d   1      -1.167   0.925   2.429  0.00  0.00     0.055 A 
ATOM      6  C5  BZF d   1      -0.355   0.835   3.515  0.00  0.00    -0.016 A 
ATOM      7  C6  BZF d   1       0.938   0.366   3.419  0.00  0.00     0.022 A 
ATOM      8  C7  BZF d   1       1.461  -0.017   2.228  0.00  0.00     0.029 A 
ATOM      9  C7A BZF d   1       0.655   0.104   1.123  0.00  0.00     0.058 A 
ENDROOT
TORSDOF 0
ENDMDL
