MODEL 1
REMARK minimizedAffinity -4.33529949
REMARK minimizedRMSD -1
REMARK  0 active torsions:
REMARK  status: ('A' for Active; 'I' for Inactive)
ROOT
ATOM      1  O1  BZF d   1       0.728   0.934  -1.259  0.00  0.00    -0.204 OA
ATOM      2  C2  BZF d   1       0.295  -0.303  -0.823  0.00  0.00     0.174 A 
ATOM      3  C3  BZF d   1      -0.136  -1.052  -1.858  0.00  0.00    -0.012 A 
ATOM      4  C3A BZF d   1       0.123  -0.266  -3.025  0.00  0.00    -0.107 A 
ATOM      5  C4  BZF d   1      -0.071  -0.475  -4.360  0.00  0.00     0.055 A 
ATOM      6  C5  BZF d   1       0.223   0.523  -5.235  0.00  0.00    -0.016 A 
ATOM      7  C6  BZF d   1       0.707   1.743  -4.809  0.00  0.00     0.022 A 
ATOM      8  C7  BZF d   1       0.920   1.995  -3.494  0.00  0.00     0.029 A 
ATOM      9  C7A BZF d   1       0.656   0.977  -2.611  0.00  0.00     0.058 A 
ENDROOT
TORSDOF 0
ENDMDL
