MODEL 1
REMARK minimizedAffinity 1.32234681
REMARK minimizedRMSD -1
REMARK  0 active torsions:
REMARK  status: ('A' for Active; 'I' for Inactive)
ROOT
ATOM      1  O1  BZF d   1       0.080   1.102  -4.815  0.00  0.00    -0.204 OA
ATOM      2  C2  BZF d   1       0.935   0.935  -3.743  0.00  0.00     0.174 A 
ATOM      3  C3  BZF d   1       0.833  -0.313  -3.240  0.00  0.00    -0.012 A 
ATOM      4  C3A BZF d   1      -0.079  -0.994  -4.107  0.00  0.00    -0.107 A 
ATOM      5  C4  BZF d   1      -0.572  -2.267  -4.138  0.00  0.00     0.055 A 
ATOM      6  C5  BZF d   1      -1.503  -2.593  -5.072  0.00  0.00    -0.016 A 
ATOM      7  C6  BZF d   1      -1.967  -1.671  -5.987  0.00  0.00     0.022 A 
ATOM      8  C7  BZF d   1      -1.504  -0.397  -6.000  0.00  0.00     0.029 A 
ATOM      9  C7A BZF d   1      -0.539  -0.074  -5.077  0.00  0.00     0.058 A 
ENDROOT
TORSDOF 0
ENDMDL
