MODEL 1
REMARK minimizedAffinity -3.21567345
REMARK minimizedRMSD -1
REMARK  0 active torsions:
REMARK  status: ('A' for Active; 'I' for Inactive)
ROOT
ATOM      1  O1  BZF d   1      -0.097  -2.210   0.252  0.00  0.00    -0.204 OA
ATOM      2  C2  BZF d   1      -1.451  -1.956   0.144  0.00  0.00     0.174 A 
ATOM      3  C3  BZF d   1      -1.751  -0.739   0.641  0.00  0.00    -0.012 A 
ATOM      4  C3A BZF d   1      -0.493  -0.160   1.004  0.00  0.00    -0.107 A 
ATOM      5  C4  BZF d   1      -0.133   1.044   1.538  0.00  0.00     0.055 A 
ATOM      6  C5  BZF d   1       1.173   1.269   1.839  0.00  0.00    -0.016 A 
ATOM      7  C6  BZF d   1       2.143   0.312   1.624  0.00  0.00     0.022 A 
ATOM      8  C7  BZF d   1       1.835  -0.896   1.091  0.00  0.00     0.029 A 
ATOM      9  C7A BZF d   1       0.521  -1.114   0.755  0.00  0.00     0.058 A 
ENDROOT
TORSDOF 0
ENDMDL
