MODEL 1
REMARK minimizedAffinity 5.50369835
REMARK minimizedRMSD -1
REMARK  2 active torsions:
REMARK  status: ('A' for Active; 'I' for Inactive)
REMARK    1  A    between atoms: C1_2  and  C2_3 
REMARK    2  A    between atoms: C2_3  and  C3_4 
ROOT
ATOM      1  C3  UNL d   1       5.239   4.941  -4.218  0.00  0.00    -0.075 A 
ATOM      2  C4  UNL d   1       6.000   4.807  -3.047  0.00  0.00     0.002 A 
ATOM      3  C5  UNL d   1       5.413   4.998  -1.796  0.00  0.00     0.002 A 
ATOM      4  C6  UNL d   1       4.065   5.334  -1.699  0.00  0.00    -0.004 A 
ATOM      5  C7  UNL d   1       3.304   5.486  -2.856  0.00  0.00     0.002 A 
ATOM      6  C8  UNL d   1       3.887   5.291  -4.109  0.00  0.00     0.002 A 
ENDROOT
BRANCH   1   7
ATOM      7  C2  UNL d   1       5.861   4.707  -5.574  0.00  0.00     0.056 C 
BRANCH   7   8
ATOM      8  C1  UNL d   1       5.894   3.235  -6.000  0.00  0.00     0.007 C 
ATOM      9  C   UNL d   1       5.259   2.301  -4.978  0.00  0.00     0.009 C 
ENDBRANCH   7   8
ENDBRANCH   1   7
TORSDOF 2
ENDMDL
