MODEL 1
REMARK minimizedAffinity 3.35392809
REMARK minimizedRMSD -1
REMARK  2 active torsions:
REMARK  status: ('A' for Active; 'I' for Inactive)
REMARK    1  A    between atoms: C1_2  and  C2_3 
REMARK    2  A    between atoms: C2_3  and  C3_4 
ROOT
ATOM      1  C3  UNL d   1       3.640  -2.551   3.602  0.00  0.00    -0.075 A 
ATOM      2  C4  UNL d   1       3.362  -1.572   4.567  0.00  0.00     0.002 A 
ATOM      3  C5  UNL d   1       4.091  -1.522   5.756  0.00  0.00     0.002 A 
ATOM      4  C6  UNL d   1       5.097  -2.455   5.999  0.00  0.00    -0.004 A 
ATOM      5  C7  UNL d   1       5.370  -3.442   5.055  0.00  0.00     0.002 A 
ATOM      6  C8  UNL d   1       4.645  -3.492   3.862  0.00  0.00     0.002 A 
ENDROOT
BRANCH   1   7
ATOM      7  C2  UNL d   1       2.875  -2.592   2.301  0.00  0.00     0.056 C 
BRANCH   7   8
ATOM      8  C1  UNL d   1       3.083  -1.359   1.416  0.00  0.00     0.007 C 
ATOM      9  C   UNL d   1       3.828  -1.666   0.123  0.00  0.00     0.009 C 
ENDBRANCH   7   8
ENDBRANCH   1   7
TORSDOF 2
ENDMDL
