MODEL 1
REMARK minimizedAffinity 1.2634182
REMARK minimizedRMSD -1
REMARK  2 active torsions:
REMARK  status: ('A' for Active; 'I' for Inactive)
REMARK    1  A    between atoms: C1_2  and  C2_3 
REMARK    2  A    between atoms: C2_3  and  C3_4 
ROOT
ATOM      1  C3  UNL d   1       0.044  -3.334  -3.529  0.00  0.00    -0.075 A 
ATOM      2  C4  UNL d   1       0.451  -4.091  -2.420  0.00  0.00     0.002 A 
ATOM      3  C5  UNL d   1       0.042  -5.417  -2.279  0.00  0.00     0.002 A 
ATOM      4  C6  UNL d   1      -0.786  -6.000  -3.236  0.00  0.00    -0.004 A 
ATOM      5  C7  UNL d   1      -1.210  -5.252  -4.332  0.00  0.00     0.002 A 
ATOM      6  C8  UNL d   1      -0.799  -3.926  -4.479  0.00  0.00     0.002 A 
ENDROOT
BRANCH   1   7
ATOM      7  C2  UNL d   1       0.507  -1.908  -3.703  0.00  0.00     0.056 C 
BRANCH   7   8
ATOM      8  C1  UNL d   1       1.748  -1.759  -4.589  0.00  0.00     0.007 C 
ATOM      9  C   UNL d   1       3.050  -2.050  -3.854  0.00  0.00     0.009 C 
ENDBRANCH   7   8
ENDBRANCH   1   7
TORSDOF 2
ENDMDL
