MODEL 1
REMARK minimizedAffinity 2.097404
REMARK minimizedRMSD -1
REMARK  2 active torsions:
REMARK  status: ('A' for Active; 'I' for Inactive)
REMARK    1  A    between atoms: C1_2  and  C2_3 
REMARK    2  A    between atoms: C2_3  and  C3_4 
ROOT
ATOM      1  C3  UNL d   1       4.430   4.633  -3.354  0.00  0.00    -0.075 A 
ATOM      2  C4  UNL d   1       5.505   4.160  -4.119  0.00  0.00     0.002 A 
ATOM      3  C5  UNL d   1       5.685   4.595  -5.433  0.00  0.00     0.002 A 
ATOM      4  C6  UNL d   1       4.788   5.498  -6.000  0.00  0.00    -0.004 A 
ATOM      5  C7  UNL d   1       3.707   5.962  -5.254  0.00  0.00     0.002 A 
ATOM      6  C8  UNL d   1       3.527   5.532  -3.938  0.00  0.00     0.002 A 
ENDROOT
BRANCH   1   7
ATOM      7  C2  UNL d   1       4.246   4.189  -1.922  0.00  0.00     0.056 C 
BRANCH   7   8
ATOM      8  C1  UNL d   1       5.261   4.794  -0.946  0.00  0.00     0.007 C 
ATOM      9  C   UNL d   1       5.999   5.998  -1.518  0.00  0.00     0.009 C 
ENDBRANCH   7   8
ENDBRANCH   1   7
TORSDOF 2
ENDMDL
