MODEL 1
REMARK minimizedAffinity 5.87228441
REMARK minimizedRMSD -1
REMARK  2 active torsions:
REMARK  status: ('A' for Active; 'I' for Inactive)
REMARK    1  A    between atoms: C1_2  and  C2_3 
REMARK    2  A    between atoms: C2_3  and  C3_4 
ROOT
ATOM      1  C3  UNL d   1      -0.726  -2.383  -1.504  0.00  0.00    -0.075 A 
ATOM      2  C4  UNL d   1      -0.328  -2.246  -0.166  0.00  0.00     0.002 A 
ATOM      3  C5  UNL d   1      -1.272  -2.278   0.861  0.00  0.00     0.002 A 
ATOM      4  C6  UNL d   1      -2.624  -2.437   0.563  0.00  0.00    -0.004 A 
ATOM      5  C7  UNL d   1      -3.032  -2.557  -0.763  0.00  0.00     0.002 A 
ATOM      6  C8  UNL d   1      -2.090  -2.530  -1.792  0.00  0.00     0.002 A 
ENDROOT
BRANCH   1   7
ATOM      7  C2  UNL d   1       0.294  -2.379  -2.618  0.00  0.00     0.056 C 
BRANCH   7   8
ATOM      8  C1  UNL d   1       0.800  -3.772  -3.004  0.00  0.00     0.007 C 
ATOM      9  C   UNL d   1       0.446  -4.845  -1.983  0.00  0.00     0.009 C 
ENDBRANCH   7   8
ENDBRANCH   1   7
TORSDOF 2
ENDMDL
