MODEL 1
REMARK minimizedAffinity -2.40022922
REMARK minimizedRMSD -1
REMARK  2 active torsions:
REMARK  status: ('A' for Active; 'I' for Inactive)
REMARK    1  A    between atoms: C1_2  and  C2_3 
REMARK    2  A    between atoms: C2_3  and  C3_4 
ROOT
ATOM      1  C3  UNL d   1       5.395  -2.223   3.275  0.00  0.00    -0.075 A 
ATOM      2  C4  UNL d   1       4.530  -1.197   3.680  0.00  0.00     0.002 A 
ATOM      3  C5  UNL d   1       4.292  -0.964   5.035  0.00  0.00     0.002 A 
ATOM      4  C6  UNL d   1       4.908  -1.758   6.000  0.00  0.00    -0.004 A 
ATOM      5  C7  UNL d   1       5.757  -2.791   5.608  0.00  0.00     0.002 A 
ATOM      6  C8  UNL d   1       5.999  -3.024   4.253  0.00  0.00     0.002 A 
ENDROOT
BRANCH   1   7
ATOM      7  C2  UNL d   1       5.679  -2.461   1.811  0.00  0.00     0.056 C 
BRANCH   7   8
ATOM      8  C1  UNL d   1       4.865  -1.573   0.865  0.00  0.00     0.007 C 
ATOM      9  C   UNL d   1       4.506  -2.260  -0.445  0.00  0.00     0.009 C 
ENDBRANCH   7   8
ENDBRANCH   1   7
TORSDOF 2
ENDMDL
