MODEL 1
REMARK minimizedAffinity 2.52017188
REMARK minimizedRMSD -1
REMARK  2 active torsions:
REMARK  status: ('A' for Active; 'I' for Inactive)
REMARK    1  A    between atoms: C1_2  and  C2_3 
REMARK    2  A    between atoms: C2_3  and  C3_4 
ROOT
ATOM      1  C3  UNL d   1       1.087  -2.248  -0.584  0.00  0.00    -0.075 A 
ATOM      2  C4  UNL d   1      -0.111  -2.937  -0.346  0.00  0.00     0.002 A 
ATOM      3  C5  UNL d   1      -0.888  -3.396  -1.410  0.00  0.00     0.002 A 
ATOM      4  C6  UNL d   1      -0.482  -3.165  -2.723  0.00  0.00    -0.004 A 
ATOM      5  C7  UNL d   1       0.698  -2.468  -2.971  0.00  0.00     0.002 A 
ATOM      6  C8  UNL d   1       1.479  -2.010  -1.908  0.00  0.00     0.002 A 
ENDROOT
BRANCH   1   7
ATOM      7  C2  UNL d   1       1.946  -1.773   0.563  0.00  0.00     0.056 C 
BRANCH   7   8
ATOM      8  C1  UNL d   1       2.017  -2.755   1.738  0.00  0.00     0.007 C 
ATOM      9  C   UNL d   1       3.178  -2.478   2.683  0.00  0.00     0.009 C 
ENDBRANCH   7   8
ENDBRANCH   1   7
TORSDOF 2
ENDMDL
