MODEL 1
REMARK minimizedAffinity 8.53061676
REMARK minimizedRMSD -1
REMARK  2 active torsions:
REMARK  status: ('A' for Active; 'I' for Inactive)
REMARK    1  A    between atoms: C1_2  and  C2_3 
REMARK    2  A    between atoms: C2_3  and  C3_4 
ROOT
ATOM      1  C3  UNL d   1      -0.130  -2.917  -1.803  0.00  0.00    -0.075 A 
ATOM      2  C4  UNL d   1      -1.182  -2.025  -1.552  0.00  0.00     0.002 A 
ATOM      3  C5  UNL d   1      -1.652  -1.831  -0.253  0.00  0.00     0.002 A 
ATOM      4  C6  UNL d   1      -1.084  -2.532   0.808  0.00  0.00    -0.004 A 
ATOM      5  C7  UNL d   1      -0.049  -3.434   0.568  0.00  0.00     0.002 A 
ATOM      6  C8  UNL d   1       0.426  -3.626  -0.730  0.00  0.00     0.002 A 
ENDROOT
BRANCH   1   7
ATOM      7  C2  UNL d   1       0.403  -3.109  -3.203  0.00  0.00     0.056 C 
BRANCH   7   8
ATOM      8  C1  UNL d   1       0.713  -1.801  -3.938  0.00  0.00     0.007 C 
ATOM      9  C   UNL d   1       0.340  -1.838  -5.414  0.00  0.00     0.009 C 
ENDBRANCH   7   8
ENDBRANCH   1   7
TORSDOF 2
ENDMDL
