MODEL 1
REMARK minimizedAffinity 2.66185904
REMARK minimizedRMSD -1
REMARK  2 active torsions:
REMARK  status: ('A' for Active; 'I' for Inactive)
REMARK    1  A    between atoms: C1_2  and  C2_3 
REMARK    2  A    between atoms: C2_3  and  C3_4 
ROOT
ATOM      1  C3  UNL d   1      -0.389  -2.789  -2.365  0.00  0.00    -0.075 A 
ATOM      2  C4  UNL d   1       0.298  -2.123  -3.390  0.00  0.00     0.002 A 
ATOM      3  C5  UNL d   1       0.361  -2.670  -4.672  0.00  0.00     0.002 A 
ATOM      4  C6  UNL d   1      -0.253  -3.891  -4.943  0.00  0.00    -0.004 A 
ATOM      5  C7  UNL d   1      -0.924  -4.569  -3.928  0.00  0.00     0.002 A 
ATOM      6  C8  UNL d   1      -0.992  -4.022  -2.645  0.00  0.00     0.002 A 
ENDROOT
BRANCH   1   7
ATOM      7  C2  UNL d   1      -0.486  -2.188  -0.983  0.00  0.00     0.056 C 
BRANCH   7   8
ATOM      8  C1  UNL d   1      -1.759  -2.574  -0.223  0.00  0.00     0.007 C 
ATOM      9  C   UNL d   1      -1.550  -2.684   1.282  0.00  0.00     0.009 C 
ENDBRANCH   7   8
ENDBRANCH   1   7
TORSDOF 2
ENDMDL
