MODEL 1
REMARK minimizedAffinity 8.56747532
REMARK minimizedRMSD -1
REMARK  2 active torsions:
REMARK  status: ('A' for Active; 'I' for Inactive)
REMARK    1  A    between atoms: C1_2  and  C2_3 
REMARK    2  A    between atoms: C2_3  and  C3_4 
ROOT
ATOM      1  C3  UNL d   1      -0.463  -2.549  -1.207  0.00  0.00    -0.075 A 
ATOM      2  C4  UNL d   1      -0.720  -3.911  -1.416  0.00  0.00     0.002 A 
ATOM      3  C5  UNL d   1      -0.343  -4.528  -2.609  0.00  0.00     0.002 A 
ATOM      4  C6  UNL d   1       0.285  -3.790  -3.610  0.00  0.00    -0.004 A 
ATOM      5  C7  UNL d   1       0.530  -2.432  -3.419  0.00  0.00     0.002 A 
ATOM      6  C8  UNL d   1       0.158  -1.813  -2.225  0.00  0.00     0.002 A 
ENDROOT
BRANCH   1   7
ATOM      7  C2  UNL d   1      -0.842  -1.882   0.094  0.00  0.00     0.056 C 
BRANCH   7   8
ATOM      8  C1  UNL d   1      -1.540  -2.813   1.092  0.00  0.00     0.007 C 
ATOM      9  C   UNL d   1      -0.616  -3.309   2.197  0.00  0.00     0.009 C 
ENDBRANCH   7   8
ENDBRANCH   1   7
TORSDOF 2
ENDMDL
