MODEL 1
REMARK minimizedAffinity 7.14540243
REMARK minimizedRMSD -1
REMARK  2 active torsions:
REMARK  status: ('A' for Active; 'I' for Inactive)
REMARK    1  A    between atoms: C1_2  and  C2_3 
REMARK    2  A    between atoms: C2_3  and  C3_4 
ROOT
ATOM      1  C3  UNL d   1      -0.100  -2.763  -2.530  0.00  0.00    -0.075 A 
ATOM      2  C4  UNL d   1      -1.340  -2.179  -2.230  0.00  0.00     0.002 A 
ATOM      3  C5  UNL d   1      -1.834  -2.196  -0.926  0.00  0.00     0.002 A 
ATOM      4  C6  UNL d   1      -1.102  -2.804   0.092  0.00  0.00    -0.004 A 
ATOM      5  C7  UNL d   1       0.122  -3.401  -0.197  0.00  0.00     0.002 A 
ATOM      6  C8  UNL d   1       0.621  -3.382  -1.501  0.00  0.00     0.002 A 
ENDROOT
BRANCH   1   7
ATOM      7  C2  UNL d   1       0.454  -2.722  -3.934  0.00  0.00     0.056 C 
BRANCH   7   8
ATOM      8  C1  UNL d   1      -0.613  -2.831  -5.029  0.00  0.00     0.007 C 
ATOM      9  C   UNL d   1      -0.720  -4.229  -5.625  0.00  0.00     0.009 C 
ENDBRANCH   7   8
ENDBRANCH   1   7
TORSDOF 2
ENDMDL
