MODEL 1
REMARK minimizedAffinity -0.210749626
REMARK minimizedRMSD -1
REMARK  2 active torsions:
REMARK  status: ('A' for Active; 'I' for Inactive)
REMARK    1  A    between atoms: C1_2  and  C2_3 
REMARK    2  A    between atoms: C2_3  and  C3_4 
ROOT
ATOM      1  C3  UNL d   1      -0.682  -2.889  -2.187  0.00  0.00    -0.075 A 
ATOM      2  C4  UNL d   1      -0.457  -4.081  -2.891  0.00  0.00     0.002 A 
ATOM      3  C5  UNL d   1       0.752  -4.294  -3.554  0.00  0.00     0.002 A 
ATOM      4  C6  UNL d   1       1.744  -3.317  -3.532  0.00  0.00    -0.004 A 
ATOM      5  C7  UNL d   1       1.525  -2.122  -2.850  0.00  0.00     0.002 A 
ATOM      6  C8  UNL d   1       0.318  -1.908  -2.181  0.00  0.00     0.002 A 
ENDROOT
BRANCH   1   7
ATOM      7  C2  UNL d   1      -1.976  -2.665  -1.442  0.00  0.00     0.056 C 
BRANCH   7   8
ATOM      8  C1  UNL d   1      -1.836  -2.718   0.083  0.00  0.00     0.007 C 
ATOM      9  C   UNL d   1      -3.166  -2.897   0.802  0.00  0.00     0.009 C 
ENDBRANCH   7   8
ENDBRANCH   1   7
TORSDOF 2
ENDMDL
