MODEL 1
REMARK minimizedAffinity 4.98967218
REMARK minimizedRMSD -1
REMARK  0 active torsions:
REMARK  status: ('A' for Active; 'I' for Inactive)
ROOT
ATOM      1  C   UNL d   1      -0.058  -1.686  -1.291  0.00  0.00    -0.002 A 
ATOM      2  C1  UNL d   1      -0.742  -2.857  -1.586  0.00  0.00     0.010 A 
ATOM      3  C2  UNL d   1      -1.522  -3.488  -0.616  0.00  0.00     0.041 A 
ATOM      4  C3  UNL d   1      -1.607  -2.915   0.669  0.00  0.00    -0.075 A 
ATOM      5  S   UNL d   1      -2.503  -3.511   2.016  0.00  0.00     0.015 SA
ATOM      6  C4  UNL d   1      -2.001  -2.224   3.014  0.00  0.00     0.022 A 
ATOM      7  C5  UNL d   1      -1.169  -1.352   2.352  0.00  0.00     0.026 A 
ATOM      8  C6  UNL d   1      -0.929  -1.736   0.990  0.00  0.00    -0.082 A 
ATOM      9  C7  UNL d   1      -0.145  -1.121  -0.016  0.00  0.00     0.045 A 
ENDROOT
TORSDOF 0
ENDMDL
