MODEL 1
REMARK minimizedAffinity 19.4740314
REMARK minimizedRMSD -1
REMARK  0 active torsions:
REMARK  status: ('A' for Active; 'I' for Inactive)
ROOT
ATOM      1  C   UNL d   1      -0.347  -1.816   1.514  0.00  0.00    -0.002 A 
ATOM      2  C1  UNL d   1      -1.519  -2.469   1.869  0.00  0.00     0.010 A 
ATOM      3  C2  UNL d   1      -2.236  -3.206   0.925  0.00  0.00     0.041 A 
ATOM      4  C3  UNL d   1      -1.750  -3.278  -0.396  0.00  0.00    -0.075 A 
ATOM      5  S   UNL d   1      -2.460  -4.122  -1.720  0.00  0.00     0.015 SA
ATOM      6  C4  UNL d   1      -1.224  -3.637  -2.789  0.00  0.00     0.022 A 
ATOM      7  C5  UNL d   1      -0.285  -2.849  -2.167  0.00  0.00     0.026 A 
ATOM      8  C6  UNL d   1      -0.572  -2.629  -0.778  0.00  0.00    -0.082 A 
ATOM      9  C7  UNL d   1       0.132  -1.889   0.203  0.00  0.00     0.045 A 
ENDROOT
TORSDOF 0
ENDMDL
