MODEL 1
REMARK minimizedAffinity 12.2692394
REMARK minimizedRMSD -1
REMARK  0 active torsions:
REMARK  status: ('A' for Active; 'I' for Inactive)
ROOT
ATOM      1  C   UNL d   1       0.904   0.897   0.538  0.00  0.00    -0.002 A 
ATOM      2  C1  UNL d   1       1.722   0.390   1.538  0.00  0.00     0.010 A 
ATOM      3  C2  UNL d   1       2.904   1.044   1.888  0.00  0.00     0.041 A 
ATOM      4  C3  UNL d   1       3.254   2.229   1.211  0.00  0.00    -0.075 A 
ATOM      5  S   UNL d   1       4.654   3.201   1.472  0.00  0.00     0.015 SA
ATOM      6  C4  UNL d   1       4.199   4.312   0.263  0.00  0.00     0.022 A 
ATOM      7  C5  UNL d   1       3.011   3.966  -0.336  0.00  0.00     0.026 A 
ATOM      8  C6  UNL d   1       2.446   2.760   0.201  0.00  0.00    -0.082 A 
ATOM      9  C7  UNL d   1       1.254   2.073  -0.131  0.00  0.00     0.045 A 
ENDROOT
TORSDOF 0
ENDMDL
