MODEL 1
REMARK minimizedAffinity 9.59550953
REMARK minimizedRMSD -1
REMARK  0 active torsions:
REMARK  status: ('A' for Active; 'I' for Inactive)
ROOT
ATOM      1  C   UNL d   1       3.666   0.652  -5.990  0.00  0.00    -0.002 A 
ATOM      2  C1  UNL d   1       5.049   0.547  -5.939  0.00  0.00     0.010 A 
ATOM      3  C2  UNL d   1       5.846   1.692  -5.896  0.00  0.00     0.041 A 
ATOM      4  C3  UNL d   1       5.225   2.956  -5.903  0.00  0.00    -0.075 A 
ATOM      5  S   UNL d   1       6.000   4.496  -5.856  0.00  0.00     0.015 SA
ATOM      6  C4  UNL d   1       4.513   5.329  -5.902  0.00  0.00     0.022 A 
ATOM      7  C5  UNL d   1       3.442   4.469  -5.953  0.00  0.00     0.026 A 
ATOM      8  C6  UNL d   1       3.834   3.087  -5.954  0.00  0.00    -0.082 A 
ATOM      9  C7  UNL d   1       3.053   1.907  -5.998  0.00  0.00     0.045 A 
ENDROOT
TORSDOF 0
ENDMDL
