MODEL 1
REMARK minimizedAffinity 13.5435381
REMARK minimizedRMSD -1
REMARK  0 active torsions:
REMARK  status: ('A' for Active; 'I' for Inactive)
ROOT
ATOM      1  C   UNL d   1      -1.559   3.572   0.359  0.00  0.00    -0.002 A 
ATOM      2  C1  UNL d   1      -0.750   4.033  -0.670  0.00  0.00     0.010 A 
ATOM      3  C2  UNL d   1       0.589   3.643  -0.749  0.00  0.00     0.041 A 
ATOM      4  C3  UNL d   1       1.104   2.773   0.231  0.00  0.00    -0.075 A 
ATOM      5  S   UNL d   1       2.713   2.161   0.335  0.00  0.00     0.015 SA
ATOM      6  C4  UNL d   1       2.363   1.273   1.747  0.00  0.00     0.022 A 
ATOM      7  C5  UNL d   1       1.056   1.428   2.143  0.00  0.00     0.026 A 
ATOM      8  C6  UNL d   1       0.309   2.295   1.276  0.00  0.00    -0.082 A 
ATOM      9  C7  UNL d   1      -1.044   2.709   1.329  0.00  0.00     0.045 A 
ENDROOT
TORSDOF 0
ENDMDL
