MODEL 1
REMARK minimizedAffinity 10.3424101
REMARK minimizedRMSD -1
REMARK  0 active torsions:
REMARK  status: ('A' for Active; 'I' for Inactive)
ROOT
ATOM      1  C   UNL d   1      -0.823  -3.517   3.541  0.00  0.00    -0.002 A 
ATOM      2  C1  UNL d   1      -1.193  -4.843   3.369  0.00  0.00     0.010 A 
ATOM      3  C2  UNL d   1      -1.497  -5.338   2.099  0.00  0.00     0.041 A 
ATOM      4  C3  UNL d   1      -1.419  -4.468   0.993  0.00  0.00    -0.075 A 
ATOM      5  S   UNL d   1      -1.744  -4.853  -0.656  0.00  0.00     0.015 SA
ATOM      6  C4  UNL d   1      -1.398  -3.266  -1.172  0.00  0.00     0.022 A 
ATOM      7  C5  UNL d   1      -1.042  -2.449  -0.124  0.00  0.00     0.026 A 
ATOM      8  C6  UNL d   1      -1.048  -3.129   1.140  0.00  0.00    -0.082 A 
ATOM      9  C7  UNL d   1      -0.747  -2.658   2.441  0.00  0.00     0.045 A 
ENDROOT
TORSDOF 0
ENDMDL
