MODEL 1
REMARK minimizedAffinity 11.7931452
REMARK minimizedRMSD -1
REMARK  0 active torsions:
REMARK  status: ('A' for Active; 'I' for Inactive)
ROOT
ATOM      1  C   UNL d   1       0.645   2.096   0.572  0.00  0.00    -0.002 A 
ATOM      2  C1  UNL d   1      -0.141   2.702   1.542  0.00  0.00     0.010 A 
ATOM      3  C2  UNL d   1      -0.987   1.940   2.350  0.00  0.00     0.041 A 
ATOM      4  C3  UNL d   1      -1.028   0.544   2.166  0.00  0.00    -0.075 A 
ATOM      5  S   UNL d   1      -1.988  -0.592   3.039  0.00  0.00     0.015 SA
ATOM      6  C4  UNL d   1      -1.377  -1.908   2.146  0.00  0.00     0.022 A 
ATOM      7  C5  UNL d   1      -0.462  -1.510   1.200  0.00  0.00     0.026 A 
ATOM      8  C6  UNL d   1      -0.246  -0.090   1.196  0.00  0.00    -0.082 A 
ATOM      9  C7  UNL d   1       0.600   0.711   0.392  0.00  0.00     0.045 A 
ENDROOT
TORSDOF 0
ENDMDL
