MODEL 1
REMARK minimizedAffinity 0.733046591
REMARK minimizedRMSD -1
REMARK  0 active torsions:
REMARK  status: ('A' for Active; 'I' for Inactive)
ROOT
ATOM      1  C   UNL d   1      -3.548   3.264  -0.186  0.00  0.00    -0.002 A 
ATOM      2  C1  UNL d   1      -4.202   2.098   0.185  0.00  0.00     0.010 A 
ATOM      3  C2  UNL d   1      -3.518   1.081   0.853  0.00  0.00     0.041 A 
ATOM      4  C3  UNL d   1      -2.152   1.258   1.147  0.00  0.00    -0.075 A 
ATOM      5  S   UNL d   1      -1.111   0.148   1.958  0.00  0.00     0.015 SA
ATOM      6  C4  UNL d   1       0.228   1.196   1.832  0.00  0.00     0.022 A 
ATOM      7  C5  UNL d   1      -0.094   2.368   1.189  0.00  0.00     0.026 A 
ATOM      8  C6  UNL d   1      -1.471   2.423   0.784  0.00  0.00    -0.082 A 
ATOM      9  C7  UNL d   1      -2.192   3.436   0.107  0.00  0.00     0.045 A 
ENDROOT
TORSDOF 0
ENDMDL
