MODEL 1
REMARK minimizedAffinity 15.5608654
REMARK minimizedRMSD -1
REMARK  0 active torsions:
REMARK  status: ('A' for Active; 'I' for Inactive)
ROOT
ATOM      1  C   UNL d   1      -1.438   2.988   4.267  0.00  0.00    -0.002 A 
ATOM      2  C1  UNL d   1      -0.250   2.279   4.151  0.00  0.00     0.010 A 
ATOM      3  C2  UNL d   1       0.515   2.362   2.986  0.00  0.00     0.041 A 
ATOM      4  C3  UNL d   1       0.064   3.178   1.931  0.00  0.00    -0.075 A 
ATOM      5  S   UNL d   1       0.837   3.433   0.411  0.00  0.00     0.015 SA
ATOM      6  C4  UNL d   1      -0.391   4.490  -0.120  0.00  0.00     0.022 A 
ATOM      7  C5  UNL d   1      -1.374   4.656   0.827  0.00  0.00     0.026 A 
ATOM      8  C6  UNL d   1      -1.128   3.903   2.024  0.00  0.00    -0.082 A 
ATOM      9  C7  UNL d   1      -1.882   3.797   3.218  0.00  0.00     0.045 A 
ENDROOT
TORSDOF 0
ENDMDL
