MODEL 1
REMARK minimizedAffinity 18.5053749
REMARK minimizedRMSD -1
REMARK  0 active torsions:
REMARK  status: ('A' for Active; 'I' for Inactive)
ROOT
ATOM      1  C   UNL d   1       2.231   3.195   0.718  0.00  0.00    -0.002 A 
ATOM      2  C1  UNL d   1       1.006   3.589   1.239  0.00  0.00     0.010 A 
ATOM      3  C2  UNL d   1       0.112   2.643   1.742  0.00  0.00     0.041 A 
ATOM      4  C3  UNL d   1       0.472   1.281   1.715  0.00  0.00    -0.075 A 
ATOM      5  S   UNL d   1      -0.463  -0.053   2.278  0.00  0.00     0.015 SA
ATOM      6  C4  UNL d   1       0.741  -1.177   1.841  0.00  0.00     0.022 A 
ATOM      7  C5  UNL d   1       1.837  -0.567   1.278  0.00  0.00     0.026 A 
ATOM      8  C6  UNL d   1       1.700   0.861   1.197  0.00  0.00    -0.082 A 
ATOM      9  C7  UNL d   1       2.585   1.844   0.693  0.00  0.00     0.045 A 
ENDROOT
TORSDOF 0
ENDMDL
