MODEL 1
REMARK minimizedAffinity 11.8899145
REMARK minimizedRMSD -1
REMARK  0 active torsions:
REMARK  status: ('A' for Active; 'I' for Inactive)
ROOT
ATOM      1  C   UNL d   1      -1.347  -1.948   0.455  0.00  0.00    -0.002 A 
ATOM      2  C1  UNL d   1      -2.326  -1.695   1.406  0.00  0.00     0.010 A 
ATOM      3  C2  UNL d   1      -2.362  -0.473   2.080  0.00  0.00     0.041 A 
ATOM      4  C3  UNL d   1      -1.390   0.501   1.778  0.00  0.00    -0.075 A 
ATOM      5  S   UNL d   1      -1.239   2.070   2.476  0.00  0.00     0.015 SA
ATOM      6  C4  UNL d   1       0.127   2.443   1.527  0.00  0.00     0.022 A 
ATOM      7  C5  UNL d   1       0.473   1.406   0.693  0.00  0.00     0.026 A 
ATOM      8  C6  UNL d   1      -0.396   0.270   0.823  0.00  0.00    -0.082 A 
ATOM      9  C7  UNL d   1      -0.385  -0.979   0.157  0.00  0.00     0.045 A 
ENDROOT
TORSDOF 0
ENDMDL
