MODEL 1
REMARK minimizedAffinity 14.1448555
REMARK minimizedRMSD -1
REMARK  0 active torsions:
REMARK  status: ('A' for Active; 'I' for Inactive)
ROOT
ATOM      1  C   UNL d   1       5.849   1.134  -5.599  0.00  0.00    -0.002 A 
ATOM      2  C1  UNL d   1       4.585   0.564  -5.647  0.00  0.00     0.010 A 
ATOM      3  C2  UNL d   1       3.446   1.369  -5.726  0.00  0.00     0.041 A 
ATOM      4  C3  UNL d   1       3.602   2.768  -5.759  0.00  0.00    -0.075 A 
ATOM      5  S   UNL d   1       2.351   3.951  -5.856  0.00  0.00     0.015 SA
ATOM      6  C4  UNL d   1       3.466   5.240  -5.837  0.00  0.00     0.022 A 
ATOM      7  C5  UNL d   1       4.765   4.797  -5.758  0.00  0.00     0.026 A 
ATOM      8  C6  UNL d   1       4.865   3.365  -5.713  0.00  0.00    -0.082 A 
ATOM      9  C7  UNL d   1       5.999   2.523  -5.632  0.00  0.00     0.045 A 
ENDROOT
TORSDOF 0
ENDMDL
