MODEL 1
REMARK minimizedAffinity -2.2446475
REMARK minimizedRMSD -1
REMARK  0 active torsions:
REMARK  status: ('A' for Active; 'I' for Inactive)
ROOT
ATOM      1  C   UNL d   1       5.153   3.348   3.199  0.00  0.00    -0.002 A 
ATOM      2  C1  UNL d   1       4.607   2.237   3.827  0.00  0.00     0.010 A 
ATOM      3  C2  UNL d   1       3.505   1.581   3.276  0.00  0.00     0.041 A 
ATOM      4  C3  UNL d   1       2.956   2.063   2.071  0.00  0.00    -0.075 A 
ATOM      5  S   UNL d   1       1.607   1.420   1.212  0.00  0.00     0.015 SA
ATOM      6  C4  UNL d   1       1.724   2.604  -0.008  0.00  0.00     0.022 A 
ATOM      7  C5  UNL d   1       2.762   3.477   0.218  0.00  0.00     0.026 A 
ATOM      8  C6  UNL d   1       3.489   3.180   1.420  0.00  0.00    -0.082 A 
ATOM      9  C7  UNL d   1       4.606   3.824   2.005  0.00  0.00     0.045 A 
ENDROOT
TORSDOF 0
ENDMDL
