MODEL 1
REMARK minimizedAffinity 5.03253031
REMARK minimizedRMSD -1
REMARK  0 active torsions:
REMARK  status: ('A' for Active; 'I' for Inactive)
ROOT
ATOM      1  C   UNL d   1       1.308   1.572   1.059  0.00  0.00    -0.002 A 
ATOM      2  C1  UNL d   1       1.901   2.420   0.135  0.00  0.00     0.010 A 
ATOM      3  C2  UNL d   1       3.085   3.093   0.447  0.00  0.00     0.041 A 
ATOM      4  C3  UNL d   1       3.668   2.895   1.714  0.00  0.00    -0.075 A 
ATOM      5  S   UNL d   1       5.116   3.611   2.315  0.00  0.00     0.015 SA
ATOM      6  C4  UNL d   1       4.981   2.807   3.812  0.00  0.00     0.022 A 
ATOM      7  C5  UNL d   1       3.865   2.007   3.869  0.00  0.00     0.026 A 
ATOM      8  C6  UNL d   1       3.090   2.044   2.660  0.00  0.00    -0.082 A 
ATOM      9  C7  UNL d   1       1.889   1.377   2.314  0.00  0.00     0.045 A 
ENDROOT
TORSDOF 0
ENDMDL
