MODEL 1
REMARK minimizedAffinity 0.321866214
REMARK minimizedRMSD -1
REMARK  1 active torsions:
REMARK  status: ('A' for Active; 'I' for Inactive)
REMARK    1  A    between atoms: C1_2  and  C2_3 
ROOT
ATOM      1  C2  UNL d   1       4.309   0.709  -4.346  0.00  0.00    -0.081 A 
ATOM      2  C3  UNL d   1       3.300   1.304  -5.114  0.00  0.00     0.006 A 
ATOM      3  C4  UNL d   1       2.041   1.551  -4.560  0.00  0.00     0.002 A 
ATOM      4  C5  UNL d   1       1.773   1.215  -3.229  0.00  0.00    -0.080 A 
ATOM      5  C6  UNL d   1       0.436   1.503  -2.613  0.00  0.00     0.076 C 
ATOM      6  C7  UNL d   1       2.776   0.605  -2.467  0.00  0.00     0.002 A 
ATOM      7  C8  UNL d   1       4.034   0.357  -3.020  0.00  0.00     0.006 A 
ENDROOT
BRANCH   1   8
ATOM      8  C1  UNL d   1       5.687   0.500  -4.920  0.00  0.00     0.054 C 
ATOM      9  C   UNL d   1       5.997   1.527  -6.000  0.00  0.00     0.018 C 
ENDBRANCH   1   8
TORSDOF 1
ENDMDL
