MODEL 1
REMARK minimizedAffinity 3.89522696
REMARK minimizedRMSD -1
REMARK  1 active torsions:
REMARK  status: ('A' for Active; 'I' for Inactive)
REMARK    1  A    between atoms: C1_2  and  C2_3 
ROOT
ATOM      1  C2  UNL d   1       4.578   1.756   3.050  0.00  0.00    -0.081 A 
ATOM      2  C3  UNL d   1       5.546   1.904   4.051  0.00  0.00     0.006 A 
ATOM      3  C4  UNL d   1       5.999   0.794   4.767  0.00  0.00     0.002 A 
ATOM      4  C5  UNL d   1       5.499  -0.483   4.490  0.00  0.00    -0.080 A 
ATOM      5  C6  UNL d   1       6.000  -1.687   5.231  0.00  0.00     0.076 C 
ATOM      6  C7  UNL d   1       4.520  -0.628   3.502  0.00  0.00     0.002 A 
ATOM      7  C8  UNL d   1       4.065   0.481   2.785  0.00  0.00     0.006 A 
ENDROOT
BRANCH   1   8
ATOM      8  C1  UNL d   1       4.134   2.941   2.231  0.00  0.00     0.054 C 
ATOM      9  C   UNL d   1       3.004   2.567   1.283  0.00  0.00     0.018 C 
ENDBRANCH   1   8
TORSDOF 1
ENDMDL
