MODEL 1
REMARK minimizedAffinity 0.962341607
REMARK minimizedRMSD -1
REMARK  1 active torsions:
REMARK  status: ('A' for Active; 'I' for Inactive)
REMARK    1  A    between atoms: C1_2  and  C2_3 
ROOT
ATOM      1  C2  UNL d   1      -3.059   0.174   2.266  0.00  0.00    -0.081 A 
ATOM      2  C3  UNL d   1      -2.425   1.417   2.387  0.00  0.00     0.006 A 
ATOM      3  C4  UNL d   1      -2.277   2.248   1.274  0.00  0.00     0.002 A 
ATOM      4  C5  UNL d   1      -2.767   1.854   0.024  0.00  0.00    -0.080 A 
ATOM      5  C6  UNL d   1      -2.642   2.749  -1.173  0.00  0.00     0.076 C 
ATOM      6  C7  UNL d   1      -3.385   0.605  -0.101  0.00  0.00     0.002 A 
ATOM      7  C8  UNL d   1      -3.532  -0.227   1.012  0.00  0.00     0.006 A 
ENDROOT
BRANCH   1   8
ATOM      8  C1  UNL d   1      -3.277  -0.696   3.477  0.00  0.00     0.054 C 
ATOM      9  C   UNL d   1      -2.934   0.047   4.761  0.00  0.00     0.018 C 
ENDBRANCH   1   8
TORSDOF 1
ENDMDL
