MODEL 1
REMARK minimizedAffinity 2.71840835
REMARK minimizedRMSD -1
REMARK  1 active torsions:
REMARK  status: ('A' for Active; 'I' for Inactive)
REMARK    1  A    between atoms: C1_2  and  C2_3 
ROOT
ATOM      1  C2  UNL d   1      -4.735  -1.474   1.014  0.00  0.00    -0.081 A 
ATOM      2  C3  UNL d   1      -4.788  -1.104   2.364  0.00  0.00     0.006 A 
ATOM      3  C4  UNL d   1      -3.621  -0.758   3.049  0.00  0.00     0.002 A 
ATOM      4  C5  UNL d   1      -2.384  -0.768   2.395  0.00  0.00    -0.080 A 
ATOM      5  C6  UNL d   1      -1.128  -0.369   3.110  0.00  0.00     0.076 C 
ATOM      6  C7  UNL d   1      -2.329  -1.154   1.051  0.00  0.00     0.002 A 
ATOM      7  C8  UNL d   1      -3.496  -1.501   0.366  0.00  0.00     0.006 A 
ENDROOT
BRANCH   1   8
ATOM      8  C1  UNL d   1      -6.000  -1.786   0.255  0.00  0.00     0.054 C 
ATOM      9  C   UNL d   1      -6.000  -1.124  -1.115  0.00  0.00     0.018 C 
ENDBRANCH   1   8
TORSDOF 1
ENDMDL
