MODEL 1
REMARK minimizedAffinity 3.17156172
REMARK minimizedRMSD -1
REMARK  1 active torsions:
REMARK  status: ('A' for Active; 'I' for Inactive)
REMARK    1  A    between atoms: C1_2  and  C2_3 
ROOT
ATOM      1  C2  UNL d   1      -4.601  -1.139   1.237  0.00  0.00    -0.081 A 
ATOM      2  C3  UNL d   1      -3.328  -0.995   0.670  0.00  0.00     0.006 A 
ATOM      3  C4  UNL d   1      -2.222  -0.716   1.476  0.00  0.00     0.002 A 
ATOM      4  C5  UNL d   1      -2.368  -0.584   2.861  0.00  0.00    -0.080 A 
ATOM      5  C6  UNL d   1      -1.184  -0.314   3.741  0.00  0.00     0.076 C 
ATOM      6  C7  UNL d   1      -3.642  -0.710   3.425  0.00  0.00     0.002 A 
ATOM      7  C8  UNL d   1      -4.749  -0.988   2.620  0.00  0.00     0.006 A 
ENDROOT
BRANCH   1   8
ATOM      8  C1  UNL d   1      -5.785  -1.504   0.378  0.00  0.00     0.054 C 
ATOM      9  C   UNL d   1      -5.999  -0.484  -0.731  0.00  0.00     0.018 C 
ENDBRANCH   1   8
TORSDOF 1
ENDMDL
