MODEL 1
REMARK minimizedAffinity -5.45191956
REMARK minimizedRMSD -1
REMARK  1 active torsions:
REMARK  status: ('A' for Active; 'I' for Inactive)
REMARK    1  A    between atoms: C1_2  and  C2_3 
ROOT
ATOM      1  C2  UNL d   1       3.734   0.392  -4.941  0.00  0.00    -0.081 A 
ATOM      2  C3  UNL d   1       4.561  -0.708  -4.687  0.00  0.00     0.006 A 
ATOM      3  C4  UNL d   1       4.177  -1.685  -3.766  0.00  0.00     0.002 A 
ATOM      4  C5  UNL d   1       2.956  -1.583  -3.090  0.00  0.00    -0.080 A 
ATOM      5  C6  UNL d   1       2.518  -2.640  -2.121  0.00  0.00     0.076 C 
ATOM      6  C7  UNL d   1       2.137  -0.474  -3.332  0.00  0.00     0.002 A 
ATOM      7  C8  UNL d   1       2.521   0.503  -4.252  0.00  0.00     0.006 A 
ENDROOT
BRANCH   1   8
ATOM      8  C1  UNL d   1       4.116   1.414  -5.982  0.00  0.00     0.054 C 
ATOM      9  C   UNL d   1       5.562   1.858  -5.817  0.00  0.00     0.018 C 
ENDBRANCH   1   8
TORSDOF 1
ENDMDL
