MODEL 1
REMARK minimizedAffinity -2.12221241
REMARK minimizedRMSD -1
REMARK  1 active torsions:
REMARK  status: ('A' for Active; 'I' for Inactive)
REMARK    1  A    between atoms: C1_2  and  C2_3 
ROOT
ATOM      1  C2  UNL d   1      -2.298  -0.709   1.024  0.00  0.00    -0.081 A 
ATOM      2  C3  UNL d   1      -1.891   0.597   1.324  0.00  0.00     0.006 A 
ATOM      3  C4  UNL d   1      -2.367   1.242   2.469  0.00  0.00     0.002 A 
ATOM      4  C5  UNL d   1      -3.251   0.589   3.335  0.00  0.00    -0.080 A 
ATOM      5  C6  UNL d   1      -3.745   1.259   4.583  0.00  0.00     0.076 C 
ATOM      6  C7  UNL d   1      -3.670  -0.709   3.027  0.00  0.00     0.002 A 
ATOM      7  C8  UNL d   1      -3.195  -1.354   1.882  0.00  0.00     0.006 A 
ENDROOT
BRANCH   1   8
ATOM      8  C1  UNL d   1      -1.736  -1.430  -0.174  0.00  0.00     0.054 C 
ATOM      9  C   UNL d   1      -1.083  -2.745   0.227  0.00  0.00     0.018 C 
ENDBRANCH   1   8
TORSDOF 1
ENDMDL
