MODEL 1
REMARK minimizedAffinity -4.81256342
REMARK minimizedRMSD -1
REMARK  1 active torsions:
REMARK  status: ('A' for Active; 'I' for Inactive)
REMARK    1  A    between atoms: C1_2  and  C2_3 
ROOT
ATOM      1  C2  UNL d   1      -2.794   0.412   3.024  0.00  0.00    -0.081 A 
ATOM      2  C3  UNL d   1      -2.563   1.786   2.889  0.00  0.00     0.006 A 
ATOM      3  C4  UNL d   1      -2.510   2.374   1.623  0.00  0.00     0.002 A 
ATOM      4  C5  UNL d   1      -2.696   1.601   0.473  0.00  0.00    -0.080 A 
ATOM      5  C6  UNL d   1      -2.672   2.225  -0.891  0.00  0.00     0.076 C 
ATOM      6  C7  UNL d   1      -2.909   0.225   0.606  0.00  0.00     0.002 A 
ATOM      7  C8  UNL d   1      -2.961  -0.364   1.872  0.00  0.00     0.006 A 
ENDROOT
BRANCH   1   8
ATOM      8  C1  UNL d   1      -2.915  -0.215   4.390  0.00  0.00     0.054 C 
ATOM      9  C   UNL d   1      -4.372  -0.444   4.766  0.00  0.00     0.018 C 
ENDBRANCH   1   8
TORSDOF 1
ENDMDL
