MODEL 1
REMARK minimizedAffinity 9.3914938
REMARK minimizedRMSD -1
REMARK  1 active torsions:
REMARK  status: ('A' for Active; 'I' for Inactive)
REMARK    1  A    between atoms: C1_2  and  C2_3 
ROOT
ATOM      1  C2  UNL d   1       4.546   2.548   3.001  0.00  0.00    -0.081 A 
ATOM      2  C3  UNL d   1       5.535   2.695   3.982  0.00  0.00     0.006 A 
ATOM      3  C4  UNL d   1       5.999   1.585   4.691  0.00  0.00     0.002 A 
ATOM      4  C5  UNL d   1       5.489   0.309   4.426  0.00  0.00    -0.080 A 
ATOM      5  C6  UNL d   1       6.000  -0.895   5.160  0.00  0.00     0.076 C 
ATOM      6  C7  UNL d   1       4.489   0.165   3.459  0.00  0.00     0.002 A 
ATOM      7  C8  UNL d   1       4.024   1.274   2.749  0.00  0.00     0.006 A 
ENDROOT
BRANCH   1   8
ATOM      8  C1  UNL d   1       4.090   3.733   2.189  0.00  0.00     0.054 C 
ATOM      9  C   UNL d   1       2.916   3.370   1.291  0.00  0.00     0.018 C 
ENDBRANCH   1   8
TORSDOF 1
ENDMDL
