MODEL 1
REMARK minimizedAffinity 11.9466019
REMARK minimizedRMSD -1
REMARK  1 active torsions:
REMARK  status: ('A' for Active; 'I' for Inactive)
REMARK    1  A    between atoms: C1_2  and  C2_3 
ROOT
ATOM      1  C2  UNL d   1      -3.301  -5.352   0.415  0.00  0.00    -0.081 A 
ATOM      2  C3  UNL d   1      -2.991  -5.992  -0.790  0.00  0.00     0.006 A 
ATOM      3  C4  UNL d   1      -2.081  -5.420  -1.682  0.00  0.00     0.002 A 
ATOM      4  C5  UNL d   1      -1.461  -4.203  -1.380  0.00  0.00    -0.080 A 
ATOM      5  C6  UNL d   1      -0.459  -3.593  -2.316  0.00  0.00     0.076 C 
ATOM      6  C7  UNL d   1      -1.784  -3.554  -0.184  0.00  0.00     0.002 A 
ATOM      7  C8  UNL d   1      -2.695  -4.125   0.708  0.00  0.00     0.006 A 
ENDROOT
BRANCH   1   8
ATOM      8  C1  UNL d   1      -4.233  -5.998   1.409  0.00  0.00     0.054 C 
ATOM      9  C   UNL d   1      -5.690  -5.766   1.033  0.00  0.00     0.018 C 
ENDBRANCH   1   8
TORSDOF 1
ENDMDL
