MODEL 1
REMARK minimizedAffinity 8.07354736
REMARK minimizedRMSD -1
REMARK  1 active torsions:
REMARK  status: ('A' for Active; 'I' for Inactive)
REMARK    1  A    between atoms: C1_2  and  C2_3 
ROOT
ATOM      1  C2  UNL d   1      -2.128   0.513  -0.224  0.00  0.00    -0.081 A 
ATOM      2  C3  UNL d   1      -2.372   1.575   0.656  0.00  0.00     0.006 A 
ATOM      3  C4  UNL d   1      -2.852   1.331   1.945  0.00  0.00     0.002 A 
ATOM      4  C5  UNL d   1      -3.089   0.022   2.378  0.00  0.00    -0.080 A 
ATOM      5  C6  UNL d   1      -3.575  -0.256   3.769  0.00  0.00     0.076 C 
ATOM      6  C7  UNL d   1      -2.862  -1.038   1.493  0.00  0.00     0.002 A 
ATOM      7  C8  UNL d   1      -2.383  -0.795   0.204  0.00  0.00     0.006 A 
ENDROOT
BRANCH   1   8
ATOM      8  C1  UNL d   1      -1.549   0.769  -1.592  0.00  0.00     0.054 C 
ATOM      9  C   UNL d   1      -0.083   0.367  -1.656  0.00  0.00     0.018 C 
ENDBRANCH   1   8
TORSDOF 1
ENDMDL
