MODEL 1
REMARK minimizedAffinity 2.03648973
REMARK minimizedRMSD -1
REMARK  1 active torsions:
REMARK  status: ('A' for Active; 'I' for Inactive)
REMARK    1  A    between atoms: C1_2  and  C2_3 
ROOT
ATOM      1  C2  UNL d   1      -3.787  -0.859   1.757  0.00  0.00    -0.081 A 
ATOM      2  C3  UNL d   1      -5.177  -0.691   1.803  0.00  0.00     0.006 A 
ATOM      3  C4  UNL d   1      -5.895  -0.405   0.639  0.00  0.00     0.002 A 
ATOM      4  C5  UNL d   1      -5.237  -0.289  -0.590  0.00  0.00    -0.080 A 
ATOM      5  C6  UNL d   1      -6.000  -0.012  -1.852  0.00  0.00     0.076 C 
ATOM      6  C7  UNL d   1      -3.847  -0.439  -0.634  0.00  0.00     0.002 A 
ATOM      7  C8  UNL d   1      -3.129  -0.725   0.529  0.00  0.00     0.006 A 
ENDROOT
BRANCH   1   8
ATOM      8  C1  UNL d   1      -3.019  -1.231   2.998  0.00  0.00     0.054 C 
ATOM      9  C   UNL d   1      -2.621   0.003   3.795  0.00  0.00     0.018 C 
ENDBRANCH   1   8
TORSDOF 1
ENDMDL
