MODEL 1
REMARK minimizedAffinity -0.657897353
REMARK minimizedRMSD -1
REMARK  1 active torsions:
REMARK  status: ('A' for Active; 'I' for Inactive)
REMARK    1  A    between atoms: C1_2  and  C2_3 
ROOT
ATOM      1  C2  UNL d   1      -3.564   3.721   0.736  0.00  0.00    -0.081 A 
ATOM      2  C3  UNL d   1      -3.262   2.406   1.109  0.00  0.00     0.006 A 
ATOM      3  C4  UNL d   1      -2.272   1.688   0.435  0.00  0.00     0.002 A 
ATOM      4  C5  UNL d   1      -1.561   2.276  -0.617  0.00  0.00    -0.080 A 
ATOM      5  C6  UNL d   1      -0.475   1.526  -1.330  0.00  0.00     0.076 C 
ATOM      6  C7  UNL d   1      -1.875   3.584  -1.002  0.00  0.00     0.002 A 
ATOM      7  C8  UNL d   1      -2.866   4.302  -0.328  0.00  0.00     0.006 A 
ENDROOT
BRANCH   1   8
ATOM      8  C1  UNL d   1      -4.587   4.520   1.503  0.00  0.00     0.054 C 
ATOM      9  C   UNL d   1      -6.000   4.208   1.032  0.00  0.00     0.018 C 
ENDBRANCH   1   8
TORSDOF 1
ENDMDL
