MODEL 1
REMARK minimizedAffinity 1.14591801
REMARK minimizedRMSD -1
REMARK  1 active torsions:
REMARK  status: ('A' for Active; 'I' for Inactive)
REMARK    1  A    between atoms: C1_2  and  C2_3 
ROOT
ATOM      1  C2  UNL d   1      -2.822   2.543  -0.031  0.00  0.00    -0.081 A 
ATOM      2  C3  UNL d   1      -3.035   1.181  -0.276  0.00  0.00     0.006 A 
ATOM      3  C4  UNL d   1      -3.068   0.268   0.780  0.00  0.00     0.002 A 
ATOM      4  C5  UNL d   1      -2.895   0.702   2.099  0.00  0.00    -0.080 A 
ATOM      5  C6  UNL d   1      -2.958  -0.264   3.245  0.00  0.00     0.076 C 
ATOM      6  C7  UNL d   1      -2.664   2.060   2.343  0.00  0.00     0.002 A 
ATOM      7  C8  UNL d   1      -2.631   2.974   1.287  0.00  0.00     0.006 A 
ENDROOT
BRANCH   1   8
ATOM      8  C1  UNL d   1      -2.851   3.540  -1.162  0.00  0.00     0.054 C 
ATOM      9  C   UNL d   1      -3.508   4.844  -0.734  0.00  0.00     0.018 C 
ENDBRANCH   1   8
TORSDOF 1
ENDMDL
