MODEL 1
REMARK minimizedAffinity 3.13966227
REMARK minimizedRMSD -1
REMARK  1 active torsions:
REMARK  status: ('A' for Active; 'I' for Inactive)
REMARK    1  A    between atoms: C1_2  and  C2_3 
ROOT
ATOM      1  C2  UNL d   1       5.127   1.226  -5.740  0.00  0.00    -0.081 A 
ATOM      2  C3  UNL d   1       3.735   1.115  -5.854  0.00  0.00     0.006 A 
ATOM      3  C4  UNL d   1       2.933   2.258  -5.879  0.00  0.00     0.002 A 
ATOM      4  C5  UNL d   1       3.508   3.530  -5.798  0.00  0.00    -0.080 A 
ATOM      5  C6  UNL d   1       2.661   4.767  -5.854  0.00  0.00     0.076 C 
ATOM      6  C7  UNL d   1       4.897   3.641  -5.666  0.00  0.00     0.002 A 
ATOM      7  C8  UNL d   1       5.699   2.499  -5.641  0.00  0.00     0.006 A 
ENDROOT
BRANCH   1   8
ATOM      8  C1  UNL d   1       5.999  -0.003  -5.778  0.00  0.00     0.054 C 
ATOM      9  C   UNL d   1       6.000  -0.723  -4.438  0.00  0.00     0.018 C 
ENDBRANCH   1   8
TORSDOF 1
ENDMDL
