MODEL 1
REMARK minimizedAffinity 3.98098016
REMARK minimizedRMSD -1
REMARK  0 active torsions:
REMARK  status: ('A' for Active; 'I' for Inactive)
ROOT
ATOM      1  N1  IND d   1       1.646   4.344  -5.994  0.00  0.00    -0.196 N 
ATOM      2  C2  IND d   1       2.236   3.111  -5.994  0.00  0.00     0.054 A 
ATOM      3  C3  IND d   1       1.296   2.140  -5.957  0.00  0.00    -0.031 A 
ATOM      4  C4  IND d   1      -1.270   2.345  -5.997  0.00  0.00     0.051 A 
ATOM      5  C5  IND d   1      -2.277   3.268  -5.961  0.00  0.00    -0.031 A 
ATOM      6  C6  IND d   1      -2.023   4.624  -5.936  0.00  0.00     0.015 A 
ATOM      7  C7  IND d   1      -0.747   5.110  -5.958  0.00  0.00    -0.016 A 
ATOM      8  C8  IND d   1       0.279   4.176  -5.988  0.00  0.00    -0.047 A 
ATOM      9  C9  IND d   1       0.028   2.798  -5.970  0.00  0.00    -0.096 A 
ATOM     10  HN1 IND d   1       2.060   5.098  -5.997  0.00  0.00     0.298 HD
ENDROOT
TORSDOF 0
ENDMDL
