MODEL 1
REMARK minimizedAffinity 1.81945515
REMARK minimizedRMSD -1
REMARK  0 active torsions:
REMARK  status: ('A' for Active; 'I' for Inactive)
ROOT
ATOM      1  N1  IND d   1      -1.502   5.655  -3.762  0.00  0.00    -0.196 N 
ATOM      2  C2  IND d   1      -2.132   5.999  -4.926  0.00  0.00     0.054 A 
ATOM      3  C3  IND d   1      -1.563   5.363  -5.974  0.00  0.00    -0.031 A 
ATOM      4  C4  IND d   1       0.346   3.635  -6.000  0.00  0.00     0.051 A 
ATOM      5  C5  IND d   1       1.261   3.029  -5.186  0.00  0.00    -0.031 A 
ATOM      6  C6  IND d   1       1.301   3.270  -3.828  0.00  0.00     0.015 A 
ATOM      7  C7  IND d   1       0.416   4.121  -3.229  0.00  0.00    -0.016 A 
ATOM      8  C8  IND d   1      -0.510   4.744  -4.053  0.00  0.00    -0.047 A 
ATOM      9  C9  IND d   1      -0.528   4.536  -5.439  0.00  0.00    -0.096 A 
ATOM     10  HN1 IND d   1      -1.693   5.957  -2.980  0.00  0.00     0.298 HD
ENDROOT
TORSDOF 0
ENDMDL
