MODEL 1
REMARK minimizedAffinity -0.487709016
REMARK minimizedRMSD -1
REMARK  0 active torsions:
REMARK  status: ('A' for Active; 'I' for Inactive)
ROOT
ATOM      1  N1  IND d   1      -2.790   4.337  -5.980  0.00  0.00    -0.196 N 
ATOM      2  C2  IND d   1      -3.113   3.009  -5.979  0.00  0.00     0.054 A 
ATOM      3  C3  IND d   1      -1.992   2.253  -6.000  0.00  0.00    -0.031 A 
ATOM      4  C4  IND d   1       0.475   2.984  -5.934  0.00  0.00     0.051 A 
ATOM      5  C5  IND d   1       1.271   4.095  -5.965  0.00  0.00    -0.031 A 
ATOM      6  C6  IND d   1       0.743   5.369  -6.000  0.00  0.00     0.015 A 
ATOM      7  C7  IND d   1      -0.607   5.581  -5.994  0.00  0.00    -0.016 A 
ATOM      8  C8  IND d   1      -1.418   4.455  -5.970  0.00  0.00    -0.047 A 
ATOM      9  C9  IND d   1      -0.888   3.159  -5.977  0.00  0.00    -0.096 A 
ATOM     10  HN1 IND d   1      -3.351   4.990  -5.985  0.00  0.00     0.298 HD
ENDROOT
TORSDOF 0
ENDMDL
