MODEL 1
REMARK minimizedAffinity -2.98758578
REMARK minimizedRMSD -1
REMARK  0 active torsions:
REMARK  status: ('A' for Active; 'I' for Inactive)
ROOT
ATOM      1  N1  IND d   1      -0.048   5.259  -6.000  0.00  0.00    -0.196 N 
ATOM      2  C2  IND d   1       0.574   4.042  -5.980  0.00  0.00     0.054 A 
ATOM      3  C3  IND d   1      -0.340   3.047  -5.935  0.00  0.00    -0.031 A 
ATOM      4  C4  IND d   1      -2.910   3.183  -5.989  0.00  0.00     0.051 A 
ATOM      5  C5  IND d   1      -3.942   4.079  -5.969  0.00  0.00    -0.031 A 
ATOM      6  C6  IND d   1      -3.724   5.442  -5.962  0.00  0.00     0.015 A 
ATOM      7  C7  IND d   1      -2.461   5.962  -5.985  0.00  0.00    -0.016 A 
ATOM      8  C8  IND d   1      -1.411   5.055  -5.997  0.00  0.00    -0.047 A 
ATOM      9  C9  IND d   1      -1.625   3.671  -5.962  0.00  0.00    -0.096 A 
ATOM     10  HN1 IND d   1       0.345   6.023  -6.012  0.00  0.00     0.298 HD
ENDROOT
TORSDOF 0
ENDMDL
