MODEL 1
REMARK minimizedAffinity 2.90817785
REMARK minimizedRMSD -1
REMARK  0 active torsions:
REMARK  status: ('A' for Active; 'I' for Inactive)
ROOT
ATOM      1  N1  IND d   1       0.019   2.213  -5.893  0.00  0.00    -0.196 N 
ATOM      2  C2  IND d   1       1.211   2.882  -5.923  0.00  0.00     0.054 A 
ATOM      3  C3  IND d   1       1.001   4.215  -5.996  0.00  0.00    -0.031 A 
ATOM      4  C4  IND d   1      -1.215   5.525  -5.974  0.00  0.00     0.051 A 
ATOM      5  C5  IND d   1      -2.570   5.350  -5.994  0.00  0.00    -0.031 A 
ATOM      6  C6  IND d   1      -3.143   4.095  -5.978  0.00  0.00     0.015 A 
ATOM      7  C7  IND d   1      -2.379   2.963  -5.930  0.00  0.00    -0.016 A 
ATOM      8  C8  IND d   1      -1.002   3.137  -5.917  0.00  0.00    -0.047 A 
ATOM      9  C9  IND d   1      -0.414   4.408  -5.976  0.00  0.00    -0.096 A 
ATOM     10  HN1 IND d   1      -0.077   1.359  -5.864  0.00  0.00     0.298 HD
ENDROOT
TORSDOF 0
ENDMDL
