MODEL 1
REMARK minimizedAffinity 12.1062946
REMARK minimizedRMSD -1
REMARK  0 active torsions:
REMARK  status: ('A' for Active; 'I' for Inactive)
ROOT
ATOM      1  N1  IND d   1      -0.002  -4.268  -1.872  0.00  0.00    -0.196 N 
ATOM      2  C2  IND d   1      -1.350  -4.488  -1.823  0.00  0.00     0.054 A 
ATOM      3  C3  IND d   1      -1.959  -3.519  -1.104  0.00  0.00    -0.031 A 
ATOM      4  C4  IND d   1      -0.951  -1.422  -0.002  0.00  0.00     0.051 A 
ATOM      5  C5  IND d   1       0.242  -0.809   0.256  0.00  0.00    -0.031 A 
ATOM      6  C6  IND d   1       1.440  -1.326  -0.194  0.00  0.00     0.015 A 
ATOM      7  C7  IND d   1       1.487  -2.476  -0.931  0.00  0.00    -0.016 A 
ATOM      8  C8  IND d   1       0.277  -3.105  -1.189  0.00  0.00    -0.047 A 
ATOM      9  C9  IND d   1      -0.937  -2.607  -0.699  0.00  0.00    -0.096 A 
ATOM     10  HN1 IND d   1       0.575  -4.772  -2.262  0.00  0.00     0.298 HD
ENDROOT
TORSDOF 0
ENDMDL
