MODEL 1
REMARK minimizedAffinity 6.86786699
REMARK minimizedRMSD -1
REMARK  0 active torsions:
REMARK  status: ('A' for Active; 'I' for Inactive)
ROOT
ATOM      1  N1  IND d   1       1.513   2.697  -5.983  0.00  0.00    -0.196 N 
ATOM      2  C2  IND d   1       0.583   3.699  -5.951  0.00  0.00     0.054 A 
ATOM      3  C3  IND d   1       1.193   4.905  -5.908  0.00  0.00    -0.031 A 
ATOM      4  C4  IND d   1       3.703   5.473  -5.986  0.00  0.00     0.051 A 
ATOM      5  C5  IND d   1       4.939   4.891  -5.981  0.00  0.00    -0.031 A 
ATOM      6  C6  IND d   1       5.100   3.521  -5.979  0.00  0.00     0.015 A 
ATOM      7  C7  IND d   1       4.026   2.677  -5.993  0.00  0.00    -0.016 A 
ATOM      8  C8  IND d   1       2.769   3.264  -5.992  0.00  0.00    -0.047 A 
ATOM      9  C9  IND d   1       2.599   4.654  -5.951  0.00  0.00    -0.096 A 
ATOM     10  HN1 IND d   1       1.342   1.855  -5.995  0.00  0.00     0.298 HD
ENDROOT
TORSDOF 0
ENDMDL
