MODEL 1
REMARK minimizedAffinity 1.57449961
REMARK minimizedRMSD -1
REMARK  0 active torsions:
REMARK  status: ('A' for Active; 'I' for Inactive)
ROOT
ATOM      1  N1  IND d   1      -4.245   4.223  -5.997  0.00  0.00    -0.196 N 
ATOM      2  C2  IND d   1      -4.080   5.580  -5.981  0.00  0.00     0.054 A 
ATOM      3  C3  IND d   1      -2.766   5.894  -5.941  0.00  0.00    -0.031 A 
ATOM      4  C4  IND d   1      -0.712   4.343  -6.000  0.00  0.00     0.051 A 
ATOM      5  C5  IND d   1      -0.358   3.023  -5.979  0.00  0.00    -0.031 A 
ATOM      6  C6  IND d   1      -1.300   2.015  -5.966  0.00  0.00     0.015 A 
ATOM      7  C7  IND d   1      -2.638   2.291  -5.985  0.00  0.00    -0.016 A 
ATOM      8  C8  IND d   1      -3.002   3.631  -5.998  0.00  0.00    -0.047 A 
ATOM      9  C9  IND d   1      -2.050   4.658  -5.969  0.00  0.00    -0.096 A 
ATOM     10  HN1 IND d   1      -4.999   3.810  -6.005  0.00  0.00     0.298 HD
ENDROOT
TORSDOF 0
ENDMDL
