MODEL 1
REMARK minimizedAffinity 4.82282925
REMARK minimizedRMSD -1
REMARK  0 active torsions:
REMARK  status: ('A' for Active; 'I' for Inactive)
ROOT
ATOM      1  N1  IND d   1       1.252   5.280  -5.516  0.00  0.00    -0.196 N 
ATOM      2  C2  IND d   1       1.773   4.110  -5.993  0.00  0.00     0.054 A 
ATOM      3  C3  IND d   1       0.830   3.142  -5.999  0.00  0.00    -0.031 A 
ATOM      4  C4  IND d   1      -1.662   3.283  -5.366  0.00  0.00     0.051 A 
ATOM      5  C5  IND d   1      -2.593   4.134  -4.840  0.00  0.00    -0.031 A 
ATOM      6  C6  IND d   1      -2.285   5.437  -4.508  0.00  0.00     0.015 A 
ATOM      7  C7  IND d   1      -1.031   5.944  -4.702  0.00  0.00    -0.016 A 
ATOM      8  C8  IND d   1      -0.081   5.081  -5.229  0.00  0.00    -0.047 A 
ATOM      9  C9  IND d   1      -0.377   3.745  -5.528  0.00  0.00    -0.096 A 
ATOM     10  HN1 IND d   1       1.683   6.016  -5.413  0.00  0.00     0.298 HD
ENDROOT
TORSDOF 0
ENDMDL
