MODEL 1
REMARK minimizedAffinity -1.59857178
REMARK minimizedRMSD -1
REMARK  0 active torsions:
REMARK  status: ('A' for Active; 'I' for Inactive)
ROOT
ATOM      1  N1  IND d   1       0.709   4.948  -6.000  0.00  0.00    -0.196 N 
ATOM      2  C2  IND d   1       1.264   3.699  -5.994  0.00  0.00     0.054 A 
ATOM      3  C3  IND d   1       0.297   2.755  -5.954  0.00  0.00    -0.031 A 
ATOM      4  C4  IND d   1      -2.262   3.031  -5.995  0.00  0.00     0.051 A 
ATOM      5  C5  IND d   1      -3.243   3.981  -5.962  0.00  0.00    -0.031 A 
ATOM      6  C6  IND d   1      -2.952   5.330  -5.943  0.00  0.00     0.015 A 
ATOM      7  C7  IND d   1      -1.662   5.780  -5.967  0.00  0.00    -0.016 A 
ATOM      8  C8  IND d   1      -0.663   4.818  -5.993  0.00  0.00    -0.047 A 
ATOM      9  C9  IND d   1      -0.952   3.448  -5.970  0.00  0.00    -0.096 A 
ATOM     10  HN1 IND d   1       1.143   5.690  -6.007  0.00  0.00     0.298 HD
ENDROOT
TORSDOF 0
ENDMDL
