MODEL 1
REMARK minimizedAffinity -2.27109981
REMARK minimizedRMSD -1
REMARK  0 active torsions:
REMARK  status: ('A' for Active; 'I' for Inactive)
ROOT
ATOM      1  N1  IND d   1      -0.139   5.207  -5.969  0.00  0.00    -0.196 N 
ATOM      2  C2  IND d   1       0.438   3.967  -5.962  0.00  0.00     0.054 A 
ATOM      3  C3  IND d   1      -0.513   3.007  -5.929  0.00  0.00    -0.031 A 
ATOM      4  C4  IND d   1      -3.076   3.240  -5.985  0.00  0.00     0.051 A 
ATOM      5  C5  IND d   1      -4.074   4.174  -5.957  0.00  0.00    -0.031 A 
ATOM      6  C6  IND d   1      -3.805   5.527  -5.934  0.00  0.00     0.015 A 
ATOM      7  C7  IND d   1      -2.523   5.999  -5.949  0.00  0.00    -0.016 A 
ATOM      8  C8  IND d   1      -1.508   5.054  -5.971  0.00  0.00    -0.047 A 
ATOM      9  C9  IND d   1      -1.774   3.679  -5.951  0.00  0.00    -0.096 A 
ATOM     10  HN1 IND d   1       0.283   5.956  -5.972  0.00  0.00     0.298 HD
ENDROOT
TORSDOF 0
ENDMDL
