MODEL 1
REMARK minimizedAffinity -1.94892931
REMARK minimizedRMSD -1
REMARK  0 active torsions:
REMARK  status: ('A' for Active; 'I' for Inactive)
ROOT
ATOM      1  N1  IND d   1      -2.048   5.786  -5.973  0.00  0.00    -0.196 N 
ATOM      2  C2  IND d   1      -3.390   5.522  -5.975  0.00  0.00     0.054 A 
ATOM      3  C3  IND d   1      -3.607   4.188  -5.999  0.00  0.00    -0.031 A 
ATOM      4  C4  IND d   1      -1.909   2.253  -5.937  0.00  0.00     0.051 A 
ATOM      5  C5  IND d   1      -0.567   1.996  -5.968  0.00  0.00    -0.031 A 
ATOM      6  C6  IND d   1       0.369   3.010  -6.000  0.00  0.00     0.015 A 
ATOM      7  C7  IND d   1      -0.004   4.324  -5.991  0.00  0.00    -0.016 A 
ATOM      8  C8  IND d   1      -1.366   4.589  -5.967  0.00  0.00    -0.047 A 
ATOM      9  C9  IND d   1      -2.321   3.564  -5.978  0.00  0.00    -0.096 A 
ATOM     10  HN1 IND d   1      -1.691   6.568  -5.976  0.00  0.00     0.298 HD
ENDROOT
TORSDOF 0
ENDMDL
