MODEL 1
REMARK minimizedAffinity 0.802155375
REMARK minimizedRMSD -1
REMARK  0 active torsions:
REMARK  status: ('A' for Active; 'I' for Inactive)
ROOT
ATOM      1  N1  IND d   1      -1.843   4.282  -5.991  0.00  0.00    -0.196 N 
ATOM      2  C2  IND d   1      -2.301   2.994  -5.987  0.00  0.00     0.054 A 
ATOM      3  C3  IND d   1      -1.264   2.126  -6.000  0.00  0.00    -0.031 A 
ATOM      4  C4  IND d   1       1.266   2.599  -5.926  0.00  0.00     0.051 A 
ATOM      5  C5  IND d   1       2.172   3.622  -5.957  0.00  0.00    -0.031 A 
ATOM      6  C6  IND d   1       1.778   4.944  -5.999  0.00  0.00     0.015 A 
ATOM      7  C7  IND d   1       0.457   5.294  -6.000  0.00  0.00    -0.016 A 
ATOM      8  C8  IND d   1      -0.466   4.258  -5.975  0.00  0.00    -0.047 A 
ATOM      9  C9  IND d   1      -0.072   2.913  -5.976  0.00  0.00    -0.096 A 
ATOM     10  HN1 IND d   1      -2.333   4.989  -6.001  0.00  0.00     0.298 HD
ENDROOT
TORSDOF 0
ENDMDL
