MODEL 1
REMARK minimizedAffinity -0.996186554
REMARK minimizedRMSD -1
REMARK  0 active torsions:
REMARK  status: ('A' for Active; 'I' for Inactive)
ROOT
ATOM      1  N1  IND d   1       0.732   4.523  -5.956  0.00  0.00    -0.196 N 
ATOM      2  C2  IND d   1       1.307   3.283  -5.925  0.00  0.00     0.054 A 
ATOM      3  C3  IND d   1       0.355   2.324  -5.898  0.00  0.00    -0.031 A 
ATOM      4  C4  IND d   1      -2.207   2.558  -6.000  0.00  0.00     0.051 A 
ATOM      5  C5  IND d   1      -3.203   3.493  -5.999  0.00  0.00    -0.031 A 
ATOM      6  C6  IND d   1      -2.934   4.846  -5.987  0.00  0.00     0.015 A 
ATOM      7  C7  IND d   1      -1.652   5.317  -5.985  0.00  0.00    -0.016 A 
ATOM      8  C8  IND d   1      -0.637   4.371  -5.979  0.00  0.00    -0.047 A 
ATOM      9  C9  IND d   1      -0.904   2.996  -5.949  0.00  0.00    -0.096 A 
ATOM     10  HN1 IND d   1       1.155   5.272  -5.959  0.00  0.00     0.298 HD
ENDROOT
TORSDOF 0
ENDMDL
