MODEL 1
REMARK minimizedAffinity -0.73479712
REMARK minimizedRMSD -1
REMARK  0 active torsions:
REMARK  status: ('A' for Active; 'I' for Inactive)
ROOT
ATOM      1  C   UNL d   1      -0.399   0.910   1.422  0.00  0.00     0.020 A 
ATOM      2  C1  UNL d   1      -1.561   1.238   0.725  0.00  0.00     0.020 A 
ATOM      3  C2  UNL d   1      -1.940   0.492  -0.393  0.00  0.00     0.034 A 
ATOM      4  C3  UNL d   1      -1.155  -0.586  -0.818  0.00  0.00     0.017 A 
ATOM      5  C4  UNL d   1       0.011  -0.915  -0.118  0.00  0.00     0.017 A 
ATOM      6  C5  UNL d   1       0.386  -0.165   1.001  0.00  0.00     0.034 A 
ATOM      7 Cl   UNL d   1       1.030  -2.232  -0.582  0.00  0.00    -0.070 Cl
ATOM      8 Cl1  UNL d   1      -1.684  -1.466  -2.208  0.00  0.00    -0.070 Cl
ENDROOT
TORSDOF 0
ENDMDL
