MODEL 1
REMARK minimizedAffinity -4.52503204
REMARK minimizedRMSD -1
REMARK  0 active torsions:
REMARK  status: ('A' for Active; 'I' for Inactive)
ROOT
ATOM      1  C   UNL d   1      -0.112   1.731   1.551  0.00  0.00     0.020 A 
ATOM      2  C1  UNL d   1      -0.843   0.773   0.849  0.00  0.00     0.020 A 
ATOM      3  C2  UNL d   1      -0.180  -0.242   0.158  0.00  0.00     0.034 A 
ATOM      4  C3  UNL d   1       1.219  -0.303   0.166  0.00  0.00     0.017 A 
ATOM      5  C4  UNL d   1       1.951   0.659   0.871  0.00  0.00     0.017 A 
ATOM      6  C5  UNL d   1       1.282   1.674   1.562  0.00  0.00     0.034 A 
ATOM      7 Cl   UNL d   1       3.679   0.650   0.928  0.00  0.00    -0.070 Cl
ATOM      8 Cl1  UNL d   1       1.973  -1.586  -0.710  0.00  0.00    -0.070 Cl
ENDROOT
TORSDOF 0
ENDMDL
