MODEL 1
REMARK minimizedAffinity -2.6627624
REMARK minimizedRMSD -1
REMARK  0 active torsions:
REMARK  status: ('A' for Active; 'I' for Inactive)
ROOT
ATOM      1  C   UNL d   1      -1.266   0.688   1.664  0.00  0.00     0.020 A 
ATOM      2  C1  UNL d   1      -0.202   1.552   1.919  0.00  0.00     0.020 A 
ATOM      3  C2  UNL d   1       1.026   1.354   1.285  0.00  0.00     0.034 A 
ATOM      4  C3  UNL d   1       1.194   0.288   0.393  0.00  0.00     0.017 A 
ATOM      5  C4  UNL d   1       0.126  -0.580   0.139  0.00  0.00     0.017 A 
ATOM      6  C5  UNL d   1      -1.102  -0.376   0.776  0.00  0.00     0.034 A 
ATOM      7 Cl   UNL d   1       0.256  -1.917  -0.948  0.00  0.00    -0.070 Cl
ATOM      8 Cl1  UNL d   1       2.740   0.102  -0.355  0.00  0.00    -0.070 Cl
ENDROOT
TORSDOF 0
ENDMDL
