MODEL 1
REMARK minimizedAffinity -2.72849798
REMARK minimizedRMSD -1
REMARK  0 active torsions:
REMARK  status: ('A' for Active; 'I' for Inactive)
ROOT
ATOM      1  C   UNL d   1      -1.188  -1.453  -2.932  0.00  0.00     0.020 A 
ATOM      2  C1  UNL d   1      -2.191  -1.870  -2.058  0.00  0.00     0.020 A 
ATOM      3  C2  UNL d   1      -2.042  -1.680  -0.683  0.00  0.00     0.034 A 
ATOM      4  C3  UNL d   1      -0.887  -1.071  -0.177  0.00  0.00     0.017 A 
ATOM      5  C4  UNL d   1       0.119  -0.652  -1.056  0.00  0.00     0.017 A 
ATOM      6  C5  UNL d   1      -0.036  -0.845  -2.432  0.00  0.00     0.034 A 
ATOM      7 Cl   UNL d   1       1.571   0.107  -0.507  0.00  0.00    -0.070 Cl
ATOM      8 Cl1  UNL d   1      -0.770  -0.868   1.535  0.00  0.00    -0.070 Cl
ENDROOT
TORSDOF 0
ENDMDL
