MODEL 1
REMARK minimizedAffinity 1.07527828
REMARK minimizedRMSD -1
REMARK  0 active torsions:
REMARK  status: ('A' for Active; 'I' for Inactive)
ROOT
ATOM      1  C   UNL d   1      -0.021   1.165   1.867  0.00  0.00     0.020 A 
ATOM      2  C1  UNL d   1      -1.199   1.418   1.164  0.00  0.00     0.020 A 
ATOM      3  C2  UNL d   1      -1.298   1.063  -0.183  0.00  0.00     0.034 A 
ATOM      4  C3  UNL d   1      -0.218   0.454  -0.832  0.00  0.00     0.017 A 
ATOM      5  C4  UNL d   1       0.964   0.201  -0.126  0.00  0.00     0.017 A 
ATOM      6  C5  UNL d   1       1.058   0.558   1.222  0.00  0.00     0.034 A 
ATOM      7 Cl   UNL d   1       2.339  -0.547  -0.859  0.00  0.00    -0.070 Cl
ATOM      8 Cl1  UNL d   1      -0.411   0.042  -2.499  0.00  0.00    -0.070 Cl
ENDROOT
TORSDOF 0
ENDMDL
