MODEL 1
REMARK minimizedAffinity 0.158371761
REMARK minimizedRMSD -1
REMARK  0 active torsions:
REMARK  status: ('A' for Active; 'I' for Inactive)
ROOT
ATOM      1  C   UNL d   1      -0.418   0.811   1.373  0.00  0.00     0.020 A 
ATOM      2  C1  UNL d   1      -1.543   1.223   0.660  0.00  0.00     0.020 A 
ATOM      3  C2  UNL d   1      -1.981   0.485  -0.442  0.00  0.00     0.034 A 
ATOM      4  C3  UNL d   1      -1.294  -0.669  -0.834  0.00  0.00     0.017 A 
ATOM      5  C4  UNL d   1      -0.165  -1.083  -0.118  0.00  0.00     0.017 A 
ATOM      6  C5  UNL d   1       0.269  -0.340   0.985  0.00  0.00     0.034 A 
ATOM      7 Cl   UNL d   1       0.736  -2.496  -0.541  0.00  0.00    -0.070 Cl
ATOM      8 Cl1  UNL d   1      -1.891  -1.534  -2.205  0.00  0.00    -0.070 Cl
ENDROOT
TORSDOF 0
ENDMDL
