MODEL 1
REMARK minimizedAffinity -0.717303693
REMARK minimizedRMSD -1
REMARK  0 active torsions:
REMARK  status: ('A' for Active; 'I' for Inactive)
ROOT
ATOM      1  C   UNL d   1       2.337   1.197   0.985  0.00  0.00     0.020 A 
ATOM      2  C1  UNL d   1       1.824   1.926   2.057  0.00  0.00     0.020 A 
ATOM      3  C2  UNL d   1       0.448   1.949   2.292  0.00  0.00     0.034 A 
ATOM      4  C3  UNL d   1      -0.421   1.241   1.453  0.00  0.00     0.017 A 
ATOM      5  C4  UNL d   1       0.095   0.509   0.377  0.00  0.00     0.017 A 
ATOM      6  C5  UNL d   1       1.474   0.490   0.147  0.00  0.00     0.034 A 
ATOM      7 Cl   UNL d   1      -0.914  -0.389  -0.701  0.00  0.00    -0.070 Cl
ATOM      8 Cl1  UNL d   1      -2.111   1.314   1.802  0.00  0.00    -0.070 Cl
ENDROOT
TORSDOF 0
ENDMDL
