MODEL 1
REMARK minimizedAffinity -1.70987928
REMARK minimizedRMSD -1
REMARK  0 active torsions:
REMARK  status: ('A' for Active; 'I' for Inactive)
ROOT
ATOM      1  C   UNL d   1       0.166   1.463   1.804  0.00  0.00     0.020 A 
ATOM      2  C1  UNL d   1      -1.203   1.213   1.705  0.00  0.00     0.020 A 
ATOM      3  C2  UNL d   1      -1.676   0.268   0.793  0.00  0.00     0.034 A 
ATOM      4  C3  UNL d   1      -0.780  -0.431  -0.025  0.00  0.00     0.017 A 
ATOM      5  C4  UNL d   1       0.593  -0.179   0.074  0.00  0.00     0.017 A 
ATOM      6  C5  UNL d   1       1.061   0.768   0.990  0.00  0.00     0.034 A 
ATOM      7 Cl   UNL d   1       1.759  -1.001  -0.901  0.00  0.00    -0.070 Cl
ATOM      8 Cl1  UNL d   1      -1.435  -1.586  -1.131  0.00  0.00    -0.070 Cl
ENDROOT
TORSDOF 0
ENDMDL
