MODEL 1
REMARK minimizedAffinity -1.33080089
REMARK minimizedRMSD -1
REMARK  0 active torsions:
REMARK  status: ('A' for Active; 'I' for Inactive)
ROOT
ATOM      1  C   UNL d   1      -0.909  -1.265  -0.716  0.00  0.00     0.020 A 
ATOM      2  C1  UNL d   1      -1.593  -0.609   0.307  0.00  0.00     0.020 A 
ATOM      3  C2  UNL d   1      -0.908   0.261   1.158  0.00  0.00     0.034 A 
ATOM      4  C3  UNL d   1       0.464   0.477   0.988  0.00  0.00     0.017 A 
ATOM      5  C4  UNL d   1       1.149  -0.181  -0.039  0.00  0.00     0.017 A 
ATOM      6  C5  UNL d   1       0.459  -1.051  -0.889  0.00  0.00     0.034 A 
ATOM      7 Cl   UNL d   1       2.842   0.036  -0.312  0.00  0.00    -0.070 Cl
ATOM      8 Cl1  UNL d   1       1.246   1.567   2.077  0.00  0.00    -0.070 Cl
ENDROOT
TORSDOF 0
ENDMDL
