MODEL 1
REMARK minimizedAffinity -0.803455114
REMARK minimizedRMSD -1
REMARK  0 active torsions:
REMARK  status: ('A' for Active; 'I' for Inactive)
ROOT
ATOM      1  C   UNL d   1      -0.658  -1.294  -0.371  0.00  0.00     0.020 A 
ATOM      2  C1  UNL d   1      -1.489  -0.579   0.491  0.00  0.00     0.020 A 
ATOM      3  C2  UNL d   1      -0.978   0.493   1.225  0.00  0.00     0.034 A 
ATOM      4  C3  UNL d   1       0.369   0.853   1.100  0.00  0.00     0.017 A 
ATOM      5  C4  UNL d   1       1.203   0.135   0.234  0.00  0.00     0.017 A 
ATOM      6  C5  UNL d   1       0.685  -0.937  -0.499  0.00  0.00     0.034 A 
ATOM      7 Cl   UNL d   1       2.875   0.521   0.026  0.00  0.00    -0.070 Cl
ATOM      8 Cl1  UNL d   1       0.934   2.190   2.038  0.00  0.00    -0.070 Cl
ENDROOT
TORSDOF 0
ENDMDL
