MODEL 1
REMARK minimizedAffinity -2.28518677
REMARK minimizedRMSD -1
REMARK  0 active torsions:
REMARK  status: ('A' for Active; 'I' for Inactive)
ROOT
ATOM      1  C   UNL d   1      -0.838  -1.321  -3.139  0.00  0.00     0.020 A 
ATOM      2  C1  UNL d   1      -1.860  -2.189  -3.522  0.00  0.00     0.020 A 
ATOM      3  C2  UNL d   1      -2.791  -2.631  -2.580  0.00  0.00     0.034 A 
ATOM      4  C3  UNL d   1      -2.703  -2.205  -1.250  0.00  0.00     0.017 A 
ATOM      5  C4  UNL d   1      -1.677  -1.334  -0.866  0.00  0.00     0.017 A 
ATOM      6  C5  UNL d   1      -0.747  -0.894  -1.813  0.00  0.00     0.034 A 
ATOM      7 Cl   UNL d   1      -1.503  -0.765   0.757  0.00  0.00    -0.070 Cl
ATOM      8 Cl1  UNL d   1      -3.889  -2.791  -0.139  0.00  0.00    -0.070 Cl
ENDROOT
TORSDOF 0
ENDMDL
