MODEL 1
REMARK minimizedAffinity -0.322529644
REMARK minimizedRMSD -1
REMARK  0 active torsions:
REMARK  status: ('A' for Active; 'I' for Inactive)
ROOT
ATOM      1  C   UNL d   1      -0.286   1.521   2.515  0.00  0.00     0.020 A 
ATOM      2  C1  UNL d   1      -1.556   0.990   2.296  0.00  0.00     0.020 A 
ATOM      3  C2  UNL d   1      -1.749   0.029   1.301  0.00  0.00     0.034 A 
ATOM      4  C3  UNL d   1      -0.670  -0.404   0.522  0.00  0.00     0.017 A 
ATOM      5  C4  UNL d   1       0.605   0.130   0.743  0.00  0.00     0.017 A 
ATOM      6  C5  UNL d   1       0.792   1.092   1.740  0.00  0.00     0.034 A 
ATOM      7 Cl   UNL d   1       1.985  -0.355  -0.178  0.00  0.00    -0.070 Cl
ATOM      8 Cl1  UNL d   1      -0.980  -1.596  -0.690  0.00  0.00    -0.070 Cl
ENDROOT
TORSDOF 0
ENDMDL
