MODEL 1
REMARK minimizedAffinity -4.27560234
REMARK minimizedRMSD -1
REMARK  0 active torsions:
REMARK  status: ('A' for Active; 'I' for Inactive)
ROOT
ATOM      1  C   UNL d   1       1.660   1.596   1.882  0.00  0.00     0.020 A 
ATOM      2  C1  UNL d   1       0.273   1.462   1.949  0.00  0.00     0.020 A 
ATOM      3  C2  UNL d   1      -0.383   0.564   1.105  0.00  0.00     0.034 A 
ATOM      4  C3  UNL d   1       0.347  -0.203   0.190  0.00  0.00     0.017 A 
ATOM      5  C4  UNL d   1       1.739  -0.068   0.123  0.00  0.00     0.017 A 
ATOM      6  C5  UNL d   1       2.390   0.833   0.971  0.00  0.00     0.034 A 
ATOM      7 Cl   UNL d   1       2.707  -0.980  -0.980  0.00  0.00    -0.070 Cl
ATOM      8 Cl1  UNL d   1      -0.529  -1.294  -0.823  0.00  0.00    -0.070 Cl
ENDROOT
TORSDOF 0
ENDMDL
