MODEL 1
REMARK minimizedAffinity -1.17187786
REMARK minimizedRMSD -1
REMARK  0 active torsions:
REMARK  status: ('A' for Active; 'I' for Inactive)
ROOT
ATOM      1  C   UNL d   1       0.736  -2.139  -2.321  0.00  0.00     0.020 A 
ATOM      2  C1  UNL d   1      -0.290  -2.507  -3.191  0.00  0.00     0.020 A 
ATOM      3  C2  UNL d   1      -1.621  -2.267  -2.842  0.00  0.00     0.034 A 
ATOM      4  C3  UNL d   1      -1.930  -1.658  -1.621  0.00  0.00     0.017 A 
ATOM      5  C4  UNL d   1      -0.900  -1.289  -0.748  0.00  0.00     0.017 A 
ATOM      6  C5  UNL d   1       0.431  -1.531  -1.102  0.00  0.00     0.034 A 
ATOM      7 Cl   UNL d   1      -1.203  -0.533   0.776  0.00  0.00    -0.070 Cl
ATOM      8 Cl1  UNL d   1      -3.597  -1.392  -1.255  0.00  0.00    -0.070 Cl
ENDROOT
TORSDOF 0
ENDMDL
