MODEL 1
REMARK minimizedAffinity -3.25743508
REMARK minimizedRMSD -1
REMARK  0 active torsions:
REMARK  status: ('A' for Active; 'I' for Inactive)
ROOT
ATOM      1  C   UNL d   1      -0.388  -0.175   0.728  0.00  0.00     0.020 A 
ATOM      2  C1  UNL d   1      -0.847   1.056   0.261  0.00  0.00     0.020 A 
ATOM      3  C2  UNL d   1      -1.606   1.120  -0.909  0.00  0.00     0.034 A 
ATOM      4  C3  UNL d   1      -1.908  -0.049  -1.617  0.00  0.00     0.017 A 
ATOM      5  C4  UNL d   1      -1.447  -1.284  -1.148  0.00  0.00     0.017 A 
ATOM      6  C5  UNL d   1      -0.687  -1.343   0.025  0.00  0.00     0.034 A 
ATOM      7 Cl   UNL d   1      -1.779  -2.770  -1.966  0.00  0.00    -0.070 Cl
ATOM      8 Cl1  UNL d   1      -2.852   0.104  -3.056  0.00  0.00    -0.070 Cl
ENDROOT
TORSDOF 0
ENDMDL
