MODEL 1
REMARK minimizedAffinity 0.895123959
REMARK minimizedRMSD -1
REMARK  0 active torsions:
REMARK  status: ('A' for Active; 'I' for Inactive)
ROOT
ATOM      1  C   UNL d   1      -2.955  -1.445  -2.436  0.00  0.00     0.020 A 
ATOM      2  C1  UNL d   1      -2.062  -2.034  -3.330  0.00  0.00     0.020 A 
ATOM      3  C2  UNL d   1      -0.750  -2.302  -2.932  0.00  0.00     0.034 A 
ATOM      4  C3  UNL d   1      -0.328  -1.981  -1.637  0.00  0.00     0.017 A 
ATOM      5  C4  UNL d   1      -1.226  -1.390  -0.740  0.00  0.00     0.017 A 
ATOM      6  C5  UNL d   1      -2.538  -1.124  -1.144  0.00  0.00     0.034 A 
ATOM      7 Cl   UNL d   1      -0.778  -0.966   0.875  0.00  0.00    -0.070 Cl
ATOM      8 Cl1  UNL d   1       1.307  -2.341  -1.213  0.00  0.00    -0.070 Cl
ENDROOT
TORSDOF 0
ENDMDL
