MODEL 1
REMARK minimizedAffinity -4.55429363
REMARK minimizedRMSD -1
REMARK  1 active torsions:
REMARK  status: ('A' for Active; 'I' for Inactive)
REMARK    1  A    between atoms: C1_2  and  C2_3 
ROOT
ATOM      1  C2  UNL d   1      -0.828   0.609  -0.644  0.00  0.00    -0.077 A 
ATOM      2  C3  UNL d   1       0.214   1.545  -0.697  0.00  0.00     0.002 A 
ATOM      3  C4  UNL d   1       1.496   1.200  -0.264  0.00  0.00     0.002 A 
ATOM      4  C5  UNL d   1       1.748  -0.081   0.222  0.00  0.00    -0.004 A 
ATOM      5  C6  UNL d   1       0.718  -1.018   0.281  0.00  0.00     0.002 A 
ATOM      6  C7  UNL d   1      -0.564  -0.675  -0.151  0.00  0.00     0.002 A 
ENDROOT
BRANCH   1   7
ATOM      7  C1  UNL d   1      -2.199   0.963  -1.157  0.00  0.00     0.055 C 
ATOM      8  C   UNL d   1      -2.533   0.189  -2.424  0.00  0.00     0.019 C 
ENDBRANCH   1   7
TORSDOF 1
ENDMDL
