MODEL 1
REMARK minimizedAffinity -3.22125053
REMARK minimizedRMSD -1
REMARK  0 active torsions:
REMARK  status: ('A' for Active; 'I' for Inactive)
ROOT
ATOM      1  C4' PXY d   1       0.099   0.983   4.223  0.00  0.00     0.077 C 
ATOM      2  C1' PXY d   1       0.359   0.837  -1.550  0.00  0.00     0.077 C 
ATOM      3  C1  PXY d   1       0.278   0.873  -0.037  0.00  0.00    -0.082 A 
ATOM      4  C2  PXY d   1       1.188   1.543   0.651  0.00  0.00     0.003 A 
ATOM      5  C3  PXY d   1       1.148   1.559   2.022  0.00  0.00     0.003 A 
ATOM      6  C4  PXY d   1       0.136   0.927   2.693  0.00  0.00    -0.082 A 
ATOM      7  C5  PXY d   1      -0.803   0.251   1.998  0.00  0.00     0.003 A 
ATOM      8  C6  PXY d   1      -0.721   0.212   0.609  0.00  0.00     0.003 A 
ENDROOT
TORSDOF 0
ENDMDL
