MODEL 1
REMARK minimizedAffinity -4.89918518
REMARK minimizedRMSD -1
REMARK  0 active torsions:
REMARK  status: ('A' for Active; 'I' for Inactive)
ROOT
ATOM      1  C4' PXY d   1       0.318  -1.663  -1.034  0.00  0.00     0.077 C 
ATOM      2  C1' PXY d   1       2.422   3.112   1.453  0.00  0.00     0.077 C 
ATOM      3  C1  PXY d   1       1.879   1.861   0.791  0.00  0.00    -0.082 A 
ATOM      4  C2  PXY d   1       0.638   1.476   1.039  0.00  0.00     0.003 A 
ATOM      5  C3  PXY d   1       0.141   0.330   0.474  0.00  0.00     0.003 A 
ATOM      6  C4  PXY d   1       0.905  -0.402  -0.396  0.00  0.00    -0.082 A 
ATOM      7  C5  PXY d   1       2.169  -0.009  -0.662  0.00  0.00     0.003 A 
ATOM      8  C6  PXY d   1       2.668   1.135  -0.047  0.00  0.00     0.003 A 
ENDROOT
TORSDOF 0
ENDMDL
