MODEL 1
REMARK minimizedAffinity -1.30150986
REMARK minimizedRMSD -1
REMARK  0 active torsions:
REMARK  status: ('A' for Active; 'I' for Inactive)
ROOT
ATOM      1  C4' PXY d   1       1.668   1.713   2.331  0.00  0.00     0.077 C 
ATOM      2  C1' PXY d   1      -1.431  -1.445  -1.389  0.00  0.00     0.077 C 
ATOM      3  C1  PXY d   1      -0.607  -0.623  -0.417  0.00  0.00    -0.082 A 
ATOM      4  C2  PXY d   1      -1.187  -0.098   0.650  0.00  0.00     0.003 A 
ATOM      5  C3  PXY d   1      -0.464   0.674   1.522  0.00  0.00     0.003 A 
ATOM      6  C4  PXY d   1       0.877   0.868   1.328  0.00  0.00    -0.082 A 
ATOM      7  C5  PXY d   1       1.478   0.328   0.247  0.00  0.00     0.003 A 
ATOM      8  C6  PXY d   1       0.718  -0.419  -0.649  0.00  0.00     0.003 A 
ENDROOT
TORSDOF 0
ENDMDL
