MODEL 1
REMARK minimizedAffinity -2.08060312
REMARK minimizedRMSD -1
REMARK  0 active torsions:
REMARK  status: ('A' for Active; 'I' for Inactive)
ROOT
ATOM      1  C4' PXY d   1       0.941  -1.559  -0.636  0.00  0.00     0.077 C 
ATOM      2  C1' PXY d   1      -3.932  -1.395  -3.742  0.00  0.00     0.077 C 
ATOM      3  C1  PXY d   1      -2.661  -1.440  -2.916  0.00  0.00    -0.082 A 
ATOM      4  C2  PXY d   1      -1.565  -0.854  -3.371  0.00  0.00     0.003 A 
ATOM      5  C3  PXY d   1      -0.398  -0.913  -2.652  0.00  0.00     0.003 A 
ATOM      6  C4  PXY d   1      -0.367  -1.531  -1.431  0.00  0.00    -0.082 A 
ATOM      7  C5  PXY d   1      -1.484  -2.122  -0.956  0.00  0.00     0.003 A 
ATOM      8  C6  PXY d   1      -2.647  -2.087  -1.719  0.00  0.00     0.003 A 
ENDROOT
TORSDOF 0
ENDMDL
