MODEL 1
REMARK minimizedAffinity -2.40510392
REMARK minimizedRMSD -1
REMARK  0 active torsions:
REMARK  status: ('A' for Active; 'I' for Inactive)
ROOT
ATOM      1  C4' PXY d   1      -0.409  -1.690  -0.912  0.00  0.00     0.077 C 
ATOM      2  C1' PXY d   1       1.104   3.203   1.769  0.00  0.00     0.077 C 
ATOM      3  C1  PXY d   1       0.704   1.915   1.077  0.00  0.00    -0.082 A 
ATOM      4  C2  PXY d   1       1.271   1.585  -0.072  0.00  0.00     0.003 A 
ATOM      5  C3  PXY d   1       0.898   0.440  -0.727  0.00  0.00     0.003 A 
ATOM      6  C4  PXY d   1      -0.028  -0.403  -0.174  0.00  0.00    -0.082 A 
ATOM      7  C5  PXY d   1      -0.605  -0.079   1.003  0.00  0.00     0.003 A 
ATOM      8  C6  PXY d   1      -0.241   1.108   1.632  0.00  0.00     0.003 A 
ENDROOT
TORSDOF 0
ENDMDL
