MODEL 1
REMARK minimizedAffinity -4.67784166
REMARK minimizedRMSD -1
REMARK  0 active torsions:
REMARK  status: ('A' for Active; 'I' for Inactive)
ROOT
ATOM      1  C4' PXY d   1      -1.331  -1.577  -1.483  0.00  0.00     0.077 C 
ATOM      2  C1' PXY d   1       0.846   2.288   2.224  0.00  0.00     0.077 C 
ATOM      3  C1  PXY d   1       0.275   1.265   1.261  0.00  0.00    -0.082 A 
ATOM      4  C2  PXY d   1       0.485   1.401  -0.038  0.00  0.00     0.003 A 
ATOM      5  C3  PXY d   1      -0.051   0.503  -0.925  0.00  0.00     0.003 A 
ATOM      6  C4  PXY d   1      -0.765  -0.574  -0.474  0.00  0.00    -0.082 A 
ATOM      7  C5  PXY d   1      -0.976  -0.725   0.851  0.00  0.00     0.003 A 
ATOM      8  C6  PXY d   1      -0.458   0.220   1.732  0.00  0.00     0.003 A 
ENDROOT
TORSDOF 0
ENDMDL
