MODEL 1
REMARK minimizedAffinity -2.04617381
REMARK minimizedRMSD -1
REMARK  0 active torsions:
REMARK  status: ('A' for Active; 'I' for Inactive)
ROOT
ATOM      1  C4' PXY d   1       3.246   0.351  -0.419  0.00  0.00     0.077 C 
ATOM      2  C1' PXY d   1      -1.885   1.198   2.103  0.00  0.00     0.077 C 
ATOM      3  C1  PXY d   1      -0.535   0.987   1.448  0.00  0.00    -0.082 A 
ATOM      4  C2  PXY d   1      -0.453   0.278   0.333  0.00  0.00     0.003 A 
ATOM      5  C3  PXY d   1       0.764   0.050  -0.256  0.00  0.00     0.003 A 
ATOM      6  C4  PXY d   1       1.903   0.598   0.272  0.00  0.00    -0.082 A 
ATOM      7  C5  PXY d   1       1.826   1.331   1.403  0.00  0.00     0.003 A 
ATOM      8  C6  PXY d   1       0.586   1.516   2.008  0.00  0.00     0.003 A 
ENDROOT
TORSDOF 0
ENDMDL
