MODEL 1
REMARK minimizedAffinity -4.62740088
REMARK minimizedRMSD -1
REMARK  0 active torsions:
REMARK  status: ('A' for Active; 'I' for Inactive)
ROOT
ATOM      1  C4' PXY d   1       0.805   2.305   1.987  0.00  0.00     0.077 C 
ATOM      2  C1' PXY d   1      -1.116  -1.709  -1.703  0.00  0.00     0.077 C 
ATOM      3  C1  PXY d   1      -0.608  -0.649  -0.745  0.00  0.00    -0.082 A 
ATOM      4  C2  PXY d   1      -0.300  -0.983   0.497  0.00  0.00     0.003 A 
ATOM      5  C3  PXY d   1       0.131  -0.032   1.385  0.00  0.00     0.003 A 
ATOM      6  C4  PXY d   1       0.297   1.266   0.983  0.00  0.00    -0.082 A 
ATOM      7  C5  PXY d   1      -0.005   1.614  -0.286  0.00  0.00     0.003 A 
ATOM      8  C6  PXY d   1      -0.480   0.641  -1.160  0.00  0.00     0.003 A 
ENDROOT
TORSDOF 0
ENDMDL
