MODEL 1
REMARK minimizedAffinity -2.6718843
REMARK minimizedRMSD -1
REMARK  0 active torsions:
REMARK  status: ('A' for Active; 'I' for Inactive)
ROOT
ATOM      1  C4' PXY d   1       0.075  -2.040  -0.571  0.00  0.00     0.077 C 
ATOM      2  C1' PXY d   1      -3.653  -2.797  -4.923  0.00  0.00     0.077 C 
ATOM      3  C1  PXY d   1      -2.685  -2.600  -3.773  0.00  0.00    -0.082 A 
ATOM      4  C2  PXY d   1      -1.567  -1.921  -3.969  0.00  0.00     0.003 A 
ATOM      5  C3  PXY d   1      -0.665  -1.761  -2.948  0.00  0.00     0.003 A 
ATOM      6  C4  PXY d   1      -0.936  -2.255  -1.701  0.00  0.00    -0.082 A 
ATOM      7  C5  PXY d   1      -2.080  -2.940  -1.490  0.00  0.00     0.003 A 
ATOM      8  C6  PXY d   1      -2.963  -3.127  -2.550  0.00  0.00     0.003 A 
ENDROOT
TORSDOF 0
ENDMDL
