MODEL 1
REMARK minimizedAffinity -3.11475945
REMARK minimizedRMSD -1
REMARK  0 active torsions:
REMARK  status: ('A' for Active; 'I' for Inactive)
ROOT
ATOM      1  C4' PXY d   1      -0.696  -1.745  -0.612  0.00  0.00     0.077 C 
ATOM      2  C1' PXY d   1       1.505   3.203   1.410  0.00  0.00     0.077 C 
ATOM      3  C1  PXY d   1       0.925   1.902   0.892  0.00  0.00    -0.082 A 
ATOM      4  C2  PXY d   1       1.320   1.430  -0.279  0.00  0.00     0.003 A 
ATOM      5  C3  PXY d   1       0.782   0.272  -0.777  0.00  0.00     0.003 A 
ATOM      6  C4  PXY d   1      -0.131  -0.440  -0.045  0.00  0.00    -0.082 A 
ATOM      7  C5  PXY d   1      -0.531   0.029   1.156  0.00  0.00     0.003 A 
ATOM      8  C6  PXY d   1      -0.003   1.229   1.625  0.00  0.00     0.003 A 
ENDROOT
TORSDOF 0
ENDMDL
