MODEL 1
REMARK minimizedAffinity -2.60243464
REMARK minimizedRMSD -1
REMARK  0 active torsions:
REMARK  status: ('A' for Active; 'I' for Inactive)
ROOT
ATOM      1  C4' PXY d   1       1.549   1.643   2.233  0.00  0.00     0.077 C 
ATOM      2  C1' PXY d   1      -1.425  -1.581  -1.533  0.00  0.00     0.077 C 
ATOM      3  C1  PXY d   1      -0.634  -0.740  -0.551  0.00  0.00    -0.082 A 
ATOM      4  C2  PXY d   1      -1.184  -0.386   0.599  0.00  0.00     0.003 A 
ATOM      5  C3  PXY d   1      -0.495   0.402   1.485  0.00  0.00     0.003 A 
ATOM      6  C4  PXY d   1       0.791   0.786   1.215  0.00  0.00    -0.082 A 
ATOM      7  C5  PXY d   1       1.364   0.420   0.049  0.00  0.00     0.003 A 
ATOM      8  C6  PXY d   1       0.632  -0.345  -0.855  0.00  0.00     0.003 A 
ENDROOT
TORSDOF 0
ENDMDL
