MODEL 1
REMARK minimizedAffinity -2.72197533
REMARK minimizedRMSD -1
REMARK  0 active torsions:
REMARK  status: ('A' for Active; 'I' for Inactive)
ROOT
ATOM      1  C4' PXY d   1      -3.479  -1.949  -2.892  0.00  0.00     0.077 C 
ATOM      2  C1' PXY d   1       1.330  -0.105  -0.266  0.00  0.00     0.077 C 
ATOM      3  C1  PXY d   1       0.070  -0.579  -0.964  0.00  0.00    -0.082 A 
ATOM      4  C2  PXY d   1      -0.826  -1.280  -0.289  0.00  0.00     0.003 A 
ATOM      5  C3  PXY d   1      -1.956  -1.744  -0.912  0.00  0.00     0.003 A 
ATOM      6  C4  PXY d   1      -2.196  -1.442  -2.226  0.00  0.00    -0.082 A 
ATOM      7  C5  PXY d   1      -1.291  -0.718  -2.918  0.00  0.00     0.003 A 
ATOM      8  C6  PXY d   1      -0.131  -0.291  -2.278  0.00  0.00     0.003 A 
ENDROOT
TORSDOF 0
ENDMDL
