MODEL 1
REMARK minimizedAffinity 3.50126314
REMARK minimizedRMSD -1
REMARK  0 active torsions:
REMARK  status: ('A' for Active; 'I' for Inactive)
ROOT
ATOM      1  C4' PXY d   1      -3.165  -1.434  -2.377  0.00  0.00     0.077 C 
ATOM      2  C1' PXY d   1      -0.493   0.251   2.464  0.00  0.00     0.077 C 
ATOM      3  C1  PXY d   1      -1.205  -0.188   1.200  0.00  0.00    -0.082 A 
ATOM      4  C2  PXY d   1      -0.646  -1.093   0.414  0.00  0.00     0.003 A 
ATOM      5  C3  PXY d   1      -1.261  -1.477  -0.749  0.00  0.00     0.003 A 
ATOM      6  C4  PXY d   1      -2.487  -0.969  -1.086  0.00  0.00    -0.082 A 
ATOM      7  C5  PXY d   1      -3.069  -0.052  -0.284  0.00  0.00     0.003 A 
ATOM      8  C6  PXY d   1      -2.409   0.355   0.872  0.00  0.00     0.003 A 
ENDROOT
TORSDOF 0
ENDMDL
