MODEL 1
REMARK minimizedAffinity -2.21701908
REMARK minimizedRMSD -1
REMARK  0 active torsions:
REMARK  status: ('A' for Active; 'I' for Inactive)
ROOT
ATOM      1  C4' PXY d   1      -0.147  -1.511  -1.944  0.00  0.00     0.077 C 
ATOM      2  C1' PXY d   1       0.680   2.134   2.465  0.00  0.00     0.077 C 
ATOM      3  C1  PXY d   1       0.457   1.170   1.317  0.00  0.00    -0.082 A 
ATOM      4  C2  PXY d   1       1.235   1.235   0.248  0.00  0.00     0.003 A 
ATOM      5  C3  PXY d   1       1.027   0.391  -0.813  0.00  0.00     0.003 A 
ATOM      6  C4  PXY d   1       0.047  -0.564  -0.757  0.00  0.00    -0.082 A 
ATOM      7  C5  PXY d   1      -0.743  -0.643   0.334  0.00  0.00     0.003 A 
ATOM      8  C6  PXY d   1      -0.543   0.249   1.383  0.00  0.00     0.003 A 
ENDROOT
TORSDOF 0
ENDMDL
