MODEL 1
REMARK minimizedAffinity -2.11815429
REMARK minimizedRMSD -1
REMARK  0 active torsions:
REMARK  status: ('A' for Active; 'I' for Inactive)
ROOT
ATOM      1  C4' PXY d   1      -5.693  -4.149  -0.387  0.00  0.00     0.077 C 
ATOM      2  C1' PXY d   1      -1.545  -1.117  -3.036  0.00  0.00     0.077 C 
ATOM      3  C1  PXY d   1      -2.641  -1.902  -2.343  0.00  0.00    -0.082 A 
ATOM      4  C2  PXY d   1      -2.320  -2.894  -1.528  0.00  0.00     0.003 A 
ATOM      5  C3  PXY d   1      -3.299  -3.635  -0.917  0.00  0.00     0.003 A 
ATOM      6  C4  PXY d   1      -4.620  -3.323  -1.101  0.00  0.00    -0.082 A 
ATOM      7  C5  PXY d   1      -4.955  -2.306  -1.923  0.00  0.00     0.003 A 
ATOM      8  C6  PXY d   1      -3.947  -1.593  -2.565  0.00  0.00     0.003 A 
ENDROOT
TORSDOF 0
ENDMDL
