MODEL 1
REMARK minimizedAffinity -4.64868832
REMARK minimizedRMSD -1
REMARK  0 active torsions:
REMARK  status: ('A' for Active; 'I' for Inactive)
ROOT
ATOM      1  C4' PXY d   1      -1.736  -1.925  -0.765  0.00  0.00     0.077 C 
ATOM      2  C1' PXY d   1       1.252   2.342   1.740  0.00  0.00     0.077 C 
ATOM      3  C1  PXY d   1       0.477   1.222   1.074  0.00  0.00    -0.082 A 
ATOM      4  C2  PXY d   1      -0.815   1.084   1.321  0.00  0.00     0.003 A 
ATOM      5  C3  PXY d   1      -1.524   0.057   0.752  0.00  0.00     0.003 A 
ATOM      6  C4  PXY d   1      -0.916  -0.804  -0.122  0.00  0.00    -0.082 A 
ATOM      7  C5  PXY d   1       0.400  -0.663  -0.388  0.00  0.00     0.003 A 
ATOM      8  C6  PXY d   1       1.111   0.361   0.233  0.00  0.00     0.003 A 
ENDROOT
TORSDOF 0
ENDMDL
