MODEL 1
REMARK minimizedAffinity -2.43489265
REMARK minimizedRMSD -1
REMARK  0 active torsions:
REMARK  status: ('A' for Active; 'I' for Inactive)
ROOT
ATOM      1  C4' PXY d   1       1.090   1.625   2.674  0.00  0.00     0.077 C 
ATOM      2  C1' PXY d   1      -1.050  -1.210  -1.887  0.00  0.00     0.077 C 
ATOM      3  C1  PXY d   1      -0.477  -0.467  -0.696  0.00  0.00    -0.082 A 
ATOM      4  C2  PXY d   1      -1.130  -0.473   0.455  0.00  0.00     0.003 A 
ATOM      5  C3  PXY d   1      -0.642   0.219   1.533  0.00  0.00     0.003 A 
ATOM      6  C4  PXY d   1       0.554   0.881   1.448  0.00  0.00    -0.082 A 
ATOM      7  C5  PXY d   1       1.231   0.883   0.280  0.00  0.00     0.003 A 
ATOM      8  C6  PXY d   1       0.698   0.208  -0.814  0.00  0.00     0.003 A 
ENDROOT
TORSDOF 0
ENDMDL
