MODEL 1
REMARK minimizedAffinity -4.54259396
REMARK minimizedRMSD -1
REMARK  0 active torsions:
REMARK  status: ('A' for Active; 'I' for Inactive)
ROOT
ATOM      1  C4' PXY d   1      -1.668  -1.422  -3.486  0.00  0.00     0.077 C 
ATOM      2  C1' PXY d   1      -5.337  -4.902  -0.687  0.00  0.00     0.077 C 
ATOM      3  C1  PXY d   1      -4.381  -3.992  -1.432  0.00  0.00    -0.082 A 
ATOM      4  C2  PXY d   1      -3.174  -3.767  -0.939  0.00  0.00     0.003 A 
ATOM      5  C3  PXY d   1      -2.309  -2.921  -1.584  0.00  0.00     0.003 A 
ATOM      6  C4  PXY d   1      -2.663  -2.342  -2.773  0.00  0.00    -0.082 A 
ATOM      7  C5  PXY d   1      -3.888  -2.575  -3.288  0.00  0.00     0.003 A 
ATOM      8  C6  PXY d   1      -4.767  -3.404  -2.597  0.00  0.00     0.003 A 
ENDROOT
TORSDOF 0
ENDMDL
