MODEL 1
REMARK minimizedAffinity -6.24266005
REMARK minimizedRMSD -1
REMARK  0 active torsions:
REMARK  status: ('A' for Active; 'I' for Inactive)
ROOT
ATOM      1  C4' PXY d   1       3.485   1.543   0.123  0.00  0.00     0.077 C 
ATOM      2  C1' PXY d   1      -1.984   0.805   1.844  0.00  0.00     0.077 C 
ATOM      3  C1  PXY d   1      -0.551   1.011   1.394  0.00  0.00    -0.082 A 
ATOM      4  C2  PXY d   1       0.025   0.114   0.611  0.00  0.00     0.003 A 
ATOM      5  C3  PXY d   1       1.331   0.269   0.221  0.00  0.00     0.003 A 
ATOM      6  C4  PXY d   1       2.037   1.381   0.593  0.00  0.00    -0.082 A 
ATOM      7  C5  PXY d   1       1.454   2.306   1.384  0.00  0.00     0.003 A 
ATOM      8  C6  PXY d   1       0.141   2.110   1.802  0.00  0.00     0.003 A 
ENDROOT
TORSDOF 0
ENDMDL
