MODEL 1
REMARK minimizedAffinity -0.569398046
REMARK minimizedRMSD -1
REMARK  0 active torsions:
REMARK  status: ('A' for Active; 'I' for Inactive)
ROOT
ATOM      1  N1  IND d   1       1.314  -5.383  -1.990  0.00  0.00    -0.196 N 
ATOM      2  C2  IND d   1       0.003  -5.438  -1.608  0.00  0.00     0.054 A 
ATOM      3  C3  IND d   1      -0.793  -5.632  -2.684  0.00  0.00    -0.031 A 
ATOM      4  C4  IND d   1      -0.149  -5.990  -5.151  0.00  0.00     0.051 A 
ATOM      5  C5  IND d   1       0.925  -5.988  -5.995  0.00  0.00    -0.031 A 
ATOM      6  C6  IND d   1       2.211  -5.783  -5.538  0.00  0.00     0.015 A 
ATOM      7  C7  IND d   1       2.472  -5.583  -4.212  0.00  0.00    -0.016 A 
ATOM      8  C8  IND d   1       1.382  -5.577  -3.353  0.00  0.00    -0.047 A 
ATOM      9  C9  IND d   1       0.071  -5.742  -3.817  0.00  0.00    -0.096 A 
ATOM     10  HN1 IND d   1       1.984  -5.250  -1.468  0.00  0.00     0.298 HD
ENDROOT
TORSDOF 0
ENDMDL
