MODEL 1
REMARK minimizedAffinity -3.33879089
REMARK minimizedRMSD -1
REMARK  0 active torsions:
REMARK  status: ('A' for Active; 'I' for Inactive)
ROOT
ATOM      1  N1  IND d   1       1.808  -1.330   3.219  0.00  0.00    -0.196 N 
ATOM      2  C2  IND d   1       1.516  -1.518   4.541  0.00  0.00     0.054 A 
ATOM      3  C3  IND d   1       0.201  -1.303   4.768  0.00  0.00    -0.031 A 
ATOM      4  C4  IND d   1      -1.674  -0.734   3.098  0.00  0.00     0.051 A 
ATOM      5  C5  IND d   1      -1.889  -0.425   1.784  0.00  0.00    -0.031 A 
ATOM      6  C6  IND d   1      -0.863  -0.404   0.862  0.00  0.00     0.015 A 
ATOM      7  C7  IND d   1       0.422  -0.704   1.219  0.00  0.00    -0.016 A 
ATOM      8  C8  IND d   1       0.645  -1.011   2.554  0.00  0.00    -0.047 A 
ATOM      9  C9  IND d   1      -0.386  -0.992   3.503  0.00  0.00    -0.096 A 
ATOM     10  HN1 IND d   1       2.588  -1.399   2.863  0.00  0.00     0.298 HD
ENDROOT
TORSDOF 0
ENDMDL
