MODEL 1
REMARK minimizedAffinity -1.84833348
REMARK minimizedRMSD -1
REMARK  0 active torsions:
REMARK  status: ('A' for Active; 'I' for Inactive)
ROOT
ATOM      1  N1  IND d   1       2.518  -1.986   3.968  0.00  0.00    -0.196 N 
ATOM      2  C2  IND d   1       2.081  -1.997   5.264  0.00  0.00     0.054 A 
ATOM      3  C3  IND d   1       0.845  -1.457   5.349  0.00  0.00    -0.031 A 
ATOM      4  C4  IND d   1      -0.690  -0.583   3.476  0.00  0.00     0.051 A 
ATOM      5  C5  IND d   1      -0.715  -0.333   2.132  0.00  0.00    -0.031 A 
ATOM      6  C6  IND d   1       0.357  -0.629   1.315  0.00  0.00     0.015 A 
ATOM      7  C7  IND d   1       1.495  -1.200   1.812  0.00  0.00    -0.016 A 
ATOM      8  C8  IND d   1       1.526  -1.449   3.177  0.00  0.00    -0.047 A 
ATOM      9  C9  IND d   1       0.458  -1.111   4.018  0.00  0.00    -0.096 A 
ATOM     10  HN1 IND d   1       3.283  -2.266   3.694  0.00  0.00     0.298 HD
ENDROOT
TORSDOF 0
ENDMDL
