MODEL 1
REMARK minimizedAffinity 5.07242632
REMARK minimizedRMSD -1
REMARK  0 active torsions:
REMARK  status: ('A' for Active; 'I' for Inactive)
ROOT
ATOM      1  N1  IND d   1       1.898  -5.993  -2.348  0.00  0.00    -0.196 N 
ATOM      2  C2  IND d   1       0.840  -5.679  -1.541  0.00  0.00     0.054 A 
ATOM      3  C3  IND d   1      -0.210  -5.261  -2.283  0.00  0.00    -0.031 A 
ATOM      4  C4  IND d   1      -0.447  -5.109  -4.842  0.00  0.00     0.051 A 
ATOM      5  C5  IND d   1       0.264  -5.253  -6.000  0.00  0.00    -0.031 A 
ATOM      6  C6  IND d   1       1.582  -5.662  -6.000  0.00  0.00     0.015 A 
ATOM      7  C7  IND d   1       2.238  -5.954  -4.837  0.00  0.00    -0.016 A 
ATOM      8  C8  IND d   1       1.521  -5.802  -3.659  0.00  0.00    -0.047 A 
ATOM      9  C9  IND d   1       0.196  -5.346  -3.650  0.00  0.00    -0.096 A 
ATOM     10  HN1 IND d   1       2.669  -6.263  -2.081  0.00  0.00     0.298 HD
ENDROOT
TORSDOF 0
ENDMDL
