MODEL 1
REMARK minimizedAffinity 1.63329935
REMARK minimizedRMSD -1
REMARK  0 active torsions:
REMARK  status: ('A' for Active; 'I' for Inactive)
ROOT
ATOM      1  N1  IND d   1      -2.163  -0.724   2.161  0.00  0.00    -0.196 N 
ATOM      2  C2  IND d   1      -2.644  -1.123   3.377  0.00  0.00     0.054 A 
ATOM      3  C3  IND d   1      -1.624  -1.425   4.211  0.00  0.00    -0.031 A 
ATOM      4  C4  IND d   1       0.914  -1.242   3.823  0.00  0.00     0.051 A 
ATOM      5  C5  IND d   1       1.839  -0.960   2.857  0.00  0.00    -0.031 A 
ATOM      6  C6  IND d   1       1.469  -0.575   1.585  0.00  0.00     0.015 A 
ATOM      7  C7  IND d   1       0.155  -0.446   1.233  0.00  0.00    -0.016 A 
ATOM      8  C8  IND d   1      -0.786  -0.738   2.209  0.00  0.00    -0.047 A 
ATOM      9  C9  IND d   1      -0.418  -1.170   3.490  0.00  0.00    -0.096 A 
ATOM     10  HN1 IND d   1      -2.640  -0.503   1.481  0.00  0.00     0.298 HD
ENDROOT
TORSDOF 0
ENDMDL
