MODEL 1
REMARK minimizedAffinity 3.61878777
REMARK minimizedRMSD -1
REMARK  0 active torsions:
REMARK  status: ('A' for Active; 'I' for Inactive)
ROOT
ATOM      1  N1  IND d   1       2.355  -1.053   4.718  0.00  0.00    -0.196 N 
ATOM      2  C2  IND d   1       2.567  -2.023   5.657  0.00  0.00     0.054 A 
ATOM      3  C3  IND d   1       1.531  -2.891   5.680  0.00  0.00    -0.031 A 
ATOM      4  C4  IND d   1      -0.569  -2.970   4.193  0.00  0.00     0.051 A 
ATOM      5  C5  IND d   1      -1.223  -2.274   3.216  0.00  0.00    -0.031 A 
ATOM      6  C6  IND d   1      -0.707  -1.114   2.676  0.00  0.00     0.015 A 
ATOM      7  C7  IND d   1       0.494  -0.610   3.088  0.00  0.00    -0.016 A 
ATOM      8  C8  IND d   1       1.158  -1.310   4.085  0.00  0.00    -0.047 A 
ATOM      9  C9  IND d   1       0.619  -2.465   4.666  0.00  0.00    -0.096 A 
ATOM     10  HN1 IND d   1       2.880  -0.393   4.550  0.00  0.00     0.298 HD
ENDROOT
TORSDOF 0
ENDMDL
