MODEL 1
REMARK minimizedAffinity 2.59331298
REMARK minimizedRMSD -1
REMARK  0 active torsions:
REMARK  status: ('A' for Active; 'I' for Inactive)
ROOT
ATOM      1  N1  IND d   1      -0.008  -5.427  -2.396  0.00  0.00    -0.196 N 
ATOM      2  C2  IND d   1       0.935  -4.827  -1.609  0.00  0.00     0.054 A 
ATOM      3  C3  IND d   1       2.024  -4.503  -2.342  0.00  0.00    -0.031 A 
ATOM      4  C4  IND d   1       2.433  -4.773  -4.869  0.00  0.00     0.051 A 
ATOM      5  C5  IND d   1       1.877  -5.302  -6.000  0.00  0.00    -0.031 A 
ATOM      6  C6  IND d   1       0.638  -5.908  -5.988  0.00  0.00     0.015 A 
ATOM      7  C7  IND d   1      -0.099  -6.000  -4.841  0.00  0.00    -0.016 A 
ATOM      8  C8  IND d   1       0.465  -5.471  -3.690  0.00  0.00    -0.047 A 
ATOM      9  C9  IND d   1       1.741  -4.892  -3.687  0.00  0.00    -0.096 A 
ATOM     10  HN1 IND d   1      -0.768  -5.726  -2.129  0.00  0.00     0.298 HD
ENDROOT
TORSDOF 0
ENDMDL
