MODEL 1
REMARK minimizedAffinity 12.47258
REMARK minimizedRMSD -1
REMARK  0 active torsions:
REMARK  status: ('A' for Active; 'I' for Inactive)
ROOT
ATOM      1  C   UNL d   1      -2.347  -4.256  -5.593  0.00  0.00     0.124 A 
ATOM      2  C1  UNL d   1      -2.028  -2.962  -5.205  0.00  0.00     0.062 A 
ATOM      3  C2  UNL d   1      -3.028  -2.091  -4.784  0.00  0.00     0.162 A 
ATOM      4  C3  UNL d   1      -4.358  -2.510  -4.747  0.00  0.00    -0.034 A 
ATOM      5  C4  UNL d   1      -4.671  -3.812  -5.140  0.00  0.00     0.162 A 
ATOM      6  C5  UNL d   1      -3.668  -4.680  -5.560  0.00  0.00     0.062 A 
ATOM      7  F   UNL d   1      -3.979  -5.929  -5.935  0.00  0.00    -0.097 F 
ATOM      8  F1  UNL d   1      -5.940  -4.248  -5.118  0.00  0.00    -0.096 F 
ATOM      9  I   UNL d   1      -5.856  -1.210  -4.118  0.00  0.00    -0.060 I 
ATOM     10  F2  UNL d   1      -2.690  -0.846  -4.414  0.00  0.00    -0.096 F 
ATOM     11  F3  UNL d   1      -0.752  -2.550  -5.236  0.00  0.00    -0.097 F 
ATOM     12  F4  UNL d   1      -1.383  -5.092  -5.999  0.00  0.00    -0.092 F 
ENDROOT
TORSDOF 0
ENDMDL
