MODEL 1
REMARK minimizedAffinity 25.0495892
REMARK minimizedRMSD -1
REMARK  0 active torsions:
REMARK  status: ('A' for Active; 'I' for Inactive)
ROOT
ATOM      1  C   UNL d   1       3.815   4.558  -3.711  0.00  0.00     0.124 A 
ATOM      2  C1  UNL d   1       3.915   3.762  -4.844  0.00  0.00     0.062 A 
ATOM      3  C2  UNL d   1       3.410   2.465  -4.834  0.00  0.00     0.162 A 
ATOM      4  C3  UNL d   1       2.798   1.956  -3.689  0.00  0.00    -0.034 A 
ATOM      5  C4  UNL d   1       2.701   2.762  -2.553  0.00  0.00     0.162 A 
ATOM      6  C5  UNL d   1       3.208   4.058  -2.568  0.00  0.00     0.062 A 
ATOM      7  F   UNL d   1       3.110   4.826  -1.472  0.00  0.00    -0.097 F 
ATOM      8  F1  UNL d   1       2.119   2.305  -1.435  0.00  0.00    -0.096 F 
ATOM      9  I   UNL d   1       2.041   0.017  -3.671  0.00  0.00    -0.060 I 
ATOM     10  F2  UNL d   1       3.520   1.718  -5.943  0.00  0.00    -0.096 F 
ATOM     11  F3  UNL d   1       4.501   4.242  -5.949  0.00  0.00    -0.097 F 
ATOM     12  F4  UNL d   1       4.303   5.805  -3.722  0.00  0.00    -0.092 F 
ENDROOT
TORSDOF 0
ENDMDL
