MODEL 1
REMARK minimizedAffinity 3.99293113
REMARK minimizedRMSD -1
REMARK  0 active torsions:
REMARK  status: ('A' for Active; 'I' for Inactive)
ROOT
ATOM      1  C   UNL d   1      -5.942  -1.436  -0.894  0.00  0.00     0.124 A 
ATOM      2  C1  UNL d   1      -5.882  -2.601  -1.645  0.00  0.00     0.062 A 
ATOM      3  C2  UNL d   1      -5.822  -3.839  -1.012  0.00  0.00     0.162 A 
ATOM      4  C3  UNL d   1      -5.822  -3.919   0.381  0.00  0.00    -0.034 A 
ATOM      5  C4  UNL d   1      -5.882  -2.742   1.129  0.00  0.00     0.162 A 
ATOM      6  C5  UNL d   1      -5.942  -1.507   0.492  0.00  0.00     0.062 A 
ATOM      7  F   UNL d   1      -6.000  -0.382   1.220  0.00  0.00    -0.097 F 
ATOM      8  F1  UNL d   1      -5.885  -2.782   2.470  0.00  0.00    -0.096 F 
ATOM      9  I   UNL d   1      -5.733  -5.769   1.330  0.00  0.00    -0.060 I 
ATOM     10  F2  UNL d   1      -5.764  -4.949  -1.763  0.00  0.00    -0.096 F 
ATOM     11  F3  UNL d   1      -5.881  -2.535  -2.984  0.00  0.00    -0.097 F 
ATOM     12  F4  UNL d   1      -5.999  -0.245  -1.505  0.00  0.00    -0.092 F 
ENDROOT
TORSDOF 0
ENDMDL
