MODEL 1
REMARK minimizedAffinity 17.9545879
REMARK minimizedRMSD -1
REMARK  0 active torsions:
REMARK  status: ('A' for Active; 'I' for Inactive)
ROOT
ATOM      1  C   UNL d   1      -5.593  -1.252  -2.231  0.00  0.00     0.124 A 
ATOM      2  C1  UNL d   1      -5.182  -1.238  -0.906  0.00  0.00     0.062 A 
ATOM      3  C2  UNL d   1      -4.761  -2.414  -0.291  0.00  0.00     0.162 A 
ATOM      4  C3  UNL d   1      -4.749  -3.614  -1.002  0.00  0.00    -0.034 A 
ATOM      5  C4  UNL d   1      -5.166  -3.621  -2.334  0.00  0.00     0.162 A 
ATOM      6  C5  UNL d   1      -5.585  -2.443  -2.944  0.00  0.00     0.062 A 
ATOM      7  F   UNL d   1      -5.983  -2.458  -4.224  0.00  0.00    -0.097 F 
ATOM      8  F1  UNL d   1      -5.167  -4.757  -3.046  0.00  0.00    -0.096 F 
ATOM      9  I   UNL d   1      -4.121  -5.375  -0.086  0.00  0.00    -0.060 I 
ATOM     10  F2  UNL d   1      -4.368  -2.371   0.991  0.00  0.00    -0.096 F 
ATOM     11  F3  UNL d   1      -5.189  -0.089  -0.215  0.00  0.00    -0.097 F 
ATOM     12  F4  UNL d   1      -5.999  -0.120  -2.820  0.00  0.00    -0.092 F 
ENDROOT
TORSDOF 0
ENDMDL
