MODEL 1
REMARK minimizedAffinity 22.7603531
REMARK minimizedRMSD -1
REMARK  0 active torsions:
REMARK  status: ('A' for Active; 'I' for Inactive)
ROOT
ATOM      1  C   UNL d   1       1.464   1.442  -1.146  0.00  0.00     0.124 A 
ATOM      2  C1  UNL d   1       1.870   2.698  -0.720  0.00  0.00     0.062 A 
ATOM      3  C2  UNL d   1       2.575   3.535  -1.580  0.00  0.00     0.162 A 
ATOM      4  C3  UNL d   1       2.877   3.119  -2.877  0.00  0.00    -0.034 A 
ATOM      5  C4  UNL d   1       2.466   1.853  -3.298  0.00  0.00     0.162 A 
ATOM      6  C5  UNL d   1       1.762   1.020  -2.435  0.00  0.00     0.062 A 
ATOM      7  F   UNL d   1       1.370  -0.194  -2.848  0.00  0.00    -0.097 F 
ATOM      8  F1  UNL d   1       2.740   1.421  -4.538  0.00  0.00    -0.096 F 
ATOM      9  I   UNL d   1       3.931   4.367  -4.166  0.00  0.00    -0.060 I 
ATOM     10  F2  UNL d   1       2.956   4.744  -1.142  0.00  0.00    -0.096 F 
ATOM     11  F3  UNL d   1       1.584   3.108   0.524  0.00  0.00    -0.097 F 
ATOM     12  F4  UNL d   1       0.787   0.638  -0.316  0.00  0.00    -0.092 F 
ENDROOT
TORSDOF 0
ENDMDL
