MODEL 1
REMARK minimizedAffinity 26.6181126
REMARK minimizedRMSD -1
REMARK  0 active torsions:
REMARK  status: ('A' for Active; 'I' for Inactive)
ROOT
ATOM      1  C   UNL d   1       1.517  -0.550  -3.379  0.00  0.00     0.124 A 
ATOM      2  C1  UNL d   1       0.755  -1.363  -2.552  0.00  0.00     0.062 A 
ATOM      3  C2  UNL d   1       0.093  -0.821  -1.454  0.00  0.00     0.162 A 
ATOM      4  C3  UNL d   1       0.189   0.543  -1.178  0.00  0.00    -0.034 A 
ATOM      5  C4  UNL d   1       0.958   1.354  -2.014  0.00  0.00     0.162 A 
ATOM      6  C5  UNL d   1       1.617   0.808  -3.110  0.00  0.00     0.062 A 
ATOM      7  F   UNL d   1       2.353   1.595  -3.909  0.00  0.00    -0.097 F 
ATOM      8  F1  UNL d   1       1.071   2.670  -1.778  0.00  0.00    -0.096 F 
ATOM      9  I   UNL d   1      -0.799   1.358   0.463  0.00  0.00    -0.060 I 
ATOM     10  F2  UNL d   1      -0.635  -1.631  -0.671  0.00  0.00    -0.096 F 
ATOM     11  F3  UNL d   1       0.657  -2.675  -2.809  0.00  0.00    -0.097 F 
ATOM     12  F4  UNL d   1       2.153  -1.074  -4.434  0.00  0.00    -0.092 F 
ENDROOT
TORSDOF 0
ENDMDL
