MODEL 1
REMARK minimizedAffinity 24.465374
REMARK minimizedRMSD -1
REMARK  0 active torsions:
REMARK  status: ('A' for Active; 'I' for Inactive)
ROOT
ATOM      1  C   UNL d   1       1.138  -0.062  -2.938  0.00  0.00     0.124 A 
ATOM      2  C1  UNL d   1       1.900  -0.208  -4.089  0.00  0.00     0.062 A 
ATOM      3  C2  UNL d   1       2.663   0.855  -4.563  0.00  0.00     0.162 A 
ATOM      4  C3  UNL d   1       2.670   2.074  -3.885  0.00  0.00    -0.034 A 
ATOM      5  C4  UNL d   1       1.901   2.213  -2.728  0.00  0.00     0.162 A 
ATOM      6  C5  UNL d   1       1.139   1.148  -2.259  0.00  0.00     0.062 A 
ATOM      7  F   UNL d   1       0.404   1.291  -1.146  0.00  0.00    -0.097 F 
ATOM      8  F1  UNL d   1       1.884   3.372  -2.052  0.00  0.00    -0.096 F 
ATOM      9  I   UNL d   1       3.811   3.665  -4.590  0.00  0.00    -0.060 I 
ATOM     10  F2  UNL d   1       3.390   0.685  -5.678  0.00  0.00    -0.096 F 
ATOM     11  F3  UNL d   1       1.899  -1.376  -4.748  0.00  0.00    -0.097 F 
ATOM     12  F4  UNL d   1       0.403  -1.086  -2.485  0.00  0.00    -0.092 F 
ENDROOT
TORSDOF 0
ENDMDL
