MODEL 1
REMARK minimizedAffinity 23.77495
REMARK minimizedRMSD -1
REMARK  0 active torsions:
REMARK  status: ('A' for Active; 'I' for Inactive)
ROOT
ATOM      1  C   UNL d   1       0.519   0.825  -0.682  0.00  0.00     0.124 A 
ATOM      2  C1  UNL d   1       1.364   1.726  -1.316  0.00  0.00     0.062 A 
ATOM      3  C2  UNL d   1       1.995   1.375  -2.506  0.00  0.00     0.162 A 
ATOM      4  C3  UNL d   1       1.783   0.118  -3.071  0.00  0.00    -0.034 A 
ATOM      5  C4  UNL d   1       0.933  -0.783  -2.427  0.00  0.00     0.162 A 
ATOM      6  C5  UNL d   1       0.305  -0.428  -1.238  0.00  0.00     0.062 A 
ATOM      7  F   UNL d   1      -0.511  -1.300  -0.626  0.00  0.00    -0.097 F 
ATOM      8  F1  UNL d   1       0.707  -2.001  -2.942  0.00  0.00    -0.096 F 
ATOM      9  I   UNL d   1       2.725  -0.411  -4.850  0.00  0.00    -0.060 I 
ATOM     10  F2  UNL d   1       2.806   2.265  -3.097  0.00  0.00    -0.096 F 
ATOM     11  F3  UNL d   1       1.573   2.937  -0.780  0.00  0.00    -0.097 F 
ATOM     12  F4  UNL d   1      -0.086   1.165   0.463  0.00  0.00    -0.092 F 
ENDROOT
TORSDOF 0
ENDMDL
