MODEL 1
REMARK minimizedAffinity 16.3718929
REMARK minimizedRMSD -1
REMARK  0 active torsions:
REMARK  status: ('A' for Active; 'I' for Inactive)
ROOT
ATOM      1  C   UNL d   1       1.787   0.819   2.885  0.00  0.00     0.124 A 
ATOM      2  C1  UNL d   1       1.798  -0.406   3.538  0.00  0.00     0.062 A 
ATOM      3  C2  UNL d   1       0.620  -0.933   4.059  0.00  0.00     0.162 A 
ATOM      4  C3  UNL d   1      -0.581  -0.236   3.927  0.00  0.00    -0.034 A 
ATOM      5  C4  UNL d   1      -0.585   0.996   3.270  0.00  0.00     0.162 A 
ATOM      6  C5  UNL d   1       0.596   1.518   2.751  0.00  0.00     0.062 A 
ATOM      7  F   UNL d   1       0.583   2.701   2.120  0.00  0.00    -0.097 F 
ATOM      8  F1  UNL d   1      -1.722   1.693   3.125  0.00  0.00    -0.096 F 
ATOM      9  I   UNL d   1      -2.345  -1.020   4.704  0.00  0.00    -0.060 I 
ATOM     10  F2  UNL d   1       0.661  -2.118   4.685  0.00  0.00    -0.096 F 
ATOM     11  F3  UNL d   1       2.948  -1.083   3.669  0.00  0.00    -0.097 F 
ATOM     12  F4  UNL d   1       2.922   1.324   2.386  0.00  0.00    -0.092 F 
ENDROOT
TORSDOF 0
ENDMDL
