MODEL 1
REMARK minimizedAffinity 18.7094822
REMARK minimizedRMSD -1
REMARK  0 active torsions:
REMARK  status: ('A' for Active; 'I' for Inactive)
ROOT
ATOM      1  C   UNL d   1       1.654   0.927  -1.050  0.00  0.00     0.124 A 
ATOM      2  C1  UNL d   1       1.371  -0.190  -1.824  0.00  0.00     0.062 A 
ATOM      3  C2  UNL d   1       1.845  -0.274  -3.130  0.00  0.00     0.162 A 
ATOM      4  C3  UNL d   1       2.607   0.761  -3.670  0.00  0.00    -0.034 A 
ATOM      5  C4  UNL d   1       2.887   1.882  -2.886  0.00  0.00     0.162 A 
ATOM      6  C5  UNL d   1       2.411   1.962  -1.581  0.00  0.00     0.062 A 
ATOM      7  F   UNL d   1       2.685   3.042  -0.835  0.00  0.00    -0.097 F 
ATOM      8  F1  UNL d   1       3.617   2.895  -3.374  0.00  0.00    -0.096 F 
ATOM      9  I   UNL d   1       3.318   0.638  -5.623  0.00  0.00    -0.060 I 
ATOM     10  F2  UNL d   1       1.556  -1.365  -3.855  0.00  0.00    -0.096 F 
ATOM     11  F3  UNL d   1       0.639  -1.190  -1.313  0.00  0.00    -0.097 F 
ATOM     12  F4  UNL d   1       1.196   1.007   0.206  0.00  0.00    -0.092 F 
ENDROOT
TORSDOF 0
ENDMDL
