MODEL 1
REMARK minimizedAffinity 27.6305542
REMARK minimizedRMSD -1
REMARK  0 active torsions:
REMARK  status: ('A' for Active; 'I' for Inactive)
ROOT
ATOM      1  C   UNL d   1       1.978  -0.457  -3.287  0.00  0.00     0.124 A 
ATOM      2  C1  UNL d   1       1.736   0.691  -2.545  0.00  0.00     0.062 A 
ATOM      3  C2  UNL d   1       2.346   1.892  -2.896  0.00  0.00     0.162 A 
ATOM      4  C3  UNL d   1       3.203   1.951  -3.995  0.00  0.00    -0.034 A 
ATOM      5  C4  UNL d   1       3.442   0.792  -4.736  0.00  0.00     0.162 A 
ATOM      6  C5  UNL d   1       2.830  -0.406  -4.381  0.00  0.00     0.062 A 
ATOM      7  F   UNL d   1       3.064  -1.514  -5.099  0.00  0.00    -0.097 F 
ATOM      8  F1  UNL d   1       4.260   0.814  -5.798  0.00  0.00    -0.096 F 
ATOM      9  I   UNL d   1       4.116   3.745  -4.523  0.00  0.00    -0.060 I 
ATOM     10  F2  UNL d   1       2.094   2.986  -2.162  0.00  0.00    -0.096 F 
ATOM     11  F3  UNL d   1       0.914   0.643  -1.487  0.00  0.00    -0.097 F 
ATOM     12  F4  UNL d   1       1.390  -1.612  -2.947  0.00  0.00    -0.092 F 
ENDROOT
TORSDOF 0
ENDMDL
