MODEL 1
REMARK minimizedAffinity 18.2001991
REMARK minimizedRMSD -1
REMARK  0 active torsions:
REMARK  status: ('A' for Active; 'I' for Inactive)
ROOT
ATOM      1  C   UNL d   1       1.064  -0.273  -2.285  0.00  0.00     0.124 A 
ATOM      2  C1  UNL d   1       1.077   0.865  -1.489  0.00  0.00     0.062 A 
ATOM      3  C2  UNL d   1       1.834   1.972  -1.863  0.00  0.00     0.162 A 
ATOM      4  C3  UNL d   1       2.584   1.947  -3.038  0.00  0.00    -0.034 A 
ATOM      5  C4  UNL d   1       2.567   0.799  -3.833  0.00  0.00     0.162 A 
ATOM      6  C5  UNL d   1       1.809  -0.304  -3.455  0.00  0.00     0.062 A 
ATOM      7  F   UNL d   1       1.798  -1.402  -4.225  0.00  0.00    -0.097 F 
ATOM      8  F1  UNL d   1       3.276   0.742  -4.970  0.00  0.00    -0.096 F 
ATOM      9  I   UNL d   1       3.717   3.600  -3.600  0.00  0.00    -0.060 I 
ATOM     10  F2  UNL d   1       1.827   3.057  -1.075  0.00  0.00    -0.096 F 
ATOM     11  F3  UNL d   1       0.359   0.897  -0.357  0.00  0.00    -0.097 F 
ATOM     12  F4  UNL d   1       0.336  -1.337  -1.923  0.00  0.00    -0.092 F 
ENDROOT
TORSDOF 0
ENDMDL
