MODEL 1
REMARK minimizedAffinity 19.0357361
REMARK minimizedRMSD -1
REMARK  0 active torsions:
REMARK  status: ('A' for Active; 'I' for Inactive)
ROOT
ATOM      1  C   UNL d   1       3.521   4.470  -3.191  0.00  0.00     0.124 A 
ATOM      2  C1  UNL d   1       2.827   3.777  -2.209  0.00  0.00     0.062 A 
ATOM      3  C2  UNL d   1       2.484   2.442  -2.405  0.00  0.00     0.162 A 
ATOM      4  C3  UNL d   1       2.836   1.791  -3.587  0.00  0.00    -0.034 A 
ATOM      5  C4  UNL d   1       3.534   2.495  -4.570  0.00  0.00     0.162 A 
ATOM      6  C5  UNL d   1       3.874   3.829  -4.370  0.00  0.00     0.062 A 
ATOM      7  F   UNL d   1       4.545   4.497  -5.319  0.00  0.00    -0.097 F 
ATOM      8  F1  UNL d   1       3.888   1.900  -5.718  0.00  0.00    -0.096 F 
ATOM      9  I   UNL d   1       2.326  -0.205  -3.883  0.00  0.00    -0.060 I 
ATOM     10  F2  UNL d   1       1.813   1.797  -1.439  0.00  0.00    -0.096 F 
ATOM     11  F3  UNL d   1       2.484   4.395  -1.070  0.00  0.00    -0.097 F 
ATOM     12  F4  UNL d   1       3.849   5.755  -3.001  0.00  0.00    -0.092 F 
ENDROOT
TORSDOF 0
ENDMDL
