MODEL 1
REMARK minimizedAffinity 15.5659256
REMARK minimizedRMSD -1
REMARK  0 active torsions:
REMARK  status: ('A' for Active; 'I' for Inactive)
ROOT
ATOM      1  C   UNL d   1       1.372  -0.311  -2.140  0.00  0.00     0.124 A 
ATOM      2  C1  UNL d   1       1.259   0.869  -1.417  0.00  0.00     0.062 A 
ATOM      3  C2  UNL d   1       1.865   2.034  -1.880  0.00  0.00     0.162 A 
ATOM      4  C3  UNL d   1       2.588   2.025  -3.072  0.00  0.00    -0.034 A 
ATOM      5  C4  UNL d   1       2.698   0.834  -3.793  0.00  0.00     0.162 A 
ATOM      6  C5  UNL d   1       2.091  -0.327  -3.326  0.00  0.00     0.062 A 
ATOM      7  F   UNL d   1       2.201  -1.466  -4.026  0.00  0.00    -0.097 F 
ATOM      8  F1  UNL d   1       3.386   0.790  -4.944  0.00  0.00    -0.096 F 
ATOM      9  I   UNL d   1       3.496   3.764  -3.767  0.00  0.00    -0.060 I 
ATOM     10  F2  UNL d   1       1.740   3.159  -1.161  0.00  0.00    -0.096 F 
ATOM     11  F3  UNL d   1       0.566   0.887  -0.270  0.00  0.00    -0.097 F 
ATOM     12  F4  UNL d   1       0.789  -1.430  -1.692  0.00  0.00    -0.092 F 
ENDROOT
TORSDOF 0
ENDMDL
