MODEL 1
REMARK minimizedAffinity 3.53991699
REMARK minimizedRMSD -1
REMARK  3 active torsions:
REMARK  status: ('A' for Active; 'I' for Inactive)
REMARK    1  A    between atoms: C3'_2  and  C2'_3 
REMARK    2  A    between atoms: C2'_3  and  C1'_4 
REMARK    3  A    between atoms: C1'_4  and  C1_5 
ROOT
ATOM      1  C1  N4B d   1      -2.842   1.908  -0.381  0.00  0.00    -0.075 A 
ATOM      2  C2  N4B d   1      -1.895   0.894  -0.117  0.00  0.00     0.002 A 
ATOM      3  C3  N4B d   1      -1.424   0.111  -1.142  0.00  0.00     0.002 A 
ATOM      4  C4  N4B d   1      -1.897   0.311  -2.430  0.00  0.00    -0.004 A 
ATOM      5  C5  N4B d   1      -2.792   1.309  -2.681  0.00  0.00     0.002 A 
ATOM      6  C6  N4B d   1      -3.272   2.106  -1.661  0.00  0.00     0.002 A 
ENDROOT
BRANCH   1   7
ATOM      7  C1' N4B d   1      -3.451   2.732   0.721  0.00  0.00     0.057 C 
BRANCH   7   8
ATOM      8  C2' N4B d   1      -4.880   2.258   0.970  0.00  0.00     0.009 C 
BRANCH   8   9
ATOM      9  C3' N4B d   1      -5.870   3.410   0.963  0.00  0.00     0.004 C 
ATOM     10  C4' N4B d   1      -6.000   4.057  -0.383  0.00  0.00     0.003 C 
ENDBRANCH   8   9
ENDBRANCH   7   8
ENDBRANCH   1   7
TORSDOF 3
ENDMDL
