MODEL 1
REMARK minimizedAffinity 1.73976827
REMARK minimizedRMSD -1
REMARK  3 active torsions:
REMARK  status: ('A' for Active; 'I' for Inactive)
REMARK    1  A    between atoms: C3'_2  and  C2'_3 
REMARK    2  A    between atoms: C2'_3  and  C1'_4 
REMARK    3  A    between atoms: C1'_4  and  C1_5 
ROOT
ATOM      1  C1  N4B d   1      -2.033  -2.815  -1.072  0.00  0.00    -0.075 A 
ATOM      2  C2  N4B d   1      -3.020  -3.717  -1.528  0.00  0.00     0.002 A 
ATOM      3  C3  N4B d   1      -3.783  -3.402  -2.625  0.00  0.00     0.002 A 
ATOM      4  C4  N4B d   1      -3.593  -2.189  -3.268  0.00  0.00    -0.004 A 
ATOM      5  C5  N4B d   1      -2.621  -1.334  -2.837  0.00  0.00     0.002 A 
ATOM      6  C6  N4B d   1      -1.843  -1.639  -1.738  0.00  0.00     0.002 A 
ENDROOT
BRANCH   1   7
ATOM      7  C1' N4B d   1      -1.233  -3.077   0.174  0.00  0.00     0.057 C 
BRANCH   7   8
ATOM      8  C2' N4B d   1       0.206  -2.619  -0.049  0.00  0.00     0.009 C 
BRANCH   8   9
ATOM      9  C3' N4B d   1       1.142  -3.144   1.025  0.00  0.00     0.004 C 
ATOM     10  C4' N4B d   1       1.084  -2.341   2.290  0.00  0.00     0.003 C 
ENDBRANCH   8   9
ENDBRANCH   7   8
ENDBRANCH   1   7
TORSDOF 3
ENDMDL
