MODEL 1
REMARK minimizedAffinity -4.29060888
REMARK minimizedRMSD -1
REMARK  2 active torsions:
REMARK  status: ('A' for Active; 'I' for Inactive)
REMARK    1  A    between atoms: C1_2  and  C2_3 
REMARK    2  A    between atoms: C2_3  and  C3_4 
ROOT
ATOM      1  C3  UNL d   1       1.145  -0.591   0.234  0.00  0.00    -0.075 A 
ATOM      2  C4  UNL d   1      -0.173  -0.531  -0.243  0.00  0.00     0.002 A 
ATOM      3  C5  UNL d   1      -0.855   0.685  -0.290  0.00  0.00     0.002 A 
ATOM      4  C6  UNL d   1      -0.235   1.852   0.149  0.00  0.00    -0.004 A 
ATOM      5  C7  UNL d   1       1.068   1.802   0.641  0.00  0.00     0.002 A 
ATOM      6  C8  UNL d   1       1.754   0.588   0.684  0.00  0.00     0.002 A 
ENDROOT
BRANCH   1   7
ATOM      7  C2  UNL d   1       1.899  -1.898   0.260  0.00  0.00     0.056 C 
BRANCH   7   8
ATOM      8  C1  UNL d   1       1.882  -2.654  -1.073  0.00  0.00     0.007 C 
ATOM      9  C   UNL d   1       2.971  -2.200  -2.035  0.00  0.00     0.009 C 
ENDBRANCH   7   8
ENDBRANCH   1   7
TORSDOF 2
ENDMDL
