MODEL 1
REMARK minimizedAffinity -3.73369145
REMARK minimizedRMSD -1
REMARK  2 active torsions:
REMARK  status: ('A' for Active; 'I' for Inactive)
REMARK    1  A    between atoms: C1_2  and  C2_3 
REMARK    2  A    between atoms: C2_3  and  C3_4 
ROOT
ATOM      1  C3  UNL d   1      -0.199   0.041   0.071  0.00  0.00    -0.075 A 
ATOM      2  C4  UNL d   1       0.028  -1.264  -0.391  0.00  0.00     0.002 A 
ATOM      3  C5  UNL d   1       1.267  -1.877  -0.200  0.00  0.00     0.002 A 
ATOM      4  C6  UNL d   1       2.295  -1.191   0.444  0.00  0.00    -0.004 A 
ATOM      5  C7  UNL d   1       2.085   0.111   0.892  0.00  0.00     0.002 A 
ATOM      6  C8  UNL d   1       0.845   0.725   0.706  0.00  0.00     0.002 A 
ENDROOT
BRANCH   1   7
ATOM      7  C2  UNL d   1      -1.547   0.699  -0.106  0.00  0.00     0.056 C 
BRANCH   7   8
ATOM      8  C1  UNL d   1      -2.313   0.914   1.203  0.00  0.00     0.007 C 
ATOM      9  C   UNL d   1      -3.807   0.646   1.075  0.00  0.00     0.009 C 
ENDBRANCH   7   8
ENDBRANCH   1   7
TORSDOF 2
ENDMDL
