MODEL 1
REMARK minimizedAffinity -1.46586108
REMARK minimizedRMSD -1
REMARK  2 active torsions:
REMARK  status: ('A' for Active; 'I' for Inactive)
REMARK    1  A    between atoms: C1_2  and  C2_3 
REMARK    2  A    between atoms: C2_3  and  C3_4 
ROOT
ATOM      1  C3  UNL d   1       3.326  -1.113  -0.960  0.00  0.00    -0.075 A 
ATOM      2  C4  UNL d   1       3.864   0.090  -0.480  0.00  0.00     0.002 A 
ATOM      3  C5  UNL d   1       4.621   0.911  -1.317  0.00  0.00     0.002 A 
ATOM      4  C6  UNL d   1       4.857   0.536  -2.637  0.00  0.00    -0.004 A 
ATOM      5  C7  UNL d   1       4.341  -0.665  -3.120  0.00  0.00     0.002 A 
ATOM      6  C8  UNL d   1       3.580  -1.486  -2.286  0.00  0.00     0.002 A 
ENDROOT
BRANCH   1   7
ATOM      7  C2  UNL d   1       2.481  -1.992  -0.068  0.00  0.00     0.056 C 
BRANCH   7   8
ATOM      8  C1  UNL d   1       0.978  -1.904  -0.350  0.00  0.00     0.007 C 
ATOM      9  C   UNL d   1       0.362  -0.580   0.083  0.00  0.00     0.009 C 
ENDBRANCH   7   8
ENDBRANCH   1   7
TORSDOF 2
ENDMDL
