MODEL 1
REMARK minimizedAffinity -3.29743767
REMARK minimizedRMSD -1
REMARK  2 active torsions:
REMARK  status: ('A' for Active; 'I' for Inactive)
REMARK    1  A    between atoms: C1_2  and  C2_3 
REMARK    2  A    between atoms: C2_3  and  C3_4 
ROOT
ATOM      1  C3  UNL d   1      -0.114  -0.035  -0.171  0.00  0.00    -0.075 A 
ATOM      2  C4  UNL d   1       1.016   0.700   0.217  0.00  0.00     0.002 A 
ATOM      3  C5  UNL d   1       2.221   0.054   0.493  0.00  0.00     0.002 A 
ATOM      4  C6  UNL d   1       2.310  -1.333   0.395  0.00  0.00    -0.004 A 
ATOM      5  C7  UNL d   1       1.189  -2.074   0.027  0.00  0.00     0.002 A 
ATOM      6  C8  UNL d   1      -0.017  -1.430  -0.254  0.00  0.00     0.002 A 
ENDROOT
BRANCH   1   7
ATOM      7  C2  UNL d   1      -1.413   0.661  -0.500  0.00  0.00     0.056 C 
BRANCH   7   8
ATOM      8  C1  UNL d   1      -2.366   0.799   0.692  0.00  0.00     0.007 C 
ATOM      9  C   UNL d   1      -3.823   0.548   0.329  0.00  0.00     0.009 C 
ENDBRANCH   7   8
ENDBRANCH   1   7
TORSDOF 2
ENDMDL
