MODEL 1
REMARK minimizedAffinity -3.88659191
REMARK minimizedRMSD -1
REMARK  2 active torsions:
REMARK  status: ('A' for Active; 'I' for Inactive)
REMARK    1  A    between atoms: C1_2  and  C2_3 
REMARK    2  A    between atoms: C2_3  and  C3_4 
ROOT
ATOM      1  C3  UNL d   1      -1.751   0.192   0.443  0.00  0.00    -0.075 A 
ATOM      2  C4  UNL d   1      -0.926   0.449  -0.662  0.00  0.00     0.002 A 
ATOM      3  C5  UNL d   1       0.246  -0.282  -0.857  0.00  0.00     0.002 A 
ATOM      4  C6  UNL d   1       0.613  -1.271   0.053  0.00  0.00    -0.004 A 
ATOM      5  C7  UNL d   1      -0.190  -1.523   1.163  0.00  0.00     0.002 A 
ATOM      6  C8  UNL d   1      -1.365  -0.796   1.359  0.00  0.00     0.002 A 
ENDROOT
BRANCH   1   7
ATOM      7  C2  UNL d   1      -3.036   0.959   0.644  0.00  0.00     0.056 C 
BRANCH   7   8
ATOM      8  C1  UNL d   1      -3.025   1.885   1.865  0.00  0.00     0.007 C 
ATOM      9  C   UNL d   1      -2.986   3.362   1.498  0.00  0.00     0.009 C 
ENDBRANCH   7   8
ENDBRANCH   1   7
TORSDOF 2
ENDMDL
