MODEL 1
REMARK minimizedAffinity 3.75460291
REMARK minimizedRMSD -1
REMARK  2 active torsions:
REMARK  status: ('A' for Active; 'I' for Inactive)
REMARK    1  A    between atoms: C1_2  and  C2_3 
REMARK    2  A    between atoms: C2_3  and  C3_4 
ROOT
ATOM      1  C3  UNL d   1       0.386  -1.206  -1.071  0.00  0.00    -0.075 A 
ATOM      2  C4  UNL d   1       1.103  -1.824  -0.036  0.00  0.00     0.002 A 
ATOM      3  C5  UNL d   1       2.273  -2.532  -0.310  0.00  0.00     0.002 A 
ATOM      4  C6  UNL d   1       2.736  -2.640  -1.619  0.00  0.00    -0.004 A 
ATOM      5  C7  UNL d   1       2.023  -2.044  -2.657  0.00  0.00     0.002 A 
ATOM      6  C8  UNL d   1       0.853  -1.332  -2.386  0.00  0.00     0.002 A 
ENDROOT
BRANCH   1   7
ATOM      7  C2  UNL d   1      -0.866  -0.414  -0.778  0.00  0.00     0.056 C 
BRANCH   7   8
ATOM      8  C1  UNL d   1      -0.766   0.472   0.468  0.00  0.00     0.007 C 
ATOM      9  C   UNL d   1       0.336   1.519   0.373  0.00  0.00     0.009 C 
ENDBRANCH   7   8
ENDBRANCH   1   7
TORSDOF 2
ENDMDL
