MODEL 1
REMARK minimizedAffinity -3.69178557
REMARK minimizedRMSD -1
REMARK  2 active torsions:
REMARK  status: ('A' for Active; 'I' for Inactive)
REMARK    1  A    between atoms: C2'_3  and  C1'_4 
REMARK    2  A    between atoms: C1'_4  and  C1_5 
ROOT
ATOM      1  C1  I4B d   1      -1.102  -1.167   0.674  0.00  0.00    -0.075 A 
ATOM      2  C2  I4B d   1      -0.717   0.039   0.144  0.00  0.00     0.003 A 
ATOM      3  C3  I4B d   1       0.623   0.241  -0.269  0.00  0.00     0.002 A 
ATOM      4  C4  I4B d   1       1.548  -0.767  -0.090  0.00  0.00    -0.004 A 
ATOM      5  C5  I4B d   1       1.151  -1.997   0.426  0.00  0.00     0.002 A 
ATOM      6  C6  I4B d   1      -0.185  -2.203   0.799  0.00  0.00     0.003 A 
ENDROOT
BRANCH   1   7
ATOM      7  C1' I4B d   1      -2.516  -1.335   1.130  0.00  0.00     0.060 C 
BRANCH   7   8
ATOM      8  C2' I4B d   1      -2.893  -0.112   1.941  0.00  0.00    -0.013 C 
ATOM      9  C4' I4B d   1      -4.355   0.216   1.787  0.00  0.00     0.013 C 
ATOM     10  C3' I4B d   1      -2.548  -0.383   3.375  0.00  0.00     0.013 C 
ENDBRANCH   7   8
ENDBRANCH   1   7
TORSDOF 2
ENDMDL
