MODEL 1
REMARK minimizedAffinity -4.75274944
REMARK minimizedRMSD -1
REMARK  2 active torsions:
REMARK  status: ('A' for Active; 'I' for Inactive)
REMARK    1  A    between atoms: C2'_3  and  C1'_4 
REMARK    2  A    between atoms: C1'_4  and  C1_5 
ROOT
ATOM      1  C1  I4B d   1       0.640   1.712  -1.191  0.00  0.00    -0.075 A 
ATOM      2  C2  I4B d   1       1.948   1.987  -1.501  0.00  0.00     0.003 A 
ATOM      3  C3  I4B d   1       2.271   2.646  -2.713  0.00  0.00     0.002 A 
ATOM      4  C4  I4B d   1       1.264   2.964  -3.602  0.00  0.00    -0.004 A 
ATOM      5  C5  I4B d   1      -0.064   2.705  -3.276  0.00  0.00     0.002 A 
ATOM      6  C6  I4B d   1      -0.380   2.086  -2.057  0.00  0.00     0.003 A 
ENDROOT
BRANCH   1   7
ATOM      7  C1' I4B d   1       0.338   0.986   0.081  0.00  0.00     0.060 C 
BRANCH   7   8
ATOM      8  C2' I4B d   1      -0.123  -0.412  -0.278  0.00  0.00    -0.013 C 
ATOM      9  C4' I4B d   1       0.981  -1.417  -0.082  0.00  0.00     0.013 C 
ATOM     10  C3' I4B d   1      -1.312  -0.741   0.576  0.00  0.00     0.013 C 
ENDBRANCH   7   8
ENDBRANCH   1   7
TORSDOF 2
ENDMDL
