MODEL 1
REMARK minimizedAffinity -2.819525
REMARK minimizedRMSD -1
REMARK  2 active torsions:
REMARK  status: ('A' for Active; 'I' for Inactive)
REMARK    1  A    between atoms: C2'_3  and  C1'_4 
REMARK    2  A    between atoms: C1'_4  and  C1_5 
ROOT
ATOM      1  C1  I4B d   1       0.143   0.286  -0.976  0.00  0.00    -0.075 A 
ATOM      2  C2  I4B d   1      -0.042  -0.981  -1.469  0.00  0.00     0.003 A 
ATOM      3  C3  I4B d   1       0.044  -2.101  -0.607  0.00  0.00     0.002 A 
ATOM      4  C4  I4B d   1       0.364  -1.912   0.722  0.00  0.00    -0.004 A 
ATOM      5  C5  I4B d   1       0.528  -0.625   1.225  0.00  0.00     0.002 A 
ATOM      6  C6  I4B d   1       0.404   0.483   0.374  0.00  0.00     0.003 A 
ENDROOT
BRANCH   1   7
ATOM      7  C1' I4B d   1       0.077   1.444  -1.921  0.00  0.00     0.060 C 
BRANCH   7   8
ATOM      8  C2' I4B d   1       1.208   1.297  -2.918  0.00  0.00    -0.013 C 
ATOM      9  C4' I4B d   1       0.709   1.432  -4.333  0.00  0.00     0.013 C 
ATOM     10  C3' I4B d   1       2.240   2.340  -2.606  0.00  0.00     0.013 C 
ENDBRANCH   7   8
ENDBRANCH   1   7
TORSDOF 2
ENDMDL
