MODEL 1
REMARK minimizedAffinity -3.81895924
REMARK minimizedRMSD -1
REMARK  2 active torsions:
REMARK  status: ('A' for Active; 'I' for Inactive)
REMARK    1  A    between atoms: C2'_3  and  C1'_4 
REMARK    2  A    between atoms: C1'_4  and  C1_5 
ROOT
ATOM      1  C1  I4B d   1      -0.640  -1.509   0.083  0.00  0.00    -0.075 A 
ATOM      2  C2  I4B d   1      -0.694  -0.361  -0.667  0.00  0.00     0.003 A 
ATOM      3  C3  I4B d   1       0.468   0.427  -0.851  0.00  0.00     0.002 A 
ATOM      4  C4  I4B d   1       1.644   0.059  -0.229  0.00  0.00    -0.004 A 
ATOM      5  C5  I4B d   1       1.703  -1.118   0.513  0.00  0.00     0.002 A 
ATOM      6  C6  I4B d   1       0.557  -1.913   0.660  0.00  0.00     0.003 A 
ENDROOT
BRANCH   1   7
ATOM      7  C1' I4B d   1      -1.894  -2.299   0.284  0.00  0.00     0.060 C 
BRANCH   7   8
ATOM      8  C2' I4B d   1      -2.622  -1.724   1.482  0.00  0.00    -0.013 C 
ATOM      9  C4' I4B d   1      -1.690  -1.545   2.651  0.00  0.00     0.013 C 
ATOM     10  C3' I4B d   1      -3.230  -0.417   1.070  0.00  0.00     0.013 C 
ENDBRANCH   7   8
ENDBRANCH   1   7
TORSDOF 2
ENDMDL
