MODEL 1
REMARK minimizedAffinity -5.91172075
REMARK minimizedRMSD -1
REMARK  2 active torsions:
REMARK  status: ('A' for Active; 'I' for Inactive)
REMARK    1  A    between atoms: C2'_3  and  C1'_4 
REMARK    2  A    between atoms: C1'_4  and  C1_5 
ROOT
ATOM      1  C1  I4B d   1      -0.271  -0.029   0.419  0.00  0.00    -0.075 A 
ATOM      2  C2  I4B d   1      -1.500  -0.104   1.026  0.00  0.00     0.003 A 
ATOM      3  C3  I4B d   1      -2.060  -1.364   1.348  0.00  0.00     0.002 A 
ATOM      4  C4  I4B d   1      -1.384  -2.517   1.003  0.00  0.00    -0.004 A 
ATOM      5  C5  I4B d   1      -0.128  -2.438   0.409  0.00  0.00     0.002 A 
ATOM      6  C6  I4B d   1       0.438  -1.187   0.126  0.00  0.00     0.003 A 
ENDROOT
BRANCH   1   7
ATOM      7  C1' I4B d   1       0.275   1.317   0.063  0.00  0.00     0.060 C 
BRANCH   7   8
ATOM      8  C2' I4B d   1       0.632   1.301  -1.409  0.00  0.00    -0.013 C 
ATOM      9  C4' I4B d   1      -0.598   1.428  -2.269  0.00  0.00     0.013 C 
ATOM     10  C3' I4B d   1       1.590   2.426  -1.666  0.00  0.00     0.013 C 
ENDBRANCH   7   8
ENDBRANCH   1   7
TORSDOF 2
ENDMDL
