MODEL 1
REMARK minimizedAffinity -4.81630182
REMARK minimizedRMSD -1
REMARK  2 active torsions:
REMARK  status: ('A' for Active; 'I' for Inactive)
REMARK    1  A    between atoms: C2'_3  and  C1'_4 
REMARK    2  A    between atoms: C1'_4  and  C1_5 
ROOT
ATOM      1  C1  I4B d   1      -1.436  -0.142   0.833  0.00  0.00    -0.075 A 
ATOM      2  C2  I4B d   1      -1.522  -0.971  -0.257  0.00  0.00     0.003 A 
ATOM      3  C3  I4B d   1      -1.915  -2.322  -0.096  0.00  0.00     0.002 A 
ATOM      4  C4  I4B d   1      -2.162  -2.812   1.170  0.00  0.00    -0.004 A 
ATOM      5  C5  I4B d   1      -2.097  -1.964   2.272  0.00  0.00     0.002 A 
ATOM      6  C6  I4B d   1      -1.744  -0.618   2.102  0.00  0.00     0.003 A 
ENDROOT
BRANCH   1   7
ATOM      7  C1' I4B d   1      -0.986   1.270   0.632  0.00  0.00     0.060 C 
BRANCH   7   8
ATOM      8  C2' I4B d   1       0.471   1.240   0.215  0.00  0.00    -0.013 C 
ATOM      9  C4' I4B d   1       1.043  -0.148   0.331  0.00  0.00     0.013 C 
ATOM     10  C3' I4B d   1       0.559   1.747  -1.194  0.00  0.00     0.013 C 
ENDBRANCH   7   8
ENDBRANCH   1   7
TORSDOF 2
ENDMDL
