MODEL 1
REMARK minimizedAffinity -3.67717957
REMARK minimizedRMSD -1
REMARK  2 active torsions:
REMARK  status: ('A' for Active; 'I' for Inactive)
REMARK    1  A    between atoms: C2'_3  and  C1'_4 
REMARK    2  A    between atoms: C1'_4  and  C1_5 
ROOT
ATOM      1  C1  I4B d   1      -0.021   0.097   0.087  0.00  0.00    -0.075 A 
ATOM      2  C2  I4B d   1       0.842  -0.775   0.702  0.00  0.00     0.003 A 
ATOM      3  C3  I4B d   1       0.396  -2.061   1.092  0.00  0.00     0.002 A 
ATOM      4  C4  I4B d   1      -0.924  -2.412   0.895  0.00  0.00    -0.004 A 
ATOM      5  C5  I4B d   1      -1.791  -1.535   0.250  0.00  0.00     0.002 A 
ATOM      6  C6  I4B d   1      -1.334  -0.277  -0.168  0.00  0.00     0.003 A 
ENDROOT
BRANCH   1   7
ATOM      7  C1' I4B d   1       0.474   1.460  -0.283  0.00  0.00     0.060 C 
BRANCH   7   8
ATOM      8  C2' I4B d   1       1.034   1.388  -1.689  0.00  0.00    -0.013 C 
ATOM      9  C4' I4B d   1       0.044   1.910  -2.697  0.00  0.00     0.013 C 
ATOM     10  C3' I4B d   1       2.308   2.178  -1.721  0.00  0.00     0.013 C 
ENDBRANCH   7   8
ENDBRANCH   1   7
TORSDOF 2
ENDMDL
