MODEL 1
REMARK minimizedAffinity -5.18763256
REMARK minimizedRMSD -1
REMARK  2 active torsions:
REMARK  status: ('A' for Active; 'I' for Inactive)
REMARK    1  A    between atoms: C2'_3  and  C1'_4 
REMARK    2  A    between atoms: C1'_4  and  C1_5 
ROOT
ATOM      1  C1  I4B d   1      -0.608  -1.202   0.162  0.00  0.00    -0.075 A 
ATOM      2  C2  I4B d   1      -1.115   0.070   0.071  0.00  0.00     0.003 A 
ATOM      3  C3  I4B d   1      -0.251   1.189   0.142  0.00  0.00     0.002 A 
ATOM      4  C4  I4B d   1       1.099   0.993   0.353  0.00  0.00    -0.004 A 
ATOM      5  C5  I4B d   1       1.615  -0.298   0.422  0.00  0.00     0.002 A 
ATOM      6  C6  I4B d   1       0.758  -1.403   0.313  0.00  0.00     0.003 A 
ENDROOT
BRANCH   1   7
ATOM      7  C1' I4B d   1      -1.553  -2.360   0.116  0.00  0.00     0.060 C 
BRANCH   7   8
ATOM      8  C2' I4B d   1      -2.284  -2.418   1.442  0.00  0.00    -0.013 C 
ATOM      9  C4' I4B d   1      -1.326  -2.632   2.584  0.00  0.00     0.013 C 
ATOM     10  C3' I4B d   1      -3.046  -1.137   1.607  0.00  0.00     0.013 C 
ENDBRANCH   7   8
ENDBRANCH   1   7
TORSDOF 2
ENDMDL
