MODEL 1
REMARK minimizedAffinity -5.61475325
REMARK minimizedRMSD -1
REMARK  2 active torsions:
REMARK  status: ('A' for Active; 'I' for Inactive)
REMARK    1  A    between atoms: C2'_3  and  C1'_4 
REMARK    2  A    between atoms: C1'_4  and  C1_5 
ROOT
ATOM      1  C1  I4B d   1      -1.519  -0.600   0.657  0.00  0.00    -0.075 A 
ATOM      2  C2  I4B d   1      -1.045  -1.780   0.140  0.00  0.00     0.003 A 
ATOM      3  C3  I4B d   1      -1.548  -3.017   0.610  0.00  0.00     0.002 A 
ATOM      4  C4  I4B d   1      -2.481  -3.029   1.627  0.00  0.00    -0.004 A 
ATOM      5  C5  I4B d   1      -2.977  -1.832   2.134  0.00  0.00     0.002 A 
ATOM      6  C6  I4B d   1      -2.503  -0.609   1.638  0.00  0.00     0.003 A 
ENDROOT
BRANCH   1   7
ATOM      7  C1' I4B d   1      -0.943   0.688   0.161  0.00  0.00     0.060 C 
BRANCH   7   8
ATOM      8  C2' I4B d   1       0.253   0.359  -0.710  0.00  0.00    -0.013 C 
ATOM      9  C4' I4B d   1       0.233   1.156  -1.987  0.00  0.00     0.013 C 
ATOM     10  C3' I4B d   1       1.494   0.638   0.083  0.00  0.00     0.013 C 
ENDBRANCH   7   8
ENDBRANCH   1   7
TORSDOF 2
ENDMDL
