MODEL 1
REMARK minimizedAffinity -6.14582396
REMARK minimizedRMSD -1
REMARK  2 active torsions:
REMARK  status: ('A' for Active; 'I' for Inactive)
REMARK    1  A    between atoms: C2'_3  and  C1'_4 
REMARK    2  A    between atoms: C1'_4  and  C1_5 
ROOT
ATOM      1  C1  I4B d   1       0.052   0.179   0.093  0.00  0.00    -0.075 A 
ATOM      2  C2  I4B d   1       0.650  -1.038  -0.122  0.00  0.00     0.003 A 
ATOM      3  C3  I4B d   1       0.083  -2.217   0.418  0.00  0.00     0.002 A 
ATOM      4  C4  I4B d   1      -1.048  -2.129   1.205  0.00  0.00    -0.004 A 
ATOM      5  C5  I4B d   1      -1.666  -0.898   1.403  0.00  0.00     0.002 A 
ATOM      6  C6  I4B d   1      -1.120   0.262   0.834  0.00  0.00     0.003 A 
ENDROOT
BRANCH   1   7
ATOM      7  C1' I4B d   1       0.696   1.408  -0.465  0.00  0.00     0.060 C 
BRANCH   7   8
ATOM      8  C2' I4B d   1       0.651   1.313  -1.976  0.00  0.00    -0.013 C 
ATOM      9  C4' I4B d   1      -0.672   1.792  -2.513  0.00  0.00     0.013 C 
ATOM     10  C3' I4B d   1       1.784   2.128  -2.525  0.00  0.00     0.013 C 
ENDBRANCH   7   8
ENDBRANCH   1   7
TORSDOF 2
ENDMDL
