MODEL 1
REMARK minimizedAffinity -3.66166234
REMARK minimizedRMSD -1
REMARK  2 active torsions:
REMARK  status: ('A' for Active; 'I' for Inactive)
REMARK    1  A    between atoms: C2'_3  and  C1'_4 
REMARK    2  A    between atoms: C1'_4  and  C1_5 
ROOT
ATOM      1  C1  I4B d   1      -0.441   0.362  -0.007  0.00  0.00    -0.075 A 
ATOM      2  C2  I4B d   1      -0.070  -0.959  -0.033  0.00  0.00     0.003 A 
ATOM      3  C3  I4B d   1      -0.828  -1.927   0.670  0.00  0.00     0.002 A 
ATOM      4  C4  I4B d   1      -1.912  -1.525   1.422  0.00  0.00    -0.004 A 
ATOM      5  C5  I4B d   1      -2.300  -0.188   1.430  0.00  0.00     0.002 A 
ATOM      6  C6  I4B d   1      -1.568   0.760   0.701  0.00  0.00     0.003 A 
ENDROOT
BRANCH   1   7
ATOM      7  C1' I4B d   1       0.401   1.362  -0.733  0.00  0.00     0.060 C 
BRANCH   7   8
ATOM      8  C2' I4B d   1       0.089   1.248  -2.212  0.00  0.00    -0.013 C 
ATOM      9  C4' I4B d   1      -1.003   2.204  -2.614  0.00  0.00     0.013 C 
ATOM     10  C3' I4B d   1       1.353   1.518  -2.973  0.00  0.00     0.013 C 
ENDBRANCH   7   8
ENDBRANCH   1   7
TORSDOF 2
ENDMDL
