MODEL 1
REMARK minimizedAffinity -5.34020615
REMARK minimizedRMSD -1
REMARK  2 active torsions:
REMARK  status: ('A' for Active; 'I' for Inactive)
REMARK    1  A    between atoms: C2'_3  and  C1'_4 
REMARK    2  A    between atoms: C1'_4  and  C1_5 
ROOT
ATOM      1  C1  I4B d   1      -0.461  -0.935   0.635  0.00  0.00    -0.075 A 
ATOM      2  C2  I4B d   1      -0.394  -2.287   0.863  0.00  0.00     0.003 A 
ATOM      3  C3  I4B d   1      -1.490  -2.966   1.448  0.00  0.00     0.002 A 
ATOM      4  C4  I4B d   1      -2.606  -2.251   1.833  0.00  0.00    -0.004 A 
ATOM      5  C5  I4B d   1      -2.681  -0.884   1.580  0.00  0.00     0.002 A 
ATOM      6  C6  I4B d   1      -1.607  -0.224   0.966  0.00  0.00     0.003 A 
ENDROOT
BRANCH   1   7
ATOM      7  C1' I4B d   1       0.728  -0.244   0.046  0.00  0.00     0.060 C 
BRANCH   7   8
ATOM      8  C2' I4B d   1       0.335   1.189  -0.250  0.00  0.00    -0.013 C 
ATOM      9  C4' I4B d   1       1.143   2.157   0.574  0.00  0.00     0.013 C 
ATOM     10  C3' I4B d   1       0.534   1.430  -1.717  0.00  0.00     0.013 C 
ENDBRANCH   7   8
ENDBRANCH   1   7
TORSDOF 2
ENDMDL
