MODEL 1
REMARK minimizedAffinity -4.42686892
REMARK minimizedRMSD -1
REMARK  2 active torsions:
REMARK  status: ('A' for Active; 'I' for Inactive)
REMARK    1  A    between atoms: C2'_3  and  C1'_4 
REMARK    2  A    between atoms: C1'_4  and  C1_5 
ROOT
ATOM      1  C1  I4B d   1      -0.721   0.176   0.563  0.00  0.00    -0.075 A 
ATOM      2  C2  I4B d   1      -0.157  -1.070   0.446  0.00  0.00     0.003 A 
ATOM      3  C3  I4B d   1      -0.810  -2.203   0.989  0.00  0.00     0.002 A 
ATOM      4  C4  I4B d   1      -1.993  -2.038   1.680  0.00  0.00    -0.004 A 
ATOM      5  C5  I4B d   1      -2.576  -0.778   1.777  0.00  0.00     0.002 A 
ATOM      6  C6  I4B d   1      -1.943   0.335   1.205  0.00  0.00     0.003 A 
ENDROOT
BRANCH   1   7
ATOM      7  C1' I4B d   1       0.012   1.355   0.006  0.00  0.00     0.060 C 
BRANCH   7   8
ATOM      8  C2' I4B d   1       0.345   1.057  -1.442  0.00  0.00    -0.013 C 
ATOM      9  C4' I4B d   1      -0.568   1.806  -2.376  0.00  0.00     0.013 C 
ATOM     10  C3' I4B d   1       1.779   1.428  -1.673  0.00  0.00     0.013 C 
ENDBRANCH   7   8
ENDBRANCH   1   7
TORSDOF 2
ENDMDL
