MODEL 1
REMARK minimizedAffinity -1.39483988
REMARK minimizedRMSD -1
REMARK  2 active torsions:
REMARK  status: ('A' for Active; 'I' for Inactive)
REMARK    1  A    between atoms: C2'_3  and  C1'_4 
REMARK    2  A    between atoms: C1'_4  and  C1_5 
ROOT
ATOM      1  C1  I4B d   1       0.860   1.796  -1.759  0.00  0.00    -0.075 A 
ATOM      2  C2  I4B d   1       2.193   1.567  -1.995  0.00  0.00     0.003 A 
ATOM      3  C3  I4B d   1       2.744   1.820  -3.275  0.00  0.00     0.002 A 
ATOM      4  C4  I4B d   1       1.921   2.250  -4.296  0.00  0.00    -0.004 A 
ATOM      5  C5  I4B d   1       0.575   2.504  -4.048  0.00  0.00     0.002 A 
ATOM      6  C6  I4B d   1       0.043   2.287  -2.769  0.00  0.00     0.003 A 
ENDROOT
BRANCH   1   7
ATOM      7  C1' I4B d   1       0.305   1.487  -0.405  0.00  0.00     0.060 C 
BRANCH   7   8
ATOM      8  C2' I4B d   1       0.201  -0.020  -0.276  0.00  0.00    -0.013 C 
ATOM      9  C4' I4B d   1       1.180  -0.548   0.740  0.00  0.00     0.013 C 
ATOM     10  C3' I4B d   1      -1.209  -0.356   0.106  0.00  0.00     0.013 C 
ENDBRANCH   7   8
ENDBRANCH   1   7
TORSDOF 2
ENDMDL
