MODEL 1
REMARK minimizedAffinity -2.93869519
REMARK minimizedRMSD -1
REMARK  1 active torsions:
REMARK  status: ('A' for Active; 'I' for Inactive)
REMARK    1  A    between atoms: N_2  and  C1_3 
ROOT
ATOM      1  C1  UNL d   1      -0.086  -0.587  -0.400  0.00  0.00     0.143 A 
ATOM      2  C2  UNL d   1       0.828   0.427  -0.706  0.00  0.00    -0.057 A 
ATOM      3  C3  UNL d   1       0.855   1.624   0.019  0.00  0.00     0.033 A 
ATOM      4  C4  UNL d   1      -0.054   1.841   1.049  0.00  0.00    -0.042 A 
ATOM      5  C5  UNL d   1      -0.988   0.858   1.355  0.00  0.00     0.033 A 
ATOM      6  C6  UNL d   1      -1.006  -0.338   0.631  0.00  0.00    -0.057 A 
ENDROOT
BRANCH   1   7
ATOM      7  N   UNL d   1      -0.228  -1.759  -1.147  0.00  0.00    -0.732 N 
ATOM      8  C   UNL d   1      -1.439  -2.012  -1.897  0.00  0.00     0.284 C 
ATOM      9  H3  UNL d   1       0.626  -2.011  -1.639  0.00  0.00     0.395 HD
ENDBRANCH   1   7
TORSDOF 1
ENDMDL
