MODEL 1
REMARK minimizedAffinity -5.06480169
REMARK minimizedRMSD -1
REMARK  1 active torsions:
REMARK  status: ('A' for Active; 'I' for Inactive)
REMARK    1  A    between atoms: N_2  and  C1_3 
ROOT
ATOM      1  C1  UNL d   1      -0.068   0.036   0.034  0.00  0.00     0.143 A 
ATOM      2  C2  UNL d   1      -0.758   0.528   1.147  0.00  0.00    -0.057 A 
ATOM      3  C3  UNL d   1      -0.350   1.700   1.795  0.00  0.00     0.033 A 
ATOM      4  C4  UNL d   1       0.777   2.387   1.357  0.00  0.00    -0.042 A 
ATOM      5  C5  UNL d   1       1.493   1.903   0.268  0.00  0.00     0.033 A 
ATOM      6  C6  UNL d   1       1.076   0.736  -0.379  0.00  0.00    -0.057 A 
ENDROOT
BRANCH   1   7
ATOM      7  N   UNL d   1      -0.367  -1.176  -0.592  0.00  0.00    -0.732 N 
ATOM      8  C   UNL d   1      -1.220  -1.212  -1.761  0.00  0.00     0.284 C 
ATOM      9  H3  UNL d   1       0.440  -1.794  -0.648  0.00  0.00     0.395 HD
ENDBRANCH   1   7
TORSDOF 1
ENDMDL
