MODEL 1
REMARK minimizedAffinity -3.99260974
REMARK minimizedRMSD -1
REMARK  1 active torsions:
REMARK  status: ('A' for Active; 'I' for Inactive)
REMARK    1  A    between atoms: N_2  and  C1_3 
ROOT
ATOM      1  C1  UNL d   1       0.309  -0.028  -0.065  0.00  0.00     0.143 A 
ATOM      2  C2  UNL d   1      -0.457   0.299   1.059  0.00  0.00    -0.057 A 
ATOM      3  C3  UNL d   1      -0.176   1.439   1.822  0.00  0.00     0.033 A 
ATOM      4  C4  UNL d   1       0.898   2.258   1.490  0.00  0.00    -0.042 A 
ATOM      5  C5  UNL d   1       1.688   1.939   0.392  0.00  0.00     0.033 A 
ATOM      6  C6  UNL d   1       1.399   0.803  -0.370  0.00  0.00    -0.057 A 
ENDROOT
BRANCH   1   7
ATOM      7  N   UNL d   1       0.142  -1.200  -0.807  0.00  0.00    -0.732 N 
ATOM      8  C   UNL d   1      -1.175  -1.617  -1.238  0.00  0.00     0.284 C 
ATOM      9  H3  UNL d   1       0.868  -1.323  -1.509  0.00  0.00     0.395 HD
ENDBRANCH   1   7
TORSDOF 1
ENDMDL
