MODEL 1
REMARK minimizedAffinity -2.41729546
REMARK minimizedRMSD -1
REMARK  1 active torsions:
REMARK  status: ('A' for Active; 'I' for Inactive)
REMARK    1  A    between atoms: N_2  and  C1_3 
ROOT
ATOM      1  C1  UNL d   1      -0.853  -0.872  -1.187  0.00  0.00     0.143 A 
ATOM      2  C2  UNL d   1      -2.215  -1.158  -1.331  0.00  0.00    -0.057 A 
ATOM      3  C3  UNL d   1      -2.802  -1.276  -2.596  0.00  0.00     0.033 A 
ATOM      4  C4  UNL d   1      -2.040  -1.080  -3.744  0.00  0.00    -0.042 A 
ATOM      5  C5  UNL d   1      -0.690  -0.770  -3.624  0.00  0.00     0.033 A 
ATOM      6  C6  UNL d   1      -0.108  -0.661  -2.358  0.00  0.00    -0.057 A 
ENDROOT
BRANCH   1   7
ATOM      7  N   UNL d   1      -0.232  -0.646   0.044  0.00  0.00    -0.732 N 
ATOM      8  C   UNL d   1      -0.165   0.688   0.602  0.00  0.00     0.284 C 
ATOM      9  H3  UNL d   1      -0.443  -1.371   0.725  0.00  0.00     0.395 HD
ENDBRANCH   1   7
TORSDOF 1
ENDMDL
