MODEL 1
REMARK minimizedAffinity -3.03251648
REMARK minimizedRMSD -1
REMARK  1 active torsions:
REMARK  status: ('A' for Active; 'I' for Inactive)
REMARK    1  A    between atoms: N_2  and  C1_3 
ROOT
ATOM      1  C1  UNL d   1       0.093  -0.427   0.259  0.00  0.00     0.143 A 
ATOM      2  C2  UNL d   1       0.447   0.836  -0.229  0.00  0.00    -0.057 A 
ATOM      3  C3  UNL d   1       0.478   1.955   0.611  0.00  0.00     0.033 A 
ATOM      4  C4  UNL d   1       0.126   1.837   1.952  0.00  0.00    -0.042 A 
ATOM      5  C5  UNL d   1      -0.253   0.596   2.452  0.00  0.00     0.033 A 
ATOM      6  C6  UNL d   1      -0.275  -0.520   1.610  0.00  0.00    -0.057 A 
ENDROOT
BRANCH   1   7
ATOM      7  N   UNL d   1      -0.051  -1.559  -0.547  0.00  0.00    -0.732 N 
ATOM      8  C   UNL d   1      -1.142  -1.656  -1.494  0.00  0.00     0.284 C 
ATOM      9  H3  UNL d   1       0.839  -1.899  -0.903  0.00  0.00     0.395 HD
ENDBRANCH   1   7
TORSDOF 1
ENDMDL
