MODEL 1
REMARK minimizedAffinity -5.11873055
REMARK minimizedRMSD -1
REMARK  1 active torsions:
REMARK  status: ('A' for Active; 'I' for Inactive)
REMARK    1  A    between atoms: N_2  and  C1_3 
ROOT
ATOM      1  C1  UNL d   1       0.046   0.155   0.002  0.00  0.00     0.143 A 
ATOM      2  C2  UNL d   1      -0.678   0.434   1.166  0.00  0.00    -0.057 A 
ATOM      3  C3  UNL d   1      -0.545   1.661   1.827  0.00  0.00     0.033 A 
ATOM      4  C4  UNL d   1       0.340   2.622   1.351  0.00  0.00    -0.042 A 
ATOM      5  C5  UNL d   1       1.089   2.357   0.209  0.00  0.00     0.033 A 
ATOM      6  C6  UNL d   1       0.946   1.133  -0.451  0.00  0.00    -0.057 A 
ENDROOT
BRANCH   1   7
ATOM      7  N   UNL d   1       0.031  -1.083  -0.646  0.00  0.00    -0.732 N 
ATOM      8  C   UNL d   1      -1.088  -1.464  -1.481  0.00  0.00     0.284 C 
ATOM      9  H3  UNL d   1       0.940  -1.331  -1.030  0.00  0.00     0.395 HD
ENDBRANCH   1   7
TORSDOF 1
ENDMDL
