MODEL 1
REMARK minimizedAffinity -2.59846854
REMARK minimizedRMSD -1
REMARK  1 active torsions:
REMARK  status: ('A' for Active; 'I' for Inactive)
REMARK    1  A    between atoms: N_2  and  C1_3 
ROOT
ATOM      1  C1  UNL d   1      -0.255   0.259   0.290  0.00  0.00     0.143 A 
ATOM      2  C2  UNL d   1      -0.737  -0.237   1.506  0.00  0.00    -0.057 A 
ATOM      3  C3  UNL d   1      -0.364   0.342   2.725  0.00  0.00     0.033 A 
ATOM      4  C4  UNL d   1       0.523   1.412   2.751  0.00  0.00    -0.042 A 
ATOM      5  C5  UNL d   1       1.035   1.906   1.556  0.00  0.00     0.033 A 
ATOM      6  C6  UNL d   1       0.653   1.328   0.342  0.00  0.00    -0.057 A 
ENDROOT
BRANCH   1   7
ATOM      7  N   UNL d   1      -0.511  -0.335  -0.948  0.00  0.00    -0.732 N 
ATOM      8  C   UNL d   1      -0.704  -1.765  -1.054  0.00  0.00     0.284 C 
ATOM      9  H3  UNL d   1      -1.150   0.214  -1.518  0.00  0.00     0.395 HD
ENDBRANCH   1   7
TORSDOF 1
ENDMDL
