MODEL 1
REMARK minimizedAffinity -2.31621599
REMARK minimizedRMSD -1
REMARK  1 active torsions:
REMARK  status: ('A' for Active; 'I' for Inactive)
REMARK    1  A    between atoms: N_2  and  C1_3 
ROOT
ATOM      1  C1  UNL d   1      -1.000  -1.441  -1.341  0.00  0.00     0.143 A 
ATOM      2  C2  UNL d   1      -2.378  -1.541  -1.127  0.00  0.00    -0.057 A 
ATOM      3  C3  UNL d   1      -3.280  -1.565  -2.198  0.00  0.00     0.033 A 
ATOM      4  C4  UNL d   1      -2.818  -1.460  -3.506  0.00  0.00    -0.042 A 
ATOM      5  C5  UNL d   1      -1.453  -1.334  -3.741  0.00  0.00     0.033 A 
ATOM      6  C6  UNL d   1      -0.558  -1.317  -2.668  0.00  0.00    -0.057 A 
ENDROOT
BRANCH   1   7
ATOM      7  N   UNL d   1      -0.060  -1.312  -0.315  0.00  0.00    -0.732 N 
ATOM      8  C   UNL d   1      -0.091  -0.171   0.574  0.00  0.00     0.284 C 
ATOM      9  H3  UNL d   1       0.129  -2.197   0.151  0.00  0.00     0.395 HD
ENDBRANCH   1   7
TORSDOF 1
ENDMDL
