MODEL 1
REMARK minimizedAffinity -3.73073483
REMARK minimizedRMSD -1
REMARK  1 active torsions:
REMARK  status: ('A' for Active; 'I' for Inactive)
REMARK    1  A    between atoms: N_2  and  C1_3 
ROOT
ATOM      1  C1  UNL d   1      -0.271  -0.256  -0.150  0.00  0.00     0.143 A 
ATOM      2  C2  UNL d   1       0.854   0.474  -0.550  0.00  0.00    -0.057 A 
ATOM      3  C3  UNL d   1       1.206   1.672   0.084  0.00  0.00     0.033 A 
ATOM      4  C4  UNL d   1       0.420   2.178   1.114  0.00  0.00    -0.042 A 
ATOM      5  C5  UNL d   1      -0.717   1.482   1.512  0.00  0.00     0.033 A 
ATOM      6  C6  UNL d   1      -1.059   0.283   0.880  0.00  0.00    -0.057 A 
ENDROOT
BRANCH   1   7
ATOM      7  N   UNL d   1      -0.729  -1.402  -0.805  0.00  0.00    -0.732 N 
ATOM      8  C   UNL d   1      -1.695  -1.301  -1.878  0.00  0.00     0.284 C 
ATOM      9  H3  UNL d   1       0.015  -2.074  -0.977  0.00  0.00     0.395 HD
ENDBRANCH   1   7
TORSDOF 1
ENDMDL
