MODEL 1
REMARK minimizedAffinity -4.12329435
REMARK minimizedRMSD -1
REMARK  1 active torsions:
REMARK  status: ('A' for Active; 'I' for Inactive)
REMARK    1  A    between atoms: N_2  and  C1_3 
ROOT
ATOM      1  C1  UNL d   1       0.301   0.150  -0.243  0.00  0.00     0.143 A 
ATOM      2  C2  UNL d   1      -0.956   0.387  -0.810  0.00  0.00    -0.057 A 
ATOM      3  C3  UNL d   1      -1.653  -0.626  -1.479  0.00  0.00     0.033 A 
ATOM      4  C4  UNL d   1      -1.091  -1.891  -1.617  0.00  0.00    -0.042 A 
ATOM      5  C5  UNL d   1       0.167  -2.143  -1.083  0.00  0.00     0.033 A 
ATOM      6  C6  UNL d   1       0.856  -1.129  -0.410  0.00  0.00    -0.057 A 
ENDROOT
BRANCH   1   7
ATOM      7  N   UNL d   1       1.087   1.142   0.349  0.00  0.00    -0.732 N 
ATOM      8  C   UNL d   1       2.396   1.458  -0.181  0.00  0.00     0.284 C 
ATOM      9  H3  UNL d   1       0.542   1.956   0.625  0.00  0.00     0.395 HD
ENDBRANCH   1   7
TORSDOF 1
ENDMDL
