MODEL 1
REMARK minimizedAffinity -3.68103838
REMARK minimizedRMSD -1
REMARK  1 active torsions:
REMARK  status: ('A' for Active; 'I' for Inactive)
REMARK    1  A    between atoms: N_2  and  C1_3 
ROOT
ATOM      1  C1  UNL d   1       0.681   0.991   0.613  0.00  0.00     0.143 A 
ATOM      2  C2  UNL d   1       1.645   0.577  -0.312  0.00  0.00    -0.057 A 
ATOM      3  C3  UNL d   1       1.518  -0.636  -1.001  0.00  0.00     0.033 A 
ATOM      4  C4  UNL d   1       0.435  -1.472  -0.753  0.00  0.00    -0.042 A 
ATOM      5  C5  UNL d   1      -0.523  -1.093   0.181  0.00  0.00     0.033 A 
ATOM      6  C6  UNL d   1      -0.393   0.122   0.860  0.00  0.00    -0.057 A 
ENDROOT
BRANCH   1   7
ATOM      7  N   UNL d   1       0.801   2.138   1.402  0.00  0.00    -0.732 N 
ATOM      8  C   UNL d   1       1.772   3.160   1.073  0.00  0.00     0.284 C 
ATOM      9  H3  UNL d   1      -0.101   2.501   1.698  0.00  0.00     0.395 HD
ENDBRANCH   1   7
TORSDOF 1
ENDMDL
