MODEL 1
REMARK minimizedAffinity -1.4717977
REMARK minimizedRMSD -1
REMARK  1 active torsions:
REMARK  status: ('A' for Active; 'I' for Inactive)
REMARK    1  A    between atoms: N_2  and  C1_3 
ROOT
ATOM      1  C1  UNL d   1       0.535   0.019  -0.066  0.00  0.00     0.143 A 
ATOM      2  C2  UNL d   1      -0.124   0.391   1.110  0.00  0.00    -0.057 A 
ATOM      3  C3  UNL d   1       0.101   1.639   1.704  0.00  0.00     0.033 A 
ATOM      4  C4  UNL d   1       1.014   2.528   1.145  0.00  0.00    -0.042 A 
ATOM      5  C5  UNL d   1       1.699   2.168  -0.010  0.00  0.00     0.033 A 
ATOM      6  C6  UNL d   1       1.465   0.923  -0.602  0.00  0.00    -0.057 A 
ENDROOT
BRANCH   1   7
ATOM      7  N   UNL d   1       0.428  -1.246  -0.650  0.00  0.00    -0.732 N 
ATOM      8  C   UNL d   1      -0.822  -1.687  -1.229  0.00  0.00     0.284 C 
ATOM      9  H3  UNL d   1       1.250  -1.491  -1.198  0.00  0.00     0.395 HD
ENDBRANCH   1   7
TORSDOF 1
ENDMDL
