MODEL 1
REMARK minimizedAffinity -1.5864594
REMARK minimizedRMSD -1
REMARK  1 active torsions:
REMARK  status: ('A' for Active; 'I' for Inactive)
REMARK    1  A    between atoms: N_2  and  C1_3 
ROOT
ATOM      1  C1  UNL d   1       0.950   1.191  -0.099  0.00  0.00     0.143 A 
ATOM      2  C2  UNL d   1      -0.042   0.204  -0.074  0.00  0.00    -0.057 A 
ATOM      3  C3  UNL d   1      -0.861   0.026   1.048  0.00  0.00     0.033 A 
ATOM      4  C4  UNL d   1      -0.682   0.816   2.179  0.00  0.00    -0.042 A 
ATOM      5  C5  UNL d   1       0.313   1.786   2.185  0.00  0.00     0.033 A 
ATOM      6  C6  UNL d   1       1.124   1.963   1.060  0.00  0.00    -0.057 A 
ENDROOT
BRANCH   1   7
ATOM      7  N   UNL d   1       1.860   1.351  -1.146  0.00  0.00    -0.732 N 
ATOM      8  C   UNL d   1       2.981   0.448  -1.294  0.00  0.00     0.284 C 
ATOM      9  H3  UNL d   1       1.405   1.596  -2.023  0.00  0.00     0.395 HD
ENDBRANCH   1   7
TORSDOF 1
ENDMDL
