MODEL 1
REMARK minimizedAffinity 4.44222736
REMARK minimizedRMSD -1
REMARK  1 active torsions:
REMARK  status: ('A' for Active; 'I' for Inactive)
REMARK    1  A    between atoms: C1_2  and  C2_3 
ROOT
ATOM      1  C2  UNL d   1      -3.550   1.127   0.626  0.00  0.00    -0.077 A 
ATOM      2  C3  UNL d   1      -2.234   1.043   0.149  0.00  0.00     0.002 A 
ATOM      3  C4  UNL d   1      -1.939   0.278  -0.981  0.00  0.00     0.002 A 
ATOM      4  C5  UNL d   1      -2.955  -0.405  -1.646  0.00  0.00    -0.004 A 
ATOM      5  C6  UNL d   1      -4.267  -0.329  -1.179  0.00  0.00     0.002 A 
ATOM      6  C7  UNL d   1      -4.563   0.434  -0.049  0.00  0.00     0.002 A 
ENDROOT
BRANCH   1   7
ATOM      7  C1  UNL d   1      -3.877   1.992   1.815  0.00  0.00     0.055 C 
ATOM      8  C   UNL d   1      -3.395   3.420   1.611  0.00  0.00     0.019 C 
ENDBRANCH   1   7
TORSDOF 1
ENDMDL
