MODEL 1
REMARK minimizedAffinity 7.04658508
REMARK minimizedRMSD -1
REMARK  1 active torsions:
REMARK  status: ('A' for Active; 'I' for Inactive)
REMARK    1  A    between atoms: C1_2  and  C2_3 
ROOT
ATOM      1  C2  UNL d   1       3.567   1.528   0.263  0.00  0.00    -0.077 A 
ATOM      2  C3  UNL d   1       4.544   1.497  -0.742  0.00  0.00     0.002 A 
ATOM      3  C4  UNL d   1       5.754   2.173  -0.571  0.00  0.00     0.002 A 
ATOM      4  C5  UNL d   1       5.999   2.881   0.604  0.00  0.00    -0.004 A 
ATOM      5  C6  UNL d   1       5.033   2.919   1.608  0.00  0.00     0.002 A 
ATOM      6  C7  UNL d   1       3.822   2.245   1.439  0.00  0.00     0.002 A 
ENDROOT
BRANCH   1   7
ATOM      7  C1  UNL d   1       2.282   0.759   0.101  0.00  0.00     0.055 C 
ATOM      8  C   UNL d   1       1.114   1.492   0.745  0.00  0.00     0.019 C 
ENDBRANCH   1   7
TORSDOF 1
ENDMDL
