MODEL 1
REMARK minimizedAffinity 4.09681368
REMARK minimizedRMSD -1
REMARK  1 active torsions:
REMARK  status: ('A' for Active; 'I' for Inactive)
REMARK    1  A    between atoms: C1_2  and  C2_3 
ROOT
ATOM      1  C2  UNL d   1       3.866   1.076  -0.442  0.00  0.00    -0.077 A 
ATOM      2  C3  UNL d   1       5.016   0.588   0.195  0.00  0.00     0.002 A 
ATOM      3  C4  UNL d   1       6.000   1.469   0.648  0.00  0.00     0.002 A 
ATOM      4  C5  UNL d   1       5.843   2.842   0.472  0.00  0.00    -0.004 A 
ATOM      5  C6  UNL d   1       4.704   3.337  -0.163  0.00  0.00     0.002 A 
ATOM      6  C7  UNL d   1       3.720   2.458  -0.617  0.00  0.00     0.002 A 
ENDROOT
BRANCH   1   7
ATOM      7  C1  UNL d   1       2.781   0.131  -0.887  0.00  0.00     0.055 C 
ATOM      8  C   UNL d   1       2.854  -1.190  -0.136  0.00  0.00     0.019 C 
ENDBRANCH   1   7
TORSDOF 1
ENDMDL
