MODEL 1
REMARK minimizedAffinity -1.40541303
REMARK minimizedRMSD -1
REMARK  1 active torsions:
REMARK  status: ('A' for Active; 'I' for Inactive)
REMARK    1  A    between atoms: C1_2  and  C2_3 
ROOT
ATOM      1  C2  UNL d   1       5.123   2.507  -0.479  0.00  0.00    -0.077 A 
ATOM      2  C3  UNL d   1       5.114   1.841  -1.713  0.00  0.00     0.002 A 
ATOM      3  C4  UNL d   1       4.278   0.742  -1.916  0.00  0.00     0.002 A 
ATOM      4  C5  UNL d   1       3.442   0.301  -0.892  0.00  0.00    -0.004 A 
ATOM      5  C6  UNL d   1       3.445   0.955   0.339  0.00  0.00     0.002 A 
ATOM      6  C7  UNL d   1       4.281   2.054   0.544  0.00  0.00     0.002 A 
ENDROOT
BRANCH   1   7
ATOM      7  C1  UNL d   1       5.988   3.723  -0.274  0.00  0.00     0.055 C 
ATOM      8  C   UNL d   1       5.989   4.616  -1.506  0.00  0.00     0.019 C 
ENDBRANCH   1   7
TORSDOF 1
ENDMDL
