MODEL 1
REMARK minimizedAffinity 12.6480532
REMARK minimizedRMSD -1
REMARK  0 active torsions:
REMARK  status: ('A' for Active; 'I' for Inactive)
ROOT
ATOM      1  O1  BZF d   1       5.667   1.823   2.629  0.00  0.00    -0.204 OA
ATOM      2  C2  BZF d   1       5.907   3.140   2.285  0.00  0.00     0.174 A 
ATOM      3  C3  BZF d   1       5.027   3.558   1.353  0.00  0.00    -0.012 A 
ATOM      4  C3A BZF d   1       4.127   2.462   1.165  0.00  0.00    -0.107 A 
ATOM      5  C4  BZF d   1       3.028   2.273   0.377  0.00  0.00     0.055 A 
ATOM      6  C5  BZF d   1       2.417   1.060   0.375  0.00  0.00    -0.016 A 
ATOM      7  C6  BZF d   1       2.881   0.012   1.143  0.00  0.00     0.022 A 
ATOM      8  C7  BZF d   1       3.965   0.152   1.945  0.00  0.00     0.029 A 
ATOM      9  C7A BZF d   1       4.565   1.387   1.974  0.00  0.00     0.058 A 
ENDROOT
TORSDOF 0
ENDMDL
