MODEL 1
REMARK minimizedAffinity 14.2780743
REMARK minimizedRMSD -1
REMARK  0 active torsions:
REMARK  status: ('A' for Active; 'I' for Inactive)
ROOT
ATOM      1  O1  BZF d   1       1.673  -4.123  -2.811  0.00  0.00    -0.204 OA
ATOM      2  C2  BZF d   1       2.527  -5.100  -3.286  0.00  0.00     0.174 A 
ATOM      3  C3  BZF d   1       1.857  -5.997  -4.038  0.00  0.00    -0.012 A 
ATOM      4  C3A BZF d   1       0.517  -5.502  -4.109  0.00  0.00    -0.107 A 
ATOM      5  C4  BZF d   1      -0.617  -5.947  -4.727  0.00  0.00     0.055 A 
ATOM      6  C5  BZF d   1      -1.781  -5.271  -4.538  0.00  0.00    -0.016 A 
ATOM      7  C6  BZF d   1      -1.848  -4.152  -3.735  0.00  0.00     0.022 A 
ATOM      8  C7  BZF d   1      -0.749  -3.670  -3.105  0.00  0.00     0.029 A 
ATOM      9  C7A BZF d   1       0.435  -4.331  -3.320  0.00  0.00     0.058 A 
ENDROOT
TORSDOF 0
ENDMDL
