MODEL 1
REMARK minimizedAffinity 14.8035574
REMARK minimizedRMSD -1
REMARK  0 active torsions:
REMARK  status: ('A' for Active; 'I' for Inactive)
ROOT
ATOM      1  O1  BZF d   1       5.995  -2.612  -0.323  0.00  0.00    -0.204 OA
ATOM      2  C2  BZF d   1       5.047  -1.841  -0.968  0.00  0.00     0.174 A 
ATOM      3  C3  BZF d   1       3.906  -2.538  -1.147  0.00  0.00    -0.012 A 
ATOM      4  C3A BZF d   1       4.126  -3.793  -0.497  0.00  0.00    -0.107 A 
ATOM      5  C4  BZF d   1       3.353  -4.905  -0.317  0.00  0.00     0.055 A 
ATOM      6  C5  BZF d   1       3.891  -5.990   0.300  0.00  0.00    -0.016 A 
ATOM      7  C6  BZF d   1       5.196  -5.999   0.745  0.00  0.00     0.022 A 
ATOM      8  C7  BZF d   1       6.000  -4.918   0.594  0.00  0.00     0.029 A 
ATOM      9  C7A BZF d   1       5.449  -3.809   0.000  0.00  0.00     0.058 A 
ENDROOT
TORSDOF 0
ENDMDL
