MODEL 1
REMARK minimizedAffinity 10.919735
REMARK minimizedRMSD -1
REMARK  0 active torsions:
REMARK  status: ('A' for Active; 'I' for Inactive)
ROOT
ATOM      1  O1  BZF d   1      -0.520   0.016   3.777  0.00  0.00    -0.204 OA
ATOM      2  C2  BZF d   1       0.267  -1.070   3.447  0.00  0.00     0.174 A 
ATOM      3  C3  BZF d   1      -0.199  -1.678   2.337  0.00  0.00    -0.012 A 
ATOM      4  C3A BZF d   1      -1.294  -0.869   1.896  0.00  0.00    -0.107 A 
ATOM      5  C4  BZF d   1      -2.151  -0.947   0.836  0.00  0.00     0.055 A 
ATOM      6  C5  BZF d   1      -3.158  -0.039   0.733  0.00  0.00    -0.016 A 
ATOM      7  C6  BZF d   1      -3.339   0.953   1.673  0.00  0.00     0.022 A 
ATOM      8  C7  BZF d   1      -2.512   1.074   2.739  0.00  0.00     0.029 A 
ATOM      9  C7A BZF d   1      -1.474   0.178   2.829  0.00  0.00     0.058 A 
ENDROOT
TORSDOF 0
ENDMDL
