MODEL 1
REMARK minimizedAffinity 5.81873846
REMARK minimizedRMSD -1
REMARK  0 active torsions:
REMARK  status: ('A' for Active; 'I' for Inactive)
ROOT
ATOM      1  O1  BZF d   1      -1.566   0.330   4.395  0.00  0.00    -0.204 OA
ATOM      2  C2  BZF d   1      -2.715   1.058   4.151  0.00  0.00     0.174 A 
ATOM      3  C3  BZF d   1      -3.195   0.794   2.918  0.00  0.00    -0.012 A 
ATOM      4  C3A BZF d   1      -2.341  -0.226   2.392  0.00  0.00    -0.107 A 
ATOM      5  C4  BZF d   1      -2.317  -0.914   1.212  0.00  0.00     0.055 A 
ATOM      6  C5  BZF d   1      -1.307  -1.793   0.981  0.00  0.00    -0.016 A 
ATOM      7  C6  BZF d   1      -0.304  -2.005   1.904  0.00  0.00     0.022 A 
ATOM      8  C7  BZF d   1      -0.288  -1.350   3.090  0.00  0.00     0.029 A 
ATOM      9  C7A BZF d   1      -1.325  -0.485   3.340  0.00  0.00     0.058 A 
ENDROOT
TORSDOF 0
ENDMDL
