MODEL 1
REMARK minimizedAffinity 19.800211
REMARK minimizedRMSD -1
REMARK  0 active torsions:
REMARK  status: ('A' for Active; 'I' for Inactive)
ROOT
ATOM      1  O1  BZF d   1       2.344   2.633  -4.114  0.00  0.00    -0.204 OA
ATOM      2  C2  BZF d   1       1.983   2.654  -2.780  0.00  0.00     0.174 A 
ATOM      3  C3  BZF d   1       2.981   3.154  -2.023  0.00  0.00    -0.012 A 
ATOM      4  C3A BZF d   1       3.996   3.550  -2.951  0.00  0.00    -0.107 A 
ATOM      5  C4  BZF d   1       5.224   4.130  -2.808  0.00  0.00     0.055 A 
ATOM      6  C5  BZF d   1       5.997   4.319  -3.910  0.00  0.00    -0.016 A 
ATOM      7  C6  BZF d   1       5.576   3.937  -5.166  0.00  0.00     0.022 A 
ATOM      8  C7  BZF d   1       4.363   3.363  -5.358  0.00  0.00     0.029 A 
ATOM      9  C7A BZF d   1       3.566   3.200  -4.252  0.00  0.00     0.058 A 
ENDROOT
TORSDOF 0
ENDMDL
