MODEL 1
REMARK minimizedAffinity 14.2204962
REMARK minimizedRMSD -1
REMARK  0 active torsions:
REMARK  status: ('A' for Active; 'I' for Inactive)
ROOT
ATOM      1  O1  BZF d   1      -3.866   2.051   5.263  0.00  0.00    -0.204 OA
ATOM      2  C2  BZF d   1      -5.162   2.410   5.579  0.00  0.00     0.174 A 
ATOM      3  C3  BZF d   1      -6.000   2.119   4.563  0.00  0.00    -0.012 A 
ATOM      4  C3A BZF d   1      -5.191   1.457   3.586  0.00  0.00    -0.107 A 
ATOM      5  C4  BZF d   1      -5.454   0.913   2.361  0.00  0.00     0.055 A 
ATOM      6  C5  BZF d   1      -4.427   0.407   1.628  0.00  0.00    -0.016 A 
ATOM      7  C6  BZF d   1      -3.126   0.434   2.086  0.00  0.00     0.022 A 
ATOM      8  C7  BZF d   1      -2.816   0.959   3.297  0.00  0.00     0.029 A 
ATOM      9  C7A BZF d   1      -3.856   1.441   4.054  0.00  0.00     0.058 A 
ENDROOT
TORSDOF 0
ENDMDL
