MODEL 1
REMARK minimizedAffinity 8.87462139
REMARK minimizedRMSD -1
REMARK  0 active torsions:
REMARK  status: ('A' for Active; 'I' for Inactive)
ROOT
ATOM      1  O1  BZF d   1      -4.537  -3.916   5.673  0.00  0.00    -0.204 OA
ATOM      2  C2  BZF d   1      -4.880  -5.213   6.000  0.00  0.00     0.174 A 
ATOM      3  C3  BZF d   1      -4.876  -6.000   4.904  0.00  0.00    -0.012 A 
ATOM      4  C3A BZF d   1      -4.419  -5.160   3.840  0.00  0.00    -0.107 A 
ATOM      5  C4  BZF d   1      -4.188  -5.371   2.511  0.00  0.00     0.055 A 
ATOM      6  C5  BZF d   1      -3.815  -4.323   1.731  0.00  0.00    -0.016 A 
ATOM      7  C6  BZF d   1      -3.668  -3.051   2.245  0.00  0.00     0.022 A 
ATOM      8  C7  BZF d   1      -3.880  -2.794   3.559  0.00  0.00     0.029 A 
ATOM      9  C7A BZF d   1      -4.225  -3.858   4.356  0.00  0.00     0.058 A 
ENDROOT
TORSDOF 0
ENDMDL
