MODEL 1
REMARK minimizedAffinity 13.942708
REMARK minimizedRMSD -1
REMARK  0 active torsions:
REMARK  status: ('A' for Active; 'I' for Inactive)
ROOT
ATOM      1  O1  BZF d   1       2.085   2.940   1.489  0.00  0.00    -0.204 OA
ATOM      2  C2  BZF d   1       1.638   1.912   0.681  0.00  0.00     0.174 A 
ATOM      3  C3  BZF d   1       2.642   1.431  -0.080  0.00  0.00    -0.012 A 
ATOM      4  C3A BZF d   1       3.809   2.143   0.342  0.00  0.00    -0.107 A 
ATOM      5  C4  BZF d   1       5.122   2.099  -0.030  0.00  0.00     0.055 A 
ATOM      6  C5  BZF d   1       5.996   2.979   0.526  0.00  0.00    -0.016 A 
ATOM      7  C6  BZF d   1       5.591   3.919   1.451  0.00  0.00     0.022 A 
ATOM      8  C7  BZF d   1       4.300   3.998   1.855  0.00  0.00     0.029 A 
ATOM      9  C7A BZF d   1       3.420   3.088   1.320  0.00  0.00     0.058 A 
ENDROOT
TORSDOF 0
ENDMDL
