MODEL 1
REMARK minimizedAffinity 15.9594231
REMARK minimizedRMSD -1
REMARK  0 active torsions:
REMARK  status: ('A' for Active; 'I' for Inactive)
ROOT
ATOM      1  O1  BZF d   1      -1.349   0.739   5.216  0.00  0.00    -0.204 OA
ATOM      2  C2  BZF d   1      -2.425   1.378   4.628  0.00  0.00     0.174 A 
ATOM      3  C3  BZF d   1      -2.471   1.117   3.306  0.00  0.00    -0.012 A 
ATOM      4  C3A BZF d   1      -1.409   0.188   3.068  0.00  0.00    -0.107 A 
ATOM      5  C4  BZF d   1      -0.958  -0.456   1.951  0.00  0.00     0.055 A 
ATOM      6  C5  BZF d   1       0.147  -1.241   2.043  0.00  0.00    -0.016 A 
ATOM      7  C6  BZF d   1       0.828  -1.400   3.232  0.00  0.00     0.022 A 
ATOM      8  C7  BZF d   1       0.415  -0.786   4.367  0.00  0.00     0.029 A 
ATOM      9  C7A BZF d   1      -0.721  -0.018   4.285  0.00  0.00     0.058 A 
ENDROOT
TORSDOF 0
ENDMDL
