MODEL 1
REMARK minimizedAffinity 17.7125454
REMARK minimizedRMSD -1
REMARK  0 active torsions:
REMARK  status: ('A' for Active; 'I' for Inactive)
ROOT
ATOM      1  O1  BZF d   1       2.953   2.236  -3.226  0.00  0.00    -0.204 OA
ATOM      2  C2  BZF d   1       2.115   3.323  -3.384  0.00  0.00     0.174 A 
ATOM      3  C3  BZF d   1       1.493   3.620  -2.225  0.00  0.00    -0.012 A 
ATOM      4  C3A BZF d   1       2.041   2.716  -1.261  0.00  0.00    -0.107 A 
ATOM      5  C4  BZF d   1       1.833   2.530   0.075  0.00  0.00     0.055 A 
ATOM      6  C5  BZF d   1       2.475   1.512   0.708  0.00  0.00    -0.016 A 
ATOM      7  C6  BZF d   1       3.325   0.660   0.035  0.00  0.00     0.022 A 
ATOM      8  C7  BZF d   1       3.567   0.809  -1.291  0.00  0.00     0.029 A 
ATOM      9  C7A BZF d   1       2.946   1.856  -1.926  0.00  0.00     0.058 A 
ENDROOT
TORSDOF 0
ENDMDL
