MODEL 1
REMARK minimizedAffinity 10.5757866
REMARK minimizedRMSD -1
REMARK  0 active torsions:
REMARK  status: ('A' for Active; 'I' for Inactive)
ROOT
ATOM      1  O1  BZF d   1       0.405  -1.859   2.847  0.00  0.00    -0.204 OA
ATOM      2  C2  BZF d   1       0.011  -1.851   1.523  0.00  0.00     0.174 A 
ATOM      3  C3  BZF d   1      -1.058  -1.048   1.347  0.00  0.00    -0.012 A 
ATOM      4  C3A BZF d   1      -1.292  -0.448   2.625  0.00  0.00    -0.107 A 
ATOM      5  C4  BZF d   1      -2.207   0.456   3.084  0.00  0.00     0.055 A 
ATOM      6  C5  BZF d   1      -2.212   0.779   4.404  0.00  0.00    -0.016 A 
ATOM      7  C6  BZF d   1      -1.321   0.214   5.293  0.00  0.00     0.022 A 
ATOM      8  C7  BZF d   1      -0.391  -0.684   4.883  0.00  0.00     0.029 A 
ATOM      9  C7A BZF d   1      -0.363  -0.987   3.544  0.00  0.00     0.058 A 
ENDROOT
TORSDOF 0
ENDMDL
