MODEL 1
REMARK minimizedAffinity 20.7477226
REMARK minimizedRMSD -1
REMARK  0 active torsions:
REMARK  status: ('A' for Active; 'I' for Inactive)
ROOT
ATOM      1  O1  BZF d   1       5.045   5.285  -1.802  0.00  0.00    -0.204 OA
ATOM      2  C2  BZF d   1       5.997   5.816  -2.650  0.00  0.00     0.174 A 
ATOM      3  C3  BZF d   1       5.998   5.169  -3.834  0.00  0.00    -0.012 A 
ATOM      4  C3A BZF d   1       4.920   4.232  -3.751  0.00  0.00    -0.107 A 
ATOM      5  C4  BZF d   1       4.407   3.311  -4.619  0.00  0.00     0.055 A 
ATOM      6  C5  BZF d   1       3.397   2.502  -4.204  0.00  0.00    -0.016 A 
ATOM      7  C6  BZF d   1       2.880   2.583  -2.927  0.00  0.00     0.022 A 
ATOM      8  C7  BZF d   1       3.353   3.484  -2.032  0.00  0.00     0.029 A 
ATOM      9  C7A BZF d   1       4.351   4.325  -2.459  0.00  0.00     0.058 A 
ENDROOT
TORSDOF 0
ENDMDL
