MODEL 1
REMARK minimizedAffinity 17.386013
REMARK minimizedRMSD -1
REMARK  0 active torsions:
REMARK  status: ('A' for Active; 'I' for Inactive)
ROOT
ATOM      1  O1  BZF d   1       4.703   2.936   1.717  0.00  0.00    -0.204 OA
ATOM      2  C2  BZF d   1       5.951   3.013   1.128  0.00  0.00     0.174 A 
ATOM      3  C3  BZF d   1       5.998   2.262   0.009  0.00  0.00    -0.012 A 
ATOM      4  C3A BZF d   1       4.672   1.752  -0.159  0.00  0.00    -0.107 A 
ATOM      5  C4  BZF d   1       4.085   0.953  -1.099  0.00  0.00     0.055 A 
ATOM      6  C5  BZF d   1       2.789   0.581  -0.933  0.00  0.00    -0.016 A 
ATOM      7  C6  BZF d   1       2.052   0.985   0.161  0.00  0.00     0.022 A 
ATOM      8  C7  BZF d   1       2.589   1.782   1.117  0.00  0.00     0.029 A 
ATOM      9  C7A BZF d   1       3.889   2.186   0.935  0.00  0.00     0.058 A 
ENDROOT
TORSDOF 0
ENDMDL
