MODEL 1
REMARK minimizedAffinity 14.9738092
REMARK minimizedRMSD -1
REMARK  0 active torsions:
REMARK  status: ('A' for Active; 'I' for Inactive)
ROOT
ATOM      1  O1  BZF d   1       2.854   2.267  -3.834  0.00  0.00    -0.204 OA
ATOM      2  C2  BZF d   1       2.151   2.161  -2.649  0.00  0.00     0.174 A 
ATOM      3  C3  BZF d   1       2.816   2.764  -1.643  0.00  0.00    -0.012 A 
ATOM      4  C3A BZF d   1       3.965   3.359  -2.254  0.00  0.00    -0.107 A 
ATOM      5  C4  BZF d   1       5.001   4.109  -1.775  0.00  0.00     0.055 A 
ATOM      6  C5  BZF d   1       6.000   4.472  -2.622  0.00  0.00    -0.016 A 
ATOM      7  C6  BZF d   1       5.998   4.099  -3.950  0.00  0.00     0.022 A 
ATOM      8  C7  BZF d   1       4.989   3.359  -4.472  0.00  0.00     0.029 A 
ATOM      9  C7A BZF d   1       3.962   3.019  -3.627  0.00  0.00     0.058 A 
ENDROOT
TORSDOF 0
ENDMDL
