MODEL 1
REMARK minimizedAffinity 14.0481272
REMARK minimizedRMSD -1
REMARK  0 active torsions:
REMARK  status: ('A' for Active; 'I' for Inactive)
ROOT
ATOM      1  O1  BZF d   1      -5.261   0.243   1.512  0.00  0.00    -0.204 OA
ATOM      2  C2  BZF d   1      -5.466   0.791   0.261  0.00  0.00     0.174 A 
ATOM      3  C3  BZF d   1      -4.294   0.964  -0.383  0.00  0.00    -0.012 A 
ATOM      4  C3A BZF d   1      -3.302   0.409   0.486  0.00  0.00    -0.107 A 
ATOM      5  C4  BZF d   1      -1.946   0.269   0.394  0.00  0.00     0.055 A 
ATOM      6  C5  BZF d   1      -1.264  -0.250   1.449  0.00  0.00    -0.016 A 
ATOM      7  C6  BZF d   1      -1.903  -0.633   2.610  0.00  0.00     0.022 A 
ATOM      8  C7  BZF d   1      -3.246  -0.517   2.745  0.00  0.00     0.029 A 
ATOM      9  C7A BZF d   1      -3.943  -0.024   1.669  0.00  0.00     0.058 A 
ENDROOT
TORSDOF 0
ENDMDL
