MODEL 1
REMARK minimizedAffinity -1.94716787
REMARK minimizedRMSD -1
REMARK  1 active torsions:
REMARK  status: ('A' for Active; 'I' for Inactive)
REMARK    1  A    between atoms: C1_2  and  C2_3 
ROOT
ATOM      1  C2  UNL d   1       0.395   0.508  -1.366  0.00  0.00    -0.076 A 
ATOM      2  C3  UNL d   1       0.830  -0.683  -1.974  0.00  0.00     0.004 A 
ATOM      3  C4  UNL d   1       1.039  -1.838  -1.223  0.00  0.00    -0.003 A 
ATOM      4  C5  UNL d   1       0.818  -1.821   0.150  0.00  0.00     0.000 A 
ATOM      5  C6  UNL d   1       0.370  -0.654   0.768  0.00  0.00     0.000 A 
ATOM      6  C7  UNL d   1       0.138   0.515   0.022  0.00  0.00    -0.073 A 
ATOM      7  C8  UNL d   1      -0.339   1.747   0.741  0.00  0.00     0.078 C 
ENDROOT
BRANCH   1   8
ATOM      8  C1  UNL d   1       0.211   1.736  -2.227  0.00  0.00     0.053 C 
ATOM      9  C   UNL d   1       1.406   1.999  -3.131  0.00  0.00     0.018 C 
ENDBRANCH   1   8
TORSDOF 1
ENDMDL
