MODEL 1
REMARK minimizedAffinity -3.78888464
REMARK minimizedRMSD -1
REMARK  1 active torsions:
REMARK  status: ('A' for Active; 'I' for Inactive)
REMARK    1  A    between atoms: C1_2  and  C2_3 
ROOT
ATOM      1  C2  UNL d   1       0.389   0.134  -0.029  0.00  0.00    -0.076 A 
ATOM      2  C3  UNL d   1       1.370  -0.807  -0.388  0.00  0.00     0.004 A 
ATOM      3  C4  UNL d   1       1.245  -2.147  -0.026  0.00  0.00    -0.003 A 
ATOM      4  C5  UNL d   1       0.137  -2.568   0.701  0.00  0.00     0.000 A 
ATOM      5  C6  UNL d   1      -0.854  -1.651   1.051  0.00  0.00     0.000 A 
ATOM      6  C7  UNL d   1      -0.752  -0.300   0.679  0.00  0.00    -0.073 A 
ATOM      7  C8  UNL d   1      -1.847   0.647   1.088  0.00  0.00     0.078 C 
ENDROOT
BRANCH   1   8
ATOM      8  C1  UNL d   1       0.592   1.579  -0.426  0.00  0.00     0.053 C 
ATOM      9  C   UNL d   1       1.546   1.732  -1.600  0.00  0.00     0.018 C 
ENDBRANCH   1   8
TORSDOF 1
ENDMDL
