MODEL 1
REMARK minimizedAffinity -1.23361123
REMARK minimizedRMSD -1
REMARK  1 active torsions:
REMARK  status: ('A' for Active; 'I' for Inactive)
REMARK    1  A    between atoms: C1_2  and  C2_3 
ROOT
ATOM      1  C2  UNL d   1       0.107   0.730   0.090  0.00  0.00    -0.076 A 
ATOM      2  C3  UNL d   1       1.096  -0.222  -0.211  0.00  0.00     0.004 A 
ATOM      3  C4  UNL d   1       0.942  -1.558   0.154  0.00  0.00    -0.003 A 
ATOM      4  C5  UNL d   1      -0.206  -1.964   0.826  0.00  0.00     0.000 A 
ATOM      5  C6  UNL d   1      -1.206  -1.037   1.117  0.00  0.00     0.000 A 
ATOM      6  C7  UNL d   1      -1.073   0.311   0.741  0.00  0.00    -0.073 A 
ATOM      7  C8  UNL d   1      -2.180   1.269   1.086  0.00  0.00     0.078 C 
ENDROOT
BRANCH   1   8
ATOM      8  C1  UNL d   1       0.342   2.170  -0.308  0.00  0.00     0.053 C 
ATOM      9  C   UNL d   1       0.919   2.301  -1.708  0.00  0.00     0.018 C 
ENDBRANCH   1   8
TORSDOF 1
ENDMDL
