MODEL 1
REMARK minimizedAffinity -1.99944758
REMARK minimizedRMSD -1
REMARK  1 active torsions:
REMARK  status: ('A' for Active; 'I' for Inactive)
REMARK    1  A    between atoms: C1_2  and  C2_3 
ROOT
ATOM      1  C2  UNL d   1       0.037  -0.176   0.398  0.00  0.00    -0.076 A 
ATOM      2  C3  UNL d   1       0.850  -1.303   0.185  0.00  0.00     0.004 A 
ATOM      3  C4  UNL d   1       0.495  -2.550   0.696  0.00  0.00    -0.003 A 
ATOM      4  C5  UNL d   1      -0.679  -2.691   1.429  0.00  0.00     0.000 A 
ATOM      5  C6  UNL d   1      -1.505  -1.587   1.635  0.00  0.00     0.000 A 
ATOM      6  C7  UNL d   1      -1.171  -0.326   1.112  0.00  0.00    -0.073 A 
ATOM      7  C8  UNL d   1      -2.096   0.832   1.370  0.00  0.00     0.078 C 
ENDROOT
BRANCH   1   8
ATOM      8  C1  UNL d   1       0.487   1.156  -0.158  0.00  0.00     0.053 C 
ATOM      9  C   UNL d   1       0.386   1.219  -1.674  0.00  0.00     0.018 C 
ENDBRANCH   1   8
TORSDOF 1
ENDMDL
