MODEL 1
REMARK minimizedAffinity -2.20801115
REMARK minimizedRMSD -1
REMARK  1 active torsions:
REMARK  status: ('A' for Active; 'I' for Inactive)
REMARK    1  A    between atoms: C1_2  and  C2_3 
ROOT
ATOM      1  C2  UNL d   1      -1.030  -1.176   1.432  0.00  0.00    -0.076 A 
ATOM      2  C3  UNL d   1      -1.190  -2.564   1.275  0.00  0.00     0.004 A 
ATOM      3  C4  UNL d   1      -0.595  -3.239   0.211  0.00  0.00    -0.003 A 
ATOM      4  C5  UNL d   1       0.171  -2.538  -0.713  0.00  0.00     0.000 A 
ATOM      5  C6  UNL d   1       0.355  -1.164  -0.564  0.00  0.00     0.000 A 
ATOM      6  C7  UNL d   1      -0.224  -0.470   0.512  0.00  0.00    -0.073 A 
ATOM      7  C8  UNL d   1       0.002   1.013   0.621  0.00  0.00     0.078 C 
ENDROOT
BRANCH   1   8
ATOM      8  C1  UNL d   1      -1.722  -0.493   2.590  0.00  0.00     0.053 C 
ATOM      9  C   UNL d   1      -2.980   0.247   2.162  0.00  0.00     0.018 C 
ENDBRANCH   1   8
TORSDOF 1
ENDMDL
