MODEL 1
REMARK minimizedAffinity -1.31415451
REMARK minimizedRMSD -1
REMARK  1 active torsions:
REMARK  status: ('A' for Active; 'I' for Inactive)
REMARK    1  A    between atoms: C1_2  and  C2_3 
ROOT
ATOM      1  C2  UNL d   1       0.593   0.928  -1.269  0.00  0.00    -0.076 A 
ATOM      2  C3  UNL d   1       0.652  -0.365  -1.818  0.00  0.00     0.004 A 
ATOM      3  C4  UNL d   1       0.519  -1.494  -1.012  0.00  0.00    -0.003 A 
ATOM      4  C5  UNL d   1       0.324  -1.348   0.357  0.00  0.00     0.000 A 
ATOM      5  C6  UNL d   1       0.245  -0.073   0.917  0.00  0.00     0.000 A 
ATOM      6  C7  UNL d   1       0.361   1.075   0.115  0.00  0.00    -0.073 A 
ATOM      7  C8  UNL d   1       0.274   2.426   0.772  0.00  0.00     0.078 C 
ENDROOT
BRANCH   1   8
ATOM      8  C1  UNL d   1       0.772   2.114  -2.189  0.00  0.00     0.053 C 
ATOM      9  C   UNL d   1       1.374   1.726  -3.531  0.00  0.00     0.018 C 
ENDBRANCH   1   8
TORSDOF 1
ENDMDL
