MODEL 1
REMARK minimizedAffinity -3.97528958
REMARK minimizedRMSD -1
REMARK  1 active torsions:
REMARK  status: ('A' for Active; 'I' for Inactive)
REMARK    1  A    between atoms: C1_2  and  C2_3 
ROOT
ATOM      1  C2  UNL d   1       0.239   0.759  -1.535  0.00  0.00    -0.076 A 
ATOM      2  C3  UNL d   1       0.164  -0.540  -2.066  0.00  0.00     0.004 A 
ATOM      3  C4  UNL d   1       0.140  -1.656  -1.230  0.00  0.00    -0.003 A 
ATOM      4  C5  UNL d   1       0.189  -1.490   0.149  0.00  0.00     0.000 A 
ATOM      5  C6  UNL d   1       0.245  -0.207   0.694  0.00  0.00     0.000 A 
ATOM      6  C7  UNL d   1       0.254   0.929  -0.134  0.00  0.00    -0.073 A 
ATOM      7  C8  UNL d   1       0.321   2.288   0.507  0.00  0.00     0.078 C 
ENDROOT
BRANCH   1   8
ATOM      8  C1  UNL d   1       0.290   1.930  -2.491  0.00  0.00     0.053 C 
ATOM      9  C   UNL d   1       1.506   1.885  -3.403  0.00  0.00     0.018 C 
ENDBRANCH   1   8
TORSDOF 1
ENDMDL
