MODEL 1
REMARK minimizedAffinity -4.81001854
REMARK minimizedRMSD -1
REMARK  1 active torsions:
REMARK  status: ('A' for Active; 'I' for Inactive)
REMARK    1  A    between atoms: C1_2  and  C2_3 
ROOT
ATOM      1  C2  UNL d   1       0.471   1.083  -1.512  0.00  0.00    -0.076 A 
ATOM      2  C3  UNL d   1       0.688  -0.181  -2.088  0.00  0.00     0.004 A 
ATOM      3  C4  UNL d   1       0.572  -1.344  -1.328  0.00  0.00    -0.003 A 
ATOM      4  C5  UNL d   1       0.238  -1.262   0.019  0.00  0.00     0.000 A 
ATOM      5  C6  UNL d   1       0.002  -0.017   0.602  0.00  0.00     0.000 A 
ATOM      6  C7  UNL d   1       0.098   1.164  -0.153  0.00  0.00    -0.073 A 
ATOM      7  C8  UNL d   1      -0.161   2.480   0.528  0.00  0.00     0.078 C 
ENDROOT
BRANCH   1   8
ATOM      8  C1  UNL d   1       0.637   2.311  -2.378  0.00  0.00     0.053 C 
ATOM      9  C   UNL d   1       1.388   2.018  -3.668  0.00  0.00     0.018 C 
ENDBRANCH   1   8
TORSDOF 1
ENDMDL
