MODEL 1
REMARK minimizedAffinity -0.199424103
REMARK minimizedRMSD -1
REMARK  1 active torsions:
REMARK  status: ('A' for Active; 'I' for Inactive)
REMARK    1  A    between atoms: C1_2  and  C2_3 
ROOT
ATOM      1  C2  UNL d   1       0.034  -1.276   1.129  0.00  0.00    -0.076 A 
ATOM      2  C3  UNL d   1      -0.663  -2.391   1.627  0.00  0.00     0.004 A 
ATOM      3  C4  UNL d   1      -1.985  -2.633   1.259  0.00  0.00    -0.003 A 
ATOM      4  C5  UNL d   1      -2.632  -1.764   0.386  0.00  0.00     0.000 A 
ATOM      5  C6  UNL d   1      -1.950  -0.663  -0.131  0.00  0.00     0.000 A 
ATOM      6  C7  UNL d   1      -0.612  -0.414   0.217  0.00  0.00    -0.073 A 
ATOM      7  C8  UNL d   1       0.073   0.792  -0.366  0.00  0.00     0.078 C 
ENDROOT
BRANCH   1   8
ATOM      8  C1  UNL d   1       1.458  -1.049   1.585  0.00  0.00     0.053 C 
ATOM      9  C   UNL d   1       2.455  -1.923   0.839  0.00  0.00     0.018 C 
ENDBRANCH   1   8
TORSDOF 1
ENDMDL
