MODEL 1
REMARK minimizedAffinity -3.59639359
REMARK minimizedRMSD -1
REMARK  1 active torsions:
REMARK  status: ('A' for Active; 'I' for Inactive)
REMARK    1  A    between atoms: C1_2  and  C2_3 
ROOT
ATOM      1  C2  UNL d   1      -0.641  -1.241   1.316  0.00  0.00    -0.076 A 
ATOM      2  C3  UNL d   1      -1.779  -0.419   1.398  0.00  0.00     0.004 A 
ATOM      3  C4  UNL d   1      -1.761   0.883   0.900  0.00  0.00    -0.003 A 
ATOM      4  C5  UNL d   1      -0.605   1.384   0.311  0.00  0.00     0.000 A 
ATOM      5  C6  UNL d   1       0.527   0.576   0.205  0.00  0.00     0.000 A 
ATOM      6  C7  UNL d   1       0.520  -0.744   0.687  0.00  0.00    -0.073 A 
ATOM      7  C8  UNL d   1       1.771  -1.568   0.552  0.00  0.00     0.078 C 
ENDROOT
BRANCH   1   8
ATOM      8  C1  UNL d   1      -0.712  -2.635   1.897  0.00  0.00     0.053 C 
ATOM      9  C   UNL d   1      -2.141  -3.130   2.054  0.00  0.00     0.018 C 
ENDBRANCH   1   8
TORSDOF 1
ENDMDL
