MODEL 1
REMARK minimizedAffinity -4.39822912
REMARK minimizedRMSD -1
REMARK  1 active torsions:
REMARK  status: ('A' for Active; 'I' for Inactive)
REMARK    1  A    between atoms: C1_2  and  C2_3 
ROOT
ATOM      1  C2  UNL d   1       0.092  -0.191  -0.471  0.00  0.00    -0.076 A 
ATOM      2  C3  UNL d   1       0.475  -1.008  -1.549  0.00  0.00     0.004 A 
ATOM      3  C4  UNL d   1       1.096  -0.467  -2.674  0.00  0.00    -0.003 A 
ATOM      4  C5  UNL d   1       1.343   0.900  -2.739  0.00  0.00     0.000 A 
ATOM      5  C6  UNL d   1       0.985   1.723  -1.671  0.00  0.00     0.000 A 
ATOM      6  C7  UNL d   1       0.374   1.191  -0.523  0.00  0.00    -0.073 A 
ATOM      7  C8  UNL d   1       0.003   2.125   0.596  0.00  0.00     0.078 C 
ENDROOT
BRANCH   1   8
ATOM      8  C1  UNL d   1      -0.602  -0.830   0.710  0.00  0.00     0.053 C 
ATOM      9  C   UNL d   1       0.052  -2.136   1.133  0.00  0.00     0.018 C 
ENDBRANCH   1   8
TORSDOF 1
ENDMDL
