MODEL 1
REMARK minimizedAffinity -5.92368078
REMARK minimizedRMSD -1
REMARK  1 active torsions:
REMARK  status: ('A' for Active; 'I' for Inactive)
REMARK    1  A    between atoms: C1_2  and  C2_3 
ROOT
ATOM      1  C2  UNL d   1      -0.972  -0.217   1.149  0.00  0.00    -0.076 A 
ATOM      2  C3  UNL d   1      -0.910  -1.606   1.352  0.00  0.00     0.004 A 
ATOM      3  C4  UNL d   1       0.163  -2.354   0.869  0.00  0.00    -0.003 A 
ATOM      4  C5  UNL d   1       1.191  -1.724   0.177  0.00  0.00     0.000 A 
ATOM      5  C6  UNL d   1       1.154  -0.344  -0.018  0.00  0.00     0.000 A 
ATOM      6  C7  UNL d   1       0.088   0.427   0.476  0.00  0.00    -0.073 A 
ATOM      7  C8  UNL d   1       0.096   1.911   0.232  0.00  0.00     0.078 C 
ENDROOT
BRANCH   1   8
ATOM      8  C1  UNL d   1      -2.174   0.538   1.672  0.00  0.00     0.053 C 
ATOM      9  C   UNL d   1      -2.818  -0.147   2.867  0.00  0.00     0.018 C 
ENDBRANCH   1   8
TORSDOF 1
ENDMDL
