MODEL 1
REMARK minimizedAffinity -2.0663197
REMARK minimizedRMSD -1
REMARK  1 active torsions:
REMARK  status: ('A' for Active; 'I' for Inactive)
REMARK    1  A    between atoms: C1_2  and  C2_3 
ROOT
ATOM      1  C2  UNL d   1       0.644   0.769  -0.772  0.00  0.00    -0.076 A 
ATOM      2  C3  UNL d   1       0.896  -0.530  -1.247  0.00  0.00     0.004 A 
ATOM      3  C4  UNL d   1       0.380  -1.646  -0.590  0.00  0.00    -0.003 A 
ATOM      4  C5  UNL d   1      -0.397  -1.481   0.552  0.00  0.00     0.000 A 
ATOM      5  C6  UNL d   1      -0.671  -0.199   1.026  0.00  0.00     0.000 A 
ATOM      6  C7  UNL d   1      -0.172   0.938   0.367  0.00  0.00    -0.073 A 
ATOM      7  C8  UNL d   1      -0.493   2.296   0.926  0.00  0.00     0.078 C 
ENDROOT
BRANCH   1   8
ATOM      8  C1  UNL d   1       1.253   1.940  -1.511  0.00  0.00     0.053 C 
ATOM      9  C   UNL d   1       0.447   2.338  -2.737  0.00  0.00     0.018 C 
ENDBRANCH   1   8
TORSDOF 1
ENDMDL
