MODEL 1
REMARK minimizedAffinity -1.4675988
REMARK minimizedRMSD -1
REMARK  0 active torsions:
REMARK  status: ('A' for Active; 'I' for Inactive)
ROOT
ATOM      1  C   UNL d   1      -1.616  -0.053   2.966  0.00  0.00    -0.002 A 
ATOM      2  C1  UNL d   1      -2.061   0.839   2.000  0.00  0.00     0.010 A 
ATOM      3  C2  UNL d   1      -1.614   0.738   0.681  0.00  0.00     0.041 A 
ATOM      4  C3  UNL d   1      -0.706  -0.285   0.345  0.00  0.00    -0.075 A 
ATOM      5  S   UNL d   1      -0.024  -0.602  -1.206  0.00  0.00     0.015 SA
ATOM      6  C4  UNL d   1       0.872  -1.930  -0.624  0.00  0.00     0.022 A 
ATOM      7  C5  UNL d   1       0.669  -2.140   0.719  0.00  0.00     0.026 A 
ATOM      8  C6  UNL d   1      -0.245  -1.196   1.300  0.00  0.00    -0.082 A 
ATOM      9  C7  UNL d   1      -0.715  -1.067   2.629  0.00  0.00     0.045 A 
ENDROOT
TORSDOF 0
ENDMDL
