MODEL 1
REMARK minimizedAffinity 3.29206371
REMARK minimizedRMSD -1
REMARK  0 active torsions:
REMARK  status: ('A' for Active; 'I' for Inactive)
ROOT
ATOM      1  C   UNL d   1      -2.613  -4.132   4.279  0.00  0.00    -0.002 A 
ATOM      2  C1  UNL d   1      -3.365  -5.256   4.593  0.00  0.00     0.010 A 
ATOM      3  C2  UNL d   1      -4.129  -5.895   3.614  0.00  0.00     0.041 A 
ATOM      4  C3  UNL d   1      -4.123  -5.382   2.302  0.00  0.00    -0.075 A 
ATOM      5  S   UNL d   1      -4.982  -6.000   0.941  0.00  0.00     0.015 SA
ATOM      6  C4  UNL d   1      -4.370  -4.787  -0.089  0.00  0.00     0.022 A 
ATOM      7  C5  UNL d   1      -3.531  -3.923   0.573  0.00  0.00     0.026 A 
ATOM      8  C6  UNL d   1      -3.374  -4.252   1.962  0.00  0.00    -0.082 A 
ATOM      9  C7  UNL d   1      -2.610  -3.626   2.976  0.00  0.00     0.045 A 
ENDROOT
TORSDOF 0
ENDMDL
