MODEL 1
REMARK minimizedAffinity 9.52152538
REMARK minimizedRMSD -1
REMARK  0 active torsions:
REMARK  status: ('A' for Active; 'I' for Inactive)
ROOT
ATOM      1  C   UNL d   1      -2.080  -2.284   0.362  0.00  0.00    -0.002 A 
ATOM      2  C1  UNL d   1      -3.069  -1.646   1.097  0.00  0.00     0.010 A 
ATOM      3  C2  UNL d   1      -4.238  -2.321   1.451  0.00  0.00     0.041 A 
ATOM      4  C3  UNL d   1      -4.398  -3.663   1.053  0.00  0.00    -0.075 A 
ATOM      5  S   UNL d   1      -5.746  -4.689   1.373  0.00  0.00     0.015 SA
ATOM      6  C4  UNL d   1      -5.041  -5.999   0.543  0.00  0.00     0.022 A 
ATOM      7  C5  UNL d   1      -3.807  -5.679   0.027  0.00  0.00     0.026 A 
ATOM      8  C6  UNL d   1      -3.416  -4.327   0.313  0.00  0.00    -0.082 A 
ATOM      9  C7  UNL d   1      -2.242  -3.615  -0.032  0.00  0.00     0.045 A 
ENDROOT
TORSDOF 0
ENDMDL
