MODEL 1
REMARK minimizedAffinity 8.52042675
REMARK minimizedRMSD -1
REMARK  0 active torsions:
REMARK  status: ('A' for Active; 'I' for Inactive)
ROOT
ATOM      1  C   UNL d   1      -0.931  -0.381   0.529  0.00  0.00    -0.002 A 
ATOM      2  C1  UNL d   1       0.402   0.001   0.580  0.00  0.00     0.010 A 
ATOM      3  C2  UNL d   1       0.808   1.054   1.402  0.00  0.00     0.041 A 
ATOM      4  C3  UNL d   1      -0.157   1.722   2.182  0.00  0.00    -0.075 A 
ATOM      5  S   UNL d   1       0.109   3.038   3.262  0.00  0.00     0.015 SA
ATOM      6  C4  UNL d   1      -1.541   3.124   3.682  0.00  0.00     0.022 A 
ATOM      7  C5  UNL d   1      -2.291   2.179   3.023  0.00  0.00     0.026 A 
ATOM      8  C6  UNL d   1      -1.506   1.355   2.148  0.00  0.00    -0.082 A 
ATOM      9  C7  UNL d   1      -1.886   0.284   1.303  0.00  0.00     0.045 A 
ENDROOT
TORSDOF 0
ENDMDL
