MODEL 1
REMARK minimizedAffinity -4.17381525
REMARK minimizedRMSD -1
REMARK  0 active torsions:
REMARK  status: ('A' for Active; 'I' for Inactive)
ROOT
ATOM      1  C   UNL d   1       0.365  -0.479   2.540  0.00  0.00    -0.002 A 
ATOM      2  C1  UNL d   1      -0.641   0.460   2.363  0.00  0.00     0.010 A 
ATOM      3  C2  UNL d   1      -0.871   1.026   1.107  0.00  0.00     0.041 A 
ATOM      4  C3  UNL d   1      -0.066   0.628   0.022  0.00  0.00    -0.075 A 
ATOM      5  S   UNL d   1      -0.165   1.186  -1.606  0.00  0.00     0.015 SA
ATOM      6  C4  UNL d   1       1.125   0.190  -2.105  0.00  0.00     0.022 A 
ATOM      7  C5  UNL d   1       1.631  -0.557  -1.067  0.00  0.00     0.026 A 
ATOM      8  C6  UNL d   1       0.953  -0.317   0.176  0.00  0.00    -0.082 A 
ATOM      9  C7  UNL d   1       1.161  -0.872   1.461  0.00  0.00     0.045 A 
ENDROOT
TORSDOF 0
ENDMDL
