MODEL 1
REMARK minimizedAffinity -3.60349202
REMARK minimizedRMSD -1
REMARK  0 active torsions:
REMARK  status: ('A' for Active; 'I' for Inactive)
ROOT
ATOM      1  C   UNL d   1      -0.322  -0.351   3.369  0.00  0.00    -0.002 A 
ATOM      2  C1  UNL d   1       0.537   0.738   3.309  0.00  0.00     0.010 A 
ATOM      3  C2  UNL d   1       0.967   1.235   2.077  0.00  0.00     0.041 A 
ATOM      4  C3  UNL d   1       0.514   0.615   0.896  0.00  0.00    -0.075 A 
ATOM      5  S   UNL d   1       0.908   1.053  -0.724  0.00  0.00     0.015 SA
ATOM      6  C4  UNL d   1      -0.055  -0.194  -1.374  0.00  0.00     0.022 A 
ATOM      7  C5  UNL d   1      -0.669  -0.936  -0.394  0.00  0.00     0.026 A 
ATOM      8  C6  UNL d   1      -0.352  -0.482   0.931  0.00  0.00    -0.082 A 
ATOM      9  C7  UNL d   1      -0.769  -0.963   2.195  0.00  0.00     0.045 A 
ENDROOT
TORSDOF 0
ENDMDL
