MODEL 1
REMARK minimizedAffinity -3.05757046
REMARK minimizedRMSD -1
REMARK  0 active torsions:
REMARK  status: ('A' for Active; 'I' for Inactive)
ROOT
ATOM      1  C   UNL d   1       2.757  -1.599  -1.310  0.00  0.00    -0.002 A 
ATOM      2  C1  UNL d   1       1.724  -1.370  -2.208  0.00  0.00     0.010 A 
ATOM      3  C2  UNL d   1       0.508  -0.841  -1.771  0.00  0.00     0.041 A 
ATOM      4  C3  UNL d   1       0.347  -0.541  -0.404  0.00  0.00    -0.075 A 
ATOM      5  S   UNL d   1      -1.053   0.116   0.358  0.00  0.00     0.015 SA
ATOM      6  C4  UNL d   1      -0.312   0.109   1.893  0.00  0.00     0.022 A 
ATOM      7  C5  UNL d   1       0.972  -0.379   1.844  0.00  0.00     0.026 A 
ATOM      8  C6  UNL d   1       1.374  -0.761   0.519  0.00  0.00    -0.082 A 
ATOM      9  C7  UNL d   1       2.594  -1.299   0.045  0.00  0.00     0.045 A 
ENDROOT
TORSDOF 0
ENDMDL
