MODEL 1
REMARK minimizedAffinity 0.321175069
REMARK minimizedRMSD -1
REMARK  0 active torsions:
REMARK  status: ('A' for Active; 'I' for Inactive)
ROOT
ATOM      1  C   UNL d   1       0.030   0.746   1.875  0.00  0.00    -0.002 A 
ATOM      2  C1  UNL d   1       1.115  -0.057   2.196  0.00  0.00     0.010 A 
ATOM      3  C2  UNL d   1       1.848  -0.695   1.193  0.00  0.00     0.041 A 
ATOM      4  C3  UNL d   1       1.470  -0.507  -0.151  0.00  0.00    -0.075 A 
ATOM      5  S   UNL d   1       2.221  -1.187  -1.546  0.00  0.00     0.015 SA
ATOM      6  C4  UNL d   1       1.121  -0.425  -2.602  0.00  0.00     0.022 A 
ATOM      7  C5  UNL d   1       0.196   0.332  -1.923  0.00  0.00     0.026 A 
ATOM      8  C6  UNL d   1       0.382   0.298  -0.500  0.00  0.00    -0.082 A 
ATOM      9  C7  UNL d   1      -0.342   0.930   0.540  0.00  0.00     0.045 A 
ENDROOT
TORSDOF 0
ENDMDL
