MODEL 1
REMARK minimizedAffinity 5.21098423
REMARK minimizedRMSD -1
REMARK  0 active torsions:
REMARK  status: ('A' for Active; 'I' for Inactive)
ROOT
ATOM      1  C   UNL d   1       3.941  -0.628   2.427  0.00  0.00    -0.002 A 
ATOM      2  C1  UNL d   1       4.232  -0.820   3.771  0.00  0.00     0.010 A 
ATOM      3  C2  UNL d   1       3.575  -1.809   4.505  0.00  0.00     0.041 A 
ATOM      4  C3  UNL d   1       2.614  -2.612   3.860  0.00  0.00    -0.075 A 
ATOM      5  S   UNL d   1       1.685  -3.886   4.558  0.00  0.00     0.015 SA
ATOM      6  C4  UNL d   1       0.882  -4.206   3.090  0.00  0.00     0.022 A 
ATOM      7  C5  UNL d   1       1.299  -3.370   2.081  0.00  0.00     0.026 A 
ATOM      8  C6  UNL d   1       2.305  -2.438   2.508  0.00  0.00    -0.082 A 
ATOM      9  C7  UNL d   1       2.987  -1.426   1.791  0.00  0.00     0.045 A 
ENDROOT
TORSDOF 0
ENDMDL
