MODEL 1
REMARK minimizedAffinity 13.4045925
REMARK minimizedRMSD -1
REMARK  0 active torsions:
REMARK  status: ('A' for Active; 'I' for Inactive)
ROOT
ATOM      1  C   UNL d   1       0.460  -3.509  -4.169  0.00  0.00    -0.002 A 
ATOM      2  C1  UNL d   1      -0.410  -2.430  -4.231  0.00  0.00     0.010 A 
ATOM      3  C2  UNL d   1       0.023  -1.148  -3.884  0.00  0.00     0.041 A 
ATOM      4  C3  UNL d   1       1.358  -0.968  -3.471  0.00  0.00    -0.075 A 
ATOM      5  S   UNL d   1       2.109   0.510  -3.000  0.00  0.00     0.015 SA
ATOM      6  C4  UNL d   1       3.603  -0.256  -2.706  0.00  0.00     0.022 A 
ATOM      7  C5  UNL d   1       3.547  -1.607  -2.956  0.00  0.00     0.026 A 
ATOM      8  C6  UNL d   1       2.253  -2.039  -3.402  0.00  0.00    -0.082 A 
ATOM      9  C7  UNL d   1       1.784  -3.326  -3.760  0.00  0.00     0.045 A 
ENDROOT
TORSDOF 0
ENDMDL
