MODEL 1
REMARK minimizedAffinity 22.7035885
REMARK minimizedRMSD -1
REMARK  0 active torsions:
REMARK  status: ('A' for Active; 'I' for Inactive)
ROOT
ATOM      1  C   UNL d   1       4.773  -0.042  -3.385  0.00  0.00    -0.002 A 
ATOM      2  C1  UNL d   1       4.311   1.244  -3.145  0.00  0.00     0.010 A 
ATOM      3  C2  UNL d   1       3.057   1.451  -2.567  0.00  0.00     0.041 A 
ATOM      4  C3  UNL d   1       2.269   0.333  -2.229  0.00  0.00    -0.075 A 
ATOM      5  S   UNL d   1       0.702   0.345  -1.511  0.00  0.00     0.015 SA
ATOM      6  C4  UNL d   1       0.610  -1.357  -1.505  0.00  0.00     0.022 A 
ATOM      7  C5  UNL d   1       1.738  -1.936  -2.035  0.00  0.00     0.026 A 
ATOM      8  C6  UNL d   1       2.713  -0.972  -2.461  0.00  0.00    -0.082 A 
ATOM      9  C7  UNL d   1       3.989  -1.149  -3.049  0.00  0.00     0.045 A 
ENDROOT
TORSDOF 0
ENDMDL
