MODEL 1
REMARK minimizedAffinity -4.62597799
REMARK minimizedRMSD -1
REMARK  2 active torsions:
REMARK  status: ('A' for Active; 'I' for Inactive)
REMARK    1  A    between atoms: C1_2  and  C2_3 
REMARK    2  A    between atoms: C2_3  and  C3_4 
ROOT
ATOM      1  C3  UNL d   1       0.585  -0.091  -0.495  0.00  0.00    -0.075 A 
ATOM      2  C4  UNL d   1       1.380   0.213   0.620  0.00  0.00     0.002 A 
ATOM      3  C5  UNL d   1       0.811   0.774   1.764  0.00  0.00     0.002 A 
ATOM      4  C6  UNL d   1      -0.554   1.048   1.804  0.00  0.00    -0.004 A 
ATOM      5  C7  UNL d   1      -1.351   0.766   0.696  0.00  0.00     0.002 A 
ATOM      6  C8  UNL d   1      -0.785   0.200  -0.448  0.00  0.00     0.002 A 
ENDROOT
BRANCH   1   7
ATOM      7  C2  UNL d   1       1.189  -0.726  -1.725  0.00  0.00     0.056 C 
BRANCH   7   8
ATOM      8  C1  UNL d   1       1.916   0.262  -2.643  0.00  0.00     0.007 C 
ATOM      9  C   UNL d   1       1.078   0.699  -3.838  0.00  0.00     0.009 C 
ENDBRANCH   7   8
ENDBRANCH   1   7
TORSDOF 2
ENDMDL
