MODEL 1
REMARK minimizedAffinity -5.98040247
REMARK minimizedRMSD -1
REMARK  2 active torsions:
REMARK  status: ('A' for Active; 'I' for Inactive)
REMARK    1  A    between atoms: C1_2  and  C2_3 
REMARK    2  A    between atoms: C2_3  and  C3_4 
ROOT
ATOM      1  C3  UNL d   1       0.198   0.076   0.076  0.00  0.00    -0.075 A 
ATOM      2  C4  UNL d   1       0.961   0.549   1.153  0.00  0.00     0.002 A 
ATOM      3  C5  UNL d   1       0.351   1.221   2.213  0.00  0.00     0.002 A 
ATOM      4  C6  UNL d   1      -1.025   1.438   2.204  0.00  0.00    -0.004 A 
ATOM      5  C7  UNL d   1      -1.791   0.988   1.131  0.00  0.00     0.002 A 
ATOM      6  C8  UNL d   1      -1.184   0.311   0.071  0.00  0.00     0.002 A 
ENDROOT
BRANCH   1   7
ATOM      7  C2  UNL d   1       0.847  -0.678  -1.060  0.00  0.00     0.056 C 
BRANCH   7   8
ATOM      8  C1  UNL d   1       0.743   0.027  -2.417  0.00  0.00     0.007 C 
ATOM      9  C   UNL d   1       2.087   0.506  -2.949  0.00  0.00     0.009 C 
ENDBRANCH   7   8
ENDBRANCH   1   7
TORSDOF 2
ENDMDL
