MODEL 1
REMARK minimizedAffinity -2.1415534
REMARK minimizedRMSD -1
REMARK  2 active torsions:
REMARK  status: ('A' for Active; 'I' for Inactive)
REMARK    1  A    between atoms: C1_2  and  C2_3 
REMARK    2  A    between atoms: C2_3  and  C3_4 
ROOT
ATOM      1  C3  UNL d   1       0.726   1.065  -2.158  0.00  0.00    -0.075 A 
ATOM      2  C4  UNL d   1       2.076   1.351  -2.407  0.00  0.00     0.002 A 
ATOM      3  C5  UNL d   1       2.568   1.364  -3.712  0.00  0.00     0.002 A 
ATOM      4  C6  UNL d   1       1.722   1.083  -4.782  0.00  0.00    -0.004 A 
ATOM      5  C7  UNL d   1       0.382   0.781  -4.545  0.00  0.00     0.002 A 
ATOM      6  C8  UNL d   1      -0.114   0.772  -3.241  0.00  0.00     0.002 A 
ENDROOT
BRANCH   1   7
ATOM      7  C2  UNL d   1       0.180   1.078  -0.750  0.00  0.00     0.056 C 
BRANCH   7   8
ATOM      8  C1  UNL d   1       0.161  -0.298  -0.076  0.00  0.00     0.007 C 
ATOM      9  C   UNL d   1       1.347  -0.528   0.852  0.00  0.00     0.009 C 
ENDBRANCH   7   8
ENDBRANCH   1   7
TORSDOF 2
ENDMDL
