MODEL 1
REMARK minimizedAffinity 0.717955112
REMARK minimizedRMSD -1
REMARK  2 active torsions:
REMARK  status: ('A' for Active; 'I' for Inactive)
REMARK    1  A    between atoms: C1_2  and  C2_3 
REMARK    2  A    between atoms: C2_3  and  C3_4 
ROOT
ATOM      1  C3  UNL d   1       0.658   0.299  -0.133  0.00  0.00    -0.075 A 
ATOM      2  C4  UNL d   1       1.546  -0.532   0.565  0.00  0.00     0.002 A 
ATOM      3  C5  UNL d   1       2.128  -0.102   1.759  0.00  0.00     0.002 A 
ATOM      4  C6  UNL d   1       1.838   1.164   2.263  0.00  0.00    -0.004 A 
ATOM      5  C7  UNL d   1       0.970   2.004   1.569  0.00  0.00     0.002 A 
ATOM      6  C8  UNL d   1       0.383   1.575   0.377  0.00  0.00     0.002 A 
ENDROOT
BRANCH   1   7
ATOM      7  C2  UNL d   1       0.003  -0.171  -1.410  0.00  0.00     0.056 C 
BRANCH   7   8
ATOM      8  C1  UNL d   1      -1.057  -1.258  -1.203  0.00  0.00     0.007 C 
ATOM      9  C   UNL d   1      -2.393  -0.710  -0.720  0.00  0.00     0.009 C 
ENDBRANCH   7   8
ENDBRANCH   1   7
TORSDOF 2
ENDMDL
