MODEL 1
REMARK minimizedAffinity -0.456463993
REMARK minimizedRMSD -1
REMARK  2 active torsions:
REMARK  status: ('A' for Active; 'I' for Inactive)
REMARK    1  A    between atoms: C1_2  and  C2_3 
REMARK    2  A    between atoms: C2_3  and  C3_4 
ROOT
ATOM      1  C3  UNL d   1      -0.244  -0.017  -0.161  0.00  0.00    -0.075 A 
ATOM      2  C4  UNL d   1      -1.382   0.329   0.582  0.00  0.00     0.002 A 
ATOM      3  C5  UNL d   1      -1.255   0.925   1.837  0.00  0.00     0.002 A 
ATOM      4  C6  UNL d   1       0.009   1.173   2.369  0.00  0.00    -0.004 A 
ATOM      5  C7  UNL d   1       1.147   0.818   1.647  0.00  0.00     0.002 A 
ATOM      6  C8  UNL d   1       1.022   0.226   0.389  0.00  0.00     0.002 A 
ENDROOT
BRANCH   1   7
ATOM      7  C2  UNL d   1      -0.375  -0.636  -1.532  0.00  0.00     0.056 C 
BRANCH   7   8
ATOM      8  C1  UNL d   1      -0.316   0.376  -2.681  0.00  0.00     0.007 C 
ATOM      9  C   UNL d   1       1.009   0.354  -3.432  0.00  0.00     0.009 C 
ENDBRANCH   7   8
ENDBRANCH   1   7
TORSDOF 2
ENDMDL
