MODEL 1
REMARK minimizedAffinity -4.20795441
REMARK minimizedRMSD -1
REMARK  2 active torsions:
REMARK  status: ('A' for Active; 'I' for Inactive)
REMARK    1  A    between atoms: C1_2  and  C2_3 
REMARK    2  A    between atoms: C2_3  and  C3_4 
ROOT
ATOM      1  C3  UNL d   1      -0.011  -0.233  -0.270  0.00  0.00    -0.075 A 
ATOM      2  C4  UNL d   1       0.492   0.294   0.929  0.00  0.00     0.002 A 
ATOM      3  C5  UNL d   1      -0.376   0.738   1.926  0.00  0.00     0.002 A 
ATOM      4  C6  UNL d   1      -1.754   0.672   1.735  0.00  0.00    -0.004 A 
ATOM      5  C7  UNL d   1      -2.265   0.166   0.541  0.00  0.00     0.002 A 
ATOM      6  C8  UNL d   1      -1.398  -0.284  -0.457  0.00  0.00     0.002 A 
ENDROOT
BRANCH   1   7
ATOM      7  C2  UNL d   1       0.923  -0.743  -1.342  0.00  0.00     0.056 C 
BRANCH   7   8
ATOM      8  C1  UNL d   1       0.334  -0.697  -2.755  0.00  0.00     0.007 C 
ATOM      9  C   UNL d   1       1.163   0.135  -3.725  0.00  0.00     0.009 C 
ENDBRANCH   7   8
ENDBRANCH   1   7
TORSDOF 2
ENDMDL
