MODEL 1
REMARK minimizedAffinity -3.08464599
REMARK minimizedRMSD -1
REMARK  2 active torsions:
REMARK  status: ('A' for Active; 'I' for Inactive)
REMARK    1  A    between atoms: C1_2  and  C2_3 
REMARK    2  A    between atoms: C2_3  and  C3_4 
ROOT
ATOM      1  C3  UNL d   1       0.127   0.831   1.049  0.00  0.00    -0.075 A 
ATOM      2  C4  UNL d   1      -0.706   0.512  -0.032  0.00  0.00     0.002 A 
ATOM      3  C5  UNL d   1      -0.374  -0.530  -0.899  0.00  0.00     0.002 A 
ATOM      4  C6  UNL d   1       0.797  -1.258  -0.701  0.00  0.00    -0.004 A 
ATOM      5  C7  UNL d   1       1.641  -0.939   0.360  0.00  0.00     0.002 A 
ATOM      6  C8  UNL d   1       1.309   0.101   1.231  0.00  0.00     0.002 A 
ENDROOT
BRANCH   1   7
ATOM      7  C2  UNL d   1      -0.241   1.939   2.007  0.00  0.00     0.056 C 
BRANCH   7   8
ATOM      8  C1  UNL d   1      -1.033   1.467   3.231  0.00  0.00     0.007 C 
ATOM      9  C   UNL d   1      -1.787   0.166   2.993  0.00  0.00     0.009 C 
ENDBRANCH   7   8
ENDBRANCH   1   7
TORSDOF 2
ENDMDL
