MODEL 1
REMARK minimizedAffinity -3.53087687
REMARK minimizedRMSD -1
REMARK  2 active torsions:
REMARK  status: ('A' for Active; 'I' for Inactive)
REMARK    1  A    between atoms: C1_2  and  C2_3 
REMARK    2  A    between atoms: C2_3  and  C3_4 
ROOT
ATOM      1  C3  UNL d   1       0.049  -0.018  -0.222  0.00  0.00    -0.075 A 
ATOM      2  C4  UNL d   1       0.468   0.495   1.014  0.00  0.00     0.002 A 
ATOM      3  C5  UNL d   1      -0.465   0.965   1.940  0.00  0.00     0.002 A 
ATOM      4  C6  UNL d   1      -1.824   0.937   1.638  0.00  0.00    -0.004 A 
ATOM      5  C7  UNL d   1      -2.251   0.446   0.406  0.00  0.00     0.002 A 
ATOM      6  C8  UNL d   1      -1.320  -0.029  -0.520  0.00  0.00     0.002 A 
ENDROOT
BRANCH   1   7
ATOM      7  C2  UNL d   1       1.051  -0.555  -1.216  0.00  0.00     0.056 C 
BRANCH   7   8
ATOM      8  C1  UNL d   1       0.772  -0.145  -2.666  0.00  0.00     0.007 C 
ATOM      9  C   UNL d   1       1.871   0.720  -3.267  0.00  0.00     0.009 C 
ENDBRANCH   7   8
ENDBRANCH   1   7
TORSDOF 2
ENDMDL
