MODEL 1
REMARK minimizedAffinity 3.13887358
REMARK minimizedRMSD -1
REMARK  2 active torsions:
REMARK  status: ('A' for Active; 'I' for Inactive)
REMARK    1  A    between atoms: C1_2  and  C2_3 
REMARK    2  A    between atoms: C2_3  and  C3_4 
ROOT
ATOM      1  C3  UNL d   1       0.128   0.499   0.914  0.00  0.00    -0.075 A 
ATOM      2  C4  UNL d   1      -0.070   1.137   2.147  0.00  0.00     0.002 A 
ATOM      3  C5  UNL d   1      -1.356   1.294   2.666  0.00  0.00     0.002 A 
ATOM      4  C6  UNL d   1      -2.459   0.825   1.955  0.00  0.00    -0.004 A 
ATOM      5  C7  UNL d   1      -2.275   0.205   0.721  0.00  0.00     0.002 A 
ATOM      6  C8  UNL d   1      -0.990   0.042   0.202  0.00  0.00     0.002 A 
ENDROOT
BRANCH   1   7
ATOM      7  C2  UNL d   1       1.519   0.299   0.362  0.00  0.00     0.056 C 
BRANCH   7   8
ATOM      8  C1  UNL d   1       2.371  -0.691   1.161  0.00  0.00     0.007 C 
ATOM      9  C   UNL d   1       3.114  -0.044   2.322  0.00  0.00     0.009 C 
ENDBRANCH   7   8
ENDBRANCH   1   7
TORSDOF 2
ENDMDL
