MODEL 1
REMARK minimizedAffinity -6.32750034
REMARK minimizedRMSD -1
REMARK  2 active torsions:
REMARK  status: ('A' for Active; 'I' for Inactive)
REMARK    1  A    between atoms: C1_2  and  C2_3 
REMARK    2  A    between atoms: C2_3  and  C3_4 
ROOT
ATOM      1  C3  UNL d   1       0.119   0.543   0.731  0.00  0.00    -0.075 A 
ATOM      2  C4  UNL d   1      -0.764   1.450   1.335  0.00  0.00     0.002 A 
ATOM      3  C5  UNL d   1      -0.638   1.767   2.688  0.00  0.00     0.002 A 
ATOM      4  C6  UNL d   1       0.363   1.175   3.455  0.00  0.00    -0.004 A 
ATOM      5  C7  UNL d   1       1.235   0.260   2.869  0.00  0.00     0.002 A 
ATOM      6  C8  UNL d   1       1.114  -0.056   1.514  0.00  0.00     0.002 A 
ENDROOT
BRANCH   1   7
ATOM      7  C2  UNL d   1       0.006   0.219  -0.740  0.00  0.00     0.056 C 
BRANCH   7   8
ATOM      8  C1  UNL d   1      -0.429  -1.222  -1.029  0.00  0.00     0.007 C 
ATOM      9  C   UNL d   1      -1.903  -1.474  -0.742  0.00  0.00     0.009 C 
ENDBRANCH   7   8
ENDBRANCH   1   7
TORSDOF 2
ENDMDL
