MODEL 1
REMARK minimizedAffinity 23.8600483
REMARK minimizedRMSD -1
REMARK  0 active torsions:
REMARK  status: ('A' for Active; 'I' for Inactive)
ROOT
ATOM      1  C   UNL d   1      -0.811   1.280   0.392  0.00  0.00    -0.002 A 
ATOM      2  C1  UNL d   1      -0.400   0.837   1.641  0.00  0.00     0.010 A 
ATOM      3  C2  UNL d   1       0.826   0.187   1.796  0.00  0.00     0.041 A 
ATOM      4  C3  UNL d   1       1.641  -0.010   0.663  0.00  0.00    -0.075 A 
ATOM      5  S   UNL d   1       3.183  -0.780   0.613  0.00  0.00     0.015 SA
ATOM      6  C4  UNL d   1       3.332  -0.538  -1.067  0.00  0.00     0.022 A 
ATOM      7  C5  UNL d   1       2.241   0.112  -1.593  0.00  0.00     0.026 A 
ATOM      8  C6  UNL d   1       1.249   0.428  -0.605  0.00  0.00    -0.082 A 
ATOM      9  C7  UNL d   1      -0.000   1.082  -0.729  0.00  0.00     0.045 A 
ENDROOT
TORSDOF 0
ENDMDL
