MODEL 1
REMARK minimizedAffinity 20.1780529
REMARK minimizedRMSD -1
REMARK  0 active torsions:
REMARK  status: ('A' for Active; 'I' for Inactive)
ROOT
ATOM      1  C   UNL d   1       5.854   1.493  -1.496  0.00  0.00    -0.002 A 
ATOM      2  C1  UNL d   1       5.990   1.929  -0.186  0.00  0.00     0.010 A 
ATOM      3  C2  UNL d   1       4.972   1.712   0.744  0.00  0.00     0.041 A 
ATOM      4  C3  UNL d   1       3.804   1.041   0.332  0.00  0.00    -0.075 A 
ATOM      5  S   UNL d   1       2.427   0.663   1.297  0.00  0.00     0.015 SA
ATOM      6  C4  UNL d   1       1.626  -0.088  -0.007  0.00  0.00     0.022 A 
ATOM      7  C5  UNL d   1       2.376  -0.059  -1.158  0.00  0.00     0.026 A 
ATOM      8  C6  UNL d   1       3.644   0.591  -0.982  0.00  0.00    -0.082 A 
ATOM      9  C7  UNL d   1       4.694   0.828  -1.901  0.00  0.00     0.045 A 
ENDROOT
TORSDOF 0
ENDMDL
