MODEL 1
REMARK minimizedAffinity 13.2117863
REMARK minimizedRMSD -1
REMARK  0 active torsions:
REMARK  status: ('A' for Active; 'I' for Inactive)
ROOT
ATOM      1  C   UNL d   1       4.073   5.251   2.480  0.00  0.00     0.124 A 
ATOM      2  C1  UNL d   1       4.309   5.618   3.798  0.00  0.00     0.062 A 
ATOM      3  C2  UNL d   1       3.265   5.630   4.719  0.00  0.00     0.162 A 
ATOM      4  C3  UNL d   1       1.976   5.271   4.326  0.00  0.00    -0.034 A 
ATOM      5  C4  UNL d   1       1.746   4.903   2.999  0.00  0.00     0.162 A 
ATOM      6  C5  UNL d   1       2.792   4.893   2.082  0.00  0.00     0.062 A 
ATOM      7  F   UNL d   1       2.562   4.538   0.810  0.00  0.00    -0.097 F 
ATOM      8  F1  UNL d   1       0.518   4.552   2.588  0.00  0.00    -0.096 F 
ATOM      9  I   UNL d   1       0.413   5.286   5.700  0.00  0.00    -0.060 I 
ATOM     10  F2  UNL d   1       3.522   5.989   5.985  0.00  0.00    -0.096 F 
ATOM     11  F3  UNL d   1       5.545   5.965   4.184  0.00  0.00    -0.097 F 
ATOM     12  F4  UNL d   1       5.078   5.242   1.596  0.00  0.00    -0.092 F 
ENDROOT
TORSDOF 0
ENDMDL
