MODEL 1
REMARK minimizedAffinity 10.4464216
REMARK minimizedRMSD -1
REMARK  0 active torsions:
REMARK  status: ('A' for Active; 'I' for Inactive)
ROOT
ATOM      1  C   UNL d   1       2.602   5.929   4.762  0.00  0.00     0.124 A 
ATOM      2  C1  UNL d   1       1.762   5.958   3.657  0.00  0.00     0.062 A 
ATOM      3  C2  UNL d   1       2.296   5.968   2.372  0.00  0.00     0.162 A 
ATOM      4  C3  UNL d   1       3.678   5.947   2.184  0.00  0.00    -0.034 A 
ATOM      5  C4  UNL d   1       4.516   5.919   3.300  0.00  0.00     0.162 A 
ATOM      6  C5  UNL d   1       3.978   5.909   4.583  0.00  0.00     0.062 A 
ATOM      7  F   UNL d   1       4.791   5.880   5.649  0.00  0.00    -0.097 F 
ATOM      8  F1  UNL d   1       5.850   5.898   3.156  0.00  0.00    -0.096 F 
ATOM      9  I   UNL d   1       4.481   5.962   0.264  0.00  0.00    -0.060 I 
ATOM     10  F2  UNL d   1       1.461   5.997   1.323  0.00  0.00    -0.096 F 
ATOM     11  F3  UNL d   1       0.432   5.978   3.828  0.00  0.00    -0.097 F 
ATOM     12  F4  UNL d   1       2.085   5.920   5.998  0.00  0.00    -0.092 F 
ENDROOT
TORSDOF 0
ENDMDL
