MODEL 1
REMARK minimizedAffinity 4.12860394
REMARK minimizedRMSD -1
REMARK  0 active torsions:
REMARK  status: ('A' for Active; 'I' for Inactive)
ROOT
ATOM      1  C   UNL d   1       1.622  -0.840   0.626  0.00  0.00     0.124 A 
ATOM      2  C1  UNL d   1       1.105  -0.969   1.907  0.00  0.00     0.062 A 
ATOM      3  C2  UNL d   1      -0.272  -0.983   2.108  0.00  0.00     0.162 A 
ATOM      4  C3  UNL d   1      -1.143  -0.869   1.024  0.00  0.00    -0.034 A 
ATOM      5  C4  UNL d   1      -0.615  -0.739  -0.262  0.00  0.00     0.162 A 
ATOM      6  C5  UNL d   1       0.762  -0.725  -0.457  0.00  0.00     0.062 A 
ATOM      7  F   UNL d   1       1.260  -0.601  -1.696  0.00  0.00    -0.097 F 
ATOM      8  F1  UNL d   1      -1.423  -0.627  -1.327  0.00  0.00    -0.096 F 
ATOM      9  I   UNL d   1      -3.203  -0.890   1.319  0.00  0.00    -0.060 I 
ATOM     10  F2  UNL d   1      -0.745  -1.109   3.357  0.00  0.00    -0.096 F 
ATOM     11  F3  UNL d   1       1.934  -1.079   2.955  0.00  0.00    -0.097 F 
ATOM     12  F4  UNL d   1       2.948  -0.826   0.436  0.00  0.00    -0.092 F 
ENDROOT
TORSDOF 0
ENDMDL
