MODEL 1
REMARK minimizedAffinity 15.1608639
REMARK minimizedRMSD -1
REMARK  0 active torsions:
REMARK  status: ('A' for Active; 'I' for Inactive)
ROOT
ATOM      1  C   UNL d   1       1.138  -0.897   1.981  0.00  0.00     0.124 A 
ATOM      2  C1  UNL d   1       1.617  -0.418   0.770  0.00  0.00     0.062 A 
ATOM      3  C2  UNL d   1       0.737  -0.145  -0.273  0.00  0.00     0.162 A 
ATOM      4  C3  UNL d   1      -0.633  -0.350  -0.109  0.00  0.00    -0.034 A 
ATOM      5  C4  UNL d   1      -1.108  -0.833   1.112  0.00  0.00     0.162 A 
ATOM      6  C5  UNL d   1      -0.224  -1.104   2.151  0.00  0.00     0.062 A 
ATOM      7  F   UNL d   1      -0.689  -1.567   3.320  0.00  0.00    -0.097 F 
ATOM      8  F1  UNL d   1      -2.419  -1.041   1.303  0.00  0.00    -0.096 F 
ATOM      9  I   UNL d   1      -1.953   0.057  -1.666  0.00  0.00    -0.060 I 
ATOM     10  F2  UNL d   1       1.228   0.317  -1.432  0.00  0.00    -0.096 F 
ATOM     11  F3  UNL d   1       2.933  -0.218   0.603  0.00  0.00    -0.097 F 
ATOM     12  F4  UNL d   1       1.987  -1.160   2.982  0.00  0.00    -0.092 F 
ENDROOT
TORSDOF 0
ENDMDL
