MODEL 1
REMARK minimizedAffinity 12.5987291
REMARK minimizedRMSD -1
REMARK  0 active torsions:
REMARK  status: ('A' for Active; 'I' for Inactive)
ROOT
ATOM      1  C   UNL d   1       4.519  -0.124  -0.829  0.00  0.00     0.124 A 
ATOM      2  C1  UNL d   1       3.916  -1.155  -0.121  0.00  0.00     0.062 A 
ATOM      3  C2  UNL d   1       2.529  -1.274  -0.103  0.00  0.00     0.162 A 
ATOM      4  C3  UNL d   1       1.735  -0.360  -0.796  0.00  0.00    -0.034 A 
ATOM      5  C4  UNL d   1       2.349   0.674  -1.505  0.00  0.00     0.162 A 
ATOM      6  C5  UNL d   1       3.735   0.789  -1.520  0.00  0.00     0.062 A 
ATOM      7  F   UNL d   1       4.316   1.785  -2.205  0.00  0.00    -0.097 F 
ATOM      8  F1  UNL d   1       1.615   1.570  -2.182  0.00  0.00    -0.096 F 
ATOM      9  I   UNL d   1      -0.338  -0.535  -0.771  0.00  0.00    -0.060 I 
ATOM     10  F2  UNL d   1       1.974  -2.280   0.589  0.00  0.00    -0.096 F 
ATOM     11  F3  UNL d   1       4.671  -2.038   0.548  0.00  0.00    -0.097 F 
ATOM     12  F4  UNL d   1       5.853  -0.012  -0.844  0.00  0.00    -0.092 F 
ENDROOT
TORSDOF 0
ENDMDL
