MODEL 1
REMARK minimizedAffinity 9.60576344
REMARK minimizedRMSD -1
REMARK  0 active torsions:
REMARK  status: ('A' for Active; 'I' for Inactive)
ROOT
ATOM      1  C   UNL d   1      -2.166  -0.481   0.346  0.00  0.00     0.124 A 
ATOM      2  C1  UNL d   1      -1.398  -0.432   1.501  0.00  0.00     0.062 A 
ATOM      3  C2  UNL d   1      -0.009  -0.420   1.417  0.00  0.00     0.162 A 
ATOM      4  C3  UNL d   1       0.622  -0.457   0.174  0.00  0.00    -0.034 A 
ATOM      5  C4  UNL d   1      -0.157  -0.507  -0.983  0.00  0.00     0.162 A 
ATOM      6  C5  UNL d   1      -1.545  -0.518  -0.895  0.00  0.00     0.062 A 
ATOM      7  F   UNL d   1      -2.286  -0.566  -2.012  0.00  0.00    -0.097 F 
ATOM      8  F1  UNL d   1       0.417  -0.543  -2.195  0.00  0.00    -0.096 F 
ATOM      9  I   UNL d   1       2.699  -0.439   0.045  0.00  0.00    -0.060 I 
ATOM     10  F2  UNL d   1       0.709  -0.372   2.550  0.00  0.00    -0.096 F 
ATOM     11  F3  UNL d   1      -1.995  -0.397   2.701  0.00  0.00    -0.097 F 
ATOM     12  F4  UNL d   1      -3.503  -0.493   0.429  0.00  0.00    -0.092 F 
ENDROOT
TORSDOF 0
ENDMDL
