MODEL 1
REMARK minimizedAffinity 18.967411
REMARK minimizedRMSD -1
REMARK  0 active torsions:
REMARK  status: ('A' for Active; 'I' for Inactive)
ROOT
ATOM      1  C   UNL d   1      -4.108   2.110   2.981  0.00  0.00    -0.002 A 
ATOM      2  C1  UNL d   1      -4.197   0.748   3.229  0.00  0.00     0.010 A 
ATOM      3  C2  UNL d   1      -3.060  -0.061   3.169  0.00  0.00     0.041 A 
ATOM      4  C3  UNL d   1      -1.820   0.529   2.854  0.00  0.00    -0.075 A 
ATOM      5  S   UNL d   1      -0.295  -0.265   2.724  0.00  0.00     0.015 SA
ATOM      6  C4  UNL d   1       0.511   1.186   2.337  0.00  0.00     0.022 A 
ATOM      7  C5  UNL d   1      -0.347   2.259   2.302  0.00  0.00     0.026 A 
ATOM      8  C6  UNL d   1      -1.705   1.898   2.600  0.00  0.00    -0.082 A 
ATOM      9  C7  UNL d   1      -2.876   2.691   2.668  0.00  0.00     0.045 A 
ENDROOT
TORSDOF 0
ENDMDL
