MODEL 1
REMARK minimizedAffinity -3.46998739
REMARK minimizedRMSD -1
REMARK  0 active torsions:
REMARK  status: ('A' for Active; 'I' for Inactive)
ROOT
ATOM      1  C   UNL d   1       1.807   2.703   0.822  0.00  0.00    -0.002 A 
ATOM      2  C1  UNL d   1       2.763   2.202  -0.051  0.00  0.00     0.010 A 
ATOM      3  C2  UNL d   1       2.573   0.971  -0.681  0.00  0.00     0.041 A 
ATOM      4  C3  UNL d   1       1.394   0.245  -0.419  0.00  0.00    -0.075 A 
ATOM      5  S   UNL d   1       0.947  -1.284  -1.078  0.00  0.00     0.015 SA
ATOM      6  C4  UNL d   1      -0.524  -1.309  -0.217  0.00  0.00     0.022 A 
ATOM      7  C5  UNL d   1      -0.686  -0.185   0.560  0.00  0.00     0.026 A 
ATOM      8  C6  UNL d   1       0.417   0.729   0.455  0.00  0.00    -0.082 A 
ATOM      9  C7  UNL d   1       0.639   1.980   1.080  0.00  0.00     0.045 A 
ENDROOT
TORSDOF 0
ENDMDL
