MODEL 1
REMARK minimizedAffinity 13.3092546
REMARK minimizedRMSD -1
REMARK  0 active torsions:
REMARK  status: ('A' for Active; 'I' for Inactive)
ROOT
ATOM      1  C   UNL d   1       0.217   0.637   2.894  0.00  0.00    -0.002 A 
ATOM      2  C1  UNL d   1       0.710   1.901   2.602  0.00  0.00     0.010 A 
ATOM      3  C2  UNL d   1       1.408   2.134   1.415  0.00  0.00     0.041 A 
ATOM      4  C3  UNL d   1       1.602   1.066   0.517  0.00  0.00    -0.075 A 
ATOM      5  S   UNL d   1       2.424   1.117  -0.997  0.00  0.00     0.015 SA
ATOM      6  C4  UNL d   1       2.139  -0.537  -1.293  0.00  0.00     0.022 A 
ATOM      7  C5  UNL d   1       1.435  -1.129  -0.271  0.00  0.00     0.026 A 
ATOM      8  C6  UNL d   1       1.113  -0.215   0.788  0.00  0.00    -0.082 A 
ATOM      9  C7  UNL d   1       0.410  -0.420   2.000  0.00  0.00     0.045 A 
ENDROOT
TORSDOF 0
ENDMDL
