MODEL 1
REMARK minimizedAffinity 10.807642
REMARK minimizedRMSD -1
REMARK  0 active torsions:
REMARK  status: ('A' for Active; 'I' for Inactive)
ROOT
ATOM      1  C   UNL d   1       3.016   3.156   0.492  0.00  0.00    -0.002 A 
ATOM      2  C1  UNL d   1       3.329   1.834   0.207  0.00  0.00     0.010 A 
ATOM      3  C2  UNL d   1       2.510   0.797   0.660  0.00  0.00     0.041 A 
ATOM      4  C3  UNL d   1       1.361   1.115   1.410  0.00  0.00    -0.075 A 
ATOM      5  S   UNL d   1       0.212   0.011   2.069  0.00  0.00     0.015 SA
ATOM      6  C4  UNL d   1      -0.721   1.268   2.742  0.00  0.00     0.022 A 
ATOM      7  C5  UNL d   1      -0.184   2.506   2.481  0.00  0.00     0.026 A 
ATOM      8  C6  UNL d   1       1.025   2.438   1.709  0.00  0.00    -0.082 A 
ATOM      9  C7  UNL d   1       1.875   3.467   1.236  0.00  0.00     0.045 A 
ENDROOT
TORSDOF 0
ENDMDL
