MODEL 1
REMARK minimizedAffinity 9.09867382
REMARK minimizedRMSD -1
REMARK  0 active torsions:
REMARK  status: ('A' for Active; 'I' for Inactive)
ROOT
ATOM      1  C   UNL d   1       1.774   1.450   1.129  0.00  0.00    -0.002 A 
ATOM      2  C1  UNL d   1       1.416   0.188   1.583  0.00  0.00     0.010 A 
ATOM      3  C2  UNL d   1       0.820  -0.734   0.720  0.00  0.00     0.041 A 
ATOM      4  C3  UNL d   1       0.589  -0.364  -0.619  0.00  0.00    -0.075 A 
ATOM      5  S   UNL d   1      -0.128  -1.328  -1.856  0.00  0.00     0.015 SA
ATOM      6  C4  UNL d   1       0.025  -0.088  -3.015  0.00  0.00     0.022 A 
ATOM      7  C5  UNL d   1       0.606   1.041  -2.489  0.00  0.00     0.026 A 
ATOM      8  C6  UNL d   1       0.941   0.901  -1.099  0.00  0.00    -0.082 A 
ATOM      9  C7  UNL d   1       1.543   1.814  -0.200  0.00  0.00     0.045 A 
ENDROOT
TORSDOF 0
ENDMDL
