MODEL 1
REMARK minimizedAffinity 16.5090046
REMARK minimizedRMSD -1
REMARK  0 active torsions:
REMARK  status: ('A' for Active; 'I' for Inactive)
ROOT
ATOM      1  C   UNL d   1       1.491  -0.280  -2.314  0.00  0.00    -0.002 A 
ATOM      2  C1  UNL d   1       2.105  -0.087  -1.084  0.00  0.00     0.010 A 
ATOM      3  C2  UNL d   1       1.829   1.051  -0.323  0.00  0.00     0.041 A 
ATOM      4  C3  UNL d   1       0.914   1.999  -0.822  0.00  0.00    -0.075 A 
ATOM      5  S   UNL d   1       0.421   3.467  -0.063  0.00  0.00     0.015 SA
ATOM      6  C4  UNL d   1      -0.617   3.872  -1.353  0.00  0.00     0.022 A 
ATOM      7  C5  UNL d   1      -0.600   2.922  -2.346  0.00  0.00     0.026 A 
ATOM      8  C6  UNL d   1       0.282   1.826  -2.057  0.00  0.00    -0.082 A 
ATOM      9  C7  UNL d   1       0.585   0.664  -2.805  0.00  0.00     0.045 A 
ENDROOT
TORSDOF 0
ENDMDL
