MODEL 1
REMARK minimizedAffinity 17.5902367
REMARK minimizedRMSD -1
REMARK  0 active torsions:
REMARK  status: ('A' for Active; 'I' for Inactive)
ROOT
ATOM      1  C   UNL d   1       5.948   5.989  -4.159  0.00  0.00    -0.002 A 
ATOM      2  C1  UNL d   1       5.997   5.472  -5.446  0.00  0.00     0.010 A 
ATOM      3  C2  UNL d   1       5.995   4.092  -5.658  0.00  0.00     0.041 A 
ATOM      4  C3  UNL d   1       5.941   3.232  -4.544  0.00  0.00    -0.075 A 
ATOM      5  S   UNL d   1       5.928   1.508  -4.562  0.00  0.00     0.015 SA
ATOM      6  C4  UNL d   1       5.856   1.416  -2.862  0.00  0.00     0.022 A 
ATOM      7  C5  UNL d   1       5.842   2.661  -2.279  0.00  0.00     0.026 A 
ATOM      8  C6  UNL d   1       5.890   3.728  -3.239  0.00  0.00    -0.082 A 
ATOM      9  C7  UNL d   1       5.895   5.132  -3.057  0.00  0.00     0.045 A 
ENDROOT
TORSDOF 0
ENDMDL
