MODEL 1
REMARK minimizedAffinity 12.1989536
REMARK minimizedRMSD -1
REMARK  0 active torsions:
REMARK  status: ('A' for Active; 'I' for Inactive)
ROOT
ATOM      1  C1  DEN d   1      -0.559  -1.869  -1.575  0.00  0.00     0.130 A 
ATOM      2  C2  DEN d   1      -1.477  -0.745  -1.736  0.00  0.00    -0.031 A 
ATOM      3  C3  DEN d   1      -2.397  -0.737  -0.581  0.00  0.00     0.027 A 
ATOM      4  C4  DEN d   1      -2.485  -2.345   1.434  0.00  0.00     0.027 A 
ATOM      5  C5  DEN d   1      -1.915  -3.461   2.005  0.00  0.00    -0.003 A 
ATOM      6  C6  DEN d   1      -0.884  -4.140   1.411  0.00  0.00     0.001 A 
ATOM      7  C7  DEN d   1      -0.361  -3.681   0.231  0.00  0.00     0.017 A 
ATOM      8  C8  DEN d   1      -0.935  -2.561  -0.355  0.00  0.00    -0.094 A 
ATOM      9  C9  DEN d   1      -1.969  -1.882   0.268  0.00  0.00    -0.072 A 
ENDROOT
TORSDOF 0
ENDMDL
