MODEL 1
REMARK minimizedAffinity 6.84484959
REMARK minimizedRMSD -1
REMARK  0 active torsions:
REMARK  status: ('A' for Active; 'I' for Inactive)
ROOT
ATOM      1  C1  DEN d   1      -1.274  -2.738   4.494  0.00  0.00     0.130 A 
ATOM      2  C2  DEN d   1      -1.662  -1.425   5.001  0.00  0.00    -0.031 A 
ATOM      3  C3  DEN d   1      -1.901  -0.541   3.842  0.00  0.00     0.027 A 
ATOM      4  C4  DEN d   1      -1.714  -1.077   1.326  0.00  0.00     0.027 A 
ATOM      5  C5  DEN d   1      -1.405  -2.055   0.407  0.00  0.00    -0.003 A 
ATOM      6  C6  DEN d   1      -1.002  -3.309   0.783  0.00  0.00     0.001 A 
ATOM      7  C7  DEN d   1      -0.939  -3.632   2.113  0.00  0.00     0.017 A 
ATOM      8  C8  DEN d   1      -1.242  -2.649   3.045  0.00  0.00    -0.094 A 
ATOM      9  C9  DEN d   1      -1.660  -1.391   2.645  0.00  0.00    -0.072 A 
ENDROOT
TORSDOF 0
ENDMDL
