MODEL 1
REMARK minimizedAffinity 9.95958805
REMARK minimizedRMSD -1
REMARK  0 active torsions:
REMARK  status: ('A' for Active; 'I' for Inactive)
ROOT
ATOM      1  C1  DEN d   1      -1.269  -1.120   4.467  0.00  0.00     0.130 A 
ATOM      2  C2  DEN d   1      -1.178   0.312   4.193  0.00  0.00    -0.031 A 
ATOM      3  C3  DEN d   1      -1.153   0.495   2.728  0.00  0.00     0.027 A 
ATOM      4  C4  DEN d   1      -1.250  -1.288   0.867  0.00  0.00     0.027 A 
ATOM      5  C5  DEN d   1      -1.320  -2.639   0.610  0.00  0.00    -0.003 A 
ATOM      6  C6  DEN d   1      -1.343  -3.573   1.612  0.00  0.00     0.001 A 
ATOM      7  C7  DEN d   1      -1.342  -3.165   2.920  0.00  0.00     0.017 A 
ATOM      8  C8  DEN d   1      -1.264  -1.805   3.187  0.00  0.00    -0.094 A 
ATOM      9  C9  DEN d   1      -1.253  -0.876   2.160  0.00  0.00    -0.072 A 
ENDROOT
TORSDOF 0
ENDMDL
