MODEL 1
REMARK minimizedAffinity 0.624674261
REMARK minimizedRMSD -1
REMARK  0 active torsions:
REMARK  status: ('A' for Active; 'I' for Inactive)
ROOT
ATOM      1  C1  DEN d   1      -2.231  -1.463  -1.307  0.00  0.00     0.130 A 
ATOM      2  C2  DEN d   1      -2.341  -2.465  -2.363  0.00  0.00    -0.031 A 
ATOM      3  C3  DEN d   1      -1.864  -3.753  -1.822  0.00  0.00     0.027 A 
ATOM      4  C4  DEN d   1      -0.975  -4.292   0.539  0.00  0.00     0.027 A 
ATOM      5  C5  DEN d   1      -0.684  -3.762   1.776  0.00  0.00    -0.003 A 
ATOM      6  C6  DEN d   1      -0.855  -2.433   2.060  0.00  0.00     0.001 A 
ATOM      7  C7  DEN d   1      -1.373  -1.597   1.107  0.00  0.00     0.017 A 
ATOM      8  C8  DEN d   1      -1.662  -2.122  -0.145  0.00  0.00    -0.094 A 
ATOM      9  C9  DEN d   1      -1.494  -3.470  -0.409  0.00  0.00    -0.072 A 
ENDROOT
TORSDOF 0
ENDMDL
