MODEL 1
REMARK minimizedAffinity 5.44717646
REMARK minimizedRMSD -1
REMARK  0 active torsions:
REMARK  status: ('A' for Active; 'I' for Inactive)
ROOT
ATOM      1  C1  DEN d   1      -1.039  -3.492  -1.871  0.00  0.00     0.130 A 
ATOM      2  C2  DEN d   1      -1.781  -2.614  -2.772  0.00  0.00    -0.031 A 
ATOM      3  C3  DEN d   1      -2.517  -1.633  -1.949  0.00  0.00     0.027 A 
ATOM      4  C4  DEN d   1      -2.576  -1.387   0.618  0.00  0.00     0.027 A 
ATOM      5  C5  DEN d   1      -2.115  -1.909   1.806  0.00  0.00    -0.003 A 
ATOM      6  C6  DEN d   1      -1.298  -3.008   1.853  0.00  0.00     0.001 A 
ATOM      7  C7  DEN d   1      -0.880  -3.593   0.687  0.00  0.00     0.017 A 
ATOM      8  C8  DEN d   1      -1.345  -3.076  -0.515  0.00  0.00    -0.094 A 
ATOM      9  C9  DEN d   1      -2.161  -1.957  -0.542  0.00  0.00    -0.072 A 
ENDROOT
TORSDOF 0
ENDMDL
