MODEL 1
REMARK minimizedAffinity 18.2266865
REMARK minimizedRMSD -1
REMARK  0 active torsions:
REMARK  status: ('A' for Active; 'I' for Inactive)
ROOT
ATOM      1  C1  DEN d   1       2.507  -0.201  -1.017  0.00  0.00     0.130 A 
ATOM      2  C2  DEN d   1       3.474  -0.334  -2.103  0.00  0.00    -0.031 A 
ATOM      3  C3  DEN d   1       2.770  -0.887  -3.277  0.00  0.00     0.027 A 
ATOM      4  C4  DEN d   1       0.287  -1.544  -3.519  0.00  0.00     0.027 A 
ATOM      5  C5  DEN d   1      -0.922  -1.622  -2.865  0.00  0.00    -0.003 A 
ATOM      6  C6  DEN d   1      -1.065  -1.268  -1.549  0.00  0.00     0.001 A 
ATOM      7  C7  DEN d   1       0.011  -0.775  -0.859  0.00  0.00     0.017 A 
ATOM      8  C8  DEN d   1       1.235  -0.700  -1.510  0.00  0.00    -0.094 A 
ATOM      9  C9  DEN d   1       1.356  -1.052  -2.843  0.00  0.00    -0.072 A 
ENDROOT
TORSDOF 0
ENDMDL
