MODEL 1
REMARK minimizedAffinity 12.1124134
REMARK minimizedRMSD -1
REMARK  0 active torsions:
REMARK  status: ('A' for Active; 'I' for Inactive)
ROOT
ATOM      1  C1  DEN d   1       4.493   0.762   2.289  0.00  0.00     0.130 A 
ATOM      2  C2  DEN d   1       4.844   1.887   1.428  0.00  0.00    -0.031 A 
ATOM      3  C3  DEN d   1       5.011   3.081   2.281  0.00  0.00     0.027 A 
ATOM      4  C4  DEN d   1       4.768   3.292   4.840  0.00  0.00     0.027 A 
ATOM      5  C5  DEN d   1       4.471   2.611   6.000  0.00  0.00    -0.003 A 
ATOM      6  C6  DEN d   1       4.130   1.284   6.000  0.00  0.00     0.001 A 
ATOM      7  C7  DEN d   1       4.121   0.585   4.822  0.00  0.00     0.017 A 
ATOM      8  C8  DEN d   1       4.413   1.267   3.648  0.00  0.00    -0.094 A 
ATOM      9  C9  DEN d   1       4.767   2.605   3.670  0.00  0.00    -0.072 A 
ENDROOT
TORSDOF 0
ENDMDL
