MODEL 1
REMARK minimizedAffinity 5.97765207
REMARK minimizedRMSD -1
REMARK  0 active torsions:
REMARK  status: ('A' for Active; 'I' for Inactive)
ROOT
ATOM      1  C1  DEN d   1      -1.056  -5.303   0.603  0.00  0.00     0.130 A 
ATOM      2  C2  DEN d   1      -1.024  -5.999   1.886  0.00  0.00    -0.031 A 
ATOM      3  C3  DEN d   1      -1.138  -4.988   2.956  0.00  0.00     0.027 A 
ATOM      4  C4  DEN d   1      -1.364  -2.427   2.752  0.00  0.00     0.027 A 
ATOM      5  C5  DEN d   1      -1.427  -1.373   1.868  0.00  0.00    -0.003 A 
ATOM      6  C6  DEN d   1      -1.336  -1.550   0.513  0.00  0.00     0.001 A 
ATOM      7  C7  DEN d   1      -1.224  -2.815  -0.000  0.00  0.00     0.017 A 
ATOM      8  C8  DEN d   1      -1.153  -3.883   0.885  0.00  0.00    -0.094 A 
ATOM      9  C9  DEN d   1      -1.259  -3.684   2.251  0.00  0.00    -0.072 A 
ENDROOT
TORSDOF 0
ENDMDL
