MODEL 1
REMARK minimizedAffinity 4.22494555
REMARK minimizedRMSD -1
REMARK  0 active torsions:
REMARK  status: ('A' for Active; 'I' for Inactive)
ROOT
ATOM      1  C1  DEN d   1      -1.127  -2.400  -0.377  0.00  0.00     0.130 A 
ATOM      2  C2  DEN d   1      -2.185  -1.458  -0.022  0.00  0.00    -0.031 A 
ATOM      3  C3  DEN d   1      -3.201  -2.187   0.764  0.00  0.00     0.027 A 
ATOM      4  C4  DEN d   1      -3.236  -4.668   1.467  0.00  0.00     0.027 A 
ATOM      5  C5  DEN d   1      -2.560  -5.866   1.389  0.00  0.00    -0.003 A 
ATOM      6  C6  DEN d   1      -1.387  -6.000   0.695  0.00  0.00     0.001 A 
ATOM      7  C7  DEN d   1      -0.830  -4.906   0.088  0.00  0.00     0.017 A 
ATOM      8  C8  DEN d   1      -1.508  -3.696   0.155  0.00  0.00    -0.094 A 
ATOM      9  C9  DEN d   1      -2.687  -3.579   0.872  0.00  0.00    -0.072 A 
ENDROOT
TORSDOF 0
ENDMDL
