MODEL 1
REMARK minimizedAffinity 2.31823564
REMARK minimizedRMSD -1
REMARK  0 active torsions:
REMARK  status: ('A' for Active; 'I' for Inactive)
ROOT
ATOM      1  C1  DEN d   1      -4.372  -1.651   5.959  0.00  0.00     0.130 A 
ATOM      2  C2  DEN d   1      -2.919  -1.783   5.894  0.00  0.00    -0.031 A 
ATOM      3  C3  DEN d   1      -2.337  -0.426   5.877  0.00  0.00     0.027 A 
ATOM      4  C4  DEN d   1      -3.539   1.856   5.948  0.00  0.00     0.027 A 
ATOM      5  C5  DEN d   1      -4.767   2.476   5.994  0.00  0.00    -0.003 A 
ATOM      6  C6  DEN d   1      -5.942   1.771   5.998  0.00  0.00     0.001 A 
ATOM      7  C7  DEN d   1      -5.911   0.401   6.000  0.00  0.00     0.017 A 
ATOM      8  C8  DEN d   1      -4.676  -0.231   5.945  0.00  0.00    -0.094 A 
ATOM      9  C9  DEN d   1      -3.500   0.499   5.955  0.00  0.00    -0.072 A 
ENDROOT
TORSDOF 0
ENDMDL
