MODEL 1
REMARK minimizedAffinity -3.92609286
REMARK minimizedRMSD -1
REMARK  0 active torsions:
REMARK  status: ('A' for Active; 'I' for Inactive)
ROOT
ATOM      1  O1  BZF d   1       1.870  -0.769   0.310  0.00  0.00    -0.204 OA
ATOM      2  C2  BZF d   1       1.752   0.301  -0.555  0.00  0.00     0.174 A 
ATOM      3  C3  BZF d   1       0.511   0.826  -0.502  0.00  0.00    -0.012 A 
ATOM      4  C3A BZF d   1      -0.164   0.092   0.525  0.00  0.00    -0.107 A 
ATOM      5  C4  BZF d   1      -1.420   0.158   1.055  0.00  0.00     0.055 A 
ATOM      6  C5  BZF d   1      -1.789  -0.751   1.996  0.00  0.00    -0.016 A 
ATOM      7  C6  BZF d   1      -0.930  -1.741   2.424  0.00  0.00     0.022 A 
ATOM      8  C7  BZF d   1       0.328  -1.844   1.931  0.00  0.00     0.029 A 
ATOM      9  C7A BZF d   1       0.715  -0.907   1.004  0.00  0.00     0.058 A 
ENDROOT
TORSDOF 0
ENDMDL
