MODEL 1
REMARK minimizedAffinity 1.47967637
REMARK minimizedRMSD -1
REMARK  0 active torsions:
REMARK  status: ('A' for Active; 'I' for Inactive)
ROOT
ATOM      1  O1  BZF d   1       0.634  -0.889   0.544  0.00  0.00    -0.204 OA
ATOM      2  C2  BZF d   1       1.301   0.301   0.328  0.00  0.00     0.174 A 
ATOM      3  C3  BZF d   1       0.660   1.049  -0.593  0.00  0.00    -0.012 A 
ATOM      4  C3A BZF d   1      -0.529   0.318  -0.909  0.00  0.00    -0.107 A 
ATOM      5  C4  BZF d   1      -1.581   0.553  -1.747  0.00  0.00     0.055 A 
ATOM      6  C5  BZF d   1      -2.546  -0.395  -1.879  0.00  0.00    -0.016 A 
ATOM      7  C6  BZF d   1      -2.488  -1.590  -1.192  0.00  0.00     0.022 A 
ATOM      8  C7  BZF d   1      -1.467  -1.866  -0.345  0.00  0.00     0.029 A 
ATOM      9  C7A BZF d   1      -0.507  -0.897  -0.185  0.00  0.00     0.058 A 
ENDROOT
TORSDOF 0
ENDMDL
