MODEL 1
REMARK minimizedAffinity -4.02137089
REMARK minimizedRMSD -1
REMARK  0 active torsions:
REMARK  status: ('A' for Active; 'I' for Inactive)
ROOT
ATOM      1  O1  BZF d   1       0.317  -0.763   1.193  0.00  0.00    -0.204 OA
ATOM      2  C2  BZF d   1       0.395   0.386   0.431  0.00  0.00     0.174 A 
ATOM      3  C3  BZF d   1      -0.618   0.440  -0.459  0.00  0.00    -0.012 A 
ATOM      4  C3A BZF d   1      -1.428  -0.705  -0.176  0.00  0.00    -0.107 A 
ATOM      5  C4  BZF d   1      -2.586  -1.191  -0.712  0.00  0.00     0.055 A 
ATOM      6  C5  BZF d   1      -3.080  -2.372  -0.256  0.00  0.00    -0.016 A 
ATOM      7  C6  BZF d   1      -2.439  -3.096   0.728  0.00  0.00     0.022 A 
ATOM      8  C7  BZF d   1      -1.291  -2.652   1.294  0.00  0.00     0.029 A 
ATOM      9  C7A BZF d   1      -0.807  -1.442   0.859  0.00  0.00     0.058 A 
ENDROOT
TORSDOF 0
ENDMDL
