MODEL 1
REMARK minimizedAffinity -3.19761181
REMARK minimizedRMSD -1
REMARK  0 active torsions:
REMARK  status: ('A' for Active; 'I' for Inactive)
ROOT
ATOM      1  O1  BZF d   1       1.243   0.062   0.807  0.00  0.00    -0.204 OA
ATOM      2  C2  BZF d   1       1.967   1.237   0.751  0.00  0.00     0.174 A 
ATOM      3  C3  BZF d   1       1.420   2.094  -0.135  0.00  0.00    -0.012 A 
ATOM      4  C3A BZF d   1       0.231   1.448  -0.599  0.00  0.00    -0.107 A 
ATOM      5  C4  BZF d   1      -0.749   1.805  -1.481  0.00  0.00     0.055 A 
ATOM      6  C5  BZF d   1      -1.736   0.916  -1.767  0.00  0.00    -0.016 A 
ATOM      7  C6  BZF d   1      -1.771  -0.339  -1.196  0.00  0.00     0.022 A 
ATOM      8  C7  BZF d   1      -0.824  -0.737  -0.312  0.00  0.00     0.029 A 
ATOM      9  C7A BZF d   1       0.157   0.172   0.005  0.00  0.00     0.058 A 
ENDROOT
TORSDOF 0
ENDMDL
