MODEL 1
REMARK minimizedAffinity -2.8513341
REMARK minimizedRMSD -1
REMARK  0 active torsions:
REMARK  status: ('A' for Active; 'I' for Inactive)
ROOT
ATOM      1  O1  BZF d   1       0.914   0.391   1.382  0.00  0.00    -0.204 OA
ATOM      2  C2  BZF d   1       0.423  -0.247   0.260  0.00  0.00     0.174 A 
ATOM      3  C3  BZF d   1       0.722   0.449  -0.856  0.00  0.00    -0.012 A 
ATOM      4  C3A BZF d   1       1.524   1.546  -0.411  0.00  0.00    -0.107 A 
ATOM      5  C4  BZF d   1       2.139   2.582  -1.055  0.00  0.00     0.055 A 
ATOM      6  C5  BZF d   1       2.786   3.526  -0.321  0.00  0.00    -0.016 A 
ATOM      7  C6  BZF d   1       2.832   3.468   1.056  0.00  0.00     0.022 A 
ATOM      8  C7  BZF d   1       2.242   2.458   1.739  0.00  0.00     0.029 A 
ATOM      9  C7A BZF d   1       1.616   1.485   0.999  0.00  0.00     0.058 A 
ENDROOT
TORSDOF 0
ENDMDL
