MODEL 1
REMARK minimizedAffinity -2.57880211
REMARK minimizedRMSD -1
REMARK  0 active torsions:
REMARK  status: ('A' for Active; 'I' for Inactive)
ROOT
ATOM      1  O1  BZF d   1       0.721  -0.147   1.444  0.00  0.00    -0.204 OA
ATOM      2  C2  BZF d   1       1.901   0.472   1.079  0.00  0.00     0.174 A 
ATOM      3  C3  BZF d   1       1.942   0.675  -0.254  0.00  0.00    -0.012 A 
ATOM      4  C3A BZF d   1       0.671   0.235  -0.741  0.00  0.00    -0.107 A 
ATOM      5  C4  BZF d   1       0.103   0.197  -1.983  0.00  0.00     0.055 A 
ATOM      6  C5  BZF d   1      -1.127  -0.361  -2.130  0.00  0.00    -0.016 A 
ATOM      7  C6  BZF d   1      -1.814  -0.896  -1.060  0.00  0.00     0.022 A 
ATOM      8  C7  BZF d   1      -1.294  -0.877   0.192  0.00  0.00     0.029 A 
ATOM      9  C7A BZF d   1      -0.065  -0.284   0.349  0.00  0.00     0.058 A 
ENDROOT
TORSDOF 0
ENDMDL
