MODEL 1
REMARK minimizedAffinity 1.30174184
REMARK minimizedRMSD -1
REMARK  0 active torsions:
REMARK  status: ('A' for Active; 'I' for Inactive)
ROOT
ATOM      1  O1  BZF d   1       2.203   2.005   1.667  0.00  0.00    -0.204 OA
ATOM      2  C2  BZF d   1       3.184   2.512   0.838  0.00  0.00     0.174 A 
ATOM      3  C3  BZF d   1       3.024   2.064  -0.423  0.00  0.00    -0.012 A 
ATOM      4  C3A BZF d   1       1.815   1.298  -0.399  0.00  0.00    -0.107 A 
ATOM      5  C4  BZF d   1       1.120   0.610  -1.353  0.00  0.00     0.055 A 
ATOM      6  C5  BZF d   1       0.016  -0.093  -0.987  0.00  0.00    -0.016 A 
ATOM      7  C6  BZF d   1      -0.418  -0.134   0.322  0.00  0.00     0.022 A 
ATOM      8  C7  BZF d   1       0.236   0.536   1.302  0.00  0.00     0.029 A 
ATOM      9  C7A BZF d   1       1.333   1.274   0.930  0.00  0.00     0.058 A 
ENDROOT
TORSDOF 0
ENDMDL
