MODEL 1
REMARK minimizedAffinity -2.36224508
REMARK minimizedRMSD -1
REMARK  0 active torsions:
REMARK  status: ('A' for Active; 'I' for Inactive)
ROOT
ATOM      1  O1  BZF d   1      -0.490  -2.190   1.386  0.00  0.00    -0.204 OA
ATOM      2  C2  BZF d   1       0.867  -1.949   1.484  0.00  0.00     0.174 A 
ATOM      3  C3  BZF d   1       1.289  -1.168   0.469  0.00  0.00    -0.012 A 
ATOM      4  C3A BZF d   1       0.107  -0.828  -0.262  0.00  0.00    -0.107 A 
ATOM      5  C4  BZF d   1      -0.125  -0.063  -1.368  0.00  0.00     0.055 A 
ATOM      6  C5  BZF d   1      -1.386   0.006  -1.871  0.00  0.00    -0.016 A 
ATOM      7  C6  BZF d   1      -2.435  -0.681  -1.297  0.00  0.00     0.022 A 
ATOM      8  C7  BZF d   1      -2.255  -1.450  -0.195  0.00  0.00     0.029 A 
ATOM      9  C7A BZF d   1      -0.988  -1.495   0.335  0.00  0.00     0.058 A 
ENDROOT
TORSDOF 0
ENDMDL
