MODEL 1
REMARK minimizedAffinity -2.09894562
REMARK minimizedRMSD -1
REMARK  0 active torsions:
REMARK  status: ('A' for Active; 'I' for Inactive)
ROOT
ATOM      1  O1  BZF d   1      -0.059   0.767   0.343  0.00  0.00    -0.204 OA
ATOM      2  C2  BZF d   1       0.457  -0.422  -0.135  0.00  0.00     0.174 A 
ATOM      3  C3  BZF d   1       1.801  -0.358  -0.226  0.00  0.00    -0.012 A 
ATOM      4  C3A BZF d   1       2.154   0.921   0.310  0.00  0.00    -0.107 A 
ATOM      5  C4  BZF d   1       3.344   1.561   0.505  0.00  0.00     0.055 A 
ATOM      6  C5  BZF d   1       3.339   2.834   0.983  0.00  0.00    -0.016 A 
ATOM      7  C6  BZF d   1       2.164   3.496   1.271  0.00  0.00     0.022 A 
ATOM      8  C7  BZF d   1       0.959   2.901   1.099  0.00  0.00     0.029 A 
ATOM      9  C7A BZF d   1       0.962   1.603   0.647  0.00  0.00     0.058 A 
ENDROOT
TORSDOF 0
ENDMDL
