MODEL 1
REMARK minimizedAffinity -2.79761004
REMARK minimizedRMSD -1
REMARK  0 active torsions:
REMARK  status: ('A' for Active; 'I' for Inactive)
ROOT
ATOM      1  O1  BZF d   1      -0.662  -1.826   0.742  0.00  0.00    -0.204 OA
ATOM      2  C2  BZF d   1       0.510  -1.168   1.059  0.00  0.00     0.174 A 
ATOM      3  C3  BZF d   1       0.843  -0.290   0.090  0.00  0.00    -0.012 A 
ATOM      4  C3A BZF d   1      -0.234  -0.341  -0.850  0.00  0.00    -0.107 A 
ATOM      5  C4  BZF d   1      -0.491   0.315  -2.020  0.00  0.00     0.055 A 
ATOM      6  C5  BZF d   1      -1.598  -0.018  -2.734  0.00  0.00    -0.016 A 
ATOM      7  C6  BZF d   1      -2.465  -1.004  -2.312  0.00  0.00     0.022 A 
ATOM      8  C7  BZF d   1      -2.255  -1.678  -1.156  0.00  0.00     0.029 A 
ATOM      9  C7A BZF d   1      -1.155  -1.321  -0.415  0.00  0.00     0.058 A 
ENDROOT
TORSDOF 0
ENDMDL
