MODEL 1
REMARK minimizedAffinity -4.8062439
REMARK minimizedRMSD -1
REMARK  0 active torsions:
REMARK  status: ('A' for Active; 'I' for Inactive)
ROOT
ATOM      1  O1  BZF d   1       0.679  -0.342   1.174  0.00  0.00    -0.204 OA
ATOM      2  C2  BZF d   1       1.674   0.521   0.757  0.00  0.00     0.174 A 
ATOM      3  C3  BZF d   1       1.394   1.019  -0.464  0.00  0.00    -0.012 A 
ATOM      4  C3A BZF d   1       0.102   0.501  -0.795  0.00  0.00    -0.107 A 
ATOM      5  C4  BZF d   1      -0.721   0.650  -1.875  0.00  0.00     0.055 A 
ATOM      6  C5  BZF d   1      -1.885  -0.051  -1.919  0.00  0.00    -0.016 A 
ATOM      7  C6  BZF d   1      -2.254  -0.911  -0.906  0.00  0.00     0.022 A 
ATOM      8  C7  BZF d   1      -1.472  -1.088   0.187  0.00  0.00     0.029 A 
ATOM      9  C7A BZF d   1      -0.311  -0.357   0.250  0.00  0.00     0.058 A 
ENDROOT
TORSDOF 0
ENDMDL
