MODEL 1
REMARK minimizedAffinity -0.0555993728
REMARK minimizedRMSD -1
REMARK  0 active torsions:
REMARK  status: ('A' for Active; 'I' for Inactive)
ROOT
ATOM      1  O1  BZF d   1      -2.169   0.011  -1.837  0.00  0.00    -0.204 OA
ATOM      2  C2  BZF d   1      -1.412  -0.751  -2.706  0.00  0.00     0.174 A 
ATOM      3  C3  BZF d   1      -0.096  -0.600  -2.454  0.00  0.00    -0.012 A 
ATOM      4  C3A BZF d   1      -0.029   0.241  -1.298  0.00  0.00    -0.107 A 
ATOM      5  C4  BZF d   1       1.005   0.737  -0.556  0.00  0.00     0.055 A 
ATOM      6  C5  BZF d   1       0.735   1.589   0.467  0.00  0.00    -0.016 A 
ATOM      7  C6  BZF d   1      -0.555   1.969   0.774  0.00  0.00     0.022 A 
ATOM      8  C7  BZF d   1      -1.614   1.500   0.070  0.00  0.00     0.029 A 
ATOM      9  C7A BZF d   1      -1.347   0.613  -0.944  0.00  0.00     0.058 A 
ENDROOT
TORSDOF 0
ENDMDL
