MODEL 1
REMARK minimizedAffinity -1.72301304
REMARK minimizedRMSD -1
REMARK  0 active torsions:
REMARK  status: ('A' for Active; 'I' for Inactive)
ROOT
ATOM      1  O1  BZF d   1       0.780   0.226  -0.178  0.00  0.00    -0.204 OA
ATOM      2  C2  BZF d   1       0.941  -0.780   0.755  0.00  0.00     0.174 A 
ATOM      3  C3  BZF d   1      -0.182  -1.518   0.862  0.00  0.00    -0.012 A 
ATOM      4  C3A BZF d   1      -1.072  -0.995  -0.128  0.00  0.00    -0.107 A 
ATOM      5  C4  BZF d   1      -2.339  -1.323  -0.519  0.00  0.00     0.055 A 
ATOM      6  C5  BZF d   1      -2.954  -0.567  -1.466  0.00  0.00    -0.016 A 
ATOM      7  C6  BZF d   1      -2.335   0.524  -2.039  0.00  0.00     0.022 A 
ATOM      8  C7  BZF d   1      -1.077   0.885  -1.688  0.00  0.00     0.029 A 
ATOM      9  C7A BZF d   1      -0.440   0.104  -0.754  0.00  0.00     0.058 A 
ENDROOT
TORSDOF 0
ENDMDL
