MODEL 1
REMARK minimizedAffinity -2.96321368
REMARK minimizedRMSD -1
REMARK  0 active torsions:
REMARK  status: ('A' for Active; 'I' for Inactive)
ROOT
ATOM      1  O1  BZF d   1       1.236  -0.000  -0.984  0.00  0.00    -0.204 OA
ATOM      2  C2  BZF d   1       1.525   0.102   0.363  0.00  0.00     0.174 A 
ATOM      3  C3  BZF d   1       0.394   0.079   1.098  0.00  0.00    -0.012 A 
ATOM      4  C3A BZF d   1      -0.662  -0.138   0.157  0.00  0.00    -0.107 A 
ATOM      5  C4  BZF d   1      -2.015  -0.272   0.279  0.00  0.00     0.055 A 
ATOM      6  C5  BZF d   1      -2.770  -0.401  -0.843  0.00  0.00    -0.016 A 
ATOM      7  C6  BZF d   1      -2.206  -0.396  -2.102  0.00  0.00     0.022 A 
ATOM      8  C7  BZF d   1      -0.868  -0.271  -2.273  0.00  0.00     0.029 A 
ATOM      9  C7A BZF d   1      -0.099  -0.173  -1.140  0.00  0.00     0.058 A 
ENDROOT
TORSDOF 0
ENDMDL
