MODEL 1
REMARK minimizedAffinity -2.76222563
REMARK minimizedRMSD -1
REMARK  0 active torsions:
REMARK  status: ('A' for Active; 'I' for Inactive)
ROOT
ATOM      1  O1  BZF d   1      -0.656   1.435   0.363  0.00  0.00    -0.204 OA
ATOM      2  C2  BZF d   1      -0.700   0.306  -0.433  0.00  0.00     0.174 A 
ATOM      3  C3  BZF d   1       0.545  -0.111  -0.740  0.00  0.00    -0.012 A 
ATOM      4  C3A BZF d   1       1.422   0.760  -0.020  0.00  0.00    -0.107 A 
ATOM      5  C4  BZF d   1       2.781   0.839   0.094  0.00  0.00     0.055 A 
ATOM      6  C5  BZF d   1       3.325   1.852   0.818  0.00  0.00    -0.016 A 
ATOM      7  C6  BZF d   1       2.542   2.805   1.436  0.00  0.00     0.022 A 
ATOM      8  C7  BZF d   1       1.190   2.764   1.356  0.00  0.00     0.029 A 
ATOM      9  C7A BZF d   1       0.636   1.723   0.653  0.00  0.00     0.058 A 
ENDROOT
TORSDOF 0
ENDMDL
