MODEL 1
REMARK minimizedAffinity -2.20737028
REMARK minimizedRMSD -1
REMARK  0 active torsions:
REMARK  status: ('A' for Active; 'I' for Inactive)
ROOT
ATOM      1  O1  BZF d   1       1.324  -0.808   0.470  0.00  0.00    -0.204 OA
ATOM      2  C2  BZF d   1       2.001   0.280  -0.048  0.00  0.00     0.174 A 
ATOM      3  C3  BZF d   1       1.182   1.035  -0.808  0.00  0.00    -0.012 A 
ATOM      4  C3A BZF d   1      -0.109   0.428  -0.688  0.00  0.00    -0.107 A 
ATOM      5  C4  BZF d   1      -1.339   0.729  -1.200  0.00  0.00     0.055 A 
ATOM      6  C5  BZF d   1      -2.380  -0.107  -0.949  0.00  0.00    -0.016 A 
ATOM      7  C6  BZF d   1      -2.227  -1.253  -0.197  0.00  0.00     0.022 A 
ATOM      8  C7  BZF d   1      -1.028  -1.590   0.336  0.00  0.00     0.029 A 
ATOM      9  C7A BZF d   1       0.020  -0.730   0.112  0.00  0.00     0.058 A 
ENDROOT
TORSDOF 0
ENDMDL
