MODEL 1
REMARK minimizedAffinity -4.87807035
REMARK minimizedRMSD -1
REMARK  0 active torsions:
REMARK  status: ('A' for Active; 'I' for Inactive)
ROOT
ATOM      1  O1  BZF d   1       0.761  -1.067   0.821  0.00  0.00    -0.204 OA
ATOM      2  C2  BZF d   1       1.145  -0.001   0.030  0.00  0.00     0.174 A 
ATOM      3  C3  BZF d   1       0.222   0.243  -0.922  0.00  0.00    -0.012 A 
ATOM      4  C3A BZF d   1      -0.846  -0.672  -0.656  0.00  0.00    -0.107 A 
ATOM      5  C4  BZF d   1      -2.054  -0.903  -1.249  0.00  0.00     0.055 A 
ATOM      6  C5  BZF d   1      -2.831  -1.918  -0.790  0.00  0.00    -0.016 A 
ATOM      7  C6  BZF d   1      -2.430  -2.725   0.254  0.00  0.00     0.022 A 
ATOM      8  C7  BZF d   1      -1.242  -2.531   0.878  0.00  0.00     0.029 A 
ATOM      9  C7A BZF d   1      -0.469  -1.485   0.438  0.00  0.00     0.058 A 
ENDROOT
TORSDOF 0
ENDMDL
