MODEL 1
REMARK minimizedAffinity -1.6193012
REMARK minimizedRMSD -1
REMARK  0 active torsions:
REMARK  status: ('A' for Active; 'I' for Inactive)
ROOT
ATOM      1  O1  BZF d   1      -0.779  -2.147   1.210  0.00  0.00    -0.204 OA
ATOM      2  C2  BZF d   1      -1.736  -3.136   1.091  0.00  0.00     0.174 A 
ATOM      3  C3  BZF d   1      -2.562  -2.881   0.056  0.00  0.00    -0.012 A 
ATOM      4  C3A BZF d   1      -2.036  -1.703  -0.563  0.00  0.00    -0.107 A 
ATOM      5  C4  BZF d   1      -2.411  -0.967  -1.651  0.00  0.00     0.055 A 
ATOM      6  C5  BZF d   1      -1.727   0.169  -1.947  0.00  0.00    -0.016 A 
ATOM      7  C6  BZF d   1      -0.667   0.601  -1.176  0.00  0.00     0.022 A 
ATOM      8  C7  BZF d   1      -0.255  -0.099  -0.091  0.00  0.00     0.029 A 
ATOM      9  C7A BZF d   1      -0.924  -1.265   0.192  0.00  0.00     0.058 A 
ENDROOT
TORSDOF 0
ENDMDL
