MODEL 1
REMARK minimizedAffinity -2.80953908
REMARK minimizedRMSD -1
REMARK  0 active torsions:
REMARK  status: ('A' for Active; 'I' for Inactive)
ROOT
ATOM      1  O1  BZF d   1       0.859  -0.495   0.644  0.00  0.00    -0.204 OA
ATOM      2  C2  BZF d   1       0.390  -0.473  -0.655  0.00  0.00     0.174 A 
ATOM      3  C3  BZF d   1       0.489   0.766  -1.178  0.00  0.00    -0.012 A 
ATOM      4  C3A BZF d   1       1.140   1.548  -0.172  0.00  0.00    -0.107 A 
ATOM      5  C4  BZF d   1       1.532   2.855  -0.106  0.00  0.00     0.055 A 
ATOM      6  C5  BZF d   1       2.075   3.324   1.048  0.00  0.00    -0.016 A 
ATOM      7  C6  BZF d   1       2.236   2.517   2.155  0.00  0.00     0.022 A 
ATOM      8  C7  BZF d   1       1.866   1.213   2.136  0.00  0.00     0.029 A 
ATOM      9  C7A BZF d   1       1.347   0.728   0.961  0.00  0.00     0.058 A 
ENDROOT
TORSDOF 0
ENDMDL
