MODEL 1
REMARK minimizedAffinity -3.80590677
REMARK minimizedRMSD -1
REMARK  0 active torsions:
REMARK  status: ('A' for Active; 'I' for Inactive)
ROOT
ATOM      1  O1  BZF d   1       1.510   2.186   2.865  0.00  0.00    -0.204 OA
ATOM      2  C2  BZF d   1       2.152   3.139   2.098  0.00  0.00     0.174 A 
ATOM      3  C3  BZF d   1       2.299   2.710   0.828  0.00  0.00    -0.012 A 
ATOM      4  C3A BZF d   1       1.631   1.445   0.778  0.00  0.00    -0.107 A 
ATOM      5  C4  BZF d   1       1.418   0.535  -0.218  0.00  0.00     0.055 A 
ATOM      6  C5  BZF d   1       0.792  -0.634   0.080  0.00  0.00    -0.016 A 
ATOM      7  C6  BZF d   1       0.370  -0.927   1.360  0.00  0.00     0.022 A 
ATOM      8  C7  BZF d   1       0.554  -0.052   2.379  0.00  0.00     0.029 A 
ATOM      9  C7A BZF d   1       1.157   1.144   2.075  0.00  0.00     0.058 A 
ENDROOT
TORSDOF 0
ENDMDL
