MODEL 1
REMARK minimizedAffinity 10.5884705
REMARK minimizedRMSD -1
REMARK  1 active torsions:
REMARK  status: ('A' for Active; 'I' for Inactive)
REMARK    1  A    between atoms: C1_2  and  C2_3 
ROOT
ATOM      1  C2  UNL d   1      -2.379  -0.003   1.270  0.00  0.00    -0.081 A 
ATOM      2  C3  UNL d   1      -2.152   1.045   0.369  0.00  0.00     0.006 A 
ATOM      3  C4  UNL d   1      -1.147   0.944  -0.596  0.00  0.00     0.002 A 
ATOM      4  C5  UNL d   1      -0.358  -0.208  -0.681  0.00  0.00    -0.080 A 
ATOM      5  C6  UNL d   1       0.703  -0.342  -1.732  0.00  0.00     0.076 C 
ATOM      6  C7  UNL d   1      -0.573  -1.248   0.230  0.00  0.00     0.002 A 
ATOM      7  C8  UNL d   1      -1.577  -1.147   1.196  0.00  0.00     0.006 A 
ENDROOT
BRANCH   1   8
ATOM      8  C1  UNL d   1      -3.504   0.077   2.270  0.00  0.00     0.054 C 
ATOM      9  C   UNL d   1      -4.550   1.097   1.846  0.00  0.00     0.018 C 
ENDBRANCH   1   8
TORSDOF 1
ENDMDL
