MODEL 1
REMARK minimizedAffinity 2.84834814
REMARK minimizedRMSD -1
REMARK  1 active torsions:
REMARK  status: ('A' for Active; 'I' for Inactive)
REMARK    1  A    between atoms: C1_2  and  C2_3 
ROOT
ATOM      1  C2  UNL d   1      -1.373  -1.344  -0.412  0.00  0.00    -0.081 A 
ATOM      2  C3  UNL d   1      -1.383  -0.152   0.323  0.00  0.00     0.006 A 
ATOM      3  C4  UNL d   1      -1.866  -0.132   1.633  0.00  0.00     0.002 A 
ATOM      4  C5  UNL d   1      -2.339  -1.304   2.233  0.00  0.00    -0.080 A 
ATOM      5  C6  UNL d   1      -2.831  -1.303   3.650  0.00  0.00     0.076 C 
ATOM      6  C7  UNL d   1      -2.345  -2.491   1.493  0.00  0.00     0.002 A 
ATOM      7  C8  UNL d   1      -1.863  -2.511   0.183  0.00  0.00     0.006 A 
ENDROOT
BRANCH   1   8
ATOM      8  C1  UNL d   1      -0.794  -1.381  -1.803  0.00  0.00     0.054 C 
ATOM      9  C   UNL d   1       0.053  -0.148  -2.084  0.00  0.00     0.018 C 
ENDBRANCH   1   8
TORSDOF 1
ENDMDL
