MODEL 1
REMARK minimizedAffinity -3.47593188
REMARK minimizedRMSD -1
REMARK  1 active torsions:
REMARK  status: ('A' for Active; 'I' for Inactive)
REMARK    1  A    between atoms: C1_2  and  C2_3 
ROOT
ATOM      1  C2  UNL d   1       0.089   1.224  -0.263  0.00  0.00    -0.081 A 
ATOM      2  C3  UNL d   1      -0.362   0.787   0.988  0.00  0.00     0.006 A 
ATOM      3  C4  UNL d   1      -0.782  -0.533   1.167  0.00  0.00     0.002 A 
ATOM      4  C5  UNL d   1      -0.750  -1.439   0.101  0.00  0.00    -0.080 A 
ATOM      5  C6  UNL d   1      -1.169  -2.867   0.288  0.00  0.00     0.076 C 
ATOM      6  C7  UNL d   1      -0.315  -0.998  -1.153  0.00  0.00     0.002 A 
ATOM      7  C8  UNL d   1       0.104   0.322  -1.333  0.00  0.00     0.006 A 
ENDROOT
BRANCH   1   8
ATOM      8  C1  UNL d   1       0.604   2.630  -0.444  0.00  0.00     0.054 C 
ATOM      9  C   UNL d   1       0.106   3.548   0.664  0.00  0.00     0.018 C 
ENDBRANCH   1   8
TORSDOF 1
ENDMDL
