MODEL 1
REMARK minimizedAffinity -1.61522651
REMARK minimizedRMSD -1
REMARK  1 active torsions:
REMARK  status: ('A' for Active; 'I' for Inactive)
REMARK    1  A    between atoms: C1_2  and  C2_3 
ROOT
ATOM      1  C2  UNL d   1       0.455   1.042   0.426  0.00  0.00    -0.081 A 
ATOM      2  C3  UNL d   1       0.885   0.307   1.537  0.00  0.00     0.006 A 
ATOM      3  C4  UNL d   1       0.765  -1.085   1.555  0.00  0.00     0.002 A 
ATOM      4  C5  UNL d   1       0.222  -1.764   0.459  0.00  0.00    -0.080 A 
ATOM      5  C6  UNL d   1       0.116  -3.260   0.453  0.00  0.00     0.076 C 
ATOM      6  C7  UNL d   1      -0.223  -1.028  -0.644  0.00  0.00     0.002 A 
ATOM      7  C8  UNL d   1      -0.105   0.363  -0.662  0.00  0.00     0.006 A 
ENDROOT
BRANCH   1   8
ATOM      8  C1  UNL d   1       0.642   2.537   0.377  0.00  0.00     0.054 C 
ATOM      9  C   UNL d   1       2.003   2.943   0.924  0.00  0.00     0.018 C 
ENDBRANCH   1   8
TORSDOF 1
ENDMDL
