MODEL 1
REMARK minimizedAffinity -0.174324483
REMARK minimizedRMSD -1
REMARK  1 active torsions:
REMARK  status: ('A' for Active; 'I' for Inactive)
REMARK    1  A    between atoms: C1_2  and  C2_3 
ROOT
ATOM      1  C2  UNL d   1      -0.242   0.748  -0.239  0.00  0.00    -0.081 A 
ATOM      2  C3  UNL d   1      -0.976   0.174   0.805  0.00  0.00     0.006 A 
ATOM      3  C4  UNL d   1      -0.815  -1.176   1.125  0.00  0.00     0.002 A 
ATOM      4  C5  UNL d   1       0.088  -1.972   0.412  0.00  0.00    -0.080 A 
ATOM      5  C6  UNL d   1       0.292  -3.415   0.765  0.00  0.00     0.076 C 
ATOM      6  C7  UNL d   1       0.809  -1.402  -0.643  0.00  0.00     0.002 A 
ATOM      7  C8  UNL d   1       0.648  -0.052  -0.964  0.00  0.00     0.006 A 
ENDROOT
BRANCH   1   8
ATOM      8  C1  UNL d   1      -0.366   2.219  -0.544  0.00  0.00     0.054 C 
ATOM      9  C   UNL d   1       0.372   3.062   0.486  0.00  0.00     0.018 C 
ENDBRANCH   1   8
TORSDOF 1
ENDMDL
