MODEL 1
REMARK minimizedAffinity -4.41573668
REMARK minimizedRMSD -1
REMARK  1 active torsions:
REMARK  status: ('A' for Active; 'I' for Inactive)
REMARK    1  A    between atoms: C1_2  and  C2_3 
ROOT
ATOM      1  C2  UNL d   1       0.181  -1.502  -0.343  0.00  0.00    -0.081 A 
ATOM      2  C3  UNL d   1      -0.862  -2.333   0.081  0.00  0.00     0.006 A 
ATOM      3  C4  UNL d   1      -1.732  -1.918   1.093  0.00  0.00     0.002 A 
ATOM      4  C5  UNL d   1      -1.577  -0.663   1.691  0.00  0.00    -0.080 A 
ATOM      5  C6  UNL d   1      -2.521  -0.193   2.757  0.00  0.00     0.076 C 
ATOM      6  C7  UNL d   1      -0.524   0.160   1.280  0.00  0.00     0.002 A 
ATOM      7  C8  UNL d   1       0.346  -0.254   0.268  0.00  0.00     0.006 A 
ENDROOT
BRANCH   1   8
ATOM      8  C1  UNL d   1       1.081  -1.919  -1.478  0.00  0.00     0.054 C 
ATOM      9  C   UNL d   1       0.651  -1.277  -2.790  0.00  0.00     0.018 C 
ENDBRANCH   1   8
TORSDOF 1
ENDMDL
