MODEL 1
REMARK minimizedAffinity -4.54321814
REMARK minimizedRMSD -1
REMARK  1 active torsions:
REMARK  status: ('A' for Active; 'I' for Inactive)
REMARK    1  A    between atoms: C1_2  and  C2_3 
ROOT
ATOM      1  C2  UNL d   1      -0.147   0.910   0.026  0.00  0.00    -0.081 A 
ATOM      2  C3  UNL d   1      -1.151   0.406   0.862  0.00  0.00     0.006 A 
ATOM      3  C4  UNL d   1      -1.475  -0.952   0.840  0.00  0.00     0.002 A 
ATOM      4  C5  UNL d   1      -0.797  -1.830  -0.012  0.00  0.00    -0.080 A 
ATOM      5  C6  UNL d   1      -1.114  -3.296  -0.024  0.00  0.00     0.076 C 
ATOM      6  C7  UNL d   1       0.194  -1.323  -0.860  0.00  0.00     0.002 A 
ATOM      7  C8  UNL d   1       0.518   0.035  -0.839  0.00  0.00     0.006 A 
ENDROOT
BRANCH   1   8
ATOM      8  C1  UNL d   1       0.249   2.363   0.095  0.00  0.00     0.054 C 
ATOM      9  C   UNL d   1       0.007   2.938   1.483  0.00  0.00     0.018 C 
ENDBRANCH   1   8
TORSDOF 1
ENDMDL
