MODEL 1
REMARK minimizedAffinity -5.28168917
REMARK minimizedRMSD -1
REMARK  1 active torsions:
REMARK  status: ('A' for Active; 'I' for Inactive)
REMARK    1  A    between atoms: C1_2  and  C2_3 
ROOT
ATOM      1  C2  UNL d   1      -0.504  -1.179   0.209  0.00  0.00    -0.081 A 
ATOM      2  C3  UNL d   1      -0.401  -0.825  -1.142  0.00  0.00     0.006 A 
ATOM      3  C4  UNL d   1      -0.131   0.495  -1.510  0.00  0.00     0.002 A 
ATOM      4  C5  UNL d   1       0.049   1.481  -0.534  0.00  0.00    -0.080 A 
ATOM      5  C6  UNL d   1       0.370   2.896  -0.915  0.00  0.00     0.076 C 
ATOM      6  C7  UNL d   1      -0.071   1.131   0.815  0.00  0.00     0.002 A 
ATOM      7  C8  UNL d   1      -0.342  -0.188   1.184  0.00  0.00     0.006 A 
ENDROOT
BRANCH   1   8
ATOM      8  C1  UNL d   1      -0.731  -2.614   0.610  0.00  0.00     0.054 C 
ATOM      9  C   UNL d   1       0.584  -3.368   0.737  0.00  0.00     0.018 C 
ENDBRANCH   1   8
TORSDOF 1
ENDMDL
