MODEL 1
REMARK minimizedAffinity -3.36728144
REMARK minimizedRMSD -1
REMARK  1 active torsions:
REMARK  status: ('A' for Active; 'I' for Inactive)
REMARK    1  A    between atoms: C1_2  and  C2_3 
ROOT
ATOM      1  C2  UNL d   1       1.190   0.870  -0.049  0.00  0.00    -0.081 A 
ATOM      2  C3  UNL d   1      -0.179   1.143   0.054  0.00  0.00     0.006 A 
ATOM      3  C4  UNL d   1      -1.090   0.113   0.304  0.00  0.00     0.002 A 
ATOM      4  C5  UNL d   1      -0.645  -1.204   0.463  0.00  0.00    -0.080 A 
ATOM      5  C6  UNL d   1      -1.609  -2.314   0.761  0.00  0.00     0.076 C 
ATOM      6  C7  UNL d   1       0.721  -1.479   0.343  0.00  0.00     0.002 A 
ATOM      7  C8  UNL d   1       1.632  -0.450   0.092  0.00  0.00     0.006 A 
ENDROOT
BRANCH   1   8
ATOM      8  C1  UNL d   1       2.181   1.988  -0.253  0.00  0.00     0.054 C 
ATOM      9  C   UNL d   1       1.892   3.160   0.674  0.00  0.00     0.018 C 
ENDBRANCH   1   8
TORSDOF 1
ENDMDL
