MODEL 1
REMARK minimizedAffinity -4.66801882
REMARK minimizedRMSD -1
REMARK  1 active torsions:
REMARK  status: ('A' for Active; 'I' for Inactive)
REMARK    1  A    between atoms: C1_2  and  C2_3 
ROOT
ATOM      1  C2  UNL d   1      -0.912  -1.956   0.984  0.00  0.00    -0.081 A 
ATOM      2  C3  UNL d   1      -0.390  -0.779   0.434  0.00  0.00     0.006 A 
ATOM      3  C4  UNL d   1       0.183  -0.786  -0.840  0.00  0.00     0.002 A 
ATOM      4  C5  UNL d   1       0.236  -1.967  -1.588  0.00  0.00    -0.080 A 
ATOM      5  C6  UNL d   1       0.820  -1.981  -2.970  0.00  0.00     0.076 C 
ATOM      6  C7  UNL d   1      -0.270  -3.146  -1.032  0.00  0.00     0.002 A 
ATOM      7  C8  UNL d   1      -0.842  -3.140   0.242  0.00  0.00     0.006 A 
ENDROOT
BRANCH   1   8
ATOM      8  C1  UNL d   1      -1.588  -1.939   2.331  0.00  0.00     0.054 C 
ATOM      9  C   UNL d   1      -2.312  -0.621   2.569  0.00  0.00     0.018 C 
ENDBRANCH   1   8
TORSDOF 1
ENDMDL
