MODEL 1
REMARK minimizedAffinity -4.79610872
REMARK minimizedRMSD -1
REMARK  2 active torsions:
REMARK  status: ('A' for Active; 'I' for Inactive)
REMARK    1  A    between atoms: C2'_3  and  C1'_4 
REMARK    2  A    between atoms: C1'_4  and  C1_5 
ROOT
ATOM      1  C1  I4B d   1       0.699  -0.451   0.169  0.00  0.00    -0.075 A 
ATOM      2  C2  I4B d   1       1.393  -1.632   0.269  0.00  0.00     0.003 A 
ATOM      3  C3  I4B d   1       2.794  -1.620   0.470  0.00  0.00     0.002 A 
ATOM      4  C4  I4B d   1       3.465  -0.415   0.514  0.00  0.00    -0.004 A 
ATOM      5  C5  I4B d   1       2.757   0.781   0.435  0.00  0.00     0.002 A 
ATOM      6  C6  I4B d   1       1.364   0.763   0.274  0.00  0.00     0.003 A 
ENDROOT
BRANCH   1   7
ATOM      7  C1' I4B d   1      -0.775  -0.500  -0.076  0.00  0.00     0.060 C 
BRANCH   7   8
ATOM      8  C2' I4B d   1      -1.363   0.832   0.344  0.00  0.00    -0.013 C 
ATOM      9  C4' I4B d   1      -1.052   1.906  -0.665  0.00  0.00     0.013 C 
ATOM     10  C3' I4B d   1      -2.843   0.655   0.507  0.00  0.00     0.013 C 
ENDBRANCH   7   8
ENDBRANCH   1   7
TORSDOF 2
ENDMDL
