MODEL 1
REMARK minimizedAffinity -4.4419055
REMARK minimizedRMSD -1
REMARK  2 active torsions:
REMARK  status: ('A' for Active; 'I' for Inactive)
REMARK    1  A    between atoms: C2'_3  and  C1'_4 
REMARK    2  A    between atoms: C1'_4  and  C1_5 
ROOT
ATOM      1  C1  I4B d   1      -0.322   0.467   0.371  0.00  0.00    -0.075 A 
ATOM      2  C2  I4B d   1      -0.978   0.610   1.569  0.00  0.00     0.003 A 
ATOM      3  C3  I4B d   1      -2.322   1.055   1.597  0.00  0.00     0.002 A 
ATOM      4  C4  I4B d   1      -2.951   1.392   0.416  0.00  0.00    -0.004 A 
ATOM      5  C5  I4B d   1      -2.292   1.224  -0.799  0.00  0.00     0.002 A 
ATOM      6  C6  I4B d   1      -0.974   0.747  -0.823  0.00  0.00     0.003 A 
ENDROOT
BRANCH   1   7
ATOM      7  C1' I4B d   1       1.107   0.026   0.380  0.00  0.00     0.060 C 
BRANCH   7   8
ATOM      8  C2' I4B d   1       1.148  -1.417   0.839  0.00  0.00    -0.013 C 
ATOM      9  C4' I4B d   1       0.333  -2.301  -0.068  0.00  0.00     0.013 C 
ATOM     10  C3' I4B d   1       2.583  -1.852   0.873  0.00  0.00     0.013 C 
ENDBRANCH   7   8
ENDBRANCH   1   7
TORSDOF 2
ENDMDL
