MODEL 1
REMARK minimizedAffinity -4.81995296
REMARK minimizedRMSD -1
REMARK  2 active torsions:
REMARK  status: ('A' for Active; 'I' for Inactive)
REMARK    1  A    between atoms: C2'_3  and  C1'_4 
REMARK    2  A    between atoms: C1'_4  and  C1_5 
ROOT
ATOM      1  C1  I4B d   1       0.011   0.266  -0.155  0.00  0.00    -0.075 A 
ATOM      2  C2  I4B d   1       1.285   0.665   0.167  0.00  0.00     0.003 A 
ATOM      3  C3  I4B d   1       2.339  -0.279   0.204  0.00  0.00     0.002 A 
ATOM      4  C4  I4B d   1       2.068  -1.611  -0.035  0.00  0.00    -0.004 A 
ATOM      5  C5  I4B d   1       0.781  -2.010  -0.383  0.00  0.00     0.002 A 
ATOM      6  C6  I4B d   1      -0.252  -1.064  -0.456  0.00  0.00     0.003 A 
ENDROOT
BRANCH   1   7
ATOM      7  C1' I4B d   1      -1.085   1.283  -0.153  0.00  0.00     0.060 C 
BRANCH   7   8
ATOM      8  C2' I4B d   1      -2.161   0.809   0.803  0.00  0.00    -0.013 C 
ATOM      9  C4' I4B d   1      -2.344   1.778   1.941  0.00  0.00     0.013 C 
ATOM     10  C3' I4B d   1      -3.431   0.642   0.024  0.00  0.00     0.013 C 
ENDBRANCH   7   8
ENDBRANCH   1   7
TORSDOF 2
ENDMDL
