MODEL 1
REMARK minimizedAffinity -5.84667873
REMARK minimizedRMSD -1
REMARK  2 active torsions:
REMARK  status: ('A' for Active; 'I' for Inactive)
REMARK    1  A    between atoms: C2'_3  and  C1'_4 
REMARK    2  A    between atoms: C1'_4  and  C1_5 
ROOT
ATOM      1  C1  I4B d   1      -0.126  -0.988  -0.357  0.00  0.00    -0.075 A 
ATOM      2  C2  I4B d   1       1.158  -1.060  -0.839  0.00  0.00     0.003 A 
ATOM      3  C3  I4B d   1       2.244  -1.242   0.051  0.00  0.00     0.002 A 
ATOM      4  C4  I4B d   1       2.008  -1.296   1.410  0.00  0.00    -0.004 A 
ATOM      5  C5  I4B d   1       0.704  -1.246   1.895  0.00  0.00     0.002 A 
ATOM      6  C6  I4B d   1      -0.371  -1.104   1.005  0.00  0.00     0.003 A 
ENDROOT
BRANCH   1   7
ATOM      7  C1' I4B d   1      -1.246  -0.763  -1.322  0.00  0.00     0.060 C 
BRANCH   7   8
ATOM      8  C2' I4B d   1      -1.636   0.699  -1.251  0.00  0.00    -0.013 C 
ATOM      9  C4' I4B d   1      -2.469   0.983  -0.029  0.00  0.00     0.013 C 
ATOM     10  C3' I4B d   1      -0.377   1.515  -1.250  0.00  0.00     0.013 C 
ENDBRANCH   7   8
ENDBRANCH   1   7
TORSDOF 2
ENDMDL
