MODEL 1
REMARK minimizedAffinity 14.4062939
REMARK minimizedRMSD -1
REMARK  2 active torsions:
REMARK  status: ('A' for Active; 'I' for Inactive)
REMARK    1  A    between atoms: C2'_3  and  C1'_4 
REMARK    2  A    between atoms: C1'_4  and  C1_5 
ROOT
ATOM      1  C1  I4B d   1       1.961  -1.568  -2.484  0.00  0.00    -0.075 A 
ATOM      2  C2  I4B d   1       2.304  -2.612  -1.662  0.00  0.00     0.003 A 
ATOM      3  C3  I4B d   1       2.796  -2.361  -0.358  0.00  0.00     0.002 A 
ATOM      4  C4  I4B d   1       2.975  -1.059   0.062  0.00  0.00    -0.004 A 
ATOM      5  C5  I4B d   1       2.605  -0.002  -0.765  0.00  0.00     0.002 A 
ATOM      6  C6  I4B d   1       2.083  -0.258  -2.041  0.00  0.00     0.003 A 
ENDROOT
BRANCH   1   7
ATOM      7  C1' I4B d   1       1.476  -1.869  -3.867  0.00  0.00     0.060 C 
BRANCH   7   8
ATOM      8  C2' I4B d   1       2.538  -1.410  -4.844  0.00  0.00    -0.013 C 
ATOM      9  C4' I4B d   1       3.388  -2.564  -5.307  0.00  0.00     0.013 C 
ATOM     10  C3' I4B d   1       1.850  -0.748  -6.000  0.00  0.00     0.013 C 
ENDBRANCH   7   8
ENDBRANCH   1   7
TORSDOF 2
ENDMDL
