MODEL 1
REMARK minimizedAffinity 7.99521446
REMARK minimizedRMSD -1
REMARK  2 active torsions:
REMARK  status: ('A' for Active; 'I' for Inactive)
REMARK    1  A    between atoms: C2'_3  and  C1'_4 
REMARK    2  A    between atoms: C1'_4  and  C1_5 
ROOT
ATOM      1  C1  I4B d   1       2.991  -3.005  -1.334  0.00  0.00    -0.075 A 
ATOM      2  C2  I4B d   1       2.908  -1.845  -0.605  0.00  0.00     0.003 A 
ATOM      3  C3  I4B d   1       1.938  -0.866  -0.930  0.00  0.00     0.002 A 
ATOM      4  C4  I4B d   1       1.110  -1.065  -2.016  0.00  0.00    -0.004 A 
ATOM      5  C5  I4B d   1       1.180  -2.251  -2.740  0.00  0.00     0.002 A 
ATOM      6  C6  I4B d   1       2.118  -3.233  -2.389  0.00  0.00     0.003 A 
ENDROOT
BRANCH   1   7
ATOM      7  C1' I4B d   1       4.049  -4.002  -0.983  0.00  0.00     0.060 C 
BRANCH   7   8
ATOM      8  C2' I4B d   1       4.389  -4.782  -2.237  0.00  0.00    -0.013 C 
ATOM      9  C4' I4B d   1       5.847  -5.159  -2.265  0.00  0.00     0.013 C 
ATOM     10  C3' I4B d   1       3.514  -5.998  -2.278  0.00  0.00     0.013 C 
ENDBRANCH   7   8
ENDBRANCH   1   7
TORSDOF 2
ENDMDL
