MODEL 1
REMARK minimizedAffinity 12.3705368
REMARK minimizedRMSD -1
REMARK  2 active torsions:
REMARK  status: ('A' for Active; 'I' for Inactive)
REMARK    1  A    between atoms: C2'_3  and  C1'_4 
REMARK    2  A    between atoms: C1'_4  and  C1_5 
ROOT
ATOM      1  C1  I4B d   1       2.062  -2.542  -2.944  0.00  0.00    -0.075 A 
ATOM      2  C2  I4B d   1       2.698  -3.389  -2.070  0.00  0.00     0.003 A 
ATOM      3  C3  I4B d   1       2.914  -2.996  -0.727  0.00  0.00     0.002 A 
ATOM      4  C4  I4B d   1       2.526  -1.737  -0.316  0.00  0.00    -0.004 A 
ATOM      5  C5  I4B d   1       1.860  -0.889  -1.197  0.00  0.00     0.002 A 
ATOM      6  C6  I4B d   1       1.616  -1.299  -2.516  0.00  0.00     0.003 A 
ENDROOT
BRANCH   1   7
ATOM      7  C1' I4B d   1       1.880  -2.976  -4.364  0.00  0.00     0.060 C 
BRANCH   7   8
ATOM      8  C2' I4B d   1       3.095  -2.527  -5.149  0.00  0.00    -0.013 C 
ATOM      9  C4' I4B d   1       3.646  -3.648  -5.990  0.00  0.00     0.013 C 
ATOM     10  C3' I4B d   1       2.691  -1.360  -6.000  0.00  0.00     0.013 C 
ENDBRANCH   7   8
ENDBRANCH   1   7
TORSDOF 2
ENDMDL
