MODEL 1
REMARK minimizedAffinity 15.136898
REMARK minimizedRMSD -1
REMARK  2 active torsions:
REMARK  status: ('A' for Active; 'I' for Inactive)
REMARK    1  A    between atoms: C2'_3  and  C1'_4 
REMARK    2  A    between atoms: C1'_4  and  C1_5 
ROOT
ATOM      1  C1  I4B d   1       0.860  -2.166  -1.402  0.00  0.00    -0.075 A 
ATOM      2  C2  I4B d   1       1.523  -3.291  -0.977  0.00  0.00     0.003 A 
ATOM      3  C3  I4B d   1       2.886  -3.216  -0.602  0.00  0.00     0.002 A 
ATOM      4  C4  I4B d   1       3.557  -2.016  -0.714  0.00  0.00    -0.004 A 
ATOM      5  C5  I4B d   1       2.878  -0.872  -1.123  0.00  0.00     0.002 A 
ATOM      6  C6  I4B d   1       1.518  -0.944  -1.457  0.00  0.00     0.003 A 
ENDROOT
BRANCH   1   7
ATOM      7  C1' I4B d   1      -0.570  -2.288  -1.823  0.00  0.00     0.060 C 
BRANCH   7   8
ATOM      8  C2' I4B d   1      -0.852  -3.750  -2.103  0.00  0.00    -0.013 C 
ATOM      9  C4' I4B d   1      -2.332  -4.026  -2.120  0.00  0.00     0.013 C 
ATOM     10  C3' I4B d   1      -0.220  -4.099  -3.417  0.00  0.00     0.013 C 
ENDBRANCH   7   8
ENDBRANCH   1   7
TORSDOF 2
ENDMDL
