MODEL 1
REMARK minimizedAffinity 7.5166111
REMARK minimizedRMSD -1
REMARK  2 active torsions:
REMARK  status: ('A' for Active; 'I' for Inactive)
REMARK    1  A    between atoms: C2'_3  and  C1'_4 
REMARK    2  A    between atoms: C1'_4  and  C1_5 
ROOT
ATOM      1  C1  I4B d   1       1.942  -1.576  -1.293  0.00  0.00    -0.075 A 
ATOM      2  C2  I4B d   1       2.658  -0.882  -0.349  0.00  0.00     0.003 A 
ATOM      3  C3  I4B d   1       2.947   0.491  -0.541  0.00  0.00     0.002 A 
ATOM      4  C4  I4B d   1       2.548   1.113  -1.706  0.00  0.00    -0.004 A 
ATOM      5  C5  I4B d   1       1.803   0.414  -2.651  0.00  0.00     0.002 A 
ATOM      6  C6  I4B d   1       1.487  -0.936  -2.438  0.00  0.00     0.003 A 
ENDROOT
BRANCH   1   7
ATOM      7  C1' I4B d   1       1.683  -3.032  -1.073  0.00  0.00     0.060 C 
BRANCH   7   8
ATOM      8  C2' I4B d   1       2.701  -3.542  -0.073  0.00  0.00    -0.013 C 
ATOM      9  C4' I4B d   1       2.579  -5.031   0.117  0.00  0.00     0.013 C 
ATOM     10  C3' I4B d   1       4.066  -3.170  -0.571  0.00  0.00     0.013 C 
ENDBRANCH   7   8
ENDBRANCH   1   7
TORSDOF 2
ENDMDL
