MODEL 1
REMARK minimizedAffinity 8.60424995
REMARK minimizedRMSD -1
REMARK  2 active torsions:
REMARK  status: ('A' for Active; 'I' for Inactive)
REMARK    1  A    between atoms: C2'_3  and  C1'_4 
REMARK    2  A    between atoms: C1'_4  and  C1_5 
ROOT
ATOM      1  C1  I4B d   1       2.410  -1.382  -1.474  0.00  0.00    -0.075 A 
ATOM      2  C2  I4B d   1       3.450  -2.272  -1.373  0.00  0.00     0.003 A 
ATOM      3  C3  I4B d   1       3.195  -3.636  -1.090  0.00  0.00     0.002 A 
ATOM      4  C4  I4B d   1       1.899  -4.054  -0.868  0.00  0.00    -0.004 A 
ATOM      5  C5  I4B d   1       0.844  -3.155  -0.994  0.00  0.00     0.002 A 
ATOM      6  C6  I4B d   1       1.099  -1.813  -1.311  0.00  0.00     0.003 A 
ENDROOT
BRANCH   1   7
ATOM      7  C1' I4B d   1       2.716   0.058  -1.741  0.00  0.00     0.060 C 
BRANCH   7   8
ATOM      8  C2' I4B d   1       3.823   0.482  -0.797  0.00  0.00    -0.013 C 
ATOM      9  C4' I4B d   1       4.867   1.298  -1.513  0.00  0.00     0.013 C 
ATOM     10  C3' I4B d   1       3.202   1.261   0.324  0.00  0.00     0.013 C 
ENDBRANCH   7   8
ENDBRANCH   1   7
TORSDOF 2
ENDMDL
