MODEL 1
REMARK minimizedAffinity 11.3506546
REMARK minimizedRMSD -1
REMARK  2 active torsions:
REMARK  status: ('A' for Active; 'I' for Inactive)
REMARK    1  A    between atoms: C2'_3  and  C1'_4 
REMARK    2  A    between atoms: C1'_4  and  C1_5 
ROOT
ATOM      1  C1  I4B d   1       1.185   1.929  -1.732  0.00  0.00    -0.075 A 
ATOM      2  C2  I4B d   1       2.292   1.718  -0.948  0.00  0.00     0.003 A 
ATOM      3  C3  I4B d   1       3.060   0.539  -1.101  0.00  0.00     0.002 A 
ATOM      4  C4  I4B d   1       2.660  -0.420  -2.009  0.00  0.00    -0.004 A 
ATOM      5  C5  I4B d   1       1.551  -0.194  -2.820  0.00  0.00     0.002 A 
ATOM      6  C6  I4B d   1       0.816   0.993  -2.689  0.00  0.00     0.003 A 
ENDROOT
BRANCH   1   7
ATOM      7  C1' I4B d   1       0.378   3.170  -1.521  0.00  0.00     0.060 C 
BRANCH   7   8
ATOM      8  C2' I4B d   1       1.322   4.273  -1.085  0.00  0.00    -0.013 C 
ATOM      9  C4' I4B d   1       1.162   5.498  -1.946  0.00  0.00     0.013 C 
ATOM     10  C3' I4B d   1       1.040   4.581   0.355  0.00  0.00     0.013 C 
ENDBRANCH   7   8
ENDBRANCH   1   7
TORSDOF 2
ENDMDL
