MODEL 1
REMARK minimizedAffinity 11.6437511
REMARK minimizedRMSD -1
REMARK  2 active torsions:
REMARK  status: ('A' for Active; 'I' for Inactive)
REMARK    1  A    between atoms: C2'_3  and  C1'_4 
REMARK    2  A    between atoms: C1'_4  and  C1_5 
ROOT
ATOM      1  C1  I4B d   1      -3.230   1.642   3.676  0.00  0.00    -0.075 A 
ATOM      2  C2  I4B d   1      -2.496   1.599   4.835  0.00  0.00     0.003 A 
ATOM      3  C3  I4B d   1      -2.964   2.254   5.999  0.00  0.00     0.002 A 
ATOM      4  C4  I4B d   1      -4.137   2.978   5.947  0.00  0.00    -0.004 A 
ATOM      5  C5  I4B d   1      -4.892   3.002   4.778  0.00  0.00     0.002 A 
ATOM      6  C6  I4B d   1      -4.442   2.319   3.638  0.00  0.00     0.003 A 
ENDROOT
BRANCH   1   7
ATOM      7  C1' I4B d   1      -2.690   0.967   2.455  0.00  0.00     0.060 C 
BRANCH   7   8
ATOM      8  C2' I4B d   1      -3.264  -0.434   2.404  0.00  0.00    -0.013 C 
ATOM      9  C4' I4B d   1      -3.271  -1.071   3.769  0.00  0.00     0.013 C 
ATOM     10  C3' I4B d   1      -4.651  -0.346   1.841  0.00  0.00     0.013 C 
ENDBRANCH   7   8
ENDBRANCH   1   7
TORSDOF 2
ENDMDL
