MODEL 1
REMARK minimizedAffinity 14.537241
REMARK minimizedRMSD -1
REMARK  2 active torsions:
REMARK  status: ('A' for Active; 'I' for Inactive)
REMARK    1  A    between atoms: C2'_3  and  C1'_4 
REMARK    2  A    between atoms: C1'_4  and  C1_5 
ROOT
ATOM      1  C1  I4B d   1       1.916   2.160  -1.871  0.00  0.00    -0.075 A 
ATOM      2  C2  I4B d   1       1.104   1.600  -2.825  0.00  0.00     0.003 A 
ATOM      3  C3  I4B d   1       1.000   0.192  -2.937  0.00  0.00     0.002 A 
ATOM      4  C4  I4B d   1       1.760  -0.612  -2.113  0.00  0.00    -0.004 A 
ATOM      5  C5  I4B d   1       2.566  -0.043  -1.130  0.00  0.00     0.002 A 
ATOM      6  C6  I4B d   1       2.635   1.351  -1.000  0.00  0.00     0.003 A 
ENDROOT
BRANCH   1   7
ATOM      7  C1' I4B d   1       2.027   3.650  -1.803  0.00  0.00     0.060 C 
BRANCH   7   8
ATOM      8  C2' I4B d   1       0.766   4.183  -1.152  0.00  0.00    -0.013 C 
ATOM      9  C4' I4B d   1       1.002   4.522   0.296  0.00  0.00     0.013 C 
ATOM     10  C3' I4B d   1       0.320   5.387  -1.925  0.00  0.00     0.013 C 
ENDBRANCH   7   8
ENDBRANCH   1   7
TORSDOF 2
ENDMDL
