MODEL 1
REMARK minimizedAffinity 13.4456129
REMARK minimizedRMSD -1
REMARK  2 active torsions:
REMARK  status: ('A' for Active; 'I' for Inactive)
REMARK    1  A    between atoms: C2'_3  and  C1'_4 
REMARK    2  A    between atoms: C1'_4  and  C1_5 
ROOT
ATOM      1  C1  I4B d   1      -3.830  -5.827  -1.869  0.00  0.00    -0.075 A 
ATOM      2  C2  I4B d   1      -2.903  -5.880  -0.858  0.00  0.00     0.003 A 
ATOM      3  C3  I4B d   1      -3.323  -5.988   0.490  0.00  0.00     0.002 A 
ATOM      4  C4  I4B d   1      -4.671  -5.988   0.784  0.00  0.00    -0.004 A 
ATOM      5  C5  I4B d   1      -5.610  -5.958  -0.244  0.00  0.00     0.002 A 
ATOM      6  C6  I4B d   1      -5.187  -5.889  -1.579  0.00  0.00     0.003 A 
ENDROOT
BRANCH   1   7
ATOM      7  C1' I4B d   1      -3.352  -5.680  -3.278  0.00  0.00     0.060 C 
BRANCH   7   8
ATOM      8  C2' I4B d   1      -2.332  -4.561  -3.311  0.00  0.00    -0.013 C 
ATOM      9  C4' I4B d   1      -0.988  -5.061  -3.771  0.00  0.00     0.013 C 
ATOM     10  C3' I4B d   1      -2.851  -3.488  -4.222  0.00  0.00     0.013 C 
ENDBRANCH   7   8
ENDBRANCH   1   7
TORSDOF 2
ENDMDL
