MODEL 1
REMARK minimizedAffinity 3.33552265
REMARK minimizedRMSD -1
REMARK  2 active torsions:
REMARK  status: ('A' for Active; 'I' for Inactive)
REMARK    1  A    between atoms: C2'_3  and  C1'_4 
REMARK    2  A    between atoms: C1'_4  and  C1_5 
ROOT
ATOM      1  C1  I4B d   1      -2.851   0.361   2.316  0.00  0.00    -0.075 A 
ATOM      2  C2  I4B d   1      -2.517   1.430   3.110  0.00  0.00     0.003 A 
ATOM      3  C3  I4B d   1      -1.158   1.769   3.315  0.00  0.00     0.002 A 
ATOM      4  C4  I4B d   1      -0.170   0.988   2.751  0.00  0.00    -0.004 A 
ATOM      5  C5  I4B d   1      -0.510  -0.082   1.928  0.00  0.00     0.002 A 
ATOM      6  C6  I4B d   1      -1.859  -0.390   1.699  0.00  0.00     0.003 A 
ENDROOT
BRANCH   1   7
ATOM      7  C1' I4B d   1      -4.295   0.011   2.148  0.00  0.00     0.060 C 
BRANCH   7   8
ATOM      8  C2' I4B d   1      -4.403  -1.499   2.068  0.00  0.00    -0.013 C 
ATOM      9  C4' I4B d   1      -3.579  -2.162   3.140  0.00  0.00     0.013 C 
ATOM     10  C3' I4B d   1      -5.852  -1.866   2.194  0.00  0.00     0.013 C 
ENDBRANCH   7   8
ENDBRANCH   1   7
TORSDOF 2
ENDMDL
