MODEL 1
REMARK minimizedAffinity 12.5885201
REMARK minimizedRMSD -1
REMARK  2 active torsions:
REMARK  status: ('A' for Active; 'I' for Inactive)
REMARK    1  A    between atoms: C2'_3  and  C1'_4 
REMARK    2  A    between atoms: C1'_4  and  C1_5 
ROOT
ATOM      1  C1  I4B d   1       0.447  -3.529  -1.277  0.00  0.00    -0.075 A 
ATOM      2  C2  I4B d   1       1.317  -4.487  -0.820  0.00  0.00     0.003 A 
ATOM      3  C3  I4B d   1       2.626  -4.127  -0.417  0.00  0.00     0.002 A 
ATOM      4  C4  I4B d   1       3.037  -2.815  -0.534  0.00  0.00    -0.004 A 
ATOM      5  C5  I4B d   1       2.146  -1.841  -0.976  0.00  0.00     0.002 A 
ATOM      6  C6  I4B d   1       0.838  -2.198  -1.338  0.00  0.00     0.003 A 
ENDROOT
BRANCH   1   7
ATOM      7  C1' I4B d   1      -0.917  -3.948  -1.725  0.00  0.00     0.060 C 
BRANCH   7   8
ATOM      8  C2' I4B d   1      -1.186  -3.303  -3.069  0.00  0.00    -0.013 C 
ATOM      9  C4' I4B d   1      -0.964  -4.277  -4.196  0.00  0.00     0.013 C 
ATOM     10  C3' I4B d   1      -2.597  -2.793  -3.064  0.00  0.00     0.013 C 
ENDBRANCH   7   8
ENDBRANCH   1   7
TORSDOF 2
ENDMDL
