MODEL 1
REMARK minimizedAffinity 3.52536678
REMARK minimizedRMSD -1
REMARK  2 active torsions:
REMARK  status: ('A' for Active; 'I' for Inactive)
REMARK    1  A    between atoms: C2'_3  and  C1'_4 
REMARK    2  A    between atoms: C1'_4  and  C1_5 
ROOT
ATOM      1  C1  I4B d   1      -0.592  -2.549  -1.519  0.00  0.00    -0.075 A 
ATOM      2  C2  I4B d   1      -0.961  -3.776  -2.011  0.00  0.00     0.003 A 
ATOM      3  C3  I4B d   1      -2.101  -3.897  -2.843  0.00  0.00     0.002 A 
ATOM      4  C4  I4B d   1      -2.866  -2.781  -3.114  0.00  0.00    -0.004 A 
ATOM      5  C5  I4B d   1      -2.477  -1.534  -2.633  0.00  0.00     0.002 A 
ATOM      6  C6  I4B d   1      -1.326  -1.415  -1.840  0.00  0.00     0.003 A 
ENDROOT
BRANCH   1   7
ATOM      7  C1' I4B d   1       0.598  -2.463  -0.616  0.00  0.00     0.060 C 
BRANCH   7   8
ATOM      8  C2' I4B d   1       1.833  -2.757  -1.443  0.00  0.00    -0.013 C 
ATOM      9  C4' I4B d   1       2.107  -1.648  -2.426  0.00  0.00     0.013 C 
ATOM     10  C3' I4B d   1       2.986  -2.944  -0.503  0.00  0.00     0.013 C 
ENDBRANCH   7   8
ENDBRANCH   1   7
TORSDOF 2
ENDMDL
