MODEL 1
REMARK minimizedAffinity -2.78288555
REMARK minimizedRMSD -1
REMARK  3 active torsions:
REMARK  status: ('A' for Active; 'I' for Inactive)
REMARK    1  A    between atoms: C3'_2  and  C2'_3 
REMARK    2  A    between atoms: C2'_3  and  C1'_4 
REMARK    3  A    between atoms: C1'_4  and  C1_5 
ROOT
ATOM      1  C1  N4B d   1       1.089  -0.520  -0.011  0.00  0.00    -0.075 A 
ATOM      2  C2  N4B d   1       2.276  -0.046   0.591  0.00  0.00     0.002 A 
ATOM      3  C3  N4B d   1       2.215   0.937   1.548  0.00  0.00     0.002 A 
ATOM      4  C4  N4B d   1       0.986   1.472   1.905  0.00  0.00    -0.004 A 
ATOM      5  C5  N4B d   1      -0.157   0.991   1.337  0.00  0.00     0.002 A 
ATOM      6  C6  N4B d   1      -0.112   0.000   0.377  0.00  0.00     0.002 A 
ENDROOT
BRANCH   1   7
ATOM      7  C1' N4B d   1       1.112  -1.532  -1.123  0.00  0.00     0.057 C 
BRANCH   7   8
ATOM      8  C2' N4B d   1       1.816  -0.929  -2.335  0.00  0.00     0.009 C 
BRANCH   8   9
ATOM      9  C3' N4B d   1       1.542  -1.719  -3.603  0.00  0.00     0.004 C 
ATOM     10  C4' N4B d   1       0.904  -0.891  -4.678  0.00  0.00     0.003 C 
ENDBRANCH   8   9
ENDBRANCH   7   8
ENDBRANCH   1   7
TORSDOF 3
ENDMDL
