MODEL 1
REMARK minimizedAffinity 2.47964358
REMARK minimizedRMSD -1
REMARK  2 active torsions:
REMARK  status: ('A' for Active; 'I' for Inactive)
REMARK    1  A    between atoms: C2'_3  and  C1'_4 
REMARK    2  A    between atoms: C1'_4  and  C1_5 
ROOT
ATOM      1  C1  I4B d   1      -0.531   2.176   0.734  0.00  0.00    -0.075 A 
ATOM      2  C2  I4B d   1      -1.509   1.226   0.576  0.00  0.00     0.003 A 
ATOM      3  C3  I4B d   1      -1.835   0.354   1.643  0.00  0.00     0.002 A 
ATOM      4  C4  I4B d   1      -1.128   0.433   2.825  0.00  0.00    -0.004 A 
ATOM      5  C5  I4B d   1      -0.153   1.412   2.992  0.00  0.00     0.002 A 
ATOM      6  C6  I4B d   1       0.140   2.297   1.944  0.00  0.00     0.003 A 
ENDROOT
BRANCH   1   7
ATOM      7  C1' I4B d   1      -0.190   3.058  -0.425  0.00  0.00     0.060 C 
BRANCH   7   8
ATOM      8  C2' I4B d   1      -0.946   2.551  -1.636  0.00  0.00    -0.013 C 
ATOM      9  C4' I4B d   1      -1.547   3.689  -2.419  0.00  0.00     0.013 C 
ATOM     10  C3' I4B d   1       0.008   1.759  -2.479  0.00  0.00     0.013 C 
ENDBRANCH   7   8
ENDBRANCH   1   7
TORSDOF 2
ENDMDL
