MODEL 1
REMARK minimizedAffinity 3.2392199
REMARK minimizedRMSD -1
REMARK  2 active torsions:
REMARK  status: ('A' for Active; 'I' for Inactive)
REMARK    1  A    between atoms: C2'_3  and  C1'_4 
REMARK    2  A    between atoms: C1'_4  and  C1_5 
ROOT
ATOM      1  C1  I4B d   1       0.033   1.948   0.503  0.00  0.00    -0.075 A 
ATOM      2  C2  I4B d   1      -0.245   1.775  -0.830  0.00  0.00     0.003 A 
ATOM      3  C3  I4B d   1      -1.379   1.027  -1.230  0.00  0.00     0.002 A 
ATOM      4  C4  I4B d   1      -2.174   0.432  -0.272  0.00  0.00    -0.004 A 
ATOM      5  C5  I4B d   1      -1.904   0.628   1.079  0.00  0.00     0.002 A 
ATOM      6  C6  I4B d   1      -0.801   1.401   1.470  0.00  0.00     0.003 A 
ENDROOT
BRANCH   1   7
ATOM      7  C1' I4B d   1       1.257   2.716   0.891  0.00  0.00     0.060 C 
BRANCH   7   8
ATOM      8  C2' I4B d   1       2.246   1.741   1.498  0.00  0.00    -0.013 C 
ATOM      9  C4' I4B d   1       2.443   0.540   0.611  0.00  0.00     0.013 C 
ATOM     10  C3' I4B d   1       3.538   2.470   1.717  0.00  0.00     0.013 C 
ENDBRANCH   7   8
ENDBRANCH   1   7
TORSDOF 2
ENDMDL
