MODEL 1
REMARK minimizedAffinity -2.11076927
REMARK minimizedRMSD -1
REMARK  2 active torsions:
REMARK  status: ('A' for Active; 'I' for Inactive)
REMARK    1  A    between atoms: C2'_3  and  C1'_4 
REMARK    2  A    between atoms: C1'_4  and  C1_5 
ROOT
ATOM      1  C1  I4B d   1       1.724   3.279   2.553  0.00  0.00    -0.075 A 
ATOM      2  C2  I4B d   1       0.989   3.085   3.696  0.00  0.00     0.003 A 
ATOM      3  C3  I4B d   1      -0.336   2.591   3.616  0.00  0.00     0.002 A 
ATOM      4  C4  I4B d   1      -0.900   2.354   2.380  0.00  0.00    -0.004 A 
ATOM      5  C5  I4B d   1      -0.146   2.530   1.223  0.00  0.00     0.002 A 
ATOM      6  C6  I4B d   1       1.179   2.983   1.310  0.00  0.00     0.003 A 
ENDROOT
BRANCH   1   7
ATOM      7  C1' I4B d   1       3.108   3.833   2.671  0.00  0.00     0.060 C 
BRANCH   7   8
ATOM      8  C2' I4B d   1       2.996   5.328   2.890  0.00  0.00    -0.013 C 
ATOM      9  C4' I4B d   1       4.077   5.827   3.811  0.00  0.00     0.013 C 
ATOM     10  C3' I4B d   1       3.072   5.999   1.551  0.00  0.00     0.013 C 
ENDBRANCH   7   8
ENDBRANCH   1   7
TORSDOF 2
ENDMDL
