MODEL 1
REMARK minimizedAffinity 6.22888899
REMARK minimizedRMSD -1
REMARK  2 active torsions:
REMARK  status: ('A' for Active; 'I' for Inactive)
REMARK    1  A    between atoms: C2'_3  and  C1'_4 
REMARK    2  A    between atoms: C1'_4  and  C1_5 
ROOT
ATOM      1  C1  I4B d   1       2.630   2.418   1.946  0.00  0.00    -0.075 A 
ATOM      2  C2  I4B d   1       1.279   2.660   1.983  0.00  0.00     0.003 A 
ATOM      3  C3  I4B d   1       0.383   1.804   1.299  0.00  0.00     0.002 A 
ATOM      4  C4  I4B d   1       0.880   0.754   0.554  0.00  0.00    -0.004 A 
ATOM      5  C5  I4B d   1       2.247   0.497   0.537  0.00  0.00     0.002 A 
ATOM      6  C6  I4B d   1       3.127   1.326   1.247  0.00  0.00     0.003 A 
ENDROOT
BRANCH   1   7
ATOM      7  C1' I4B d   1       3.551   3.361   2.653  0.00  0.00     0.060 C 
BRANCH   7   8
ATOM      8  C2' I4B d   1       3.966   4.434   1.667  0.00  0.00    -0.013 C 
ATOM      9  C4' I4B d   1       3.652   5.810   2.194  0.00  0.00     0.013 C 
ATOM     10  C3' I4B d   1       5.434   4.278   1.403  0.00  0.00     0.013 C 
ENDBRANCH   7   8
ENDBRANCH   1   7
TORSDOF 2
ENDMDL
