MODEL 1
REMARK minimizedAffinity 5.89645243
REMARK minimizedRMSD -1
REMARK  2 active torsions:
REMARK  status: ('A' for Active; 'I' for Inactive)
REMARK    1  A    between atoms: C2'_3  and  C1'_4 
REMARK    2  A    between atoms: C1'_4  and  C1_5 
ROOT
ATOM      1  C1  I4B d   1       4.857   5.824   1.464  0.00  0.00    -0.075 A 
ATOM      2  C2  I4B d   1       3.527   5.855   1.804  0.00  0.00     0.003 A 
ATOM      3  C3  I4B d   1       3.140   5.969   3.161  0.00  0.00     0.002 A 
ATOM      4  C4  I4B d   1       4.109   6.000   4.143  0.00  0.00    -0.004 A 
ATOM      5  C5  I4B d   1       5.457   5.992   3.796  0.00  0.00     0.002 A 
ATOM      6  C6  I4B d   1       5.834   5.916   2.447  0.00  0.00     0.003 A 
ENDROOT
BRANCH   1   7
ATOM      7  C1' I4B d   1       5.229   5.669   0.024  0.00  0.00     0.060 C 
BRANCH   7   8
ATOM      8  C2' I4B d   1       5.982   4.363  -0.125  0.00  0.00    -0.013 C 
ATOM      9  C4' I4B d   1       5.696   3.434   1.025  0.00  0.00     0.013 C 
ATOM     10  C3' I4B d   1       5.584   3.745  -1.432  0.00  0.00     0.013 C 
ENDBRANCH   7   8
ENDBRANCH   1   7
TORSDOF 2
ENDMDL
