MODEL 1
REMARK minimizedAffinity 9.87068653
REMARK minimizedRMSD -1
REMARK  2 active torsions:
REMARK  status: ('A' for Active; 'I' for Inactive)
REMARK    1  A    between atoms: C2'_3  and  C1'_4 
REMARK    2  A    between atoms: C1'_4  and  C1_5 
ROOT
ATOM      1  C1  I4B d   1       1.001   1.416   0.968  0.00  0.00    -0.075 A 
ATOM      2  C2  I4B d   1      -0.358   1.503   1.144  0.00  0.00     0.003 A 
ATOM      3  C3  I4B d   1      -0.889   2.176   2.271  0.00  0.00     0.002 A 
ATOM      4  C4  I4B d   1      -0.030   2.700   3.216  0.00  0.00    -0.004 A 
ATOM      5  C5  I4B d   1       1.346   2.630   3.024  0.00  0.00     0.002 A 
ATOM      6  C6  I4B d   1       1.866   1.995   1.887  0.00  0.00     0.003 A 
ENDROOT
BRANCH   1   7
ATOM      7  C1' I4B d   1       1.527   0.669  -0.217  0.00  0.00     0.060 C 
BRANCH   7   8
ATOM      8  C2' I4B d   1       1.691   1.655  -1.355  0.00  0.00    -0.013 C 
ATOM      9  C4' I4B d   1       3.075   2.248  -1.369  0.00  0.00     0.013 C 
ATOM     10  C3' I4B d   1       1.397   0.935  -2.637  0.00  0.00     0.013 C 
ENDBRANCH   7   8
ENDBRANCH   1   7
TORSDOF 2
ENDMDL
