MODEL 1
REMARK minimizedAffinity 5.16038704
REMARK minimizedRMSD -1
REMARK  2 active torsions:
REMARK  status: ('A' for Active; 'I' for Inactive)
REMARK    1  A    between atoms: C2'_3  and  C1'_4 
REMARK    2  A    between atoms: C1'_4  and  C1_5 
ROOT
ATOM      1  C1  I4B d   1       1.398   1.127   0.076  0.00  0.00    -0.075 A 
ATOM      2  C2  I4B d   1       2.131   1.735   1.064  0.00  0.00     0.003 A 
ATOM      3  C3  I4B d   1       1.492   2.214   2.233  0.00  0.00     0.002 A 
ATOM      4  C4  I4B d   1       0.121   2.110   2.349  0.00  0.00    -0.004 A 
ATOM      5  C5  I4B d   1      -0.618   1.473   1.357  0.00  0.00     0.002 A 
ATOM      6  C6  I4B d   1       0.025   0.967   0.218  0.00  0.00     0.003 A 
ENDROOT
BRANCH   1   7
ATOM      7  C1' I4B d   1       2.100   0.662  -1.161  0.00  0.00     0.060 C 
BRANCH   7   8
ATOM      8  C2' I4B d   1       2.226   1.846  -2.099  0.00  0.00    -0.013 C 
ATOM      9  C4' I4B d   1       3.666   2.248  -2.279  0.00  0.00     0.013 C 
ATOM     10  C3' I4B d   1       1.601   1.467  -3.408  0.00  0.00     0.013 C 
ENDBRANCH   7   8
ENDBRANCH   1   7
TORSDOF 2
ENDMDL
