MODEL 1
REMARK minimizedAffinity 4.71785736
REMARK minimizedRMSD -1
REMARK  2 active torsions:
REMARK  status: ('A' for Active; 'I' for Inactive)
REMARK    1  A    between atoms: C2'_3  and  C1'_4 
REMARK    2  A    between atoms: C1'_4  and  C1_5 
ROOT
ATOM      1  C1  I4B d   1       1.149   1.268   0.906  0.00  0.00    -0.075 A 
ATOM      2  C2  I4B d   1       1.879   2.008   1.803  0.00  0.00     0.003 A 
ATOM      3  C3  I4B d   1       1.222   2.764   2.804  0.00  0.00     0.002 A 
ATOM      4  C4  I4B d   1      -0.157   2.793   2.839  0.00  0.00    -0.004 A 
ATOM      5  C5  I4B d   1      -0.894   2.024   1.943  0.00  0.00     0.002 A 
ATOM      6  C6  I4B d   1      -0.237   1.247   0.978  0.00  0.00     0.003 A 
ENDROOT
BRANCH   1   7
ATOM      7  C1' I4B d   1       1.874   0.507  -0.158  0.00  0.00     0.060 C 
BRANCH   7   8
ATOM      8  C2' I4B d   1       2.097   1.441  -1.331  0.00  0.00    -0.013 C 
ATOM      9  C4' I4B d   1       3.530   1.899  -1.398  0.00  0.00     0.013 C 
ATOM     10  C3' I4B d   1       1.701   0.716  -2.582  0.00  0.00     0.013 C 
ENDBRANCH   7   8
ENDBRANCH   1   7
TORSDOF 2
ENDMDL
