MODEL 1
REMARK minimizedAffinity 7.55339098
REMARK minimizedRMSD -1
REMARK  2 active torsions:
REMARK  status: ('A' for Active; 'I' for Inactive)
REMARK    1  A    between atoms: C2'_3  and  C1'_4 
REMARK    2  A    between atoms: C1'_4  and  C1_5 
ROOT
ATOM      1  C1  I4B d   1       1.127   1.595   0.775  0.00  0.00    -0.075 A 
ATOM      2  C2  I4B d   1      -0.245   1.557   0.763  0.00  0.00     0.003 A 
ATOM      3  C3  I4B d   1      -0.987   2.300   1.712  0.00  0.00     0.002 A 
ATOM      4  C4  I4B d   1      -0.321   3.023   2.680  0.00  0.00    -0.004 A 
ATOM      5  C5  I4B d   1       1.070   3.080   2.677  0.00  0.00     0.002 A 
ATOM      6  C6  I4B d   1       1.798   2.371   1.710  0.00  0.00     0.003 A 
ENDROOT
BRANCH   1   7
ATOM      7  C1' I4B d   1       1.879   0.772  -0.222  0.00  0.00     0.060 C 
BRANCH   7   8
ATOM      8  C2' I4B d   1       1.998   1.578  -1.499  0.00  0.00    -0.013 C 
ATOM      9  C4' I4B d   1       3.408   2.062  -1.710  0.00  0.00     0.013 C 
ATOM     10  C3' I4B d   1       1.548   0.711  -2.637  0.00  0.00     0.013 C 
ENDBRANCH   7   8
ENDBRANCH   1   7
TORSDOF 2
ENDMDL
