MODEL 1
REMARK minimizedAffinity 1.88188374
REMARK minimizedRMSD -1
REMARK  2 active torsions:
REMARK  status: ('A' for Active; 'I' for Inactive)
REMARK    1  A    between atoms: C2'_3  and  C1'_4 
REMARK    2  A    between atoms: C1'_4  and  C1_5 
ROOT
ATOM      1  C1  I4B d   1       2.310   4.100   3.178  0.00  0.00    -0.075 A 
ATOM      2  C2  I4B d   1       2.630   4.395   1.877  0.00  0.00     0.003 A 
ATOM      3  C3  I4B d   1       3.644   5.341   1.590  0.00  0.00     0.002 A 
ATOM      4  C4  I4B d   1       4.272   6.000   2.627  0.00  0.00    -0.004 A 
ATOM      5  C5  I4B d   1       3.962   5.682   3.946  0.00  0.00     0.002 A 
ATOM      6  C6  I4B d   1       2.984   4.717   4.224  0.00  0.00     0.003 A 
ENDROOT
BRANCH   1   7
ATOM      7  C1' I4B d   1       1.211   3.120   3.446  0.00  0.00     0.060 C 
BRANCH   7   8
ATOM      8  C2' I4B d   1       0.417   2.949   2.167  0.00  0.00    -0.013 C 
ATOM      9  C4' I4B d   1       0.902   1.762   1.378  0.00  0.00     0.013 C 
ATOM     10  C3' I4B d   1      -1.029   2.801   2.537  0.00  0.00     0.013 C 
ENDBRANCH   7   8
ENDBRANCH   1   7
TORSDOF 2
ENDMDL
