MODEL 1
REMARK minimizedAffinity -1.86191416
REMARK minimizedRMSD -1
REMARK  1 active torsions:
REMARK  status: ('A' for Active; 'I' for Inactive)
REMARK    1  A    between atoms: C1_2  and  C2_3 
ROOT
ATOM      1  C2  UNL d   1      -0.670  -0.392   0.131  0.00  0.00    -0.076 A 
ATOM      2  C3  UNL d   1      -1.797  -1.133   0.528  0.00  0.00     0.004 A 
ATOM      3  C4  UNL d   1      -1.982  -1.498   1.860  0.00  0.00    -0.003 A 
ATOM      4  C5  UNL d   1      -1.044  -1.127   2.818  0.00  0.00     0.000 A 
ATOM      5  C6  UNL d   1       0.070  -0.377   2.444  0.00  0.00     0.000 A 
ATOM      6  C7  UNL d   1       0.264   0.013   1.108  0.00  0.00    -0.073 A 
ATOM      7  C8  UNL d   1       1.487   0.817   0.761  0.00  0.00     0.078 C 
ENDROOT
BRANCH   1   8
ATOM      8  C1  UNL d   1      -0.509  -0.048  -1.333  0.00  0.00     0.053 C 
ATOM      9  C   UNL d   1      -0.621  -1.268  -2.234  0.00  0.00     0.018 C 
ENDBRANCH   1   8
TORSDOF 1
ENDMDL
