MODEL 1
REMARK minimizedAffinity -5.0274601
REMARK minimizedRMSD -1
REMARK  1 active torsions:
REMARK  status: ('A' for Active; 'I' for Inactive)
REMARK    1  A    between atoms: C1_2  and  C2_3 
ROOT
ATOM      1  C2  UNL d   1      -0.135   0.166   1.200  0.00  0.00    -0.076 A 
ATOM      2  C3  UNL d   1      -1.432  -0.013   0.689  0.00  0.00     0.004 A 
ATOM      3  C4  UNL d   1      -1.705   0.185  -0.663  0.00  0.00    -0.003 A 
ATOM      4  C5  UNL d   1      -0.684   0.565  -1.528  0.00  0.00     0.000 A 
ATOM      5  C6  UNL d   1       0.612   0.730  -1.042  0.00  0.00     0.000 A 
ATOM      6  C7  UNL d   1       0.907   0.519   0.316  0.00  0.00    -0.073 A 
ATOM      7  C8  UNL d   1       2.322   0.718   0.786  0.00  0.00     0.078 C 
ENDROOT
BRANCH   1   8
ATOM      8  C1  UNL d   1       0.095  -0.036   2.680  0.00  0.00     0.053 C 
ATOM      9  C   UNL d   1      -0.746  -1.167   3.252  0.00  0.00     0.018 C 
ENDBRANCH   1   8
TORSDOF 1
ENDMDL
