MODEL 1
REMARK minimizedAffinity -2.75579572
REMARK minimizedRMSD -1
REMARK  1 active torsions:
REMARK  status: ('A' for Active; 'I' for Inactive)
REMARK    1  A    between atoms: C1_2  and  C2_3 
ROOT
ATOM      1  C2  UNL d   1      -0.160  -0.193   1.548  0.00  0.00    -0.076 A 
ATOM      2  C3  UNL d   1      -1.357  -0.565   0.910  0.00  0.00     0.004 A 
ATOM      3  C4  UNL d   1      -1.460  -0.561  -0.480  0.00  0.00    -0.003 A 
ATOM      4  C5  UNL d   1      -0.368  -0.186  -1.255  0.00  0.00     0.000 A 
ATOM      5  C6  UNL d   1       0.832   0.169  -0.639  0.00  0.00     0.000 A 
ATOM      6  C7  UNL d   1       0.958   0.155   0.760  0.00  0.00    -0.073 A 
ATOM      7  C8  UNL d   1       2.274   0.552   1.371  0.00  0.00     0.078 C 
ENDROOT
BRANCH   1   8
ATOM      8  C1  UNL d   1      -0.116  -0.190   3.059  0.00  0.00     0.053 C 
ATOM      9  C   UNL d   1      -1.406  -0.702   3.681  0.00  0.00     0.018 C 
ENDBRANCH   1   8
TORSDOF 1
ENDMDL
