MODEL 1
REMARK minimizedAffinity -2.00532007
REMARK minimizedRMSD -1
REMARK  1 active torsions:
REMARK  status: ('A' for Active; 'I' for Inactive)
REMARK    1  A    between atoms: C1_2  and  C2_3 
ROOT
ATOM      1  C2  UNL d   1      -0.105   0.134  -0.197  0.00  0.00    -0.076 A 
ATOM      2  C3  UNL d   1       1.239   0.179   0.213  0.00  0.00     0.004 A 
ATOM      3  C4  UNL d   1       1.580   0.128   1.563  0.00  0.00    -0.003 A 
ATOM      4  C5  UNL d   1       0.582   0.028   2.526  0.00  0.00     0.000 A 
ATOM      5  C6  UNL d   1      -0.756  -0.036   2.138  0.00  0.00     0.000 A 
ATOM      6  C7  UNL d   1      -1.115  -0.001   0.779  0.00  0.00    -0.073 A 
ATOM      7  C8  UNL d   1      -2.574  -0.068   0.417  0.00  0.00     0.078 C 
ENDROOT
BRANCH   1   8
ATOM      8  C1  UNL d   1      -0.416   0.221  -1.674  0.00  0.00     0.053 C 
ATOM      9  C   UNL d   1       0.664  -0.416  -2.535  0.00  0.00     0.018 C 
ENDBRANCH   1   8
TORSDOF 1
ENDMDL
