MODEL 1
REMARK minimizedAffinity -2.39851403
REMARK minimizedRMSD -1
REMARK  1 active torsions:
REMARK  status: ('A' for Active; 'I' for Inactive)
REMARK    1  A    between atoms: C1_2  and  C2_3 
ROOT
ATOM      1  C2  UNL d   1       0.211  -0.214   0.223  0.00  0.00    -0.076 A 
ATOM      2  C3  UNL d   1      -1.132  -0.365   0.610  0.00  0.00     0.004 A 
ATOM      3  C4  UNL d   1      -1.504  -0.301   1.952  0.00  0.00    -0.003 A 
ATOM      4  C5  UNL d   1      -0.538  -0.085   2.929  0.00  0.00     0.000 A 
ATOM      5  C6  UNL d   1       0.796   0.084   2.561  0.00  0.00     0.000 A 
ATOM      6  C7  UNL d   1       1.185   0.039   1.212  0.00  0.00    -0.073 A 
ATOM      7  C8  UNL d   1       2.639   0.223   0.873  0.00  0.00     0.078 C 
ENDROOT
BRANCH   1   8
ATOM      8  C1  UNL d   1       0.557  -0.320  -1.245  0.00  0.00     0.053 C 
ATOM      9  C   UNL d   1      -0.428   0.426  -2.132  0.00  0.00     0.018 C 
ENDBRANCH   1   8
TORSDOF 1
ENDMDL
