MODEL 1
REMARK minimizedAffinity -4.0638833
REMARK minimizedRMSD -1
REMARK  1 active torsions:
REMARK  status: ('A' for Active; 'I' for Inactive)
REMARK    1  A    between atoms: C1_2  and  C2_3 
ROOT
ATOM      1  C2  UNL d   1      -0.349   0.011   0.290  0.00  0.00    -0.076 A 
ATOM      2  C3  UNL d   1       0.845  -0.272   0.976  0.00  0.00     0.004 A 
ATOM      3  C4  UNL d   1       0.831  -0.628   2.323  0.00  0.00    -0.003 A 
ATOM      4  C5  UNL d   1      -0.378  -0.707   3.007  0.00  0.00     0.000 A 
ATOM      5  C6  UNL d   1      -1.573  -0.447   2.337  0.00  0.00     0.000 A 
ATOM      6  C7  UNL d   1      -1.578  -0.103   0.975  0.00  0.00    -0.073 A 
ATOM      7  C8  UNL d   1      -2.896   0.174   0.304  0.00  0.00     0.078 C 
ENDROOT
BRANCH   1   8
ATOM      8  C1  UNL d   1      -0.269   0.418  -1.164  0.00  0.00     0.053 C 
ATOM      9  C   UNL d   1       0.375  -0.650  -2.034  0.00  0.00     0.018 C 
ENDBRANCH   1   8
TORSDOF 1
ENDMDL
