MODEL 1
REMARK minimizedAffinity -1.49210453
REMARK minimizedRMSD -1
REMARK  1 active torsions:
REMARK  status: ('A' for Active; 'I' for Inactive)
REMARK    1  A    between atoms: C1_2  and  C2_3 
ROOT
ATOM      1  C2  UNL d   1       0.015   0.438  -0.082  0.00  0.00    -0.076 A 
ATOM      2  C3  UNL d   1       1.159   0.176   0.691  0.00  0.00     0.004 A 
ATOM      3  C4  UNL d   1       1.091   0.133   2.082  0.00  0.00    -0.003 A 
ATOM      4  C5  UNL d   1      -0.123   0.350   2.724  0.00  0.00     0.000 A 
ATOM      5  C6  UNL d   1      -1.272   0.593   1.973  0.00  0.00     0.000 A 
ATOM      6  C7  UNL d   1      -1.224   0.624   0.568  0.00  0.00    -0.073 A 
ATOM      7  C8  UNL d   1      -2.493   0.897  -0.192  0.00  0.00     0.078 C 
ENDROOT
BRANCH   1   8
ATOM      8  C1  UNL d   1       0.155   0.499  -1.586  0.00  0.00     0.053 C 
ATOM      9  C   UNL d   1       0.850  -0.727  -2.157  0.00  0.00     0.018 C 
ENDBRANCH   1   8
TORSDOF 1
ENDMDL
