MODEL 1
REMARK minimizedAffinity -4.85348511
REMARK minimizedRMSD -1
REMARK  1 active torsions:
REMARK  status: ('A' for Active; 'I' for Inactive)
REMARK    1  A    between atoms: C1_2  and  C2_3 
ROOT
ATOM      1  C2  UNL d   1       0.233   0.160  -0.078  0.00  0.00    -0.076 A 
ATOM      2  C3  UNL d   1      -0.823  -0.696   0.283  0.00  0.00     0.004 A 
ATOM      3  C4  UNL d   1      -1.033  -1.054   1.614  0.00  0.00    -0.003 A 
ATOM      4  C5  UNL d   1      -0.191  -0.562   2.605  0.00  0.00     0.000 A 
ATOM      5  C6  UNL d   1       0.850   0.302   2.267  0.00  0.00     0.000 A 
ATOM      6  C7  UNL d   1       1.066   0.686   0.932  0.00  0.00    -0.073 A 
ATOM      7  C8  UNL d   1       2.207   1.616   0.624  0.00  0.00     0.078 C 
ENDROOT
BRANCH   1   8
ATOM      8  C1  UNL d   1       0.428   0.492  -1.540  0.00  0.00     0.053 C 
ATOM      9  C   UNL d   1       0.245  -0.719  -2.442  0.00  0.00     0.018 C 
ENDBRANCH   1   8
TORSDOF 1
ENDMDL
