MODEL 1
REMARK minimizedAffinity 2.26582479
REMARK minimizedRMSD -1
REMARK  1 active torsions:
REMARK  status: ('A' for Active; 'I' for Inactive)
REMARK    1  A    between atoms: C1_2  and  C2_3 
ROOT
ATOM      1  C2  UNL d   1      -1.182  -2.020   0.762  0.00  0.00    -0.076 A 
ATOM      2  C3  UNL d   1      -1.795  -3.116   0.131  0.00  0.00     0.004 A 
ATOM      3  C4  UNL d   1      -1.468  -3.464  -1.179  0.00  0.00    -0.003 A 
ATOM      4  C5  UNL d   1      -0.522  -2.722  -1.878  0.00  0.00     0.000 A 
ATOM      5  C6  UNL d   1       0.108  -1.642  -1.261  0.00  0.00     0.000 A 
ATOM      6  C7  UNL d   1      -0.198  -1.288   0.064  0.00  0.00    -0.073 A 
ATOM      7  C8  UNL d   1       0.508  -0.110   0.678  0.00  0.00     0.078 C 
ENDROOT
BRANCH   1   8
ATOM      8  C1  UNL d   1      -1.597  -1.674   2.175  0.00  0.00     0.053 C 
ATOM      9  C   UNL d   1      -1.909  -2.906   3.009  0.00  0.00     0.018 C 
ENDBRANCH   1   8
TORSDOF 1
ENDMDL
