MODEL 1
REMARK minimizedAffinity 8.17399693
REMARK minimizedRMSD -1
REMARK  1 active torsions:
REMARK  status: ('A' for Active; 'I' for Inactive)
REMARK    1  A    between atoms: C1_2  and  C2_3 
ROOT
ATOM      1  C2  UNL d   1       4.926  -4.061  -3.959  0.00  0.00    -0.076 A 
ATOM      2  C3  UNL d   1       5.912  -4.130  -4.959  0.00  0.00     0.004 A 
ATOM      3  C4  UNL d   1       5.843  -5.088  -5.969  0.00  0.00    -0.003 A 
ATOM      4  C5  UNL d   1       4.787  -5.991  -5.997  0.00  0.00     0.000 A 
ATOM      5  C6  UNL d   1       3.791  -5.926  -5.023  0.00  0.00     0.000 A 
ATOM      6  C7  UNL d   1       3.836  -4.957  -4.007  0.00  0.00    -0.073 A 
ATOM      7  C8  UNL d   1       2.739  -4.936  -2.979  0.00  0.00     0.078 C 
ENDROOT
BRANCH   1   8
ATOM      8  C1  UNL d   1       5.068  -3.019  -2.872  0.00  0.00     0.053 C 
ATOM      9  C   UNL d   1       5.994  -1.882  -3.274  0.00  0.00     0.018 C 
ENDBRANCH   1   8
TORSDOF 1
ENDMDL
