MODEL 1
REMARK minimizedAffinity 12.9777365
REMARK minimizedRMSD -1
REMARK  1 active torsions:
REMARK  status: ('A' for Active; 'I' for Inactive)
REMARK    1  A    between atoms: C1_2  and  C2_3 
ROOT
ATOM      1  C2  UNL d   1       3.646   2.975  -5.617  0.00  0.00    -0.076 A 
ATOM      2  C3  UNL d   1       3.369   4.353  -5.648  0.00  0.00     0.004 A 
ATOM      3  C4  UNL d   1       4.388   5.286  -5.832  0.00  0.00    -0.003 A 
ATOM      4  C5  UNL d   1       5.701   4.856  -5.989  0.00  0.00     0.000 A 
ATOM      5  C6  UNL d   1       5.992   3.492  -5.979  0.00  0.00     0.000 A 
ATOM      6  C7  UNL d   1       4.974   2.538  -5.810  0.00  0.00    -0.073 A 
ATOM      7  C8  UNL d   1       5.344   1.080  -5.801  0.00  0.00     0.078 C 
ENDROOT
BRANCH   1   8
ATOM      8  C1  UNL d   1       2.503   2.012  -5.387  0.00  0.00     0.053 C 
ATOM      9  C   UNL d   1       1.879   2.168  -4.009  0.00  0.00     0.018 C 
ENDBRANCH   1   8
TORSDOF 1
ENDMDL
