MODEL 1
REMARK minimizedAffinity 9.95996094
REMARK minimizedRMSD -1
REMARK  1 active torsions:
REMARK  status: ('A' for Active; 'I' for Inactive)
REMARK    1  A    between atoms: C1_2  and  C2_3 
ROOT
ATOM      1  C2  UNL d   1       3.070   2.449   0.602  0.00  0.00    -0.076 A 
ATOM      2  C3  UNL d   1       3.439   1.304   1.329  0.00  0.00     0.004 A 
ATOM      3  C4  UNL d   1       2.498   0.329   1.657  0.00  0.00    -0.003 A 
ATOM      4  C5  UNL d   1       1.174   0.484   1.263  0.00  0.00     0.000 A 
ATOM      5  C6  UNL d   1       0.794   1.605   0.526  0.00  0.00     0.000 A 
ATOM      6  C7  UNL d   1       1.733   2.589   0.173  0.00  0.00    -0.073 A 
ATOM      7  C8  UNL d   1       1.267   3.781  -0.618  0.00  0.00     0.078 C 
ENDROOT
BRANCH   1   8
ATOM      8  C1  UNL d   1       4.128   3.486   0.298  0.00  0.00     0.053 C 
ATOM      9  C   UNL d   1       4.659   4.162   1.553  0.00  0.00     0.018 C 
ENDBRANCH   1   8
TORSDOF 1
ENDMDL
