MODEL 1
REMARK minimizedAffinity 17.0606785
REMARK minimizedRMSD -1
REMARK  1 active torsions:
REMARK  status: ('A' for Active; 'I' for Inactive)
REMARK    1  A    between atoms: C1_2  and  C2_3 
ROOT
ATOM      1  C2  UNL d   1      -1.881  -4.958  -0.060  0.00  0.00    -0.076 A 
ATOM      2  C3  UNL d   1      -0.959  -3.950   0.271  0.00  0.00     0.004 A 
ATOM      3  C4  UNL d   1      -0.592  -2.980  -0.660  0.00  0.00    -0.003 A 
ATOM      4  C5  UNL d   1      -1.142  -3.002  -1.937  0.00  0.00     0.000 A 
ATOM      5  C6  UNL d   1      -2.071  -3.984  -2.277  0.00  0.00     0.000 A 
ATOM      6  C7  UNL d   1      -2.465  -4.960  -1.345  0.00  0.00    -0.073 A 
ATOM      7  C8  UNL d   1      -3.466  -6.000  -1.767  0.00  0.00     0.078 C 
ENDROOT
BRANCH   1   8
ATOM      8  C1  UNL d   1      -2.221  -5.999   0.983  0.00  0.00     0.053 C 
ATOM      9  C   UNL d   1      -2.900  -5.401   2.205  0.00  0.00     0.018 C 
ENDBRANCH   1   8
TORSDOF 1
ENDMDL
