MODEL 1
REMARK minimizedAffinity 10.6786289
REMARK minimizedRMSD -1
REMARK  1 active torsions:
REMARK  status: ('A' for Active; 'I' for Inactive)
REMARK    1  A    between atoms: C1_2  and  C2_3 
ROOT
ATOM      1  C2  UNL d   1       0.485  -0.314  -0.987  0.00  0.00    -0.076 A 
ATOM      2  C3  UNL d   1      -0.104  -1.178  -1.926  0.00  0.00     0.004 A 
ATOM      3  C4  UNL d   1      -0.444  -2.486  -1.583  0.00  0.00    -0.003 A 
ATOM      4  C5  UNL d   1      -0.202  -2.950  -0.294  0.00  0.00     0.000 A 
ATOM      5  C6  UNL d   1       0.365  -2.100   0.655  0.00  0.00     0.000 A 
ATOM      6  C7  UNL d   1       0.700  -0.774   0.330  0.00  0.00    -0.073 A 
ATOM      7  C8  UNL d   1       1.314   0.096   1.392  0.00  0.00     0.078 C 
ENDROOT
BRANCH   1   8
ATOM      8  C1  UNL d   1       0.858   1.085  -1.424  0.00  0.00     0.053 C 
ATOM      9  C   UNL d   1       0.300   1.435  -2.795  0.00  0.00     0.018 C 
ENDBRANCH   1   8
TORSDOF 1
ENDMDL
