MODEL 1
REMARK minimizedAffinity 9.86886883
REMARK minimizedRMSD -1
REMARK  1 active torsions:
REMARK  status: ('A' for Active; 'I' for Inactive)
REMARK    1  A    between atoms: C1_2  and  C2_3 
ROOT
ATOM      1  C2  UNL d   1       0.640   2.496   1.051  0.00  0.00    -0.076 A 
ATOM      2  C3  UNL d   1      -0.701   2.552   1.469  0.00  0.00     0.004 A 
ATOM      3  C4  UNL d   1      -1.651   3.264   0.739  0.00  0.00    -0.003 A 
ATOM      4  C5  UNL d   1      -1.275   3.932  -0.422  0.00  0.00     0.000 A 
ATOM      5  C6  UNL d   1       0.047   3.873  -0.861  0.00  0.00     0.000 A 
ATOM      6  C7  UNL d   1       1.014   3.146  -0.145  0.00  0.00    -0.073 A 
ATOM      7  C8  UNL d   1       2.426   3.121  -0.661  0.00  0.00     0.078 C 
ENDROOT
BRANCH   1   8
ATOM      8  C1  UNL d   1       1.632   1.730   1.898  0.00  0.00     0.053 C 
ATOM      9  C   UNL d   1       1.686   0.253   1.539  0.00  0.00     0.018 C 
ENDBRANCH   1   8
TORSDOF 1
ENDMDL
