MODEL 1
REMARK minimizedAffinity 6.36057901
REMARK minimizedRMSD -1
REMARK  1 active torsions:
REMARK  status: ('A' for Active; 'I' for Inactive)
REMARK    1  A    between atoms: C1_2  and  C2_3 
ROOT
ATOM      1  C2  UNL d   1      -1.421  -3.679   0.967  0.00  0.00    -0.076 A 
ATOM      2  C3  UNL d   1      -1.487  -5.069   1.172  0.00  0.00     0.004 A 
ATOM      3  C4  UNL d   1      -1.179  -5.626   2.411  0.00  0.00    -0.003 A 
ATOM      4  C5  UNL d   1      -0.801  -4.804   3.467  0.00  0.00     0.000 A 
ATOM      5  C6  UNL d   1      -0.747  -3.422   3.286  0.00  0.00     0.000 A 
ATOM      6  C7  UNL d   1      -1.071  -2.842   2.048  0.00  0.00    -0.073 A 
ATOM      7  C8  UNL d   1      -0.990  -1.347   1.907  0.00  0.00     0.078 C 
ENDROOT
BRANCH   1   8
ATOM      8  C1  UNL d   1      -1.740  -3.134  -0.407  0.00  0.00     0.053 C 
ATOM      9  C   UNL d   1      -0.621  -3.381  -1.406  0.00  0.00     0.018 C 
ENDBRANCH   1   8
TORSDOF 1
ENDMDL
