MODEL 1
REMARK minimizedAffinity 13.4014006
REMARK minimizedRMSD -1
REMARK  1 active torsions:
REMARK  status: ('A' for Active; 'I' for Inactive)
REMARK    1  A    between atoms: C1_2  and  C2_3 
ROOT
ATOM      1  C2  UNL d   1       1.962   2.079   2.061  0.00  0.00    -0.076 A 
ATOM      2  C3  UNL d   1       2.023   3.353   1.470  0.00  0.00     0.004 A 
ATOM      3  C4  UNL d   1       1.673   3.541   0.134  0.00  0.00    -0.003 A 
ATOM      4  C5  UNL d   1       1.255   2.459  -0.632  0.00  0.00     0.000 A 
ATOM      5  C6  UNL d   1       1.171   1.191  -0.057  0.00  0.00     0.000 A 
ATOM      6  C7  UNL d   1       1.505   0.987   1.292  0.00  0.00    -0.073 A 
ATOM      7  C8  UNL d   1       1.402  -0.403   1.859  0.00  0.00     0.078 C 
ENDROOT
BRANCH   1   8
ATOM      8  C1  UNL d   1       2.380   1.930   3.506  0.00  0.00     0.053 C 
ATOM      9  C   UNL d   1       3.643   2.714   3.831  0.00  0.00     0.018 C 
ENDBRANCH   1   8
TORSDOF 1
ENDMDL
