MODEL 1
REMARK minimizedAffinity -1.45963037
REMARK minimizedRMSD -1
REMARK  1 active torsions:
REMARK  status: ('A' for Active; 'I' for Inactive)
REMARK    1  A    between atoms: C1_2  and  C2_3 
ROOT
ATOM      1  C2  UNL d   1      -1.704   2.866  -0.055  0.00  0.00    -0.076 A 
ATOM      2  C3  UNL d   1      -0.390   2.704   0.419  0.00  0.00     0.004 A 
ATOM      3  C4  UNL d   1      -0.098   1.781   1.421  0.00  0.00    -0.003 A 
ATOM      4  C5  UNL d   1      -1.114   1.004   1.966  0.00  0.00     0.000 A 
ATOM      5  C6  UNL d   1      -2.420   1.139   1.496  0.00  0.00     0.000 A 
ATOM      6  C7  UNL d   1      -2.729   2.053   0.474  0.00  0.00    -0.073 A 
ATOM      7  C8  UNL d   1      -4.156   2.161   0.010  0.00  0.00     0.078 C 
ENDROOT
BRANCH   1   8
ATOM      8  C1  UNL d   1      -1.966   3.902  -1.124  0.00  0.00     0.053 C 
ATOM      9  C   UNL d   1      -1.856   3.330  -2.529  0.00  0.00     0.018 C 
ENDBRANCH   1   8
TORSDOF 1
ENDMDL
