MODEL 1
REMARK minimizedAffinity 9.6255064
REMARK minimizedRMSD -1
REMARK  1 active torsions:
REMARK  status: ('A' for Active; 'I' for Inactive)
REMARK    1  A    between atoms: C1_2  and  C2_3 
ROOT
ATOM      1  C2  UNL d   1      -0.566   0.597   1.195  0.00  0.00    -0.076 A 
ATOM      2  C3  UNL d   1      -0.254  -0.337   0.192  0.00  0.00     0.004 A 
ATOM      3  C4  UNL d   1      -0.905  -1.568   0.131  0.00  0.00    -0.003 A 
ATOM      4  C5  UNL d   1      -1.879  -1.884   1.072  0.00  0.00     0.000 A 
ATOM      5  C6  UNL d   1      -2.214  -0.962   2.062  0.00  0.00     0.000 A 
ATOM      6  C7  UNL d   1      -1.579   0.290   2.128  0.00  0.00    -0.073 A 
ATOM      7  C8  UNL d   1      -1.975   1.244   3.221  0.00  0.00     0.078 C 
ENDROOT
BRANCH   1   8
ATOM      8  C1  UNL d   1       0.192   1.905   1.227  0.00  0.00     0.053 C 
ATOM      9  C   UNL d   1       1.453   1.827   2.074  0.00  0.00     0.018 C 
ENDBRANCH   1   8
TORSDOF 1
ENDMDL
