MODEL 1
REMARK minimizedAffinity 8.59465313
REMARK minimizedRMSD -1
REMARK  1 active torsions:
REMARK  status: ('A' for Active; 'I' for Inactive)
REMARK    1  A    between atoms: C1_2  and  C2_3 
ROOT
ATOM      1  C2  UNL d   1       3.254   2.073   1.764  0.00  0.00    -0.076 A 
ATOM      2  C3  UNL d   1       3.235   2.732   0.522  0.00  0.00     0.004 A 
ATOM      3  C4  UNL d   1       3.943   3.917   0.328  0.00  0.00    -0.003 A 
ATOM      4  C5  UNL d   1       4.682   4.462   1.372  0.00  0.00     0.000 A 
ATOM      5  C6  UNL d   1       4.726   3.812   2.606  0.00  0.00     0.000 A 
ATOM      6  C7  UNL d   1       4.031   2.609   2.813  0.00  0.00    -0.073 A 
ATOM      7  C8  UNL d   1       4.108   1.954   4.165  0.00  0.00     0.078 C 
ENDROOT
BRANCH   1   8
ATOM      8  C1  UNL d   1       2.444   0.806   1.924  0.00  0.00     0.053 C 
ATOM      9  C   UNL d   1       0.991   0.987   1.514  0.00  0.00     0.018 C 
ENDBRANCH   1   8
TORSDOF 1
ENDMDL
