MODEL 1
REMARK minimizedAffinity -4.45756245
REMARK minimizedRMSD -1
REMARK  1 active torsions:
REMARK  status: ('A' for Active; 'I' for Inactive)
REMARK    1  A    between atoms: C1_2  and  C2_3 
ROOT
ATOM      1  C2  UNL d   1       3.500   2.730   1.323  0.00  0.00    -0.076 A 
ATOM      2  C3  UNL d   1       4.271   3.821   1.762  0.00  0.00     0.004 A 
ATOM      3  C4  UNL d   1       4.851   3.825   3.029  0.00  0.00    -0.003 A 
ATOM      4  C5  UNL d   1       4.670   2.739   3.878  0.00  0.00     0.000 A 
ATOM      5  C6  UNL d   1       3.923   1.641   3.453  0.00  0.00     0.000 A 
ATOM      6  C7  UNL d   1       3.345   1.614   2.172  0.00  0.00    -0.073 A 
ATOM      7  C8  UNL d   1       2.544   0.406   1.767  0.00  0.00     0.078 C 
ENDROOT
BRANCH   1   8
ATOM      8  C1  UNL d   1       2.873   2.794  -0.051  0.00  0.00     0.053 C 
ATOM      9  C   UNL d   1       1.434   3.286  -0.014  0.00  0.00     0.018 C 
ENDBRANCH   1   8
TORSDOF 1
ENDMDL
