MODEL 1
REMARK minimizedAffinity 12.7779436
REMARK minimizedRMSD -1
REMARK  1 active torsions:
REMARK  status: ('A' for Active; 'I' for Inactive)
REMARK    1  A    between atoms: C1_2  and  C2_3 
ROOT
ATOM      1  C2  UNL d   1       3.593   3.072  -5.742  0.00  0.00    -0.076 A 
ATOM      2  C3  UNL d   1       3.355   1.698  -5.920  0.00  0.00     0.004 A 
ATOM      3  C4  UNL d   1       4.411   0.791  -5.994  0.00  0.00    -0.003 A 
ATOM      4  C5  UNL d   1       5.722   1.243  -5.891  0.00  0.00     0.000 A 
ATOM      5  C6  UNL d   1       5.976   2.601  -5.697  0.00  0.00     0.000 A 
ATOM      6  C7  UNL d   1       4.922   3.526  -5.603  0.00  0.00    -0.073 A 
ATOM      7  C8  UNL d   1       5.254   4.979  -5.399  0.00  0.00     0.078 C 
ENDROOT
BRANCH   1   8
ATOM      8  C1  UNL d   1       2.410   4.012  -5.695  0.00  0.00     0.053 C 
ATOM      9  C   UNL d   1       1.157   3.346  -5.148  0.00  0.00     0.018 C 
ENDBRANCH   1   8
TORSDOF 1
ENDMDL
