MODEL 1
REMARK minimizedAffinity 6.63841581
REMARK minimizedRMSD -1
REMARK  2 active torsions:
REMARK  status: ('A' for Active; 'I' for Inactive)
REMARK    1  A    between atoms: C2'_3  and  C1'_4 
REMARK    2  A    between atoms: C1'_4  and  C1_5 
ROOT
ATOM      1  C1  I4B d   1      -0.554   4.940  -5.064  0.00  0.00    -0.075 A 
ATOM      2  C2  I4B d   1       0.166   3.862  -4.612  0.00  0.00     0.003 A 
ATOM      3  C3  I4B d   1       1.570   3.817  -4.793  0.00  0.00     0.002 A 
ATOM      4  C4  I4B d   1       2.202   4.840  -5.470  0.00  0.00    -0.004 A 
ATOM      5  C5  I4B d   1       1.473   5.942  -5.907  0.00  0.00     0.002 A 
ATOM      6  C6  I4B d   1       0.089   5.999  -5.692  0.00  0.00     0.003 A 
ENDROOT
BRANCH   1   7
ATOM      7  C1' I4B d   1      -2.039   4.940  -4.886  0.00  0.00     0.060 C 
BRANCH   7   8
ATOM      8  C2' I4B d   1      -2.490   3.502  -4.728  0.00  0.00    -0.013 C 
ATOM      9  C4' I4B d   1      -2.615   3.127  -3.275  0.00  0.00     0.013 C 
ATOM     10  C3' I4B d   1      -3.800   3.347  -5.442  0.00  0.00     0.013 C 
ENDBRANCH   7   8
ENDBRANCH   1   7
TORSDOF 2
ENDMDL
