MODEL 1
REMARK minimizedAffinity 10.8448696
REMARK minimizedRMSD -1
REMARK  2 active torsions:
REMARK  status: ('A' for Active; 'I' for Inactive)
REMARK    1  A    between atoms: C2'_3  and  C1'_4 
REMARK    2  A    between atoms: C1'_4  and  C1_5 
ROOT
ATOM      1  C1  I4B d   1      -2.947   2.553  -3.547  0.00  0.00    -0.075 A 
ATOM      2  C2  I4B d   1      -3.710   1.801  -2.689  0.00  0.00     0.003 A 
ATOM      3  C3  I4B d   1      -3.101   0.829  -1.858  0.00  0.00     0.002 A 
ATOM      4  C4  I4B d   1      -1.742   0.610  -1.954  0.00  0.00    -0.004 A 
ATOM      5  C5  I4B d   1      -0.966   1.389  -2.807  0.00  0.00     0.002 A 
ATOM      6  C6  I4B d   1      -1.570   2.376  -3.600  0.00  0.00     0.003 A 
ENDROOT
BRANCH   1   7
ATOM      7  C1' I4B d   1      -3.627   3.547  -4.433  0.00  0.00     0.060 C 
BRANCH   7   8
ATOM      8  C2' I4B d   1      -4.829   2.869  -5.059  0.00  0.00    -0.013 C 
ATOM      9  C4' I4B d   1      -5.599   3.823  -5.933  0.00  0.00     0.013 C 
ATOM     10  C3' I4B d   1      -4.337   1.691  -5.846  0.00  0.00     0.013 C 
ENDBRANCH   7   8
ENDBRANCH   1   7
TORSDOF 2
ENDMDL
