MODEL 1
REMARK minimizedAffinity 9.19744682
REMARK minimizedRMSD -1
REMARK  2 active torsions:
REMARK  status: ('A' for Active; 'I' for Inactive)
REMARK    1  A    between atoms: C2'_3  and  C1'_4 
REMARK    2  A    between atoms: C1'_4  and  C1_5 
ROOT
ATOM      1  C1  I4B d   1      -4.957   1.362   3.304  0.00  0.00    -0.075 A 
ATOM      2  C2  I4B d   1      -3.635   1.408   3.671  0.00  0.00     0.003 A 
ATOM      3  C3  I4B d   1      -3.277   1.522   5.036  0.00  0.00     0.002 A 
ATOM      4  C4  I4B d   1      -4.267   1.637   5.990  0.00  0.00    -0.004 A 
ATOM      5  C5  I4B d   1      -5.607   1.567   5.619  0.00  0.00     0.002 A 
ATOM      6  C6  I4B d   1      -5.954   1.416   4.269  0.00  0.00     0.003 A 
ENDROOT
BRANCH   1   7
ATOM      7  C1' I4B d   1      -5.299   1.274   1.851  0.00  0.00     0.060 C 
BRANCH   7   8
ATOM      8  C2' I4B d   1      -4.013   1.050   1.081  0.00  0.00    -0.013 C 
ATOM      9  C4' I4B d   1      -3.922  -0.365   0.571  0.00  0.00     0.013 C 
ATOM     10  C3' I4B d   1      -3.971   2.036  -0.048  0.00  0.00     0.013 C 
ENDBRANCH   7   8
ENDBRANCH   1   7
TORSDOF 2
ENDMDL
