MODEL 1
REMARK minimizedAffinity 3.7686832
REMARK minimizedRMSD -1
REMARK  2 active torsions:
REMARK  status: ('A' for Active; 'I' for Inactive)
REMARK    1  A    between atoms: C2'_3  and  C1'_4 
REMARK    2  A    between atoms: C1'_4  and  C1_5 
ROOT
ATOM      1  C1  I4B d   1      -4.562  -0.165  -3.425  0.00  0.00    -0.075 A 
ATOM      2  C2  I4B d   1      -3.586  -0.742  -2.651  0.00  0.00     0.003 A 
ATOM      3  C3  I4B d   1      -3.192  -2.082  -2.882  0.00  0.00     0.002 A 
ATOM      4  C4  I4B d   1      -3.832  -2.820  -3.857  0.00  0.00    -0.004 A 
ATOM      5  C5  I4B d   1      -4.805  -2.227  -4.656  0.00  0.00     0.002 A 
ATOM      6  C6  I4B d   1      -5.164  -0.887  -4.447  0.00  0.00     0.003 A 
ENDROOT
BRANCH   1   7
ATOM      7  C1' I4B d   1      -4.976   1.242  -3.132  0.00  0.00     0.060 C 
BRANCH   7   8
ATOM      8  C2' I4B d   1      -4.367   1.641  -1.804  0.00  0.00    -0.013 C 
ATOM      9  C4' I4B d   1      -3.081   2.401  -2.000  0.00  0.00     0.013 C 
ATOM     10  C3' I4B d   1      -5.375   2.466  -1.061  0.00  0.00     0.013 C 
ENDBRANCH   7   8
ENDBRANCH   1   7
TORSDOF 2
ENDMDL
