MODEL 1
REMARK minimizedAffinity 17.0089855
REMARK minimizedRMSD -1
REMARK  2 active torsions:
REMARK  status: ('A' for Active; 'I' for Inactive)
REMARK    1  A    between atoms: C2'_3  and  C1'_4 
REMARK    2  A    between atoms: C1'_4  and  C1_5 
ROOT
ATOM      1  C1  I4B d   1       3.942  -3.625   5.208  0.00  0.00    -0.075 A 
ATOM      2  C2  I4B d   1       4.548  -2.594   5.883  0.00  0.00     0.003 A 
ATOM      3  C3  I4B d   1       4.881  -1.397   5.204  0.00  0.00     0.002 A 
ATOM      4  C4  I4B d   1       4.638  -1.293   3.850  0.00  0.00    -0.004 A 
ATOM      5  C5  I4B d   1       4.003  -2.330   3.172  0.00  0.00     0.002 A 
ATOM      6  C6  I4B d   1       3.641  -3.498   3.858  0.00  0.00     0.003 A 
ENDROOT
BRANCH   1   7
ATOM      7  C1' I4B d   1       3.634  -4.887   5.948  0.00  0.00     0.060 C 
BRANCH   7   8
ATOM      8  C2' I4B d   1       4.524  -5.982   5.395  0.00  0.00    -0.013 C 
ATOM      9  C4' I4B d   1       4.501  -5.995   3.889  0.00  0.00     0.013 C 
ATOM     10  C3' I4B d   1       5.913  -5.755   5.913  0.00  0.00     0.013 C 
ENDBRANCH   7   8
ENDBRANCH   1   7
TORSDOF 2
ENDMDL
