MODEL 1
REMARK minimizedAffinity 10.6897955
REMARK minimizedRMSD -1
REMARK  2 active torsions:
REMARK  status: ('A' for Active; 'I' for Inactive)
REMARK    1  A    between atoms: C2'_3  and  C1'_4 
REMARK    2  A    between atoms: C1'_4  and  C1_5 
ROOT
ATOM      1  C1  I4B d   1       1.104  -1.978   1.296  0.00  0.00    -0.075 A 
ATOM      2  C2  I4B d   1      -0.253  -2.175   1.354  0.00  0.00     0.003 A 
ATOM      3  C3  I4B d   1      -1.018  -1.573   2.382  0.00  0.00     0.002 A 
ATOM      4  C4  I4B d   1      -0.382  -0.830   3.355  0.00  0.00    -0.004 A 
ATOM      5  C5  I4B d   1       0.991  -0.612   3.283  0.00  0.00     0.002 A 
ATOM      6  C6  I4B d   1       1.737  -1.180   2.240  0.00  0.00     0.003 A 
ENDROOT
BRANCH   1   7
ATOM      7  C1' I4B d   1       1.886  -2.655   0.216  0.00  0.00     0.060 C 
BRANCH   7   8
ATOM      8  C2' I4B d   1       2.246  -4.045   0.701  0.00  0.00    -0.013 C 
ATOM      9  C4' I4B d   1       1.038  -4.944   0.723  0.00  0.00     0.013 C 
ATOM     10  C3' I4B d   1       3.310  -4.590  -0.205  0.00  0.00     0.013 C 
ENDBRANCH   7   8
ENDBRANCH   1   7
TORSDOF 2
ENDMDL
