MODEL 1
REMARK minimizedAffinity 8.31754589
REMARK minimizedRMSD -1
REMARK  2 active torsions:
REMARK  status: ('A' for Active; 'I' for Inactive)
REMARK    1  A    between atoms: C2'_3  and  C1'_4 
REMARK    2  A    between atoms: C1'_4  and  C1_5 
ROOT
ATOM      1  C1  I4B d   1       2.235  -1.480   0.102  0.00  0.00    -0.075 A 
ATOM      2  C2  I4B d   1       1.550  -1.512   1.291  0.00  0.00     0.003 A 
ATOM      3  C3  I4B d   1       0.969  -2.720   1.747  0.00  0.00     0.002 A 
ATOM      4  C4  I4B d   1       1.053  -3.853   0.963  0.00  0.00    -0.004 A 
ATOM      5  C5  I4B d   1       1.768  -3.824  -0.231  0.00  0.00     0.002 A 
ATOM      6  C6  I4B d   1       2.373  -2.634  -0.659  0.00  0.00     0.003 A 
ENDROOT
BRANCH   1   7
ATOM      7  C1' I4B d   1       2.808  -0.180  -0.365  0.00  0.00     0.060 C 
BRANCH   7   8
ATOM      8  C2' I4B d   1       4.223  -0.075   0.168  0.00  0.00    -0.013 C 
ATOM      9  C4' I4B d   1       5.218  -0.635  -0.814  0.00  0.00     0.013 C 
ATOM     10  C3' I4B d   1       4.502   1.370   0.458  0.00  0.00     0.013 C 
ENDBRANCH   7   8
ENDBRANCH   1   7
TORSDOF 2
ENDMDL
