MODEL 1
REMARK minimizedAffinity -3.13466358
REMARK minimizedRMSD -1
REMARK  1 active torsions:
REMARK  status: ('A' for Active; 'I' for Inactive)
REMARK    1  A    between atoms: C1_2  and  C2_3 
ROOT
ATOM      1  C2  UNL d   1       0.585   0.438  -0.226  0.00  0.00    -0.076 A 
ATOM      2  C3  UNL d   1      -0.695   0.917  -0.558  0.00  0.00     0.004 A 
ATOM      3  C4  UNL d   1      -1.665   0.066  -1.084  0.00  0.00    -0.003 A 
ATOM      4  C5  UNL d   1      -1.372  -1.278  -1.286  0.00  0.00     0.000 A 
ATOM      5  C6  UNL d   1      -0.114  -1.774  -0.947  0.00  0.00     0.000 A 
ATOM      6  C7  UNL d   1       0.871  -0.933  -0.400  0.00  0.00    -0.073 A 
ATOM      7  C8  UNL d   1       2.213  -1.519  -0.058  0.00  0.00     0.078 C 
ENDROOT
BRANCH   1   8
ATOM      8  C1  UNL d   1       1.605   1.414   0.315  0.00  0.00     0.053 C 
ATOM      9  C   UNL d   1       1.301   2.852  -0.076  0.00  0.00     0.018 C 
ENDBRANCH   1   8
TORSDOF 1
ENDMDL
