MODEL 1
REMARK minimizedAffinity -0.435135424
REMARK minimizedRMSD -1
REMARK  1 active torsions:
REMARK  status: ('A' for Active; 'I' for Inactive)
REMARK    1  A    between atoms: C1_2  and  C2_3 
ROOT
ATOM      1  C2  UNL d   1      -0.476  -0.259  -0.179  0.00  0.00    -0.076 A 
ATOM      2  C3  UNL d   1       0.315   0.853   0.161  0.00  0.00     0.004 A 
ATOM      3  C4  UNL d   1       1.685   0.718   0.378  0.00  0.00    -0.003 A 
ATOM      4  C5  UNL d   1       2.287  -0.529   0.258  0.00  0.00     0.000 A 
ATOM      5  C6  UNL d   1       1.520  -1.640  -0.096  0.00  0.00     0.000 A 
ATOM      6  C7  UNL d   1       0.140  -1.518  -0.334  0.00  0.00    -0.073 A 
ATOM      7  C8  UNL d   1      -0.638  -2.750  -0.707  0.00  0.00     0.078 C 
ENDROOT
BRANCH   1   8
ATOM      8  C1  UNL d   1      -1.962  -0.057  -0.376  0.00  0.00     0.053 C 
ATOM      9  C   UNL d   1      -2.642   0.509   0.861  0.00  0.00     0.018 C 
ENDBRANCH   1   8
TORSDOF 1
ENDMDL
