MODEL 1
REMARK minimizedAffinity -2.74695873
REMARK minimizedRMSD -1
REMARK  1 active torsions:
REMARK  status: ('A' for Active; 'I' for Inactive)
REMARK    1  A    between atoms: C1_2  and  C2_3 
ROOT
ATOM      1  C2  UNL d   1      -0.351  -0.380  -0.403  0.00  0.00    -0.076 A 
ATOM      2  C3  UNL d   1      -1.003  -1.616  -0.550  0.00  0.00     0.004 A 
ATOM      3  C4  UNL d   1      -0.283  -2.809  -0.570  0.00  0.00    -0.003 A 
ATOM      4  C5  UNL d   1       1.101  -2.786  -0.441  0.00  0.00     0.000 A 
ATOM      5  C6  UNL d   1       1.763  -1.570  -0.276  0.00  0.00     0.000 A 
ATOM      6  C7  UNL d   1       1.051  -0.359  -0.238  0.00  0.00    -0.073 A 
ATOM      7  C8  UNL d   1       1.816   0.924  -0.064  0.00  0.00     0.078 C 
ENDROOT
BRANCH   1   8
ATOM      8  C1  UNL d   1      -1.181   0.884  -0.416  0.00  0.00     0.053 C 
ATOM      9  C   UNL d   1      -2.297   0.859   0.617  0.00  0.00     0.018 C 
ENDBRANCH   1   8
TORSDOF 1
ENDMDL
