MODEL 1
REMARK minimizedAffinity -2.53843927
REMARK minimizedRMSD -1
REMARK  1 active torsions:
REMARK  status: ('A' for Active; 'I' for Inactive)
REMARK    1  A    between atoms: C1_2  and  C2_3 
ROOT
ATOM      1  C2  UNL d   1       0.613   0.075  -0.278  0.00  0.00    -0.076 A 
ATOM      2  C3  UNL d   1       0.372  -1.298  -0.466  0.00  0.00     0.004 A 
ATOM      3  C4  UNL d   1       1.423  -2.213  -0.493  0.00  0.00    -0.003 A 
ATOM      4  C5  UNL d   1       2.731  -1.771  -0.333  0.00  0.00     0.000 A 
ATOM      5  C6  UNL d   1       2.987  -0.416  -0.128  0.00  0.00     0.000 A 
ATOM      6  C7  UNL d   1       1.938   0.518  -0.082  0.00  0.00    -0.073 A 
ATOM      7  C8  UNL d   1       2.272   1.969   0.136  0.00  0.00     0.078 C 
ENDROOT
BRANCH   1   8
ATOM      8  C1  UNL d   1      -0.564   1.024  -0.285  0.00  0.00     0.053 C 
ATOM      9  C   UNL d   1      -1.695   0.556   0.619  0.00  0.00     0.018 C 
ENDBRANCH   1   8
TORSDOF 1
ENDMDL
