MODEL 1
REMARK minimizedAffinity 1.77894247
REMARK minimizedRMSD -1
REMARK  0 active torsions:
REMARK  status: ('A' for Active; 'I' for Inactive)
ROOT
ATOM      1  C   UNL d   1       5.998   5.977   2.154  0.00  0.00     0.078 C 
ATOM      2  C1  UNL d   1       5.346   4.803   1.487  0.00  0.00    -0.077 A 
ATOM      3  C2  UNL d   1       4.091   4.342   1.904  0.00  0.00    -0.001 A 
ATOM      4  C3  UNL d   1       3.500   3.242   1.280  0.00  0.00     0.003 A 
ATOM      5  C4  UNL d   1       4.157   2.592   0.237  0.00  0.00    -0.005 A 
ATOM      6  C5  UNL d   1       5.407   3.042  -0.183  0.00  0.00     0.003 A 
ATOM      7  C6  UNL d   1       6.000   4.142   0.439  0.00  0.00    -0.001 A 
ENDROOT
TORSDOF 0
ENDMDL
