MODEL 1
REMARK minimizedAffinity -5.41630077
REMARK minimizedRMSD -1
REMARK  0 active torsions:
REMARK  status: ('A' for Active; 'I' for Inactive)
ROOT
ATOM      1  C   UNL d   1       3.660  -0.184  -1.063  0.00  0.00     0.078 C 
ATOM      2  C1  UNL d   1       2.212  -0.423  -0.752  0.00  0.00    -0.077 A 
ATOM      3  C2  UNL d   1       1.298   0.637  -0.713  0.00  0.00    -0.001 A 
ATOM      4  C3  UNL d   1      -0.044   0.401  -0.412  0.00  0.00     0.003 A 
ATOM      5  C4  UNL d   1      -0.484  -0.894  -0.147  0.00  0.00    -0.005 A 
ATOM      6  C5  UNL d   1       0.418  -1.955  -0.180  0.00  0.00     0.003 A 
ATOM      7  C6  UNL d   1       1.761  -1.721  -0.481  0.00  0.00    -0.001 A 
ENDROOT
TORSDOF 0
ENDMDL
