MODEL 1
REMARK minimizedAffinity -1.40606737
REMARK minimizedRMSD -1
REMARK  0 active torsions:
REMARK  status: ('A' for Active; 'I' for Inactive)
ROOT
ATOM      1  C   UNL d   1      -0.837  -0.013  -0.309  0.00  0.00     0.078 C 
ATOM      2  C1  UNL d   1      -1.253   0.279   1.102  0.00  0.00    -0.077 A 
ATOM      3  C2  UNL d   1      -0.868   1.467   1.736  0.00  0.00    -0.001 A 
ATOM      4  C3  UNL d   1      -1.255   1.721   3.053  0.00  0.00     0.003 A 
ATOM      5  C4  UNL d   1      -2.026   0.792   3.748  0.00  0.00    -0.005 A 
ATOM      6  C5  UNL d   1      -2.412  -0.393   3.126  0.00  0.00     0.003 A 
ATOM      7  C6  UNL d   1      -2.027  -0.650   1.809  0.00  0.00    -0.001 A 
ENDROOT
TORSDOF 0
ENDMDL
