MODEL 1
REMARK minimizedAffinity -5.28649759
REMARK minimizedRMSD -1
REMARK  0 active torsions:
REMARK  status: ('A' for Active; 'I' for Inactive)
ROOT
ATOM      1  C   UNL d   1      -0.877   0.216   0.426  0.00  0.00     0.078 C 
ATOM      2  C1  UNL d   1       0.462  -0.148  -0.141  0.00  0.00    -0.077 A 
ATOM      3  C2  UNL d   1       1.265   0.812  -0.768  0.00  0.00    -0.001 A 
ATOM      4  C3  UNL d   1       2.506   0.457  -1.300  0.00  0.00     0.003 A 
ATOM      5  C4  UNL d   1       2.954  -0.860  -1.210  0.00  0.00    -0.005 A 
ATOM      6  C5  UNL d   1       2.161  -1.823  -0.589  0.00  0.00     0.003 A 
ATOM      7  C6  UNL d   1       0.920  -1.469  -0.057  0.00  0.00    -0.001 A 
ENDROOT
TORSDOF 0
ENDMDL
