MODEL 1
REMARK minimizedAffinity -4.82430696
REMARK minimizedRMSD -1
REMARK  0 active torsions:
REMARK  status: ('A' for Active; 'I' for Inactive)
ROOT
ATOM      1  C   UNL d   1       3.128  -0.534  -1.053  0.00  0.00     0.078 C 
ATOM      2  C1  UNL d   1       1.812   0.131  -0.782  0.00  0.00    -0.077 A 
ATOM      3  C2  UNL d   1       0.738  -0.588  -0.243  0.00  0.00    -0.001 A 
ATOM      4  C3  UNL d   1      -0.485   0.041  -0.005  0.00  0.00     0.003 A 
ATOM      5  C4  UNL d   1      -0.646   1.393  -0.305  0.00  0.00    -0.005 A 
ATOM      6  C5  UNL d   1       0.417   2.116  -0.843  0.00  0.00     0.003 A 
ATOM      7  C6  UNL d   1       1.640   1.488  -1.082  0.00  0.00    -0.001 A 
ENDROOT
TORSDOF 0
ENDMDL
