MODEL 1
REMARK minimizedAffinity -5.07043266
REMARK minimizedRMSD -1
REMARK  0 active torsions:
REMARK  status: ('A' for Active; 'I' for Inactive)
ROOT
ATOM      1  C   UNL d   1      -0.722   0.371   0.423  0.00  0.00     0.078 C 
ATOM      2  C1  UNL d   1       0.442  -0.127  -0.380  0.00  0.00    -0.077 A 
ATOM      3  C2  UNL d   1       1.470   0.739  -0.774  0.00  0.00    -0.001 A 
ATOM      4  C3  UNL d   1       2.543   0.264  -1.529  0.00  0.00     0.003 A 
ATOM      5  C4  UNL d   1       2.599  -1.078  -1.898  0.00  0.00    -0.005 A 
ATOM      6  C5  UNL d   1       1.580  -1.947  -1.512  0.00  0.00     0.003 A 
ATOM      7  C6  UNL d   1       0.506  -1.474  -0.757  0.00  0.00    -0.001 A 
ENDROOT
TORSDOF 0
ENDMDL
