MODEL 1
REMARK minimizedAffinity -3.80874777
REMARK minimizedRMSD -1
REMARK  0 active torsions:
REMARK  status: ('A' for Active; 'I' for Inactive)
ROOT
ATOM      1  C   UNL d   1      -0.016   0.235   0.001  0.00  0.00     0.078 C 
ATOM      2  C1  UNL d   1       1.272   0.062  -0.749  0.00  0.00    -0.077 A 
ATOM      3  C2  UNL d   1       2.120  -1.020  -0.484  0.00  0.00    -0.001 A 
ATOM      4  C3  UNL d   1       3.320  -1.163  -1.183  0.00  0.00     0.003 A 
ATOM      5  C4  UNL d   1       3.683  -0.228  -2.150  0.00  0.00    -0.005 A 
ATOM      6  C5  UNL d   1       2.846   0.853  -2.419  0.00  0.00     0.003 A 
ATOM      7  C6  UNL d   1       1.645   0.998  -1.721  0.00  0.00    -0.001 A 
ENDROOT
TORSDOF 0
ENDMDL
