MODEL 1
REMARK minimizedAffinity -4.85334253
REMARK minimizedRMSD -1
REMARK  0 active torsions:
REMARK  status: ('A' for Active; 'I' for Inactive)
ROOT
ATOM      1  C   UNL d   1       2.237   1.611  -2.408  0.00  0.00     0.078 C 
ATOM      2  C1  UNL d   1       1.740   0.453  -1.594  0.00  0.00    -0.077 A 
ATOM      3  C2  UNL d   1       0.617   0.582  -0.768  0.00  0.00    -0.001 A 
ATOM      4  C3  UNL d   1       0.171  -0.500  -0.009  0.00  0.00     0.003 A 
ATOM      5  C4  UNL d   1       0.843  -1.720  -0.067  0.00  0.00    -0.005 A 
ATOM      6  C5  UNL d   1       1.963  -1.857  -0.884  0.00  0.00     0.003 A 
ATOM      7  C6  UNL d   1       2.410  -0.775  -1.645  0.00  0.00    -0.001 A 
ENDROOT
TORSDOF 0
ENDMDL
