MODEL 1
REMARK minimizedAffinity -0.261592358
REMARK minimizedRMSD -1
REMARK  0 active torsions:
REMARK  status: ('A' for Active; 'I' for Inactive)
ROOT
ATOM      1  C   UNL d   1       5.706  -1.483   5.983  0.00  0.00     0.078 C 
ATOM      2  C1  UNL d   1       5.286  -0.216   5.300  0.00  0.00    -0.077 A 
ATOM      3  C2  UNL d   1       5.639   0.037   3.969  0.00  0.00    -0.001 A 
ATOM      4  C3  UNL d   1       5.249   1.226   3.349  0.00  0.00     0.003 A 
ATOM      5  C4  UNL d   1       4.505   2.171   4.053  0.00  0.00    -0.005 A 
ATOM      6  C5  UNL d   1       4.151   1.928   5.378  0.00  0.00     0.003 A 
ATOM      7  C6  UNL d   1       4.540   0.741   6.000  0.00  0.00    -0.001 A 
ENDROOT
TORSDOF 0
ENDMDL
