MODEL 1
REMARK minimizedAffinity -5.16725159
REMARK minimizedRMSD -1
REMARK  0 active torsions:
REMARK  status: ('A' for Active; 'I' for Inactive)
ROOT
ATOM      1  C   UNL d   1      -0.533  -2.918  -0.279  0.00  0.00     0.078 C 
ATOM      2  C1  UNL d   1       0.264  -1.681  -0.568  0.00  0.00    -0.077 A 
ATOM      3  C2  UNL d   1      -0.007  -0.477   0.092  0.00  0.00    -0.001 A 
ATOM      4  C3  UNL d   1       0.737   0.669  -0.194  0.00  0.00     0.003 A 
ATOM      5  C4  UNL d   1       1.757   0.622  -1.142  0.00  0.00    -0.005 A 
ATOM      6  C5  UNL d   1       2.033  -0.571  -1.806  0.00  0.00     0.003 A 
ATOM      7  C6  UNL d   1       1.290  -1.718  -1.521  0.00  0.00    -0.001 A 
ENDROOT
TORSDOF 0
ENDMDL
