MODEL 1
REMARK minimizedAffinity -5.15034389
REMARK minimizedRMSD -1
REMARK  0 active torsions:
REMARK  status: ('A' for Active; 'I' for Inactive)
ROOT
ATOM      1  C   UNL d   1       3.212  -0.805  -1.042  0.00  0.00     0.078 C 
ATOM      2  C1  UNL d   1       1.786  -0.596  -0.630  0.00  0.00    -0.077 A 
ATOM      3  C2  UNL d   1       1.376   0.603  -0.033  0.00  0.00    -0.001 A 
ATOM      4  C3  UNL d   1       0.047   0.780   0.355  0.00  0.00     0.003 A 
ATOM      5  C4  UNL d   1      -0.883  -0.237   0.151  0.00  0.00    -0.005 A 
ATOM      6  C5  UNL d   1      -0.484  -1.434  -0.441  0.00  0.00     0.003 A 
ATOM      7  C6  UNL d   1       0.844  -1.613  -0.829  0.00  0.00    -0.001 A 
ENDROOT
TORSDOF 0
ENDMDL
