MODEL 1
REMARK minimizedAffinity -4.96936703
REMARK minimizedRMSD -1
REMARK  0 active torsions:
REMARK  status: ('A' for Active; 'I' for Inactive)
ROOT
ATOM      1  C   UNL d   1       3.590  -0.123  -0.656  0.00  0.00     0.078 C 
ATOM      2  C1  UNL d   1       2.126  -0.429  -0.552  0.00  0.00    -0.077 A 
ATOM      3  C2  UNL d   1       1.608  -1.642  -1.022  0.00  0.00    -0.001 A 
ATOM      4  C3  UNL d   1       0.241  -1.910  -0.927  0.00  0.00     0.003 A 
ATOM      5  C4  UNL d   1      -0.619  -0.969  -0.365  0.00  0.00    -0.005 A 
ATOM      6  C5  UNL d   1      -0.113   0.242   0.103  0.00  0.00     0.003 A 
ATOM      7  C6  UNL d   1       1.254   0.511   0.010  0.00  0.00    -0.001 A 
ENDROOT
TORSDOF 0
ENDMDL
