MODEL 1
REMARK minimizedAffinity -2.71472764
REMARK minimizedRMSD -1
REMARK  2 active torsions:
REMARK  status: ('A' for Active; 'I' for Inactive)
REMARK    1  A    between atoms: C1_2  and  C2_3 
REMARK    2  A    between atoms: C2_3  and  C3_4 
ROOT
ATOM      1  C3  UNL d   1       0.012   0.096  -0.156  0.00  0.00    -0.075 A 
ATOM      2  C4  UNL d   1       0.309  -0.560   1.048  0.00  0.00     0.002 A 
ATOM      3  C5  UNL d   1       1.412  -1.409   1.138  0.00  0.00     0.002 A 
ATOM      4  C6  UNL d   1       2.226  -1.620   0.027  0.00  0.00    -0.004 A 
ATOM      5  C7  UNL d   1       1.931  -0.986  -1.178  0.00  0.00     0.002 A 
ATOM      6  C8  UNL d   1       0.830  -0.133  -1.271  0.00  0.00     0.002 A 
ENDROOT
BRANCH   1   7
ATOM      7  C2  UNL d   1      -1.164   1.039  -0.252  0.00  0.00     0.056 C 
BRANCH   7   8
ATOM      8  C1  UNL d   1      -1.496   1.478  -1.682  0.00  0.00     0.007 C 
ATOM      9  C   UNL d   1      -2.975   1.352  -2.021  0.00  0.00     0.009 C 
ENDBRANCH   7   8
ENDBRANCH   1   7
TORSDOF 2
ENDMDL
