MODEL 1
REMARK minimizedAffinity -5.63483524
REMARK minimizedRMSD -1
REMARK  2 active torsions:
REMARK  status: ('A' for Active; 'I' for Inactive)
REMARK    1  A    between atoms: C1_2  and  C2_3 
REMARK    2  A    between atoms: C2_3  and  C3_4 
ROOT
ATOM      1  C3  UNL d   1      -0.263   0.182   0.534  0.00  0.00    -0.075 A 
ATOM      2  C4  UNL d   1      -0.525  -0.495   1.735  0.00  0.00     0.002 A 
ATOM      3  C5  UNL d   1       0.363  -1.459   2.213  0.00  0.00     0.002 A 
ATOM      4  C6  UNL d   1       1.516  -1.766   1.493  0.00  0.00    -0.004 A 
ATOM      5  C7  UNL d   1       1.778  -1.112   0.291  0.00  0.00     0.002 A 
ATOM      6  C8  UNL d   1       0.893  -0.144  -0.187  0.00  0.00     0.002 A 
ENDROOT
BRANCH   1   7
ATOM      7  C2  UNL d   1      -1.205   1.247   0.027  0.00  0.00     0.056 C 
BRANCH   7   8
ATOM      8  C1  UNL d   1      -1.554   1.114  -1.459  0.00  0.00     0.007 C 
ATOM      9  C   UNL d   1      -3.001   1.475  -1.771  0.00  0.00     0.009 C 
ENDBRANCH   7   8
ENDBRANCH   1   7
TORSDOF 2
ENDMDL
