MODEL 1
REMARK minimizedAffinity -1.66126788
REMARK minimizedRMSD -1
REMARK  2 active torsions:
REMARK  status: ('A' for Active; 'I' for Inactive)
REMARK    1  A    between atoms: C1_2  and  C2_3 
REMARK    2  A    between atoms: C2_3  and  C3_4 
ROOT
ATOM      1  C3  UNL d   1      -0.356   0.601  -0.587  0.00  0.00    -0.075 A 
ATOM      2  C4  UNL d   1       0.607   0.193  -1.521  0.00  0.00     0.002 A 
ATOM      3  C5  UNL d   1       1.665  -0.629  -1.133  0.00  0.00     0.002 A 
ATOM      4  C6  UNL d   1       1.780  -1.043   0.193  0.00  0.00    -0.004 A 
ATOM      5  C7  UNL d   1       0.838  -0.629   1.132  0.00  0.00     0.002 A 
ATOM      6  C8  UNL d   1      -0.224   0.189   0.746  0.00  0.00     0.002 A 
ENDROOT
BRANCH   1   7
ATOM      7  C2  UNL d   1      -1.521   1.466  -1.007  0.00  0.00     0.056 C 
BRANCH   7   8
ATOM      8  C1  UNL d   1      -1.258   2.298  -2.266  0.00  0.00     0.007 C 
ATOM      9  C   UNL d   1      -2.521   2.599  -3.062  0.00  0.00     0.009 C 
ENDBRANCH   7   8
ENDBRANCH   1   7
TORSDOF 2
ENDMDL
