MODEL 1
REMARK minimizedAffinity -3.18297696
REMARK minimizedRMSD -1
REMARK  2 active torsions:
REMARK  status: ('A' for Active; 'I' for Inactive)
REMARK    1  A    between atoms: C1_2  and  C2_3 
REMARK    2  A    between atoms: C2_3  and  C3_4 
ROOT
ATOM      1  C3  UNL d   1      -1.384   1.349  -1.197  0.00  0.00    -0.075 A 
ATOM      2  C4  UNL d   1      -2.731   0.965  -1.262  0.00  0.00     0.002 A 
ATOM      3  C5  UNL d   1      -3.557   1.446  -2.278  0.00  0.00     0.002 A 
ATOM      4  C6  UNL d   1      -3.052   2.324  -3.234  0.00  0.00    -0.004 A 
ATOM      5  C7  UNL d   1      -1.719   2.726  -3.170  0.00  0.00     0.002 A 
ATOM      6  C8  UNL d   1      -0.889   2.243  -2.157  0.00  0.00     0.002 A 
ENDROOT
BRANCH   1   7
ATOM      7  C2  UNL d   1      -0.477   0.809  -0.118  0.00  0.00     0.056 C 
BRANCH   7   8
ATOM      8  C1  UNL d   1       0.400  -0.363  -0.569  0.00  0.00     0.007 C 
ATOM      9  C   UNL d   1       1.881  -0.147  -0.289  0.00  0.00     0.009 C 
ENDBRANCH   7   8
ENDBRANCH   1   7
TORSDOF 2
ENDMDL
