MODEL 1
REMARK minimizedAffinity -1.01869881
REMARK minimizedRMSD -1
REMARK  2 active torsions:
REMARK  status: ('A' for Active; 'I' for Inactive)
REMARK    1  A    between atoms: C1_2  and  C2_3 
REMARK    2  A    between atoms: C2_3  and  C3_4 
ROOT
ATOM      1  C3  UNL d   1       0.437  -0.620   0.594  0.00  0.00    -0.075 A 
ATOM      2  C4  UNL d   1      -0.416  -0.794   1.693  0.00  0.00     0.002 A 
ATOM      3  C5  UNL d   1       0.054  -1.380   2.869  0.00  0.00     0.002 A 
ATOM      4  C6  UNL d   1       1.377  -1.808   2.957  0.00  0.00    -0.004 A 
ATOM      5  C7  UNL d   1       2.229  -1.655   1.865  0.00  0.00     0.002 A 
ATOM      6  C8  UNL d   1       1.762  -1.065   0.689  0.00  0.00     0.002 A 
ENDROOT
BRANCH   1   7
ATOM      7  C2  UNL d   1      -0.058   0.040  -0.671  0.00  0.00     0.056 C 
BRANCH   7   8
ATOM      8  C1  UNL d   1      -0.866   1.319  -0.432  0.00  0.00     0.007 C 
ATOM      9  C   UNL d   1      -1.649   1.773  -1.657  0.00  0.00     0.009 C 
ENDBRANCH   7   8
ENDBRANCH   1   7
TORSDOF 2
ENDMDL
