MODEL 1
REMARK minimizedAffinity -4.15213108
REMARK minimizedRMSD -1
REMARK  2 active torsions:
REMARK  status: ('A' for Active; 'I' for Inactive)
REMARK    1  A    between atoms: C1_2  and  C2_3 
REMARK    2  A    between atoms: C2_3  and  C3_4 
ROOT
ATOM      1  C3  UNL d   1      -0.146   0.582  -0.505  0.00  0.00    -0.075 A 
ATOM      2  C4  UNL d   1       1.132   0.156  -0.896  0.00  0.00     0.002 A 
ATOM      3  C5  UNL d   1       1.850  -0.746  -0.111  0.00  0.00     0.002 A 
ATOM      4  C6  UNL d   1       1.305  -1.227   1.078  0.00  0.00    -0.004 A 
ATOM      5  C7  UNL d   1       0.043  -0.798   1.485  0.00  0.00     0.002 A 
ATOM      6  C8  UNL d   1      -0.679   0.101   0.699  0.00  0.00     0.002 A 
ENDROOT
BRANCH   1   7
ATOM      7  C2  UNL d   1      -0.940   1.536  -1.365  0.00  0.00     0.056 C 
BRANCH   7   8
ATOM      8  C1  UNL d   1      -2.240   0.943  -1.917  0.00  0.00     0.007 C 
ATOM      9  C   UNL d   1      -2.720   1.629  -3.189  0.00  0.00     0.009 C 
ENDBRANCH   7   8
ENDBRANCH   1   7
TORSDOF 2
ENDMDL
