MODEL 1
REMARK minimizedAffinity -5.00626707
REMARK minimizedRMSD -1
REMARK  2 active torsions:
REMARK  status: ('A' for Active; 'I' for Inactive)
REMARK    1  A    between atoms: C1_2  and  C2_3 
REMARK    2  A    between atoms: C2_3  and  C3_4 
ROOT
ATOM      1  C3  UNL d   1      -0.799   0.210  -1.938  0.00  0.00    -0.075 A 
ATOM      2  C4  UNL d   1       0.196  -0.770  -2.068  0.00  0.00     0.002 A 
ATOM      3  C5  UNL d   1       1.147  -0.951  -1.063  0.00  0.00     0.002 A 
ATOM      4  C6  UNL d   1       1.122  -0.150   0.077  0.00  0.00    -0.004 A 
ATOM      5  C7  UNL d   1       0.148   0.837   0.209  0.00  0.00     0.002 A 
ATOM      6  C8  UNL d   1      -0.807   1.017  -0.793  0.00  0.00     0.002 A 
ENDROOT
BRANCH   1   7
ATOM      7  C2  UNL d   1      -1.849   0.391  -3.008  0.00  0.00     0.056 C 
BRANCH   7   8
ATOM      8  C1  UNL d   1      -2.589   1.730  -2.935  0.00  0.00     0.007 C 
ATOM      9  C   UNL d   1      -1.781   2.894  -3.494  0.00  0.00     0.009 C 
ENDBRANCH   7   8
ENDBRANCH   1   7
TORSDOF 2
ENDMDL
