MODEL 1
REMARK minimizedAffinity -3.64950109
REMARK minimizedRMSD -1
REMARK  2 active torsions:
REMARK  status: ('A' for Active; 'I' for Inactive)
REMARK    1  A    between atoms: C1_2  and  C2_3 
REMARK    2  A    between atoms: C2_3  and  C3_4 
ROOT
ATOM      1  C3  UNL d   1       0.452  -0.455   0.464  0.00  0.00    -0.075 A 
ATOM      2  C4  UNL d   1       1.643  -1.136   0.755  0.00  0.00     0.002 A 
ATOM      3  C5  UNL d   1       1.808  -1.782   1.980  0.00  0.00     0.002 A 
ATOM      4  C6  UNL d   1       0.792  -1.746   2.932  0.00  0.00    -0.004 A 
ATOM      5  C7  UNL d   1      -0.389  -1.059   2.661  0.00  0.00     0.002 A 
ATOM      6  C8  UNL d   1      -0.559  -0.415   1.433  0.00  0.00     0.002 A 
ENDROOT
BRANCH   1   7
ATOM      7  C2  UNL d   1       0.255   0.221  -0.872  0.00  0.00     0.056 C 
BRANCH   7   8
ATOM      8  C1  UNL d   1      -1.176   0.710  -1.119  0.00  0.00     0.007 C 
ATOM      9  C   UNL d   1      -1.278   1.718  -2.256  0.00  0.00     0.009 C 
ENDBRANCH   7   8
ENDBRANCH   1   7
TORSDOF 2
ENDMDL
