MODEL 1
REMARK minimizedAffinity -3.31736255
REMARK minimizedRMSD -1
REMARK  2 active torsions:
REMARK  status: ('A' for Active; 'I' for Inactive)
REMARK    1  A    between atoms: C1_2  and  C2_3 
REMARK    2  A    between atoms: C2_3  and  C3_4 
ROOT
ATOM      1  C3  UNL d   1      -0.596   0.707  -0.634  0.00  0.00    -0.075 A 
ATOM      2  C4  UNL d   1      -1.081   0.117  -1.810  0.00  0.00     0.002 A 
ATOM      3  C5  UNL d   1      -1.894   0.841  -2.682  0.00  0.00     0.002 A 
ATOM      4  C6  UNL d   1      -2.240   2.157  -2.386  0.00  0.00    -0.004 A 
ATOM      5  C7  UNL d   1      -1.778   2.748  -1.212  0.00  0.00     0.002 A 
ATOM      6  C8  UNL d   1      -0.961   2.028  -0.340  0.00  0.00     0.002 A 
ENDROOT
BRANCH   1   7
ATOM      7  C2  UNL d   1       0.308  -0.061   0.300  0.00  0.00     0.056 C 
BRANCH   7   8
ATOM      8  C1  UNL d   1       1.801   0.087  -0.015  0.00  0.00     0.007 C 
ATOM      9  C   UNL d   1       2.394  -1.139  -0.697  0.00  0.00     0.009 C 
ENDBRANCH   7   8
ENDBRANCH   1   7
TORSDOF 2
ENDMDL
