MODEL 1
REMARK minimizedAffinity -3.85560131
REMARK minimizedRMSD -1
REMARK  2 active torsions:
REMARK  status: ('A' for Active; 'I' for Inactive)
REMARK    1  A    between atoms: C1_2  and  C2_3 
REMARK    2  A    between atoms: C2_3  and  C3_4 
ROOT
ATOM      1  C3  UNL d   1       0.081   0.787  -0.704  0.00  0.00    -0.075 A 
ATOM      2  C4  UNL d   1       1.016   0.549  -1.722  0.00  0.00     0.002 A 
ATOM      3  C5  UNL d   1       2.018  -0.407  -1.555  0.00  0.00     0.002 A 
ATOM      4  C6  UNL d   1       2.104  -1.130  -0.366  0.00  0.00    -0.004 A 
ATOM      5  C7  UNL d   1       1.190  -0.890   0.658  0.00  0.00     0.002 A 
ATOM      6  C8  UNL d   1       0.184   0.064   0.491  0.00  0.00     0.002 A 
ENDROOT
BRANCH   1   7
ATOM      7  C2  UNL d   1      -1.023   1.800  -0.891  0.00  0.00     0.056 C 
BRANCH   7   8
ATOM      8  C1  UNL d   1      -1.048   2.447  -2.280  0.00  0.00     0.007 C 
ATOM      9  C   UNL d   1      -2.414   2.381  -2.949  0.00  0.00     0.009 C 
ENDBRANCH   7   8
ENDBRANCH   1   7
TORSDOF 2
ENDMDL
