MODEL 1
REMARK minimizedAffinity -2.98661304
REMARK minimizedRMSD -1
REMARK  2 active torsions:
REMARK  status: ('A' for Active; 'I' for Inactive)
REMARK    1  A    between atoms: C1_2  and  C2_3 
REMARK    2  A    between atoms: C2_3  and  C3_4 
ROOT
ATOM      1  C3  UNL d   1      -0.191  -0.020  -0.554  0.00  0.00    -0.075 A 
ATOM      2  C4  UNL d   1       0.123  -0.437   0.748  0.00  0.00     0.002 A 
ATOM      3  C5  UNL d   1       1.312  -1.121   1.005  0.00  0.00     0.002 A 
ATOM      4  C6  UNL d   1       2.194  -1.405  -0.035  0.00  0.00    -0.004 A 
ATOM      5  C7  UNL d   1       1.884  -1.010  -1.334  0.00  0.00     0.002 A 
ATOM      6  C8  UNL d   1       0.698  -0.322  -1.594  0.00  0.00     0.002 A 
ENDROOT
BRANCH   1   7
ATOM      7  C2  UNL d   1      -1.462   0.746  -0.834  0.00  0.00     0.056 C 
BRANCH   7   8
ATOM      8  C1  UNL d   1      -1.331   1.782  -1.955  0.00  0.00     0.007 C 
ATOM      9  C   UNL d   1      -2.267   1.520  -3.127  0.00  0.00     0.009 C 
ENDBRANCH   7   8
ENDBRANCH   1   7
TORSDOF 2
ENDMDL
