MODEL 1
REMARK minimizedAffinity 5.60033846
REMARK minimizedRMSD -1
REMARK  1 active torsions:
REMARK  status: ('A' for Active; 'I' for Inactive)
REMARK    1  A    between atoms: N_2  and  C1_3 
ROOT
ATOM      1  C1  UNL d   1      -4.282  -0.166   0.403  0.00  0.00     0.143 A 
ATOM      2  C2  UNL d   1      -4.245   0.608  -0.762  0.00  0.00    -0.057 A 
ATOM      3  C3  UNL d   1      -5.086   0.330  -1.846  0.00  0.00     0.033 A 
ATOM      4  C4  UNL d   1      -5.962  -0.749  -1.795  0.00  0.00    -0.042 A 
ATOM      5  C5  UNL d   1      -5.999  -1.547  -0.657  0.00  0.00     0.033 A 
ATOM      6  C6  UNL d   1      -5.161  -1.260   0.425  0.00  0.00    -0.057 A 
ENDROOT
BRANCH   1   7
ATOM      7  N   UNL d   1      -3.402  -0.000   1.475  0.00  0.00    -0.732 N 
ATOM      8  C   UNL d   1      -2.549  -1.088   1.904  0.00  0.00     0.284 C 
ATOM      9  H3  UNL d   1      -2.944   0.908   1.465  0.00  0.00     0.395 HD
ENDBRANCH   1   7
TORSDOF 1
ENDMDL
