MODEL 1
REMARK minimizedAffinity 10.5926943
REMARK minimizedRMSD -1
REMARK  1 active torsions:
REMARK  status: ('A' for Active; 'I' for Inactive)
REMARK    1  A    between atoms: N_2  and  C1_3 
ROOT
ATOM      1  C1  UNL d   1      -4.817  -0.980   0.365  0.00  0.00     0.143 A 
ATOM      2  C2  UNL d   1      -3.895  -1.757   1.073  0.00  0.00    -0.057 A 
ATOM      3  C3  UNL d   1      -2.740  -1.189   1.626  0.00  0.00     0.033 A 
ATOM      4  C4  UNL d   1      -2.473   0.165   1.454  0.00  0.00    -0.042 A 
ATOM      5  C5  UNL d   1      -3.363   0.951   0.731  0.00  0.00     0.033 A 
ATOM      6  C6  UNL d   1      -4.518   0.380   0.188  0.00  0.00    -0.057 A 
ENDROOT
BRANCH   1   7
ATOM      7  N   UNL d   1      -5.933  -1.504  -0.293  0.00  0.00    -0.732 N 
ATOM      8  C   UNL d   1      -6.000  -1.515  -1.738  0.00  0.00     0.284 C 
ATOM      9  H3  UNL d   1      -6.278  -2.355   0.146  0.00  0.00     0.395 HD
ENDBRANCH   1   7
TORSDOF 1
ENDMDL
