MODEL 1
REMARK minimizedAffinity -1.33032691
REMARK minimizedRMSD -1
REMARK  1 active torsions:
REMARK  status: ('A' for Active; 'I' for Inactive)
REMARK    1  A    between atoms: N_2  and  C1_3 
ROOT
ATOM      1  C1  UNL d   1       1.790  -3.741   5.998  0.00  0.00     0.143 A 
ATOM      2  C2  UNL d   1       1.662  -2.348   5.973  0.00  0.00    -0.057 A 
ATOM      3  C3  UNL d   1       0.404  -1.734   5.988  0.00  0.00     0.033 A 
ATOM      4  C4  UNL d   1      -0.753  -2.506   6.000  0.00  0.00    -0.042 A 
ATOM      5  C5  UNL d   1      -0.650  -3.892   6.000  0.00  0.00     0.033 A 
ATOM      6  C6  UNL d   1       0.609  -4.500   5.991  0.00  0.00    -0.057 A 
ENDROOT
BRANCH   1   7
ATOM      7  N   UNL d   1       3.010  -4.412   5.886  0.00  0.00    -0.732 N 
ATOM      8  C   UNL d   1       3.064  -5.857   5.932  0.00  0.00     0.284 C 
ATOM      9  H3  UNL d   1       3.619  -3.996   5.185  0.00  0.00     0.395 HD
ENDBRANCH   1   7
TORSDOF 1
ENDMDL
