MODEL 1
REMARK minimizedAffinity -3.13985944
REMARK minimizedRMSD -1
REMARK  0 active torsions:
REMARK  status: ('A' for Active; 'I' for Inactive)
ROOT
ATOM      1  C   UNL d   1       3.775   0.175  -3.969  0.00  0.00     0.077 C 
ATOM      2  C1  UNL d   1       2.488  -0.361  -3.415  0.00  0.00    -0.074 A 
ATOM      3  C2  UNL d   1       2.181  -1.723  -3.500  0.00  0.00    -0.005 A 
ATOM      4  C3  UNL d   1       0.985  -2.208  -2.972  0.00  0.00     0.006 A 
ATOM      5  C4  UNL d   1       0.086  -1.339  -2.354  0.00  0.00    -0.005 A 
ATOM      6  C5  UNL d   1       0.376   0.026  -2.258  0.00  0.00    -0.074 A 
ATOM      7  C6  UNL d   1      -0.575   0.972  -1.588  0.00  0.00     0.077 C 
ATOM      8  C7  UNL d   1       1.583   0.505  -2.785  0.00  0.00    -0.001 A 
ENDROOT
TORSDOF 0
ENDMDL
