MODEL 1
REMARK minimizedAffinity -4.45965433
REMARK minimizedRMSD -1
REMARK  0 active torsions:
REMARK  status: ('A' for Active; 'I' for Inactive)
ROOT
ATOM      1  C   UNL d   1      -0.022   1.542   3.504  0.00  0.00     0.077 C 
ATOM      2  C1  UNL d   1      -0.248   0.458   2.493  0.00  0.00    -0.074 A 
ATOM      3  C2  UNL d   1      -0.908  -0.725   2.843  0.00  0.00    -0.005 A 
ATOM      4  C3  UNL d   1      -1.119  -1.721   1.890  0.00  0.00     0.006 A 
ATOM      5  C4  UNL d   1      -0.675  -1.544   0.579  0.00  0.00    -0.005 A 
ATOM      6  C5  UNL d   1      -0.015  -0.368   0.210  0.00  0.00    -0.074 A 
ATOM      7  C6  UNL d   1       0.460  -0.158  -1.197  0.00  0.00     0.077 C 
ATOM      8  C7  UNL d   1       0.188   0.631   1.172  0.00  0.00    -0.001 A 
ENDROOT
TORSDOF 0
ENDMDL
