MODEL 1
REMARK minimizedAffinity -4.84997892
REMARK minimizedRMSD -1
REMARK  0 active torsions:
REMARK  status: ('A' for Active; 'I' for Inactive)
ROOT
ATOM      1  C   UNL d   1      -1.180   0.622  -1.233  0.00  0.00     0.077 C 
ATOM      2  C1  UNL d   1      -0.378   0.283  -0.012  0.00  0.00    -0.074 A 
ATOM      3  C2  UNL d   1       1.017   0.382  -0.018  0.00  0.00    -0.005 A 
ATOM      4  C3  UNL d   1       1.749   0.072   1.128  0.00  0.00     0.006 A 
ATOM      5  C4  UNL d   1       1.095  -0.339   2.290  0.00  0.00    -0.005 A 
ATOM      6  C5  UNL d   1      -0.300  -0.443   2.315  0.00  0.00    -0.074 A 
ATOM      7  C6  UNL d   1      -1.019  -0.874   3.559  0.00  0.00     0.077 C 
ATOM      8  C7  UNL d   1      -1.029  -0.123   1.161  0.00  0.00    -0.001 A 
ENDROOT
TORSDOF 0
ENDMDL
