MODEL 1
REMARK minimizedAffinity -4.77390003
REMARK minimizedRMSD -1
REMARK  0 active torsions:
REMARK  status: ('A' for Active; 'I' for Inactive)
ROOT
ATOM      1  C   UNL d   1      -0.735  -0.935   3.049  0.00  0.00     0.077 C 
ATOM      2  C1  UNL d   1      -0.310  -0.398   1.715  0.00  0.00    -0.074 A 
ATOM      3  C2  UNL d   1       1.018  -0.027   1.479  0.00  0.00    -0.005 A 
ATOM      4  C3  UNL d   1       1.400   0.462   0.230  0.00  0.00     0.006 A 
ATOM      5  C4  UNL d   1       0.461   0.584  -0.795  0.00  0.00    -0.005 A 
ATOM      6  C5  UNL d   1      -0.871   0.217  -0.578  0.00  0.00    -0.074 A 
ATOM      7  C6  UNL d   1      -1.892   0.333  -1.671  0.00  0.00     0.077 C 
ATOM      8  C7  UNL d   1      -1.246  -0.280   0.678  0.00  0.00    -0.001 A 
ENDROOT
TORSDOF 0
ENDMDL
