MODEL 1
REMARK minimizedAffinity -3.61309767
REMARK minimizedRMSD -1
REMARK  0 active torsions:
REMARK  status: ('A' for Active; 'I' for Inactive)
ROOT
ATOM      1  C   UNL d   1      -1.147  -1.117   3.126  0.00  0.00     0.077 C 
ATOM      2  C1  UNL d   1      -0.282  -0.377   2.149  0.00  0.00    -0.074 A 
ATOM      3  C2  UNL d   1       0.792   0.405   2.587  0.00  0.00    -0.005 A 
ATOM      4  C3  UNL d   1       1.593   1.079   1.666  0.00  0.00     0.006 A 
ATOM      5  C4  UNL d   1       1.329   0.979   0.299  0.00  0.00    -0.005 A 
ATOM      6  C5  UNL d   1       0.260   0.202  -0.158  0.00  0.00    -0.074 A 
ATOM      7  C6  UNL d   1      -0.031   0.076  -1.624  0.00  0.00     0.077 C 
ATOM      8  C7  UNL d   1      -0.536  -0.479   0.774  0.00  0.00    -0.001 A 
ENDROOT
TORSDOF 0
ENDMDL
