MODEL 1
REMARK minimizedAffinity -2.77937675
REMARK minimizedRMSD -1
REMARK  0 active torsions:
REMARK  status: ('A' for Active; 'I' for Inactive)
ROOT
ATOM      1  C   UNL d   1       1.414   0.241   2.639  0.00  0.00     0.077 C 
ATOM      2  C1  UNL d   1       0.498  -0.068   1.492  0.00  0.00    -0.074 A 
ATOM      3  C2  UNL d   1      -0.837  -0.422   1.713  0.00  0.00    -0.005 A 
ATOM      4  C3  UNL d   1      -1.679  -0.698   0.636  0.00  0.00     0.006 A 
ATOM      5  C4  UNL d   1      -1.196  -0.623  -0.671  0.00  0.00    -0.005 A 
ATOM      6  C5  UNL d   1       0.136  -0.271  -0.912  0.00  0.00    -0.074 A 
ATOM      7  C6  UNL d   1       0.669  -0.176  -2.310  0.00  0.00     0.077 C 
ATOM      8  C7  UNL d   1       0.974   0.012   0.176  0.00  0.00    -0.001 A 
ENDROOT
TORSDOF 0
ENDMDL
