MODEL 1
REMARK minimizedAffinity -5.2008872
REMARK minimizedRMSD -1
REMARK  0 active torsions:
REMARK  status: ('A' for Active; 'I' for Inactive)
ROOT
ATOM      1  C   UNL d   1      -2.209   0.267  -1.363  0.00  0.00     0.077 C 
ATOM      2  C1  UNL d   1      -1.158   0.099  -0.307  0.00  0.00    -0.074 A 
ATOM      3  C2  UNL d   1       0.144   0.569  -0.507  0.00  0.00    -0.005 A 
ATOM      4  C3  UNL d   1       1.109   0.414   0.489  0.00  0.00     0.006 A 
ATOM      5  C4  UNL d   1       0.782  -0.212   1.692  0.00  0.00    -0.005 A 
ATOM      6  C5  UNL d   1      -0.515  -0.688   1.911  0.00  0.00    -0.074 A 
ATOM      7  C6  UNL d   1      -0.885  -1.354   3.202  0.00  0.00     0.077 C 
ATOM      8  C7  UNL d   1      -1.480  -0.522   0.908  0.00  0.00    -0.001 A 
ENDROOT
TORSDOF 0
ENDMDL
