MODEL 1
REMARK minimizedAffinity -2.78091574
REMARK minimizedRMSD -1
REMARK  0 active torsions:
REMARK  status: ('A' for Active; 'I' for Inactive)
ROOT
ATOM      1  C   UNL d   1       1.479   0.251  -3.363  0.00  0.00     0.077 C 
ATOM      2  C1  UNL d   1       0.649   0.220  -2.114  0.00  0.00    -0.074 A 
ATOM      3  C2  UNL d   1      -0.734   0.021  -2.174  0.00  0.00    -0.005 A 
ATOM      4  C3  UNL d   1      -1.491  -0.015  -1.003  0.00  0.00     0.006 A 
ATOM      5  C4  UNL d   1      -0.874   0.147   0.238  0.00  0.00    -0.005 A 
ATOM      6  C5  UNL d   1       0.508   0.346   0.318  0.00  0.00    -0.074 A 
ATOM      7  C6  UNL d   1       1.188   0.513   1.644  0.00  0.00     0.077 C 
ATOM      8  C7  UNL d   1       1.263   0.374  -0.863  0.00  0.00    -0.001 A 
ENDROOT
TORSDOF 0
ENDMDL
