MODEL 1
REMARK minimizedAffinity -3.66879892
REMARK minimizedRMSD -1
REMARK  0 active torsions:
REMARK  status: ('A' for Active; 'I' for Inactive)
ROOT
ATOM      1  C   UNL d   1      -1.959   0.606  -1.505  0.00  0.00     0.077 C 
ATOM      2  C1  UNL d   1      -0.926   0.396  -0.438  0.00  0.00    -0.074 A 
ATOM      3  C2  UNL d   1       0.291   1.083  -0.470  0.00  0.00    -0.005 A 
ATOM      4  C3  UNL d   1       1.238   0.885   0.534  0.00  0.00     0.006 A 
ATOM      5  C4  UNL d   1       0.978  -0.002   1.580  0.00  0.00    -0.005 A 
ATOM      6  C5  UNL d   1      -0.234  -0.698   1.630  0.00  0.00    -0.074 A 
ATOM      7  C6  UNL d   1      -0.534  -1.648   2.751  0.00  0.00     0.077 C 
ATOM      8  C7  UNL d   1      -1.184  -0.488   0.620  0.00  0.00    -0.001 A 
ENDROOT
TORSDOF 0
ENDMDL
