MODEL 1
REMARK minimizedAffinity -2.84373641
REMARK minimizedRMSD -1
REMARK  0 active torsions:
REMARK  status: ('A' for Active; 'I' for Inactive)
ROOT
ATOM      1  C   UNL d   1      -0.785  -0.387   3.205  0.00  0.00     0.077 C 
ATOM      2  C1  UNL d   1      -0.975  -0.109   1.743  0.00  0.00    -0.074 A 
ATOM      3  C2  UNL d   1      -2.254   0.062   1.205  0.00  0.00    -0.005 A 
ATOM      4  C3  UNL d   1      -2.415   0.329  -0.155  0.00  0.00     0.006 A 
ATOM      5  C4  UNL d   1      -1.300   0.428  -0.988  0.00  0.00    -0.005 A 
ATOM      6  C5  UNL d   1      -0.013   0.261  -0.467  0.00  0.00    -0.074 A 
ATOM      7  C6  UNL d   1       1.196   0.374  -1.347  0.00  0.00     0.077 C 
ATOM      8  C7  UNL d   1       0.140  -0.000   0.901  0.00  0.00    -0.001 A 
ENDROOT
TORSDOF 0
ENDMDL
