MODEL 1
REMARK minimizedAffinity -5.40720606
REMARK minimizedRMSD -1
REMARK  0 active torsions:
REMARK  status: ('A' for Active; 'I' for Inactive)
ROOT
ATOM      1  C   UNL d   1      -3.082  -0.244   2.273  0.00  0.00     0.077 C 
ATOM      2  C1  UNL d   1      -1.612  -0.050   2.048  0.00  0.00    -0.074 A 
ATOM      3  C2  UNL d   1      -0.788   0.443   3.064  0.00  0.00    -0.005 A 
ATOM      4  C3  UNL d   1       0.579   0.609   2.843  0.00  0.00     0.006 A 
ATOM      5  C4  UNL d   1       1.135   0.283   1.606  0.00  0.00    -0.005 A 
ATOM      6  C5  UNL d   1       0.327  -0.212   0.578  0.00  0.00    -0.074 A 
ATOM      7  C6  UNL d   1       0.911  -0.577  -0.755  0.00  0.00     0.077 C 
ATOM      8  C7  UNL d   1      -1.044  -0.383   0.810  0.00  0.00    -0.001 A 
ENDROOT
TORSDOF 0
ENDMDL
