MODEL 1
REMARK minimizedAffinity -4.79725838
REMARK minimizedRMSD -1
REMARK  0 active torsions:
REMARK  status: ('A' for Active; 'I' for Inactive)
ROOT
ATOM      1  C   UNL d   1       0.977  -0.001  -2.037  0.00  0.00     0.077 C 
ATOM      2  C1  UNL d   1       0.282  -0.225  -0.727  0.00  0.00    -0.074 A 
ATOM      3  C2  UNL d   1       1.012  -0.386   0.455  0.00  0.00    -0.005 A 
ATOM      4  C3  UNL d   1       0.352  -0.583   1.668  0.00  0.00     0.006 A 
ATOM      5  C4  UNL d   1      -1.042  -0.622   1.710  0.00  0.00    -0.005 A 
ATOM      6  C5  UNL d   1      -1.789  -0.461   0.539  0.00  0.00    -0.074 A 
ATOM      7  C6  UNL d   1      -3.288  -0.490   0.569  0.00  0.00     0.077 C 
ATOM      8  C7  UNL d   1      -1.118  -0.256  -0.675  0.00  0.00    -0.001 A 
ENDROOT
TORSDOF 0
ENDMDL
