MODEL 1
REMARK minimizedAffinity -2.73001099
REMARK minimizedRMSD -1
REMARK  0 active torsions:
REMARK  status: ('A' for Active; 'I' for Inactive)
ROOT
ATOM      1  C   UNL d   1       0.370  -0.248   2.258  0.00  0.00     0.077 C 
ATOM      2  C1  UNL d   1      -0.135   0.014   0.870  0.00  0.00    -0.074 A 
ATOM      3  C2  UNL d   1      -1.504   0.139   0.615  0.00  0.00    -0.005 A 
ATOM      4  C3  UNL d   1      -1.958   0.393  -0.680  0.00  0.00     0.006 A 
ATOM      5  C4  UNL d   1      -1.049   0.524  -1.730  0.00  0.00    -0.005 A 
ATOM      6  C5  UNL d   1       0.324   0.403  -1.494  0.00  0.00    -0.074 A 
ATOM      7  C6  UNL d   1       1.316   0.551  -2.609  0.00  0.00     0.077 C 
ATOM      8  C7  UNL d   1       0.773   0.155  -0.189  0.00  0.00    -0.001 A 
ENDROOT
TORSDOF 0
ENDMDL
