MODEL 1
REMARK minimizedAffinity -1.72891462
REMARK minimizedRMSD -1
REMARK  0 active torsions:
REMARK  status: ('A' for Active; 'I' for Inactive)
ROOT
ATOM      1  C   UNL d   1      -3.417  -6.000  -2.598  0.00  0.00     0.077 C 
ATOM      2  C1  UNL d   1      -2.187  -5.845  -3.442  0.00  0.00    -0.074 A 
ATOM      3  C2  UNL d   1      -2.245  -6.000  -4.831  0.00  0.00    -0.005 A 
ATOM      4  C3  UNL d   1      -1.095  -5.843  -5.605  0.00  0.00     0.006 A 
ATOM      5  C4  UNL d   1       0.122  -5.530  -4.999  0.00  0.00    -0.005 A 
ATOM      6  C5  UNL d   1       0.199  -5.370  -3.612  0.00  0.00    -0.074 A 
ATOM      7  C6  UNL d   1       1.498  -5.025  -2.946  0.00  0.00     0.077 C 
ATOM      8  C7  UNL d   1      -0.962  -5.523  -2.842  0.00  0.00    -0.001 A 
ENDROOT
TORSDOF 0
ENDMDL
