MODEL 1
REMARK minimizedAffinity 6.24807978
REMARK minimizedRMSD -1
REMARK  0 active torsions:
REMARK  status: ('A' for Active; 'I' for Inactive)
ROOT
ATOM      1  C   UNL d   1       2.416   0.993  -0.742  0.00  0.00     0.077 C 
ATOM      2  C1  UNL d   1       2.801   2.367  -0.282  0.00  0.00    -0.074 A 
ATOM      3  C2  UNL d   1       1.859   3.218   0.305  0.00  0.00    -0.005 A 
ATOM      4  C3  UNL d   1       2.233   4.491   0.737  0.00  0.00     0.006 A 
ATOM      5  C4  UNL d   1       3.551   4.924   0.587  0.00  0.00    -0.005 A 
ATOM      6  C5  UNL d   1       4.507   4.087   0.003  0.00  0.00    -0.074 A 
ATOM      7  C6  UNL d   1       5.930   4.533  -0.157  0.00  0.00     0.077 C 
ATOM      8  C7  UNL d   1       4.125   2.807  -0.422  0.00  0.00    -0.001 A 
ENDROOT
TORSDOF 0
ENDMDL
