MODEL 1
REMARK minimizedAffinity -2.06565833
REMARK minimizedRMSD -1
REMARK  0 active torsions:
REMARK  status: ('A' for Active; 'I' for Inactive)
ROOT
ATOM      1  C   UNL d   1      -2.530  -5.949  -2.662  0.00  0.00     0.077 C 
ATOM      2  C1  UNL d   1      -1.437  -5.966  -3.689  0.00  0.00    -0.074 A 
ATOM      3  C2  UNL d   1      -1.734  -5.993  -5.056  0.00  0.00    -0.005 A 
ATOM      4  C3  UNL d   1      -0.707  -5.999  -5.999  0.00  0.00     0.006 A 
ATOM      5  C4  UNL d   1       0.626  -5.977  -5.587  0.00  0.00    -0.005 A 
ATOM      6  C5  UNL d   1       0.943  -5.949  -4.225  0.00  0.00    -0.074 A 
ATOM      7  C6  UNL d   1       2.370  -5.916  -3.765  0.00  0.00     0.077 C 
ATOM      8  C7  UNL d   1      -0.095  -5.936  -3.283  0.00  0.00    -0.001 A 
ENDROOT
TORSDOF 0
ENDMDL
