MODEL 1
REMARK minimizedAffinity -2.3120985
REMARK minimizedRMSD -1
REMARK  0 active torsions:
REMARK  status: ('A' for Active; 'I' for Inactive)
ROOT
ATOM      1  C   UNL d   1      -0.823  -6.000  -1.745  0.00  0.00     0.077 C 
ATOM      2  C1  UNL d   1      -0.604  -6.000  -3.229  0.00  0.00    -0.074 A 
ATOM      3  C2  UNL d   1      -1.686  -5.982  -4.115  0.00  0.00    -0.005 A 
ATOM      4  C3  UNL d   1      -1.467  -5.972  -5.493  0.00  0.00     0.006 A 
ATOM      5  C4  UNL d   1      -0.166  -5.980  -5.997  0.00  0.00    -0.005 A 
ATOM      6  C5  UNL d   1       0.928  -5.997  -5.126  0.00  0.00    -0.074 A 
ATOM      7  C6  UNL d   1       2.333  -5.997  -5.652  0.00  0.00     0.077 C 
ATOM      8  C7  UNL d   1       0.700  -6.000  -3.744  0.00  0.00    -0.001 A 
ENDROOT
TORSDOF 0
ENDMDL
