MODEL 1
REMARK minimizedAffinity 0.935357928
REMARK minimizedRMSD -1
REMARK  0 active torsions:
REMARK  status: ('A' for Active; 'I' for Inactive)
ROOT
ATOM      1  C   UNL d   1      -1.915  -5.995  -2.672  0.00  0.00     0.077 C 
ATOM      2  C1  UNL d   1      -0.817  -6.000  -3.694  0.00  0.00    -0.074 A 
ATOM      3  C2  UNL d   1      -1.107  -5.990  -5.062  0.00  0.00    -0.005 A 
ATOM      4  C3  UNL d   1      -0.075  -5.985  -6.000  0.00  0.00     0.006 A 
ATOM      5  C4  UNL d   1       1.255  -5.991  -5.581  0.00  0.00    -0.005 A 
ATOM      6  C5  UNL d   1       1.565  -6.000  -4.217  0.00  0.00    -0.074 A 
ATOM      7  C6  UNL d   1       2.990  -5.996  -3.749  0.00  0.00     0.077 C 
ATOM      8  C7  UNL d   1       0.523  -5.997  -3.280  0.00  0.00    -0.001 A 
ENDROOT
TORSDOF 0
ENDMDL
