MODEL 1
REMARK minimizedAffinity 3.31203365
REMARK minimizedRMSD -1
REMARK  0 active torsions:
REMARK  status: ('A' for Active; 'I' for Inactive)
ROOT
ATOM      1  C   UNL d   1       0.747  -5.977  -5.963  0.00  0.00     0.077 C 
ATOM      2  C1  UNL d   1       0.335  -5.901  -4.523  0.00  0.00    -0.074 A 
ATOM      3  C2  UNL d   1       1.286  -5.733  -3.512  0.00  0.00    -0.005 A 
ATOM      4  C3  UNL d   1       0.887  -5.654  -2.177  0.00  0.00     0.006 A 
ATOM      5  C4  UNL d   1      -0.464  -5.743  -1.842  0.00  0.00    -0.005 A 
ATOM      6  C5  UNL d   1      -1.429  -5.910  -2.840  0.00  0.00    -0.074 A 
ATOM      7  C6  UNL d   1      -2.887  -5.998  -2.497  0.00  0.00     0.077 C 
ATOM      8  C7  UNL d   1      -1.021  -5.981  -4.179  0.00  0.00    -0.001 A 
ENDROOT
TORSDOF 0
ENDMDL
