MODEL 1
REMARK minimizedAffinity 7.24406004
REMARK minimizedRMSD -1
REMARK  0 active torsions:
REMARK  status: ('A' for Active; 'I' for Inactive)
ROOT
ATOM      1  C   UNL d   1       0.327  -3.388   1.059  0.00  0.00     0.077 C 
ATOM      2  C1  UNL d   1       0.095  -1.916   0.891  0.00  0.00    -0.074 A 
ATOM      3  C2  UNL d   1       1.167  -1.035   0.715  0.00  0.00    -0.005 A 
ATOM      4  C3  UNL d   1       0.935   0.331   0.551  0.00  0.00     0.006 A 
ATOM      5  C4  UNL d   1      -0.369   0.828   0.562  0.00  0.00    -0.005 A 
ATOM      6  C5  UNL d   1      -1.453  -0.038   0.736  0.00  0.00    -0.074 A 
ATOM      7  C6  UNL d   1      -2.861   0.479   0.740  0.00  0.00     0.077 C 
ATOM      8  C7  UNL d   1      -1.212  -1.410   0.893  0.00  0.00    -0.001 A 
ENDROOT
TORSDOF 0
ENDMDL
