MODEL 1
REMARK minimizedAffinity 5.62459517
REMARK minimizedRMSD -1
REMARK  0 active torsions:
REMARK  status: ('A' for Active; 'I' for Inactive)
ROOT
ATOM      1  C   UNL d   1       1.916   0.117   0.254  0.00  0.00     0.077 C 
ATOM      2  C1  UNL d   1       1.134  -0.896   1.036  0.00  0.00    -0.074 A 
ATOM      3  C2  UNL d   1       0.624  -2.043   0.419  0.00  0.00    -0.005 A 
ATOM      4  C3  UNL d   1      -0.093  -2.982   1.161  0.00  0.00     0.006 A 
ATOM      5  C4  UNL d   1      -0.306  -2.783   2.526  0.00  0.00    -0.005 A 
ATOM      6  C5  UNL d   1       0.197  -1.643   3.160  0.00  0.00    -0.074 A 
ATOM      7  C6  UNL d   1      -0.015  -1.419   4.628  0.00  0.00     0.077 C 
ATOM      8  C7  UNL d   1       0.922  -0.708   2.409  0.00  0.00    -0.001 A 
ENDROOT
TORSDOF 0
ENDMDL
