MODEL 1
REMARK minimizedAffinity -2.03060222
REMARK minimizedRMSD -1
REMARK  0 active torsions:
REMARK  status: ('A' for Active; 'I' for Inactive)
ROOT
ATOM      1  C   UNL d   1       0.190  -5.742  -6.000  0.00  0.00     0.077 C 
ATOM      2  C1  UNL d   1      -0.622  -5.838  -4.743  0.00  0.00    -0.074 A 
ATOM      3  C2  UNL d   1      -0.003  -5.886  -3.489  0.00  0.00    -0.005 A 
ATOM      4  C3  UNL d   1      -0.772  -5.966  -2.328  0.00  0.00     0.006 A 
ATOM      5  C4  UNL d   1      -2.164  -5.999  -2.408  0.00  0.00    -0.005 A 
ATOM      6  C5  UNL d   1      -2.801  -5.952  -3.653  0.00  0.00    -0.074 A 
ATOM      7  C6  UNL d   1      -4.297  -5.978  -3.756  0.00  0.00     0.077 C 
ATOM      8  C7  UNL d   1      -2.021  -5.865  -4.815  0.00  0.00    -0.001 A 
ENDROOT
TORSDOF 0
ENDMDL
