MODEL 1
REMARK minimizedAffinity 3.49772573
REMARK minimizedRMSD -1
REMARK  0 active torsions:
REMARK  status: ('A' for Active; 'I' for Inactive)
ROOT
ATOM      1  C   UNL d   1       0.876  -5.721  -1.703  0.00  0.00     0.077 C 
ATOM      2  C1  UNL d   1       0.858  -5.807  -3.200  0.00  0.00    -0.074 A 
ATOM      3  C2  UNL d   1       2.049  -5.873  -3.931  0.00  0.00    -0.005 A 
ATOM      4  C3  UNL d   1       2.017  -5.962  -5.322  0.00  0.00     0.006 A 
ATOM      5  C4  UNL d   1       0.795  -5.987  -5.997  0.00  0.00    -0.005 A 
ATOM      6  C5  UNL d   1      -0.406  -5.923  -5.283  0.00  0.00    -0.074 A 
ATOM      7  C6  UNL d   1      -1.727  -5.958  -5.992  0.00  0.00     0.077 C 
ATOM      8  C7  UNL d   1      -0.365  -5.840  -3.884  0.00  0.00    -0.001 A 
ENDROOT
TORSDOF 0
ENDMDL
