MODEL 1
REMARK minimizedAffinity 6.89286947
REMARK minimizedRMSD -1
REMARK  0 active torsions:
REMARK  status: ('A' for Active; 'I' for Inactive)
ROOT
ATOM      1  C   UNL d   1       3.220  -0.019   0.379  0.00  0.00     0.077 C 
ATOM      2  C1  UNL d   1       1.779  -0.421   0.490  0.00  0.00    -0.074 A 
ATOM      3  C2  UNL d   1       0.756   0.518   0.327  0.00  0.00    -0.005 A 
ATOM      4  C3  UNL d   1      -0.579   0.128   0.424  0.00  0.00     0.006 A 
ATOM      5  C4  UNL d   1      -0.904  -1.204   0.685  0.00  0.00    -0.005 A 
ATOM      6  C5  UNL d   1       0.105  -2.157   0.850  0.00  0.00    -0.074 A 
ATOM      7  C6  UNL d   1      -0.227  -3.595   1.121  0.00  0.00     0.077 C 
ATOM      8  C7  UNL d   1       1.445  -1.758   0.744  0.00  0.00    -0.001 A 
ENDROOT
TORSDOF 0
ENDMDL
