MODEL 1
REMARK minimizedAffinity 7.86419773
REMARK minimizedRMSD -1
REMARK  0 active torsions:
REMARK  status: ('A' for Active; 'I' for Inactive)
ROOT
ATOM      1  C   UNL d   1       0.689   3.328   0.250  0.00  0.00     0.077 C 
ATOM      2  C1  UNL d   1       1.322   1.968   0.248  0.00  0.00    -0.074 A 
ATOM      3  C2  UNL d   1       2.707   1.820   0.129  0.00  0.00    -0.005 A 
ATOM      4  C3  UNL d   1       3.282   0.550   0.138  0.00  0.00     0.006 A 
ATOM      5  C4  UNL d   1       2.479  -0.584   0.265  0.00  0.00    -0.005 A 
ATOM      6  C5  UNL d   1       1.092  -0.456   0.386  0.00  0.00    -0.074 A 
ATOM      7  C6  UNL d   1       0.215  -1.664   0.533  0.00  0.00     0.077 C 
ATOM      8  C7  UNL d   1       0.522   0.824   0.383  0.00  0.00    -0.001 A 
ENDROOT
TORSDOF 0
ENDMDL
