MODEL 1
REMARK minimizedAffinity 0.988154709
REMARK minimizedRMSD -1
REMARK  0 active torsions:
REMARK  status: ('A' for Active; 'I' for Inactive)
ROOT
ATOM      1  C   UNL d   1       2.229  -5.963  -5.897  0.00  0.00     0.077 C 
ATOM      2  C1  UNL d   1       0.909  -5.962  -5.184  0.00  0.00    -0.074 A 
ATOM      3  C2  UNL d   1      -0.293  -5.991  -5.898  0.00  0.00    -0.005 A 
ATOM      4  C3  UNL d   1      -1.513  -5.999  -5.222  0.00  0.00     0.006 A 
ATOM      5  C4  UNL d   1      -1.543  -5.979  -3.827  0.00  0.00    -0.005 A 
ATOM      6  C5  UNL d   1      -0.351  -5.950  -3.096  0.00  0.00    -0.074 A 
ATOM      7  C6  UNL d   1      -0.365  -5.938  -1.596  0.00  0.00     0.077 C 
ATOM      8  C7  UNL d   1       0.871  -5.949  -3.783  0.00  0.00    -0.001 A 
ENDROOT
TORSDOF 0
ENDMDL
