MODEL 1
REMARK minimizedAffinity 5.93697739
REMARK minimizedRMSD -1
REMARK  0 active torsions:
REMARK  status: ('A' for Active; 'I' for Inactive)
ROOT
ATOM      1  C   UNL d   1      -4.748  -6.000  -2.286  0.00  0.00     0.077 C 
ATOM      2  C1  UNL d   1      -4.485  -5.379  -0.947  0.00  0.00    -0.074 A 
ATOM      3  C2  UNL d   1      -4.914  -6.000   0.231  0.00  0.00    -0.005 A 
ATOM      4  C3  UNL d   1      -4.653  -5.415   1.470  0.00  0.00     0.006 A 
ATOM      5  C4  UNL d   1      -3.962  -4.205   1.544  0.00  0.00    -0.005 A 
ATOM      6  C5  UNL d   1      -3.524  -3.570   0.377  0.00  0.00    -0.074 A 
ATOM      7  C6  UNL d   1      -2.771  -2.274   0.440  0.00  0.00     0.077 C 
ATOM      8  C7  UNL d   1      -3.784  -4.167  -0.863  0.00  0.00    -0.001 A 
ENDROOT
TORSDOF 0
ENDMDL
