MODEL 1
REMARK minimizedAffinity -0.0171383563
REMARK minimizedRMSD -1
REMARK  0 active torsions:
REMARK  status: ('A' for Active; 'I' for Inactive)
ROOT
ATOM      1  C   UNL d   1       2.149  -6.000  -3.022  0.00  0.00     0.077 C 
ATOM      2  C1  UNL d   1       0.896  -5.985  -3.847  0.00  0.00    -0.074 A 
ATOM      3  C2  UNL d   1       0.955  -5.979  -5.244  0.00  0.00    -0.005 A 
ATOM      4  C3  UNL d   1      -0.219  -5.975  -5.997  0.00  0.00     0.006 A 
ATOM      5  C4  UNL d   1      -1.461  -5.978  -5.362  0.00  0.00    -0.005 A 
ATOM      6  C5  UNL d   1      -1.540  -5.985  -3.966  0.00  0.00    -0.074 A 
ATOM      7  C6  UNL d   1      -2.867  -5.997  -3.268  0.00  0.00     0.077 C 
ATOM      8  C7  UNL d   1      -0.356  -5.996  -3.216  0.00  0.00    -0.001 A 
ENDROOT
TORSDOF 0
ENDMDL
