MODEL 1
REMARK minimizedAffinity 6.77959251
REMARK minimizedRMSD -1
REMARK  0 active torsions:
REMARK  status: ('A' for Active; 'I' for Inactive)
ROOT
ATOM      1  C   UNL d   1       3.950  -0.554   1.571  0.00  0.00     0.077 C 
ATOM      2  C1  UNL d   1       2.528  -0.716   1.123  0.00  0.00    -0.074 A 
ATOM      3  C2  UNL d   1       1.866   0.314   0.447  0.00  0.00    -0.005 A 
ATOM      4  C3  UNL d   1       0.546   0.145   0.028  0.00  0.00     0.006 A 
ATOM      5  C4  UNL d   1      -0.123  -1.053   0.280  0.00  0.00    -0.005 A 
ATOM      6  C5  UNL d   1       0.523  -2.094   0.953  0.00  0.00    -0.074 A 
ATOM      7  C6  UNL d   1      -0.179  -3.392   1.223  0.00  0.00     0.077 C 
ATOM      8  C7  UNL d   1       1.851  -1.920   1.365  0.00  0.00    -0.001 A 
ENDROOT
TORSDOF 0
ENDMDL
