MODEL 1
REMARK minimizedAffinity 9.48594189
REMARK minimizedRMSD -1
REMARK  1 active torsions:
REMARK  status: ('A' for Active; 'I' for Inactive)
REMARK    1  A    between atoms: C1_2  and  C2_3 
ROOT
ATOM      1  C2  UNL d   1      -3.456  -0.676   1.396  0.00  0.00    -0.081 A 
ATOM      2  C3  UNL d   1      -3.046  -1.001   0.097  0.00  0.00     0.006 A 
ATOM      3  C4  UNL d   1      -3.847  -1.801  -0.720  0.00  0.00     0.002 A 
ATOM      4  C5  UNL d   1      -5.076  -2.283  -0.256  0.00  0.00    -0.080 A 
ATOM      5  C6  UNL d   1      -5.960  -3.118  -1.134  0.00  0.00     0.076 C 
ATOM      6  C7  UNL d   1      -5.478  -1.974   1.048  0.00  0.00     0.002 A 
ATOM      7  C8  UNL d   1      -4.677  -1.174   1.866  0.00  0.00     0.006 A 
ENDROOT
BRANCH   1   8
ATOM      8  C1  UNL d   1      -2.624   0.240   2.257  0.00  0.00     0.054 C 
ATOM      9  C   UNL d   1      -2.862  -0.025   3.737  0.00  0.00     0.018 C 
ENDBRANCH   1   8
TORSDOF 1
ENDMDL
