MODEL 1
REMARK minimizedAffinity 2.09916425
REMARK minimizedRMSD -1
REMARK  1 active torsions:
REMARK  status: ('A' for Active; 'I' for Inactive)
REMARK    1  A    between atoms: C1_2  and  C2_3 
ROOT
ATOM      1  C2  UNL d   1      -1.161  -0.399  -0.202  0.00  0.00    -0.081 A 
ATOM      2  C3  UNL d   1      -0.831   0.528   0.794  0.00  0.00     0.006 A 
ATOM      3  C4  UNL d   1      -1.592   0.614   1.962  0.00  0.00     0.002 A 
ATOM      4  C5  UNL d   1      -2.691  -0.230   2.157  0.00  0.00    -0.080 A 
ATOM      5  C6  UNL d   1      -3.498  -0.169   3.420  0.00  0.00     0.076 C 
ATOM      6  C7  UNL d   1      -3.031  -1.144   1.154  0.00  0.00     0.002 A 
ATOM      7  C8  UNL d   1      -2.271  -1.230  -0.014  0.00  0.00     0.006 A 
ENDROOT
BRANCH   1   8
ATOM      8  C1  UNL d   1      -0.304  -0.538  -1.434  0.00  0.00     0.054 C 
ATOM      9  C   UNL d   1       0.756   0.552  -1.497  0.00  0.00     0.018 C 
ENDBRANCH   1   8
TORSDOF 1
ENDMDL
