MODEL 1
REMARK minimizedAffinity 7.81791687
REMARK minimizedRMSD -1
REMARK  1 active torsions:
REMARK  status: ('A' for Active; 'I' for Inactive)
REMARK    1  A    between atoms: C1_2  and  C2_3 
ROOT
ATOM      1  C2  UNL d   1      -2.629  -0.475   2.040  0.00  0.00    -0.081 A 
ATOM      2  C3  UNL d   1      -3.742   0.325   2.327  0.00  0.00     0.006 A 
ATOM      3  C4  UNL d   1      -3.578   1.578   2.922  0.00  0.00     0.002 A 
ATOM      4  C5  UNL d   1      -2.300   2.055   3.233  0.00  0.00    -0.080 A 
ATOM      5  C6  UNL d   1      -2.108   3.411   3.844  0.00  0.00     0.076 C 
ATOM      6  C7  UNL d   1      -1.189   1.248   2.962  0.00  0.00     0.002 A 
ATOM      7  C8  UNL d   1      -1.353  -0.005   2.367  0.00  0.00     0.006 A 
ENDROOT
BRANCH   1   8
ATOM      8  C1  UNL d   1      -2.798  -1.799   1.339  0.00  0.00     0.054 C 
ATOM      9  C   UNL d   1      -2.896  -1.618  -0.169  0.00  0.00     0.018 C 
ENDBRANCH   1   8
TORSDOF 1
ENDMDL
