MODEL 1
REMARK minimizedAffinity 5.25171137
REMARK minimizedRMSD -1
REMARK  1 active torsions:
REMARK  status: ('A' for Active; 'I' for Inactive)
REMARK    1  A    between atoms: C1_2  and  C2_3 
ROOT
ATOM      1  C2  UNL d   1       5.040   5.615   4.034  0.00  0.00    -0.081 A 
ATOM      2  C3  UNL d   1       3.769   5.984   3.576  0.00  0.00     0.006 A 
ATOM      3  C4  UNL d   1       3.462   5.924   2.215  0.00  0.00     0.002 A 
ATOM      4  C5  UNL d   1       4.416   5.488   1.290  0.00  0.00    -0.080 A 
ATOM      5  C6  UNL d   1       4.090   5.391  -0.171  0.00  0.00     0.076 C 
ATOM      6  C7  UNL d   1       5.692   5.137   1.745  0.00  0.00     0.002 A 
ATOM      7  C8  UNL d   1       6.000   5.197   3.106  0.00  0.00     0.006 A 
ENDROOT
BRANCH   1   8
ATOM      8  C1  UNL d   1       5.354   5.617   5.508  0.00  0.00     0.054 C 
ATOM      9  C   UNL d   1       5.834   4.249   5.973  0.00  0.00     0.018 C 
ENDBRANCH   1   8
TORSDOF 1
ENDMDL
