MODEL 1
REMARK minimizedAffinity 12.0129385
REMARK minimizedRMSD -1
REMARK  1 active torsions:
REMARK  status: ('A' for Active; 'I' for Inactive)
REMARK    1  A    between atoms: C1_2  and  C2_3 
ROOT
ATOM      1  C2  UNL d   1      -2.527   5.261   1.632  0.00  0.00    -0.081 A 
ATOM      2  C3  UNL d   1      -1.344   6.000   1.516  0.00  0.00     0.006 A 
ATOM      3  C4  UNL d   1      -0.617   5.991   0.322  0.00  0.00     0.002 A 
ATOM      4  C5  UNL d   1      -1.066   5.250  -0.776  0.00  0.00    -0.080 A 
ATOM      5  C6  UNL d   1      -0.312   5.257  -2.073  0.00  0.00     0.076 C 
ATOM      6  C7  UNL d   1      -2.239   4.498  -0.655  0.00  0.00     0.002 A 
ATOM      7  C8  UNL d   1      -2.965   4.506   0.538  0.00  0.00     0.006 A 
ENDROOT
BRANCH   1   8
ATOM      8  C1  UNL d   1      -3.347   5.320   2.895  0.00  0.00     0.054 C 
ATOM      9  C   UNL d   1      -4.811   5.607   2.593  0.00  0.00     0.018 C 
ENDBRANCH   1   8
TORSDOF 1
ENDMDL
