MODEL 1
REMARK minimizedAffinity 15.6858559
REMARK minimizedRMSD -1
REMARK  1 active torsions:
REMARK  status: ('A' for Active; 'I' for Inactive)
REMARK    1  A    between atoms: C1_2  and  C2_3 
ROOT
ATOM      1  C2  UNL d   1       3.648  -0.369  -1.907  0.00  0.00    -0.081 A 
ATOM      2  C3  UNL d   1       2.655  -1.231  -2.388  0.00  0.00     0.006 A 
ATOM      3  C4  UNL d   1       1.345  -0.777  -2.558  0.00  0.00     0.002 A 
ATOM      4  C5  UNL d   1       1.008   0.547  -2.259  0.00  0.00    -0.080 A 
ATOM      5  C6  UNL d   1      -0.388   1.055  -2.466  0.00  0.00     0.076 C 
ATOM      6  C7  UNL d   1       1.996   1.404  -1.762  0.00  0.00     0.002 A 
ATOM      7  C8  UNL d   1       3.306   0.950  -1.591  0.00  0.00     0.006 A 
ENDROOT
BRANCH   1   8
ATOM      8  C1  UNL d   1       5.076  -0.837  -1.784  0.00  0.00     0.054 C 
ATOM      9  C   UNL d   1       5.920  -0.354  -2.954  0.00  0.00     0.018 C 
ENDBRANCH   1   8
TORSDOF 1
ENDMDL
