MODEL 1
REMARK minimizedAffinity 9.99327278
REMARK minimizedRMSD -1
REMARK  1 active torsions:
REMARK  status: ('A' for Active; 'I' for Inactive)
REMARK    1  A    between atoms: C1_2  and  C2_3 
ROOT
ATOM      1  C2  UNL d   1      -0.900  -0.569  -0.567  0.00  0.00    -0.081 A 
ATOM      2  C3  UNL d   1      -2.249  -0.861  -0.330  0.00  0.00     0.006 A 
ATOM      3  C4  UNL d   1      -2.825  -0.589   0.913  0.00  0.00     0.002 A 
ATOM      4  C5  UNL d   1      -2.065  -0.012   1.936  0.00  0.00    -0.080 A 
ATOM      5  C6  UNL d   1      -2.679   0.313   3.265  0.00  0.00     0.076 C 
ATOM      6  C7  UNL d   1      -0.713   0.264   1.706  0.00  0.00     0.002 A 
ATOM      7  C8  UNL d   1      -0.136  -0.009   0.463  0.00  0.00     0.006 A 
ENDROOT
BRANCH   1   8
ATOM      8  C1  UNL d   1      -0.293  -0.802  -1.927  0.00  0.00     0.054 C 
ATOM      9  C   UNL d   1       1.219  -0.624  -1.895  0.00  0.00     0.018 C 
ENDBRANCH   1   8
TORSDOF 1
ENDMDL
