MODEL 1
REMARK minimizedAffinity 9.02048969
REMARK minimizedRMSD -1
REMARK  1 active torsions:
REMARK  status: ('A' for Active; 'I' for Inactive)
REMARK    1  A    between atoms: C1_2  and  C2_3 
ROOT
ATOM      1  C2  UNL d   1      -2.805  -0.304   0.815  0.00  0.00    -0.081 A 
ATOM      2  C3  UNL d   1      -2.507  -0.631   2.144  0.00  0.00     0.006 A 
ATOM      3  C4  UNL d   1      -2.427   0.367   3.118  0.00  0.00     0.002 A 
ATOM      4  C5  UNL d   1      -2.650   1.707   2.782  0.00  0.00    -0.080 A 
ATOM      5  C6  UNL d   1      -2.596   2.784   3.824  0.00  0.00     0.076 C 
ATOM      6  C7  UNL d   1      -2.930   2.036   1.451  0.00  0.00     0.002 A 
ATOM      7  C8  UNL d   1      -3.010   1.038   0.477  0.00  0.00     0.006 A 
ENDROOT
BRANCH   1   8
ATOM      8  C1  UNL d   1      -2.957  -1.384  -0.224  0.00  0.00     0.054 C 
ATOM      9  C   UNL d   1      -4.375  -1.429  -0.773  0.00  0.00     0.018 C 
ENDBRANCH   1   8
TORSDOF 1
ENDMDL
