MODEL 1
REMARK minimizedAffinity 8.21217251
REMARK minimizedRMSD -1
REMARK  1 active torsions:
REMARK  status: ('A' for Active; 'I' for Inactive)
REMARK    1  A    between atoms: C1_2  and  C2_3 
ROOT
ATOM      1  C2  UNL d   1      -2.098  -0.092   0.565  0.00  0.00    -0.081 A 
ATOM      2  C3  UNL d   1      -2.904  -1.092   0.007  0.00  0.00     0.006 A 
ATOM      3  C4  UNL d   1      -2.425  -1.887  -1.037  0.00  0.00     0.002 A 
ATOM      4  C5  UNL d   1      -1.131  -1.701  -1.535  0.00  0.00    -0.080 A 
ATOM      5  C6  UNL d   1      -0.594  -2.567  -2.635  0.00  0.00     0.076 C 
ATOM      6  C7  UNL d   1      -0.332  -0.691  -0.989  0.00  0.00     0.002 A 
ATOM      7  C8  UNL d   1      -0.810   0.105   0.055  0.00  0.00     0.006 A 
ENDROOT
BRANCH   1   8
ATOM      8  C1  UNL d   1      -2.588   0.723   1.734  0.00  0.00     0.054 C 
ATOM      9  C   UNL d   1      -1.535   0.808   2.830  0.00  0.00     0.018 C 
ENDBRANCH   1   8
TORSDOF 1
ENDMDL
