MODEL 1
REMARK minimizedAffinity 15.8109884
REMARK minimizedRMSD -1
REMARK  1 active torsions:
REMARK  status: ('A' for Active; 'I' for Inactive)
REMARK    1  A    between atoms: C1_2  and  C2_3 
ROOT
ATOM      1  C2  UNL d   1      -2.567   0.640   0.207  0.00  0.00    -0.081 A 
ATOM      2  C3  UNL d   1      -3.485   1.532   0.775  0.00  0.00     0.006 A 
ATOM      3  C4  UNL d   1      -3.683   1.560   2.157  0.00  0.00     0.002 A 
ATOM      4  C5  UNL d   1      -2.960   0.705   2.996  0.00  0.00    -0.080 A 
ATOM      5  C6  UNL d   1      -3.141   0.746   4.484  0.00  0.00     0.076 C 
ATOM      6  C7  UNL d   1      -2.055  -0.198   2.427  0.00  0.00     0.002 A 
ATOM      7  C8  UNL d   1      -1.858  -0.228   1.045  0.00  0.00     0.006 A 
ENDROOT
BRANCH   1   8
ATOM      8  C1  UNL d   1      -2.304   0.652  -1.277  0.00  0.00     0.054 C 
ATOM      9  C   UNL d   1      -0.818   0.517  -1.577  0.00  0.00     0.018 C 
ENDBRANCH   1   8
TORSDOF 1
ENDMDL
