MODEL 1
REMARK minimizedAffinity 3.57658482
REMARK minimizedRMSD -1
REMARK  1 active torsions:
REMARK  status: ('A' for Active; 'I' for Inactive)
REMARK    1  A    between atoms: C1_2  and  C2_3 
ROOT
ATOM      1  C2  UNL d   1       5.294   5.620   2.179  0.00  0.00    -0.081 A 
ATOM      2  C3  UNL d   1       3.975   5.995   1.896  0.00  0.00     0.006 A 
ATOM      3  C4  UNL d   1       3.370   5.606   0.698  0.00  0.00     0.002 A 
ATOM      4  C5  UNL d   1       4.070   4.831  -0.232  0.00  0.00    -0.080 A 
ATOM      5  C6  UNL d   1       3.422   4.381  -1.508  0.00  0.00     0.076 C 
ATOM      6  C7  UNL d   1       5.394   4.471   0.042  0.00  0.00     0.002 A 
ATOM      7  C8  UNL d   1       6.000   4.860   1.239  0.00  0.00     0.006 A 
ENDROOT
BRANCH   1   8
ATOM      8  C1  UNL d   1       5.928   5.982   3.497  0.00  0.00     0.054 C 
ATOM      9  C   UNL d   1       5.886   4.814   4.471  0.00  0.00     0.018 C 
ENDBRANCH   1   8
TORSDOF 1
ENDMDL
