MODEL 1
REMARK minimizedAffinity -3.28570151
REMARK minimizedRMSD -1
REMARK  0 active torsions:
REMARK  status: ('A' for Active; 'I' for Inactive)
ROOT
ATOM      1  C1  DEN d   1       2.151  -0.922   1.202  0.00  0.00     0.130 A 
ATOM      2  C2  DEN d   1       3.146   0.106   1.494  0.00  0.00    -0.031 A 
ATOM      3  C3  DEN d   1       2.605   1.405   1.047  0.00  0.00     0.027 A 
ATOM      4  C4  DEN d   1       0.332   1.922  -0.058  0.00  0.00     0.027 A 
ATOM      5  C5  DEN d   1      -0.843   1.372  -0.518  0.00  0.00    -0.003 A 
ATOM      6  C6  DEN d   1      -1.087   0.025  -0.468  0.00  0.00     0.001 A 
ATOM      7  C7  DEN d   1      -0.161  -0.813   0.094  0.00  0.00     0.017 A 
ATOM      8  C8  DEN d   1       1.030  -0.266   0.554  0.00  0.00    -0.094 A 
ATOM      9  C9  DEN d   1       1.253   1.100   0.506  0.00  0.00    -0.072 A 
ENDROOT
TORSDOF 0
ENDMDL
