MODEL 1
REMARK minimizedAffinity -4.34198046
REMARK minimizedRMSD -1
REMARK  0 active torsions:
REMARK  status: ('A' for Active; 'I' for Inactive)
ROOT
ATOM      1  C1  DEN d   1       2.501  -1.043   2.377  0.00  0.00     0.130 A 
ATOM      2  C2  DEN d   1       1.683  -2.216   2.673  0.00  0.00    -0.031 A 
ATOM      3  C3  DEN d   1       0.419  -2.094   1.918  0.00  0.00     0.027 A 
ATOM      4  C4  DEN d   1      -0.343  -0.215   0.323  0.00  0.00     0.027 A 
ATOM      5  C5  DEN d   1       0.007   0.995  -0.234  0.00  0.00    -0.003 A 
ATOM      6  C6  DEN d   1       1.188   1.622   0.063  0.00  0.00     0.001 A 
ATOM      7  C7  DEN d   1       2.082   1.019   0.908  0.00  0.00     0.017 A 
ATOM      8  C8  DEN d   1       1.734  -0.198   1.479  0.00  0.00    -0.094 A 
ATOM      9  C9  DEN d   1       0.540  -0.821   1.156  0.00  0.00    -0.072 A 
ENDROOT
TORSDOF 0
ENDMDL
