MODEL 1
REMARK minimizedAffinity -5.48755741
REMARK minimizedRMSD -1
REMARK  0 active torsions:
REMARK  status: ('A' for Active; 'I' for Inactive)
ROOT
ATOM      1  C1  DEN d   1      -1.310  -1.377   1.131  0.00  0.00     0.130 A 
ATOM      2  C2  DEN d   1      -1.864  -0.385   0.214  0.00  0.00    -0.031 A 
ATOM      3  C3  DEN d   1      -0.803   0.594  -0.096  0.00  0.00     0.027 A 
ATOM      4  C4  DEN d   1       1.634   0.666   0.746  0.00  0.00     0.027 A 
ATOM      5  C5  DEN d   1       2.562   0.044   1.551  0.00  0.00    -0.003 A 
ATOM      6  C6  DEN d   1       2.258  -1.067   2.292  0.00  0.00     0.001 A 
ATOM      7  C7  DEN d   1       1.006  -1.617   2.209  0.00  0.00     0.017 A 
ATOM      8  C8  DEN d   1       0.063  -0.990   1.406  0.00  0.00    -0.094 A 
ATOM      9  C9  DEN d   1       0.393   0.125   0.655  0.00  0.00    -0.072 A 
ENDROOT
TORSDOF 0
ENDMDL
