MODEL 1
REMARK minimizedAffinity -4.37687016
REMARK minimizedRMSD -1
REMARK  0 active torsions:
REMARK  status: ('A' for Active; 'I' for Inactive)
ROOT
ATOM      1  C1  DEN d   1       0.924   1.561   0.206  0.00  0.00     0.130 A 
ATOM      2  C2  DEN d   1       2.257   1.154   0.643  0.00  0.00    -0.031 A 
ATOM      3  C3  DEN d   1       2.148  -0.186   1.254  0.00  0.00     0.027 A 
ATOM      4  C4  DEN d   1       0.056  -1.664   1.560  0.00  0.00     0.027 A 
ATOM      5  C5  DEN d   1      -1.304  -1.739   1.358  0.00  0.00    -0.003 A 
ATOM      6  C6  DEN d   1      -2.017  -0.715   0.794  0.00  0.00     0.001 A 
ATOM      7  C7  DEN d   1      -1.364   0.413   0.370  0.00  0.00     0.017 A 
ATOM      8  C8  DEN d   1       0.006   0.499   0.577  0.00  0.00    -0.094 A 
ATOM      9  C9  DEN d   1       0.710  -0.552   1.138  0.00  0.00    -0.072 A 
ENDROOT
TORSDOF 0
ENDMDL
