MODEL 1
REMARK minimizedAffinity -4.66568184
REMARK minimizedRMSD -1
REMARK  0 active torsions:
REMARK  status: ('A' for Active; 'I' for Inactive)
ROOT
ATOM      1  C1  DEN d   1       1.975   1.374   0.431  0.00  0.00     0.130 A 
ATOM      2  C2  DEN d   1       3.014   0.687   1.194  0.00  0.00    -0.031 A 
ATOM      3  C3  DEN d   1       2.468  -0.610   1.642  0.00  0.00     0.027 A 
ATOM      4  C4  DEN d   1       0.131  -1.618   1.228  0.00  0.00     0.027 A 
ATOM      5  C5  DEN d   1      -1.098  -1.401   0.644  0.00  0.00    -0.003 A 
ATOM      6  C6  DEN d   1      -1.397  -0.239  -0.018  0.00  0.00     0.001 A 
ATOM      7  C7  DEN d   1      -0.440   0.732  -0.150  0.00  0.00     0.017 A 
ATOM      8  C8  DEN d   1       0.799   0.524   0.442  0.00  0.00    -0.094 A 
ATOM      9  C9  DEN d   1       1.086  -0.662   1.096  0.00  0.00    -0.072 A 
ENDROOT
TORSDOF 0
ENDMDL
