MODEL 1
REMARK minimizedAffinity 2.33192325
REMARK minimizedRMSD -1
REMARK  0 active torsions:
REMARK  status: ('A' for Active; 'I' for Inactive)
ROOT
ATOM      1  C1  DEN d   1       0.187  -2.288   2.090  0.00  0.00     0.130 A 
ATOM      2  C2  DEN d   1       1.153  -2.629   3.131  0.00  0.00    -0.031 A 
ATOM      3  C3  DEN d   1       2.205  -1.593   3.135  0.00  0.00     0.027 A 
ATOM      4  C4  DEN d   1       2.430   0.498   1.641  0.00  0.00     0.027 A 
ATOM      5  C5  DEN d   1       1.860   1.203   0.604  0.00  0.00    -0.003 A 
ATOM      6  C6  DEN d   1       0.720   0.779  -0.028  0.00  0.00     0.001 A 
ATOM      7  C7  DEN d   1       0.089  -0.358   0.402  0.00  0.00     0.017 A 
ATOM      8  C8  DEN d   1       0.662  -1.078   1.442  0.00  0.00    -0.094 A 
ATOM      9  C9  DEN d   1       1.807  -0.627   2.075  0.00  0.00    -0.072 A 
ENDROOT
TORSDOF 0
ENDMDL
