MODEL 1
REMARK minimizedAffinity -3.95308495
REMARK minimizedRMSD -1
REMARK  0 active torsions:
REMARK  status: ('A' for Active; 'I' for Inactive)
ROOT
ATOM      1  C1  DEN d   1       0.667  -2.389   2.112  0.00  0.00     0.130 A 
ATOM      2  C2  DEN d   1       1.867  -2.247   2.931  0.00  0.00    -0.031 A 
ATOM      3  C3  DEN d   1       2.521  -0.974   2.566  0.00  0.00     0.027 A 
ATOM      4  C4  DEN d   1       1.792   0.783   0.824  0.00  0.00     0.027 A 
ATOM      5  C5  DEN d   1       0.846   1.095  -0.127  0.00  0.00    -0.003 A 
ATOM      6  C6  DEN d   1      -0.199   0.260  -0.420  0.00  0.00     0.001 A 
ATOM      7  C7  DEN d   1      -0.348  -0.910   0.277  0.00  0.00     0.017 A 
ATOM      8  C8  DEN d   1       0.606  -1.236   1.232  0.00  0.00    -0.094 A 
ATOM      9  C9  DEN d   1       1.648  -0.372   1.522  0.00  0.00    -0.072 A 
ENDROOT
TORSDOF 0
ENDMDL
