MODEL 1
REMARK minimizedAffinity -4.90871716
REMARK minimizedRMSD -1
REMARK  0 active torsions:
REMARK  status: ('A' for Active; 'I' for Inactive)
ROOT
ATOM      1  C1  DEN d   1      -0.138   0.041  -0.343  0.00  0.00     0.130 A 
ATOM      2  C2  DEN d   1       0.562   1.253  -0.757  0.00  0.00    -0.031 A 
ATOM      3  C3  DEN d   1       1.764   1.399   0.089  0.00  0.00     0.027 A 
ATOM      4  C4  DEN d   1       2.606  -0.130   1.987  0.00  0.00     0.027 A 
ATOM      5  C5  DEN d   1       2.341  -1.272   2.710  0.00  0.00    -0.003 A 
ATOM      6  C6  DEN d   1       1.223  -2.032   2.491  0.00  0.00     0.001 A 
ATOM      7  C7  DEN d   1       0.350  -1.684   1.494  0.00  0.00     0.017 A 
ATOM      8  C8  DEN d   1       0.607  -0.529   0.766  0.00  0.00    -0.094 A 
ATOM      9  C9  DEN d   1       1.750   0.219   0.994  0.00  0.00    -0.072 A 
ENDROOT
TORSDOF 0
ENDMDL
