MODEL 1
REMARK minimizedAffinity -6.55173826
REMARK minimizedRMSD -1
REMARK  0 active torsions:
REMARK  status: ('A' for Active; 'I' for Inactive)
ROOT
ATOM      1  C1  DEN d   1      -0.215  -0.522   0.072  0.00  0.00     0.130 A 
ATOM      2  C2  DEN d   1      -0.226   0.775  -0.599  0.00  0.00    -0.031 A 
ATOM      3  C3  DEN d   1       1.100   1.397  -0.412  0.00  0.00     0.027 A 
ATOM      4  C4  DEN d   1       3.160   0.481   0.841  0.00  0.00     0.027 A 
ATOM      5  C5  DEN d   1       3.645  -0.574   1.582  0.00  0.00    -0.003 A 
ATOM      6  C6  DEN d   1       2.874  -1.661   1.898  0.00  0.00     0.001 A 
ATOM      7  C7  DEN d   1       1.588  -1.738   1.433  0.00  0.00     0.017 A 
ATOM      8  C8  DEN d   1       1.089  -0.676   0.691  0.00  0.00    -0.094 A 
ATOM      9  C9  DEN d   1       1.888   0.409   0.372  0.00  0.00    -0.072 A 
ENDROOT
TORSDOF 0
ENDMDL
