MODEL 1
REMARK minimizedAffinity -2.92191362
REMARK minimizedRMSD -1
REMARK  0 active torsions:
REMARK  status: ('A' for Active; 'I' for Inactive)
ROOT
ATOM      1  C1  DEN d   1       1.785   1.454  -0.339  0.00  0.00     0.130 A 
ATOM      2  C2  DEN d   1       2.821   1.041   0.604  0.00  0.00    -0.031 A 
ATOM      3  C3  DEN d   1       2.304  -0.107   1.375  0.00  0.00     0.027 A 
ATOM      4  C4  DEN d   1       0.016  -1.283   1.199  0.00  0.00     0.027 A 
ATOM      5  C5  DEN d   1      -1.200  -1.282   0.551  0.00  0.00    -0.003 A 
ATOM      6  C6  DEN d   1      -1.516  -0.355  -0.407  0.00  0.00     0.001 A 
ATOM      7  C7  DEN d   1      -0.588   0.582  -0.777  0.00  0.00     0.017 A 
ATOM      8  C8  DEN d   1       0.637   0.592  -0.123  0.00  0.00    -0.094 A 
ATOM      9  C9  DEN d   1       0.942  -0.361   0.834  0.00  0.00    -0.072 A 
ENDROOT
TORSDOF 0
ENDMDL
