MODEL 1
REMARK minimizedAffinity 12.7063704
REMARK minimizedRMSD -1
REMARK  1 active torsions:
REMARK  status: ('A' for Active; 'I' for Inactive)
REMARK    1  A    between atoms: C1_2  and  C2_3 
ROOT
ATOM      1  C2  UNL d   1       0.870  -3.009   0.334  0.00  0.00    -0.081 A 
ATOM      2  C3  UNL d   1       0.637  -2.687  -1.009  0.00  0.00     0.006 A 
ATOM      3  C4  UNL d   1       1.341  -3.337  -2.025  0.00  0.00     0.002 A 
ATOM      4  C5  UNL d   1       2.282  -4.324  -1.717  0.00  0.00    -0.080 A 
ATOM      5  C6  UNL d   1       3.023  -5.051  -2.800  0.00  0.00     0.076 C 
ATOM      6  C7  UNL d   1       2.528  -4.633  -0.375  0.00  0.00     0.002 A 
ATOM      7  C8  UNL d   1       1.825  -3.983   0.642  0.00  0.00     0.006 A 
ENDROOT
BRANCH   1   8
ATOM      8  C1  UNL d   1       0.066  -2.356   1.429  0.00  0.00     0.054 C 
ATOM      9  C   UNL d   1      -1.411  -2.293   1.069  0.00  0.00     0.018 C 
ENDBRANCH   1   8
TORSDOF 1
ENDMDL
