MODEL 1
REMARK minimizedAffinity 4.03385353
REMARK minimizedRMSD -1
REMARK  1 active torsions:
REMARK  status: ('A' for Active; 'I' for Inactive)
REMARK    1  A    between atoms: C1_2  and  C2_3 
ROOT
ATOM      1  C2  UNL d   1       2.608   1.266   1.996  0.00  0.00    -0.081 A 
ATOM      2  C3  UNL d   1       2.145   2.250   1.114  0.00  0.00     0.006 A 
ATOM      3  C4  UNL d   1       2.456   2.185  -0.246  0.00  0.00     0.002 A 
ATOM      4  C5  UNL d   1       3.228   1.132  -0.748  0.00  0.00    -0.080 A 
ATOM      5  C6  UNL d   1       3.544   1.035  -2.211  0.00  0.00     0.076 C 
ATOM      6  C7  UNL d   1       3.706   0.159   0.136  0.00  0.00     0.002 A 
ATOM      7  C8  UNL d   1       3.396   0.223   1.496  0.00  0.00     0.006 A 
ENDROOT
BRANCH   1   8
ATOM      8  C1  UNL d   1       2.220   1.297   3.452  0.00  0.00     0.054 C 
ATOM      9  C   UNL d   1       2.193   2.722   3.987  0.00  0.00     0.018 C 
ENDBRANCH   1   8
TORSDOF 1
ENDMDL
