MODEL 1
REMARK minimizedAffinity 3.35544419
REMARK minimizedRMSD -1
REMARK  1 active torsions:
REMARK  status: ('A' for Active; 'I' for Inactive)
REMARK    1  A    between atoms: C1_2  and  C2_3 
ROOT
ATOM      1  C2  UNL d   1      -1.580  -3.232  -1.732  0.00  0.00    -0.081 A 
ATOM      2  C3  UNL d   1      -1.309  -4.572  -1.428  0.00  0.00     0.006 A 
ATOM      3  C4  UNL d   1      -0.013  -4.976  -1.102  0.00  0.00     0.002 A 
ATOM      4  C5  UNL d   1       1.032  -4.046  -1.066  0.00  0.00    -0.080 A 
ATOM      5  C6  UNL d   1       2.423  -4.461  -0.688  0.00  0.00     0.076 C 
ATOM      6  C7  UNL d   1       0.765  -2.711  -1.387  0.00  0.00     0.002 A 
ATOM      7  C8  UNL d   1      -0.531  -2.307  -1.714  0.00  0.00     0.006 A 
ENDROOT
BRANCH   1   8
ATOM      8  C1  UNL d   1      -2.990  -2.782  -2.021  0.00  0.00     0.054 C 
ATOM      9  C   UNL d   1      -3.012  -1.379  -2.611  0.00  0.00     0.018 C 
ENDBRANCH   1   8
TORSDOF 1
ENDMDL
