MODEL 1
REMARK minimizedAffinity 9.06923389
REMARK minimizedRMSD -1
REMARK  1 active torsions:
REMARK  status: ('A' for Active; 'I' for Inactive)
REMARK    1  A    between atoms: C1_2  and  C2_3 
ROOT
ATOM      1  C2  UNL d   1      -1.232  -2.578  -2.166  0.00  0.00    -0.081 A 
ATOM      2  C3  UNL d   1      -1.411  -1.443  -2.966  0.00  0.00     0.006 A 
ATOM      3  C4  UNL d   1      -2.660  -1.159  -3.523  0.00  0.00     0.002 A 
ATOM      4  C5  UNL d   1      -3.752  -1.999  -3.282  0.00  0.00    -0.080 A 
ATOM      5  C6  UNL d   1      -5.106  -1.690  -3.849  0.00  0.00     0.076 C 
ATOM      6  C7  UNL d   1      -3.570  -3.143  -2.497  0.00  0.00     0.002 A 
ATOM      7  C8  UNL d   1      -2.321  -3.428  -1.940  0.00  0.00     0.006 A 
ENDROOT
BRANCH   1   8
ATOM      8  C1  UNL d   1       0.098  -2.852  -1.511  0.00  0.00     0.054 C 
ATOM      9  C   UNL d   1       1.237  -2.769  -2.517  0.00  0.00     0.018 C 
ENDBRANCH   1   8
TORSDOF 1
ENDMDL
