MODEL 1
REMARK minimizedAffinity 1.84722781
REMARK minimizedRMSD -1
REMARK  1 active torsions:
REMARK  status: ('A' for Active; 'I' for Inactive)
REMARK    1  A    between atoms: C1_2  and  C2_3 
ROOT
ATOM      1  C2  UNL d   1      -0.956  -1.083   1.272  0.00  0.00    -0.081 A 
ATOM      2  C3  UNL d   1       0.250  -1.763   1.482  0.00  0.00     0.006 A 
ATOM      3  C4  UNL d   1       1.461  -1.066   1.505  0.00  0.00     0.002 A 
ATOM      4  C5  UNL d   1       1.485   0.321   1.326  0.00  0.00    -0.080 A 
ATOM      5  C6  UNL d   1       2.774   1.085   1.378  0.00  0.00     0.076 C 
ATOM      6  C7  UNL d   1       0.281   0.998   1.099  0.00  0.00     0.002 A 
ATOM      7  C8  UNL d   1      -0.929   0.302   1.075  0.00  0.00     0.006 A 
ENDROOT
BRANCH   1   8
ATOM      8  C1  UNL d   1      -2.269  -1.823   1.312  0.00  0.00     0.054 C 
ATOM      9  C   UNL d   1      -2.644  -2.358  -0.063  0.00  0.00     0.018 C 
ENDBRANCH   1   8
TORSDOF 1
ENDMDL
