MODEL 1
REMARK minimizedAffinity 3.74365139
REMARK minimizedRMSD -1
REMARK  1 active torsions:
REMARK  status: ('A' for Active; 'I' for Inactive)
REMARK    1  A    between atoms: C1_2  and  C2_3 
ROOT
ATOM      1  C2  UNL d   1       1.553  -0.542   1.488  0.00  0.00    -0.081 A 
ATOM      2  C3  UNL d   1       0.840   0.596   1.884  0.00  0.00     0.006 A 
ATOM      3  C4  UNL d   1       0.642   1.653   0.993  0.00  0.00     0.002 A 
ATOM      4  C5  UNL d   1       1.147   1.588  -0.310  0.00  0.00    -0.080 A 
ATOM      5  C6  UNL d   1       0.915   2.703  -1.286  0.00  0.00     0.076 C 
ATOM      6  C7  UNL d   1       1.874   0.458  -0.700  0.00  0.00     0.002 A 
ATOM      7  C8  UNL d   1       2.073  -0.599   0.191  0.00  0.00     0.006 A 
ENDROOT
BRANCH   1   8
ATOM      8  C1  UNL d   1       1.712  -1.711   2.426  0.00  0.00     0.054 C 
ATOM      9  C   UNL d   1       0.417  -2.501   2.552  0.00  0.00     0.018 C 
ENDBRANCH   1   8
TORSDOF 1
ENDMDL
