MODEL 1
REMARK minimizedAffinity 4.68856621
REMARK minimizedRMSD -1
REMARK  1 active torsions:
REMARK  status: ('A' for Active; 'I' for Inactive)
REMARK    1  A    between atoms: C1_2  and  C2_3 
ROOT
ATOM      1  C2  UNL d   1       1.046  -1.315   4.208  0.00  0.00    -0.081 A 
ATOM      2  C3  UNL d   1       1.990  -1.709   5.164  0.00  0.00     0.006 A 
ATOM      3  C4  UNL d   1       2.190  -3.063   5.445  0.00  0.00     0.002 A 
ATOM      4  C5  UNL d   1       1.456  -4.044   4.770  0.00  0.00    -0.080 A 
ATOM      5  C6  UNL d   1       1.683  -5.502   5.040  0.00  0.00     0.076 C 
ATOM      6  C7  UNL d   1       0.501  -3.649   3.827  0.00  0.00     0.002 A 
ATOM      7  C8  UNL d   1       0.300  -2.296   3.546  0.00  0.00     0.006 A 
ENDROOT
BRANCH   1   8
ATOM      8  C1  UNL d   1       0.874   0.141   3.856  0.00  0.00     0.054 C 
ATOM      9  C   UNL d   1       1.490   0.459   2.501  0.00  0.00     0.018 C 
ENDBRANCH   1   8
TORSDOF 1
ENDMDL
