MODEL 1
REMARK minimizedAffinity 2.06731653
REMARK minimizedRMSD -1
REMARK  1 active torsions:
REMARK  status: ('A' for Active; 'I' for Inactive)
REMARK    1  A    between atoms: C1_2  and  C2_3 
ROOT
ATOM      1  C2  UNL d   1       2.068  -1.338   2.030  0.00  0.00    -0.081 A 
ATOM      2  C3  UNL d   1       3.377  -1.793   2.227  0.00  0.00     0.006 A 
ATOM      3  C4  UNL d   1       3.689  -2.598   3.325  0.00  0.00     0.002 A 
ATOM      4  C5  UNL d   1       2.697  -2.968   4.239  0.00  0.00    -0.080 A 
ATOM      5  C6  UNL d   1       3.013  -3.857   5.405  0.00  0.00     0.076 C 
ATOM      6  C7  UNL d   1       1.392  -2.500   4.052  0.00  0.00     0.002 A 
ATOM      7  C8  UNL d   1       1.080  -1.694   2.955  0.00  0.00     0.006 A 
ENDROOT
BRANCH   1   8
ATOM      8  C1  UNL d   1       1.714  -0.524   0.812  0.00  0.00     0.054 C 
ATOM      9  C   UNL d   1       1.173   0.845   1.200  0.00  0.00     0.018 C 
ENDBRANCH   1   8
TORSDOF 1
ENDMDL
