MODEL 1
REMARK minimizedAffinity 13.6028347
REMARK minimizedRMSD -1
REMARK  1 active torsions:
REMARK  status: ('A' for Active; 'I' for Inactive)
REMARK    1  A    between atoms: C1_2  and  C2_3 
ROOT
ATOM      1  C2  UNL d   1      -3.554   3.551   5.032  0.00  0.00    -0.073 A 
ATOM      2  C3  UNL d   1      -3.791   2.568   5.998  0.00  0.00    -0.002 A 
ATOM      3  C4  UNL d   1      -4.336   1.336   5.632  0.00  0.00     0.004 A 
ATOM      4  C5  UNL d   1      -4.641   1.073   4.297  0.00  0.00    -0.004 A 
ATOM      5  C6  UNL d   1      -4.400   2.039   3.314  0.00  0.00    -0.075 A 
ATOM      6  C7  UNL d   1      -4.725   1.772   1.874  0.00  0.00     0.076 C 
ATOM      7  C8  UNL d   1      -3.855   3.274   3.691  0.00  0.00     0.001 A 
ENDROOT
BRANCH   1   8
ATOM      8  C1  UNL d   1      -2.960   4.880   5.422  0.00  0.00     0.053 C 
ATOM      9  C   UNL d   1      -4.003   5.823   5.999  0.00  0.00     0.018 C 
ENDBRANCH   1   8
TORSDOF 1
ENDMDL
