MODEL 1
REMARK minimizedAffinity 7.08603001
REMARK minimizedRMSD -1
REMARK  1 active torsions:
REMARK  status: ('A' for Active; 'I' for Inactive)
REMARK    1  A    between atoms: C1_2  and  C2_3 
ROOT
ATOM      1  C2  UNL d   1       1.105  -2.065   1.868  0.00  0.00    -0.073 A 
ATOM      2  C3  UNL d   1       1.120  -0.747   2.339  0.00  0.00    -0.002 A 
ATOM      3  C4  UNL d   1       0.117  -0.293   3.197  0.00  0.00     0.004 A 
ATOM      4  C5  UNL d   1      -0.905  -1.152   3.598  0.00  0.00    -0.004 A 
ATOM      5  C6  UNL d   1      -0.931  -2.476   3.148  0.00  0.00    -0.075 A 
ATOM      6  C7  UNL d   1      -2.026  -3.413   3.568  0.00  0.00     0.076 C 
ATOM      7  C8  UNL d   1       0.078  -2.924   2.284  0.00  0.00     0.001 A 
ENDROOT
BRANCH   1   8
ATOM      8  C1  UNL d   1       2.189  -2.561   0.947  0.00  0.00     0.053 C 
ATOM      9  C   UNL d   1       2.175  -4.075   0.814  0.00  0.00     0.018 C 
ENDBRANCH   1   8
TORSDOF 1
ENDMDL
