MODEL 1
REMARK minimizedAffinity 14.2405005
REMARK minimizedRMSD -1
REMARK  1 active torsions:
REMARK  status: ('A' for Active; 'I' for Inactive)
REMARK    1  A    between atoms: C1_2  and  C2_3 
ROOT
ATOM      1  C2  UNL d   1       3.278  -2.046   3.806  0.00  0.00    -0.073 A 
ATOM      2  C3  UNL d   1       2.410  -0.984   4.084  0.00  0.00    -0.002 A 
ATOM      3  C4  UNL d   1       1.474  -0.572   3.134  0.00  0.00     0.004 A 
ATOM      4  C5  UNL d   1       1.392  -1.220   1.902  0.00  0.00    -0.004 A 
ATOM      5  C6  UNL d   1       2.243  -2.291   1.610  0.00  0.00    -0.075 A 
ATOM      6  C7  UNL d   1       2.169  -2.997   0.289  0.00  0.00     0.076 C 
ATOM      7  C8  UNL d   1       3.181  -2.698   2.568  0.00  0.00     0.001 A 
ENDROOT
BRANCH   1   8
ATOM      8  C1  UNL d   1       4.285  -2.500   4.831  0.00  0.00     0.053 C 
ATOM      9  C   UNL d   1       4.371  -4.015   4.915  0.00  0.00     0.018 C 
ENDBRANCH   1   8
TORSDOF 1
ENDMDL
