MODEL 1
REMARK minimizedAffinity 11.6659174
REMARK minimizedRMSD -1
REMARK  1 active torsions:
REMARK  status: ('A' for Active; 'I' for Inactive)
REMARK    1  A    between atoms: C1_2  and  C2_3 
ROOT
ATOM      1  C2  UNL d   1       0.570  -1.800  -0.991  0.00  0.00    -0.073 A 
ATOM      2  C3  UNL d   1       1.283  -1.068  -0.035  0.00  0.00    -0.002 A 
ATOM      3  C4  UNL d   1       2.344  -1.655   0.655  0.00  0.00     0.004 A 
ATOM      4  C5  UNL d   1       2.708  -2.975   0.392  0.00  0.00    -0.004 A 
ATOM      5  C6  UNL d   1       2.015  -3.720  -0.568  0.00  0.00    -0.075 A 
ATOM      6  C7  UNL d   1       2.393  -5.142  -0.861  0.00  0.00     0.076 C 
ATOM      7  C8  UNL d   1       0.949  -3.124  -1.255  0.00  0.00     0.001 A 
ENDROOT
BRANCH   1   8
ATOM      8  C1  UNL d   1      -0.573  -1.169  -1.743  0.00  0.00     0.053 C 
ATOM      9  C   UNL d   1      -0.121   0.024  -2.571  0.00  0.00     0.018 C 
ENDBRANCH   1   8
TORSDOF 1
ENDMDL
