MODEL 1
REMARK minimizedAffinity 16.7461205
REMARK minimizedRMSD -1
REMARK  1 active torsions:
REMARK  status: ('A' for Active; 'I' for Inactive)
REMARK    1  A    between atoms: C1_2  and  C2_3 
ROOT
ATOM      1  C2  UNL d   1       3.205  -1.370   0.129  0.00  0.00    -0.073 A 
ATOM      2  C3  UNL d   1       3.142  -2.566  -0.595  0.00  0.00    -0.002 A 
ATOM      3  C4  UNL d   1       2.041  -3.413  -0.464  0.00  0.00     0.004 A 
ATOM      4  C5  UNL d   1       0.990  -3.070   0.387  0.00  0.00    -0.004 A 
ATOM      5  C6  UNL d   1       1.029  -1.874   1.110  0.00  0.00    -0.075 A 
ATOM      6  C7  UNL d   1      -0.093  -1.492   2.031  0.00  0.00     0.076 C 
ATOM      7  C8  UNL d   1       2.139  -1.030   0.975  0.00  0.00     0.001 A 
ENDROOT
BRANCH   1   8
ATOM      8  C1  UNL d   1       4.389  -0.449  -0.014  0.00  0.00     0.053 C 
ATOM      9  C   UNL d   1       5.708  -1.202   0.052  0.00  0.00     0.018 C 
ENDBRANCH   1   8
TORSDOF 1
ENDMDL
