MODEL 1
REMARK minimizedAffinity 13.8600588
REMARK minimizedRMSD -1
REMARK  1 active torsions:
REMARK  status: ('A' for Active; 'I' for Inactive)
REMARK    1  A    between atoms: C1_2  and  C2_3 
ROOT
ATOM      1  C2  UNL d   1      -2.822   2.796  -3.390  0.00  0.00    -0.073 A 
ATOM      2  C3  UNL d   1      -3.063   1.973  -2.284  0.00  0.00    -0.002 A 
ATOM      3  C4  UNL d   1      -2.066   1.120  -1.809  0.00  0.00     0.004 A 
ATOM      4  C5  UNL d   1      -0.817   1.086  -2.429  0.00  0.00    -0.004 A 
ATOM      5  C6  UNL d   1      -0.553   1.909  -3.528  0.00  0.00    -0.075 A 
ATOM      6  C7  UNL d   1       0.785   1.883  -4.208  0.00  0.00     0.076 C 
ATOM      7  C8  UNL d   1      -1.560   2.761  -4.001  0.00  0.00     0.001 A 
ENDROOT
BRANCH   1   8
ATOM      8  C1  UNL d   1      -3.893   3.723  -3.902  0.00  0.00     0.053 C 
ATOM      9  C   UNL d   1      -4.696   3.097  -5.032  0.00  0.00     0.018 C 
ENDBRANCH   1   8
TORSDOF 1
ENDMDL
