MODEL 1
REMARK minimizedAffinity 0.230562359
REMARK minimizedRMSD -1
REMARK  1 active torsions:
REMARK  status: ('A' for Active; 'I' for Inactive)
REMARK    1  A    between atoms: C1_2  and  C2_3 
ROOT
ATOM      1  C2  UNL d   1       1.553  -1.710   2.068  0.00  0.00    -0.073 A 
ATOM      2  C3  UNL d   1       1.914  -0.899   0.986  0.00  0.00    -0.002 A 
ATOM      3  C4  UNL d   1       2.677  -1.418  -0.061  0.00  0.00     0.004 A 
ATOM      4  C5  UNL d   1       3.080  -2.753  -0.040  0.00  0.00    -0.004 A 
ATOM      5  C6  UNL d   1       2.720  -3.583   1.027  0.00  0.00    -0.075 A 
ATOM      6  C7  UNL d   1       3.147  -5.021   1.065  0.00  0.00     0.076 C 
ATOM      7  C8  UNL d   1       1.956  -3.053   2.075  0.00  0.00     0.001 A 
ENDROOT
BRANCH   1   8
ATOM      8  C1  UNL d   1       0.724  -1.155   3.198  0.00  0.00     0.053 C 
ATOM      9  C   UNL d   1      -0.766  -1.267   2.919  0.00  0.00     0.018 C 
ENDBRANCH   1   8
TORSDOF 1
ENDMDL
