MODEL 1
REMARK minimizedAffinity 11.6304369
REMARK minimizedRMSD -1
REMARK  1 active torsions:
REMARK  status: ('A' for Active; 'I' for Inactive)
REMARK    1  A    between atoms: C1_2  and  C2_3 
ROOT
ATOM      1  C2  UNL d   1       2.290  -2.784   0.422  0.00  0.00    -0.073 A 
ATOM      2  C3  UNL d   1       1.230  -1.872   0.477  0.00  0.00    -0.002 A 
ATOM      3  C4  UNL d   1       1.006  -1.119   1.630  0.00  0.00     0.004 A 
ATOM      4  C5  UNL d   1       1.844  -1.264   2.736  0.00  0.00    -0.004 A 
ATOM      5  C6  UNL d   1       2.916  -2.161   2.696  0.00  0.00    -0.075 A 
ATOM      6  C7  UNL d   1       3.824  -2.331   3.879  0.00  0.00     0.076 C 
ATOM      7  C8  UNL d   1       3.132  -2.916   1.535  0.00  0.00     0.001 A 
ENDROOT
BRANCH   1   8
ATOM      8  C1  UNL d   1       2.539  -3.594  -0.824  0.00  0.00     0.053 C 
ATOM      9  C   UNL d   1       2.561  -5.087  -0.537  0.00  0.00     0.018 C 
ENDBRANCH   1   8
TORSDOF 1
ENDMDL
