MODEL 1
REMARK minimizedAffinity -3.67091727
REMARK minimizedRMSD -1
REMARK  0 active torsions:
REMARK  status: ('A' for Active; 'I' for Inactive)
ROOT
ATOM      1  C2' OXE d   1       1.113  -0.387  -0.767  0.00  0.00     0.078 C 
ATOM      2  C1' OXE d   1      -0.837  -1.974  -2.014  0.00  0.00     0.078 C 
ATOM      3  C1  OXE d   1      -0.053  -1.017  -2.876  0.00  0.00    -0.078 A 
ATOM      4  C2  OXE d   1       0.867  -0.211  -2.250  0.00  0.00    -0.078 A 
ATOM      5  C3  OXE d   1       1.656   0.651  -3.006  0.00  0.00     0.003 A 
ATOM      6  C4  OXE d   1       1.416   0.814  -4.376  0.00  0.00    -0.002 A 
ATOM      7  C5  OXE d   1       0.456   0.032  -5.026  0.00  0.00    -0.002 A 
ATOM      8  C6  OXE d   1      -0.255  -0.917  -4.301  0.00  0.00     0.003 A 
ENDROOT
TORSDOF 0
ENDMDL
