MODEL 1
REMARK minimizedAffinity -2.6816566
REMARK minimizedRMSD -1
REMARK  0 active torsions:
REMARK  status: ('A' for Active; 'I' for Inactive)
ROOT
ATOM      1  C2' OXE d   1      -0.552  -3.380  -1.501  0.00  0.00     0.078 C 
ATOM      2  C1' OXE d   1      -3.095  -2.734  -0.505  0.00  0.00     0.078 C 
ATOM      3  C1  OXE d   1      -2.007  -1.696  -0.382  0.00  0.00    -0.078 A 
ATOM      4  C2  OXE d   1      -0.754  -2.039  -0.830  0.00  0.00    -0.078 A 
ATOM      5  C3  OXE d   1       0.273  -1.100  -0.791  0.00  0.00     0.003 A 
ATOM      6  C4  OXE d   1       0.080   0.135  -0.159  0.00  0.00    -0.002 A 
ATOM      7  C5  OXE d   1      -1.178   0.489   0.339  0.00  0.00    -0.002 A 
ATOM      8  C6  OXE d   1      -2.241  -0.397   0.198  0.00  0.00     0.003 A 
ENDROOT
TORSDOF 0
ENDMDL
