MODEL 1
REMARK minimizedAffinity -3.54925728
REMARK minimizedRMSD -1
REMARK  0 active torsions:
REMARK  status: ('A' for Active; 'I' for Inactive)
ROOT
ATOM      1  C2' OXE d   1      -0.805   1.016   2.728  0.00  0.00     0.078 C 
ATOM      2  C1' OXE d   1      -2.646   0.223   0.763  0.00  0.00     0.078 C 
ATOM      3  C1  OXE d   1      -1.216  -0.233   0.613  0.00  0.00    -0.078 A 
ATOM      4  C2  OXE d   1      -0.312   0.198   1.554  0.00  0.00    -0.078 A 
ATOM      5  C3  OXE d   1       1.008  -0.238   1.493  0.00  0.00     0.003 A 
ATOM      6  C4  OXE d   1       1.457  -0.986   0.398  0.00  0.00    -0.002 A 
ATOM      7  C5  OXE d   1       0.562  -1.403  -0.593  0.00  0.00    -0.002 A 
ATOM      8  C6  OXE d   1      -0.784  -1.072  -0.478  0.00  0.00     0.003 A 
ENDROOT
TORSDOF 0
ENDMDL
