MODEL 1
REMARK minimizedAffinity -2.62018538
REMARK minimizedRMSD -1
REMARK  0 active torsions:
REMARK  status: ('A' for Active; 'I' for Inactive)
ROOT
ATOM      1  C2' OXE d   1       1.864   1.869  -4.124  0.00  0.00     0.078 C 
ATOM      2  C1' OXE d   1       1.103   0.147  -2.042  0.00  0.00     0.078 C 
ATOM      3  C1  OXE d   1       0.569  -0.140  -3.423  0.00  0.00    -0.078 A 
ATOM      4  C2  OXE d   1       0.909   0.735  -4.427  0.00  0.00    -0.078 A 
ATOM      5  C3  OXE d   1       0.488   0.486  -5.730  0.00  0.00     0.003 A 
ATOM      6  C4  OXE d   1      -0.404  -0.559  -6.000  0.00  0.00    -0.002 A 
ATOM      7  C5  OXE d   1      -0.794  -1.439  -4.984  0.00  0.00    -0.002 A 
ATOM      8  C6  OXE d   1      -0.284  -1.269  -3.702  0.00  0.00     0.003 A 
ENDROOT
TORSDOF 0
ENDMDL
