MODEL 1
REMARK minimizedAffinity -1.23315895
REMARK minimizedRMSD -1
REMARK  0 active torsions:
REMARK  status: ('A' for Active; 'I' for Inactive)
ROOT
ATOM      1  C2' OXE d   1      -1.767   0.773   0.022  0.00  0.00     0.078 C 
ATOM      2  C1' OXE d   1      -0.439   2.014   2.161  0.00  0.00     0.078 C 
ATOM      3  C1  OXE d   1       0.256   0.867   1.471  0.00  0.00    -0.078 A 
ATOM      4  C2  OXE d   1      -0.421   0.236   0.456  0.00  0.00    -0.078 A 
ATOM      5  C3  OXE d   1       0.198  -0.792  -0.250  0.00  0.00     0.003 A 
ATOM      6  C4  OXE d   1       1.439  -1.290   0.165  0.00  0.00    -0.002 A 
ATOM      7  C5  OXE d   1       2.129  -0.687   1.222  0.00  0.00    -0.002 A 
ATOM      8  C6  OXE d   1       1.571   0.418   1.857  0.00  0.00     0.003 A 
ENDROOT
TORSDOF 0
ENDMDL
