MODEL 1
REMARK minimizedAffinity 2.19352889
REMARK minimizedRMSD -1
REMARK  0 active torsions:
REMARK  status: ('A' for Active; 'I' for Inactive)
ROOT
ATOM      1  C2' OXE d   1       1.941   0.018   2.151  0.00  0.00     0.078 C 
ATOM      2  C1' OXE d   1       1.027  -0.280  -0.487  0.00  0.00     0.078 C 
ATOM      3  C1  OXE d   1       0.002  -0.018   0.588  0.00  0.00    -0.078 A 
ATOM      4  C2  OXE d   1       0.453   0.080   1.882  0.00  0.00    -0.078 A 
ATOM      5  C3  OXE d   1      -0.445   0.375   2.904  0.00  0.00     0.003 A 
ATOM      6  C4  OXE d   1      -1.821   0.421   2.648  0.00  0.00    -0.002 A 
ATOM      7  C5  OXE d   1      -2.305   0.284   1.343  0.00  0.00    -0.002 A 
ATOM      8  C6  OXE d   1      -1.405   0.107   0.298  0.00  0.00     0.003 A 
ENDROOT
TORSDOF 0
ENDMDL
