MODEL 1
REMARK minimizedAffinity -2.31030107
REMARK minimizedRMSD -1
REMARK  0 active torsions:
REMARK  status: ('A' for Active; 'I' for Inactive)
ROOT
ATOM      1  C2' OXE d   1       1.859   0.553   1.618  0.00  0.00     0.078 C 
ATOM      2  C1' OXE d   1      -0.340   1.753   2.883  0.00  0.00     0.078 C 
ATOM      3  C1  OXE d   1      -0.617   0.778   1.767  0.00  0.00    -0.078 A 
ATOM      4  C2  OXE d   1       0.466   0.231   1.122  0.00  0.00    -0.078 A 
ATOM      5  C3  OXE d   1       0.267  -0.716   0.122  0.00  0.00     0.003 A 
ATOM      6  C4  OXE d   1      -1.024  -1.001  -0.338  0.00  0.00    -0.002 A 
ATOM      7  C5  OXE d   1      -2.140  -0.425   0.278  0.00  0.00    -0.002 A 
ATOM      8  C6  OXE d   1      -1.956   0.432   1.357  0.00  0.00     0.003 A 
ENDROOT
TORSDOF 0
ENDMDL
