MODEL 1
REMARK minimizedAffinity -2.11810851
REMARK minimizedRMSD -1
REMARK  0 active torsions:
REMARK  status: ('A' for Active; 'I' for Inactive)
ROOT
ATOM      1  C2' OXE d   1       2.494   1.711  -3.742  0.00  0.00     0.078 C 
ATOM      2  C1' OXE d   1       1.238   0.003  -1.902  0.00  0.00     0.078 C 
ATOM      3  C1  OXE d   1       0.775  -0.045  -3.337  0.00  0.00    -0.078 A 
ATOM      4  C2  OXE d   1       1.363   0.828  -4.221  0.00  0.00    -0.078 A 
ATOM      5  C3  OXE d   1       1.011   0.787  -5.567  0.00  0.00     0.003 A 
ATOM      6  C4  OXE d   1      -0.043  -0.027  -6.000  0.00  0.00    -0.002 A 
ATOM      7  C5  OXE d   1      -0.683  -0.895  -5.108  0.00  0.00    -0.002 A 
ATOM      8  C6  OXE d   1      -0.258  -0.947  -3.785  0.00  0.00     0.003 A 
ENDROOT
TORSDOF 0
ENDMDL
