MODEL 1
REMARK minimizedAffinity -3.34101653
REMARK minimizedRMSD -1
REMARK  0 active torsions:
REMARK  status: ('A' for Active; 'I' for Inactive)
ROOT
ATOM      1  C2' OXE d   1       0.526   0.266  -1.738  0.00  0.00     0.078 C 
ATOM      2  C1' OXE d   1      -1.516  -1.284  -0.594  0.00  0.00     0.078 C 
ATOM      3  C1  OXE d   1      -0.798  -0.300   0.295  0.00  0.00    -0.078 A 
ATOM      4  C2  OXE d   1       0.231   0.421  -0.261  0.00  0.00    -0.078 A 
ATOM      5  C3  OXE d   1       0.890   1.382   0.500  0.00  0.00     0.003 A 
ATOM      6  C4  OXE d   1       0.617   1.512   1.867  0.00  0.00    -0.002 A 
ATOM      7  C5  OXE d   1      -0.400   0.759   2.463  0.00  0.00    -0.002 A 
ATOM      8  C6  OXE d   1      -1.144  -0.119   1.683  0.00  0.00     0.003 A 
ENDROOT
TORSDOF 0
ENDMDL
