MODEL 1
REMARK minimizedAffinity -3.75052333
REMARK minimizedRMSD -1
REMARK  0 active torsions:
REMARK  status: ('A' for Active; 'I' for Inactive)
ROOT
ATOM      1  O1  BZF d   1       3.780   3.602  -5.400  0.00  0.00    -0.204 OA
ATOM      2  C2  BZF d   1       4.943   2.978  -5.810  0.00  0.00     0.174 A 
ATOM      3  C3  BZF d   1       6.000   3.421  -5.100  0.00  0.00    -0.012 A 
ATOM      4  C3A BZF d   1       5.451   4.316  -4.127  0.00  0.00    -0.107 A 
ATOM      5  C4  BZF d   1       5.999   5.060  -3.122  0.00  0.00     0.055 A 
ATOM      6  C5  BZF d   1       5.197   5.886  -2.399  0.00  0.00    -0.016 A 
ATOM      7  C6  BZF d   1       3.846   5.995  -2.657  0.00  0.00     0.022 A 
ATOM      8  C7  BZF d   1       3.257   5.272  -3.640  0.00  0.00     0.029 A 
ATOM      9  C7A BZF d   1       4.058   4.413  -4.351  0.00  0.00     0.058 A 
ENDROOT
TORSDOF 0
ENDMDL
