MODEL 1
REMARK minimizedAffinity -5.66952705
REMARK minimizedRMSD -1
REMARK  0 active torsions:
REMARK  status: ('A' for Active; 'I' for Inactive)
ROOT
ATOM      1  O1  BZF d   1       5.907   5.176  -2.761  0.00  0.00    -0.204 OA
ATOM      2  C2  BZF d   1       4.918   5.999  -2.259  0.00  0.00     0.174 A 
ATOM      3  C3  BZF d   1       3.789   5.890  -2.987  0.00  0.00    -0.012 A 
ATOM      4  C3A BZF d   1       4.061   4.871  -3.953  0.00  0.00    -0.107 A 
ATOM      5  C4  BZF d   1       3.323   4.301  -4.951  0.00  0.00     0.055 A 
ATOM      6  C5  BZF d   1       3.908   3.382  -5.763  0.00  0.00    -0.016 A 
ATOM      7  C6  BZF d   1       5.229   3.014  -5.611  0.00  0.00     0.022 A 
ATOM      8  C7  BZF d   1       6.000   3.549  -4.633  0.00  0.00     0.029 A 
ATOM      9  C7A BZF d   1       5.402   4.453  -3.789  0.00  0.00     0.058 A 
ENDROOT
TORSDOF 0
ENDMDL
