MODEL 1
REMARK minimizedAffinity -1.02864933
REMARK minimizedRMSD -1
REMARK  0 active torsions:
REMARK  status: ('A' for Active; 'I' for Inactive)
ROOT
ATOM      1  O1  BZF d   1       5.881   4.125  -5.320  0.00  0.00    -0.204 OA
ATOM      2  C2  BZF d   1       4.882   3.454  -5.999  0.00  0.00     0.174 A 
ATOM      3  C3  BZF d   1       3.753   3.403  -5.264  0.00  0.00    -0.012 A 
ATOM      4  C3A BZF d   1       4.037   4.165  -4.086  0.00  0.00    -0.107 A 
ATOM      5  C4  BZF d   1       3.304   4.495  -2.982  0.00  0.00     0.055 A 
ATOM      6  C5  BZF d   1       3.899   5.192  -1.979  0.00  0.00    -0.016 A 
ATOM      7  C6  BZF d   1       5.224   5.569  -2.043  0.00  0.00     0.022 A 
ATOM      8  C7  BZF d   1       5.990   5.269  -3.120  0.00  0.00     0.029 A 
ATOM      9  C7A BZF d   1       5.383   4.594  -4.151  0.00  0.00     0.058 A 
ENDROOT
TORSDOF 0
ENDMDL
