MODEL 1
REMARK minimizedAffinity 9.87209034
REMARK minimizedRMSD -1
REMARK  0 active torsions:
REMARK  status: ('A' for Active; 'I' for Inactive)
ROOT
ATOM      1  O1  BZF d   1       0.953  -4.123  -5.240  0.00  0.00    -0.204 OA
ATOM      2  C2  BZF d   1       2.284  -4.180  -4.874  0.00  0.00     0.174 A 
ATOM      3  C3  BZF d   1       2.485  -3.540  -3.704  0.00  0.00    -0.012 A 
ATOM      4  C3A BZF d   1       1.184  -3.133  -3.269  0.00  0.00    -0.107 A 
ATOM      5  C4  BZF d   1       0.728  -2.467  -2.167  0.00  0.00     0.055 A 
ATOM      6  C5  BZF d   1      -0.593  -2.162  -2.079  0.00  0.00    -0.016 A 
ATOM      7  C6  BZF d   1      -1.484  -2.502  -3.076  0.00  0.00     0.022 A 
ATOM      8  C7  BZF d   1      -1.080  -3.167  -4.185  0.00  0.00     0.029 A 
ATOM      9  C7A BZF d   1       0.249  -3.505  -4.262  0.00  0.00     0.058 A 
ENDROOT
TORSDOF 0
ENDMDL
