MODEL 1
REMARK minimizedAffinity 5.12648296
REMARK minimizedRMSD -1
REMARK  0 active torsions:
REMARK  status: ('A' for Active; 'I' for Inactive)
ROOT
ATOM      1  O1  BZF d   1       2.630  -3.925  -3.659  0.00  0.00    -0.204 OA
ATOM      2  C2  BZF d   1       1.859  -3.000  -4.336  0.00  0.00     0.174 A 
ATOM      3  C3  BZF d   1       2.515  -1.828  -4.457  0.00  0.00    -0.012 A 
ATOM      4  C3A BZF d   1       3.811  -2.062  -3.898  0.00  0.00    -0.107 A 
ATOM      5  C4  BZF d   1       4.921  -1.282  -3.742  0.00  0.00     0.055 A 
ATOM      6  C5  BZF d   1       5.999  -1.790  -3.090  0.00  0.00    -0.016 A 
ATOM      7  C6  BZF d   1       5.999  -3.070  -2.576  0.00  0.00     0.022 A 
ATOM      8  C7  BZF d   1       4.923  -3.883  -2.710  0.00  0.00     0.029 A 
ATOM      9  C7A BZF d   1       3.844  -3.384  -3.398  0.00  0.00     0.058 A 
ENDROOT
TORSDOF 0
ENDMDL
