MODEL 1
REMARK minimizedAffinity 9.51454163
REMARK minimizedRMSD -1
REMARK  0 active torsions:
REMARK  status: ('A' for Active; 'I' for Inactive)
ROOT
ATOM      1  O1  BZF d   1      -1.149  -3.070  -4.091  0.00  0.00    -0.204 OA
ATOM      2  C2  BZF d   1      -0.961  -2.535  -2.832  0.00  0.00     0.174 A 
ATOM      3  C3  BZF d   1       0.336  -2.610  -2.468  0.00  0.00    -0.012 A 
ATOM      4  C3A BZF d   1       1.015  -3.146  -3.607  0.00  0.00    -0.107 A 
ATOM      5  C4  BZF d   1       2.323  -3.441  -3.868  0.00  0.00     0.055 A 
ATOM      6  C5  BZF d   1       2.646  -4.022  -5.053  0.00  0.00    -0.016 A 
ATOM      7  C6  BZF d   1       1.687  -4.328  -5.996  0.00  0.00     0.022 A 
ATOM      8  C7  BZF d   1       0.378  -4.050  -5.785  0.00  0.00     0.029 A 
ATOM      9  C7A BZF d   1       0.052  -3.432  -4.603  0.00  0.00     0.058 A 
ENDROOT
TORSDOF 0
ENDMDL
