MODEL 1
REMARK minimizedAffinity 9.30320835
REMARK minimizedRMSD -1
REMARK  0 active torsions:
REMARK  status: ('A' for Active; 'I' for Inactive)
ROOT
ATOM      1  O1  BZF d   1       4.715  -2.919  -1.864  0.00  0.00    -0.204 OA
ATOM      2  C2  BZF d   1       5.999  -2.730  -2.337  0.00  0.00     0.174 A 
ATOM      3  C3  BZF d   1       6.000  -2.595  -3.679  0.00  0.00    -0.012 A 
ATOM      4  C3A BZF d   1       4.621  -2.613  -4.059  0.00  0.00    -0.107 A 
ATOM      5  C4  BZF d   1       3.976  -2.504  -5.258  0.00  0.00     0.055 A 
ATOM      6  C5  BZF d   1       2.624  -2.636  -5.296  0.00  0.00    -0.016 A 
ATOM      7  C6  BZF d   1       1.887  -2.883  -4.156  0.00  0.00     0.022 A 
ATOM      8  C7  BZF d   1       2.481  -2.994  -2.943  0.00  0.00     0.029 A 
ATOM      9  C7A BZF d   1       3.844  -2.828  -2.897  0.00  0.00     0.058 A 
ENDROOT
TORSDOF 0
ENDMDL
