MODEL 1
REMARK minimizedAffinity 2.06835032
REMARK minimizedRMSD -1
REMARK  0 active torsions:
REMARK  status: ('A' for Active; 'I' for Inactive)
ROOT
ATOM      1  O1  BZF d   1       0.697  -3.432  -2.984  0.00  0.00    -0.204 OA
ATOM      2  C2  BZF d   1      -0.662  -3.433  -2.735  0.00  0.00     0.174 A 
ATOM      3  C3  BZF d   1      -1.008  -2.379  -1.968  0.00  0.00    -0.012 A 
ATOM      4  C3A BZF d   1       0.196  -1.624  -1.800  0.00  0.00    -0.107 A 
ATOM      5  C4  BZF d   1       0.491  -0.460  -1.150  0.00  0.00     0.055 A 
ATOM      6  C5  BZF d   1       1.780  -0.031  -1.116  0.00  0.00    -0.016 A 
ATOM      7  C6  BZF d   1       2.798  -0.742  -1.717  0.00  0.00     0.022 A 
ATOM      8  C7  BZF d   1       2.553  -1.900  -2.378  0.00  0.00     0.029 A 
ATOM      9  C7A BZF d   1       1.247  -2.319  -2.442  0.00  0.00     0.058 A 
ENDROOT
TORSDOF 0
ENDMDL
