MODEL 1
REMARK minimizedAffinity 6.56312752
REMARK minimizedRMSD -1
REMARK  0 active torsions:
REMARK  status: ('A' for Active; 'I' for Inactive)
ROOT
ATOM      1  O1  BZF d   1       2.601   3.461  -3.490  0.00  0.00    -0.204 OA
ATOM      2  C2  BZF d   1       1.790   4.552  -3.733  0.00  0.00     0.174 A 
ATOM      3  C3  BZF d   1       2.423   5.700  -3.416  0.00  0.00    -0.012 A 
ATOM      4  C3A BZF d   1       3.744   5.307  -3.032  0.00  0.00    -0.107 A 
ATOM      5  C4  BZF d   1       4.848   5.999  -2.624  0.00  0.00     0.055 A 
ATOM      6  C5  BZF d   1       5.960   5.311  -2.253  0.00  0.00    -0.016 A 
ATOM      7  C6  BZF d   1       6.000   3.932  -2.272  0.00  0.00     0.022 A 
ATOM      8  C7  BZF d   1       4.931   3.202  -2.674  0.00  0.00     0.029 A 
ATOM      9  C7A BZF d   1       3.817   3.896  -3.081  0.00  0.00     0.058 A 
ENDROOT
TORSDOF 0
ENDMDL
