MODEL 1
REMARK minimizedAffinity 9.98080063
REMARK minimizedRMSD -1
REMARK  0 active torsions:
REMARK  status: ('A' for Active; 'I' for Inactive)
ROOT
ATOM      1  O1  BZF d   1      -2.273  -3.210   1.871  0.00  0.00    -0.204 OA
ATOM      2  C2  BZF d   1      -3.604  -3.368   2.206  0.00  0.00     0.174 A 
ATOM      3  C3  BZF d   1      -4.402  -3.019   1.177  0.00  0.00    -0.012 A 
ATOM      4  C3A BZF d   1      -3.512  -2.705   0.101  0.00  0.00    -0.107 A 
ATOM      5  C4  BZF d   1      -3.705  -2.307  -1.191  0.00  0.00     0.055 A 
ATOM      6  C5  BZF d   1      -2.624  -2.012  -1.960  0.00  0.00    -0.016 A 
ATOM      7  C6  BZF d   1      -1.338  -2.100  -1.468  0.00  0.00     0.022 A 
ATOM      8  C7  BZF d   1      -1.096  -2.496  -0.195  0.00  0.00     0.029 A 
ATOM      9  C7A BZF d   1      -2.185  -2.826   0.574  0.00  0.00     0.058 A 
ENDROOT
TORSDOF 0
ENDMDL
