MODEL 1
REMARK minimizedAffinity 9.78208828
REMARK minimizedRMSD -1
REMARK  0 active torsions:
REMARK  status: ('A' for Active; 'I' for Inactive)
ROOT
ATOM      1  O1  BZF d   1       3.770   2.928  -3.782  0.00  0.00    -0.204 OA
ATOM      2  C2  BZF d   1       4.949   2.432  -4.304  0.00  0.00     0.174 A 
ATOM      3  C3  BZF d   1       6.000   3.178  -3.905  0.00  0.00    -0.012 A 
ATOM      4  C3A BZF d   1       5.453   4.149  -3.008  0.00  0.00    -0.107 A 
ATOM      5  C4  BZF d   1       6.000   5.162  -2.273  0.00  0.00     0.055 A 
ATOM      6  C5  BZF d   1       5.181   5.974  -1.555  0.00  0.00    -0.016 A 
ATOM      7  C6  BZF d   1       3.811   5.806  -1.552  0.00  0.00     0.022 A 
ATOM      8  C7  BZF d   1       3.223   4.812  -2.261  0.00  0.00     0.029 A 
ATOM      9  C7A BZF d   1       4.051   3.969  -2.962  0.00  0.00     0.058 A 
ENDROOT
TORSDOF 0
ENDMDL
