MODEL 1
REMARK minimizedAffinity 5.35192823
REMARK minimizedRMSD -1
REMARK  0 active torsions:
REMARK  status: ('A' for Active; 'I' for Inactive)
ROOT
ATOM      1  O1  BZF d   1       4.744   4.868  -0.683  0.00  0.00    -0.204 OA
ATOM      2  C2  BZF d   1       5.909   5.581  -0.892  0.00  0.00     0.174 A 
ATOM      3  C3  BZF d   1       5.999   5.982  -2.177  0.00  0.00    -0.012 A 
ATOM      4  C3A BZF d   1       4.774   5.567  -2.788  0.00  0.00    -0.107 A 
ATOM      5  C4  BZF d   1       4.264   5.691  -4.049  0.00  0.00     0.055 A 
ATOM      6  C5  BZF d   1       3.070   5.110  -4.339  0.00  0.00    -0.016 A 
ATOM      7  C6  BZF d   1       2.362   4.395  -3.395  0.00  0.00     0.022 A 
ATOM      8  C7  BZF d   1       2.825   4.249  -2.129  0.00  0.00     0.029 A 
ATOM      9  C7A BZF d   1       4.015   4.862  -1.824  0.00  0.00     0.058 A 
ENDROOT
TORSDOF 0
ENDMDL
