MODEL 1
REMARK minimizedAffinity 8.55511761
REMARK minimizedRMSD -1
REMARK  0 active torsions:
REMARK  status: ('A' for Active; 'I' for Inactive)
ROOT
ATOM      1  O1  BZF d   1       5.179  -2.198  -3.374  0.00  0.00    -0.204 OA
ATOM      2  C2  BZF d   1       3.941  -2.811  -3.376  0.00  0.00     0.174 A 
ATOM      3  C3  BZF d   1       3.000  -1.987  -3.878  0.00  0.00    -0.012 A 
ATOM      4  C3A BZF d   1       3.708  -0.817  -4.298  0.00  0.00    -0.107 A 
ATOM      5  C4  BZF d   1       3.324   0.352  -4.890  0.00  0.00     0.055 A 
ATOM      6  C5  BZF d   1       4.252   1.322  -5.101  0.00  0.00    -0.016 A 
ATOM      7  C6  BZF d   1       5.570   1.159  -4.727  0.00  0.00     0.022 A 
ATOM      8  C7  BZF d   1       6.000   0.015  -4.141  0.00  0.00     0.029 A 
ATOM      9  C7A BZF d   1       5.071  -0.980  -3.957  0.00  0.00     0.058 A 
ENDROOT
TORSDOF 0
ENDMDL
