MODEL 1
REMARK minimizedAffinity 3.09225988
REMARK minimizedRMSD -1
REMARK  0 active torsions:
REMARK  status: ('A' for Active; 'I' for Inactive)
ROOT
ATOM      1  O1  BZF d   1       5.390   3.840  -1.743  0.00  0.00    -0.204 OA
ATOM      2  C2  BZF d   1       5.517   5.113  -1.221  0.00  0.00     0.174 A 
ATOM      3  C3  BZF d   1       5.819   6.000  -2.191  0.00  0.00    -0.012 A 
ATOM      4  C3A BZF d   1       5.794   5.249  -3.409  0.00  0.00    -0.107 A 
ATOM      5  C4  BZF d   1       5.998   5.577  -4.719  0.00  0.00     0.055 A 
ATOM      6  C5  BZF d   1       5.974   4.594  -5.657  0.00  0.00    -0.016 A 
ATOM      7  C6  BZF d   1       5.754   3.274  -5.321  0.00  0.00     0.022 A 
ATOM      8  C7  BZF d   1       5.541   2.901  -4.035  0.00  0.00     0.029 A 
ATOM      9  C7A BZF d   1       5.532   3.896  -3.089  0.00  0.00     0.058 A 
ENDROOT
TORSDOF 0
ENDMDL
