MODEL 1
REMARK minimizedAffinity 9.55296993
REMARK minimizedRMSD -1
REMARK  0 active torsions:
REMARK  status: ('A' for Active; 'I' for Inactive)
ROOT
ATOM      1  O1  BZF d   1       5.140   5.241  -0.379  0.00  0.00    -0.204 OA
ATOM      2  C2  BZF d   1       5.998   5.445  -1.442  0.00  0.00     0.174 A 
ATOM      3  C3  BZF d   1       5.356   5.267  -2.615  0.00  0.00    -0.012 A 
ATOM      4  C3A BZF d   1       3.991   5.021  -2.264  0.00  0.00    -0.107 A 
ATOM      5  C4  BZF d   1       2.862   4.784  -2.995  0.00  0.00     0.055 A 
ATOM      6  C5  BZF d   1       1.700   4.510  -2.345  0.00  0.00    -0.016 A 
ATOM      7  C6  BZF d   1       1.633   4.459  -0.968  0.00  0.00     0.022 A 
ATOM      8  C7  BZF d   1       2.726   4.691  -0.201  0.00  0.00     0.029 A 
ATOM      9  C7A BZF d   1       3.894   5.001  -0.853  0.00  0.00     0.058 A 
ENDROOT
TORSDOF 0
ENDMDL
