MODEL 1
REMARK minimizedAffinity 13.8298483
REMARK minimizedRMSD -1
REMARK  0 active torsions:
REMARK  status: ('A' for Active; 'I' for Inactive)
ROOT
ATOM      1  O1  BZF d   1       5.603  -4.131   3.727  0.00  0.00    -0.204 OA
ATOM      2  C2  BZF d   1       6.000  -4.613   4.959  0.00  0.00     0.174 A 
ATOM      3  C3  BZF d   1       5.347  -3.979   5.954  0.00  0.00    -0.012 A 
ATOM      4  C3A BZF d   1       4.421  -3.106   5.299  0.00  0.00    -0.107 A 
ATOM      5  C4  BZF d   1       3.480  -2.225   5.752  0.00  0.00     0.055 A 
ATOM      6  C5  BZF d   1       2.793  -1.473   4.853  0.00  0.00    -0.016 A 
ATOM      7  C6  BZF d   1       3.024  -1.572   3.496  0.00  0.00     0.022 A 
ATOM      8  C7  BZF d   1       3.943  -2.435   2.999  0.00  0.00     0.029 A 
ATOM      9  C7A BZF d   1       4.616  -3.220   3.904  0.00  0.00     0.058 A 
ENDROOT
TORSDOF 0
ENDMDL
