MODEL 1
REMARK minimizedAffinity -4.20283556
REMARK minimizedRMSD -1
REMARK  3 active torsions:
REMARK  status: ('A' for Active; 'I' for Inactive)
REMARK    1  A    between atoms: C3'_2  and  C2'_3 
REMARK    2  A    between atoms: C2'_3  and  C1'_4 
REMARK    3  A    between atoms: C1'_4  and  C1_5 
ROOT
ATOM      1  C1  N4B d   1      -2.324   0.514   0.635  0.00  0.00    -0.075 A 
ATOM      2  C2  N4B d   1      -1.223  -0.365   0.539  0.00  0.00     0.002 A 
ATOM      3  C3  N4B d   1       0.041   0.136   0.349  0.00  0.00     0.002 A 
ATOM      4  C4  N4B d   1       0.225   1.506   0.234  0.00  0.00    -0.004 A 
ATOM      5  C5  N4B d   1      -0.840   2.350   0.353  0.00  0.00     0.002 A 
ATOM      6  C6  N4B d   1      -2.116   1.860   0.548  0.00  0.00     0.002 A 
ENDROOT
BRANCH   1   7
ATOM      7  C1' N4B d   1      -3.736   0.008   0.756  0.00  0.00     0.057 C 
BRANCH   7   8
ATOM      8  C2' N4B d   1      -4.531   0.954   1.651  0.00  0.00     0.009 C 
BRANCH   8   9
ATOM      9  C3' N4B d   1      -5.577   1.731   0.869  0.00  0.00     0.004 C 
ATOM     10  C4' N4B d   1      -5.996   2.995   1.558  0.00  0.00     0.003 C 
ENDBRANCH   8   9
ENDBRANCH   7   8
ENDBRANCH   1   7
TORSDOF 3
ENDMDL
