MODEL 1
REMARK minimizedAffinity 5.35170937
REMARK minimizedRMSD -1
REMARK  3 active torsions:
REMARK  status: ('A' for Active; 'I' for Inactive)
REMARK    1  A    between atoms: C3'_2  and  C2'_3 
REMARK    2  A    between atoms: C2'_3  and  C1'_4 
REMARK    3  A    between atoms: C1'_4  and  C1_5 
ROOT
ATOM      1  C1  N4B d   1      -3.073  -2.692  -2.313  0.00  0.00    -0.075 A 
ATOM      2  C2  N4B d   1      -3.600  -2.942  -1.027  0.00  0.00     0.002 A 
ATOM      3  C3  N4B d   1      -3.367  -4.149  -0.413  0.00  0.00     0.002 A 
ATOM      4  C4  N4B d   1      -2.630  -5.122  -1.070  0.00  0.00    -0.004 A 
ATOM      5  C5  N4B d   1      -2.103  -4.863  -2.302  0.00  0.00     0.002 A 
ATOM      6  C6  N4B d   1      -2.325  -3.653  -2.929  0.00  0.00     0.002 A 
ENDROOT
BRANCH   1   7
ATOM      7  C1' N4B d   1      -3.372  -1.421  -3.059  0.00  0.00     0.057 C 
BRANCH   7   8
ATOM      8  C2' N4B d   1      -2.161  -0.496  -2.980  0.00  0.00     0.009 C 
BRANCH   8   9
ATOM      9  C3' N4B d   1      -2.385   0.801  -3.739  0.00  0.00     0.004 C 
ATOM     10  C4' N4B d   1      -1.172   1.246  -4.500  0.00  0.00     0.003 C 
ENDBRANCH   8   9
ENDBRANCH   7   8
ENDBRANCH   1   7
TORSDOF 3
ENDMDL
