MODEL 1
REMARK minimizedAffinity 2.56569505
REMARK minimizedRMSD -1
REMARK  3 active torsions:
REMARK  status: ('A' for Active; 'I' for Inactive)
REMARK    1  A    between atoms: C3'_2  and  C2'_3 
REMARK    2  A    between atoms: C2'_3  and  C1'_4 
REMARK    3  A    between atoms: C1'_4  and  C1_5 
ROOT
ATOM      1  C1  N4B d   1      -3.019   1.859   0.515  0.00  0.00    -0.075 A 
ATOM      2  C2  N4B d   1      -3.248   0.590   1.089  0.00  0.00     0.002 A 
ATOM      3  C3  N4B d   1      -4.532   0.172   1.341  0.00  0.00     0.002 A 
ATOM      4  C4  N4B d   1      -5.596   1.009   1.046  0.00  0.00    -0.004 A 
ATOM      5  C5  N4B d   1      -5.368   2.224   0.468  0.00  0.00     0.002 A 
ATOM      6  C6  N4B d   1      -4.084   2.655   0.205  0.00  0.00     0.002 A 
ENDROOT
BRANCH   1   7
ATOM      7  C1' N4B d   1      -1.630   2.395   0.300  0.00  0.00     0.057 C 
BRANCH   7   8
ATOM      8  C2' N4B d   1      -0.764   2.040   1.505  0.00  0.00     0.009 C 
BRANCH   8   9
ATOM      9  C3' N4B d   1       0.645   1.646   1.096  0.00  0.00     0.004 C 
ATOM     10  C4' N4B d   1       1.030   2.184  -0.250  0.00  0.00     0.003 C 
ENDBRANCH   8   9
ENDBRANCH   7   8
ENDBRANCH   1   7
TORSDOF 3
ENDMDL
