MODEL 1
REMARK minimizedAffinity -3.62468553
REMARK minimizedRMSD -1
REMARK  3 active torsions:
REMARK  status: ('A' for Active; 'I' for Inactive)
REMARK    1  A    between atoms: C3'_2  and  C2'_3 
REMARK    2  A    between atoms: C2'_3  and  C1'_4 
REMARK    3  A    between atoms: C1'_4  and  C1_5 
ROOT
ATOM      1  C1  N4B d   1      -2.233   1.197   0.371  0.00  0.00    -0.075 A 
ATOM      2  C2  N4B d   1      -0.997   1.880   0.372  0.00  0.00     0.002 A 
ATOM      3  C3  N4B d   1       0.150   1.223   0.747  0.00  0.00     0.002 A 
ATOM      4  C4  N4B d   1       0.082  -0.104   1.142  0.00  0.00    -0.004 A 
ATOM      5  C5  N4B d   1      -1.112  -0.764   1.114  0.00  0.00     0.002 A 
ATOM      6  C6  N4B d   1      -2.271  -0.118   0.735  0.00  0.00     0.002 A 
ENDROOT
BRANCH   1   7
ATOM      7  C1' N4B d   1      -3.526   1.896   0.051  0.00  0.00     0.057 C 
BRANCH   7   8
ATOM      8  C2' N4B d   1      -4.673   1.173   0.752  0.00  0.00     0.009 C 
BRANCH   8   9
ATOM      9  C3' N4B d   1      -5.999   1.888   0.557  0.00  0.00     0.004 C 
ATOM     10  C4' N4B d   1      -6.000   3.276   1.126  0.00  0.00     0.003 C 
ENDBRANCH   8   9
ENDBRANCH   7   8
ENDBRANCH   1   7
TORSDOF 3
ENDMDL
