MODEL 1
REMARK minimizedAffinity 6.11247396
REMARK minimizedRMSD -1
REMARK  3 active torsions:
REMARK  status: ('A' for Active; 'I' for Inactive)
REMARK    1  A    between atoms: C3'_2  and  C2'_3 
REMARK    2  A    between atoms: C2'_3  and  C1'_4 
REMARK    3  A    between atoms: C1'_4  and  C1_5 
ROOT
ATOM      1  C1  N4B d   1       1.710  -4.403   0.484  0.00  0.00    -0.075 A 
ATOM      2  C2  N4B d   1       1.906  -3.194   1.188  0.00  0.00     0.002 A 
ATOM      3  C3  N4B d   1       3.003  -2.413   0.919  0.00  0.00     0.002 A 
ATOM      4  C4  N4B d   1       3.924  -2.828  -0.031  0.00  0.00    -0.004 A 
ATOM      5  C5  N4B d   1       3.714  -3.984  -0.725  0.00  0.00     0.002 A 
ATOM      6  C6  N4B d   1       2.614  -4.777  -0.468  0.00  0.00     0.002 A 
ENDROOT
BRANCH   1   7
ATOM      7  C1' N4B d   1       0.571  -5.332   0.803  0.00  0.00     0.057 C 
BRANCH   7   8
ATOM      8  C2' N4B d   1      -0.590  -4.523   1.374  0.00  0.00     0.009 C 
BRANCH   8   9
ATOM      9  C3' N4B d   1      -1.921  -5.233   1.191  0.00  0.00     0.004 C 
ATOM     10  C4' N4B d   1      -2.616  -4.846  -0.079  0.00  0.00     0.003 C 
ENDBRANCH   8   9
ENDBRANCH   7   8
ENDBRANCH   1   7
TORSDOF 3
ENDMDL
