MODEL 1
REMARK minimizedAffinity -1.85501862
REMARK minimizedRMSD -1
REMARK  3 active torsions:
REMARK  status: ('A' for Active; 'I' for Inactive)
REMARK    1  A    between atoms: C3'_2  and  C2'_3 
REMARK    2  A    between atoms: C2'_3  and  C1'_4 
REMARK    3  A    between atoms: C1'_4  and  C1_5 
ROOT
ATOM      1  C1  N4B d   1      -2.253   2.326   0.377  0.00  0.00    -0.075 A 
ATOM      2  C2  N4B d   1      -1.896   1.186   1.130  0.00  0.00     0.002 A 
ATOM      3  C3  N4B d   1      -0.600   0.731   1.112  0.00  0.00     0.002 A 
ATOM      4  C4  N4B d   1       0.346   1.385   0.338  0.00  0.00    -0.004 A 
ATOM      5  C5  N4B d   1      -0.002   2.500  -0.367  0.00  0.00     0.002 A 
ATOM      6  C6  N4B d   1      -1.299   2.972  -0.355  0.00  0.00     0.002 A 
ENDROOT
BRANCH   1   7
ATOM      7  C1' N4B d   1      -3.675   2.811   0.297  0.00  0.00     0.057 C 
BRANCH   7   8
ATOM      8  C2' N4B d   1      -4.608   1.709   0.792  0.00  0.00     0.009 C 
BRANCH   8   9
ATOM      9  C3' N4B d   1      -6.000   2.237   1.096  0.00  0.00     0.004 C 
ATOM     10  C4' N4B d   1      -6.000   3.686   1.481  0.00  0.00     0.003 C 
ENDBRANCH   8   9
ENDBRANCH   7   8
ENDBRANCH   1   7
TORSDOF 3
ENDMDL
