MODEL 1
REMARK minimizedAffinity -4.12745762
REMARK minimizedRMSD -1
REMARK  3 active torsions:
REMARK  status: ('A' for Active; 'I' for Inactive)
REMARK    1  A    between atoms: C3'_2  and  C2'_3 
REMARK    2  A    between atoms: C2'_3  and  C1'_4 
REMARK    3  A    between atoms: C1'_4  and  C1_5 
ROOT
ATOM      1  C1  N4B d   1      -1.877   1.637   0.002  0.00  0.00    -0.075 A 
ATOM      2  C2  N4B d   1      -0.572   1.867   0.490  0.00  0.00     0.002 A 
ATOM      3  C3  N4B d   1       0.008   0.964   1.348  0.00  0.00     0.002 A 
ATOM      4  C4  N4B d   1      -0.701  -0.160   1.744  0.00  0.00    -0.004 A 
ATOM      5  C5  N4B d   1      -1.951  -0.387   1.247  0.00  0.00     0.002 A 
ATOM      6  C6  N4B d   1      -2.545   0.510   0.382  0.00  0.00     0.002 A 
ENDROOT
BRANCH   1   7
ATOM      7  C1' N4B d   1      -2.586   2.638  -0.869  0.00  0.00     0.057 C 
BRANCH   7   8
ATOM      8  C2' N4B d   1      -4.091   2.405  -0.777  0.00  0.00     0.009 C 
BRANCH   8   9
ATOM      9  C3' N4B d   1      -4.562   2.295   0.663  0.00  0.00     0.004 C 
ATOM     10  C4' N4B d   1      -5.995   2.700   0.837  0.00  0.00     0.003 C 
ENDBRANCH   8   9
ENDBRANCH   7   8
ENDBRANCH   1   7
TORSDOF 3
ENDMDL
