MODEL 1
REMARK minimizedAffinity -2.08244991
REMARK minimizedRMSD -1
REMARK  3 active torsions:
REMARK  status: ('A' for Active; 'I' for Inactive)
REMARK    1  A    between atoms: C3'_2  and  C2'_3 
REMARK    2  A    between atoms: C2'_3  and  C1'_4 
REMARK    3  A    between atoms: C1'_4  and  C1_5 
ROOT
ATOM      1  C1  N4B d   1      -3.631   1.518   0.691  0.00  0.00    -0.075 A 
ATOM      2  C2  N4B d   1      -4.811   2.293   0.713  0.00  0.00     0.002 A 
ATOM      3  C3  N4B d   1      -5.980   1.751   1.190  0.00  0.00     0.002 A 
ATOM      4  C4  N4B d   1      -5.996   0.436   1.631  0.00  0.00    -0.004 A 
ATOM      5  C5  N4B d   1      -4.846  -0.297   1.630  0.00  0.00     0.002 A 
ATOM      6  C6  N4B d   1      -3.664   0.236   1.157  0.00  0.00     0.002 A 
ENDROOT
BRANCH   1   7
ATOM      7  C1' N4B d   1      -2.350   2.039   0.099  0.00  0.00     0.057 C 
BRANCH   7   8
ATOM      8  C2' N4B d   1      -1.420   0.865  -0.194  0.00  0.00     0.009 C 
BRANCH   8   9
ATOM      9  C3' N4B d   1      -0.005   1.125   0.293  0.00  0.00     0.004 C 
ATOM     10  C4' N4B d   1       0.249   0.570   1.662  0.00  0.00     0.003 C 
ENDBRANCH   8   9
ENDBRANCH   7   8
ENDBRANCH   1   7
TORSDOF 3
ENDMDL
