MODEL 1
REMARK minimizedAffinity -0.759329677
REMARK minimizedRMSD -1
REMARK  3 active torsions:
REMARK  status: ('A' for Active; 'I' for Inactive)
REMARK    1  A    between atoms: C3'_2  and  C2'_3 
REMARK    2  A    between atoms: C2'_3  and  C1'_4 
REMARK    3  A    between atoms: C1'_4  and  C1_5 
ROOT
ATOM      1  C1  N4B d   1       0.631   0.887   0.499  0.00  0.00    -0.075 A 
ATOM      2  C2  N4B d   1      -0.389   0.375   1.330  0.00  0.00     0.002 A 
ATOM      3  C3  N4B d   1      -1.494   1.140   1.612  0.00  0.00     0.002 A 
ATOM      4  C4  N4B d   1      -1.592   2.422   1.090  0.00  0.00    -0.004 A 
ATOM      5  C5  N4B d   1      -0.615   2.899   0.267  0.00  0.00     0.002 A 
ATOM      6  C6  N4B d   1       0.500   2.140  -0.027  0.00  0.00     0.002 A 
ENDROOT
BRANCH   1   7
ATOM      7  C1' N4B d   1       1.898   0.121   0.233  0.00  0.00     0.057 C 
BRANCH   7   8
ATOM      8  C2' N4B d   1       2.680  -0.021   1.535  0.00  0.00     0.009 C 
BRANCH   8   9
ATOM      9  C3' N4B d   1       3.003   1.328   2.154  0.00  0.00     0.004 C 
ATOM     10  C4' N4B d   1       2.207   1.603   3.395  0.00  0.00     0.003 C 
ENDBRANCH   8   9
ENDBRANCH   7   8
ENDBRANCH   1   7
TORSDOF 3
ENDMDL
