MODEL 1
REMARK minimizedAffinity 0.0101138782
REMARK minimizedRMSD -1
REMARK  3 active torsions:
REMARK  status: ('A' for Active; 'I' for Inactive)
REMARK    1  A    between atoms: C3'_2  and  C2'_3 
REMARK    2  A    between atoms: C2'_3  and  C1'_4 
REMARK    3  A    between atoms: C1'_4  and  C1_5 
ROOT
ATOM      1  C1  N4B d   1      -2.313   2.089   0.957  0.00  0.00    -0.075 A 
ATOM      2  C2  N4B d   1      -1.078   2.533   0.436  0.00  0.00     0.002 A 
ATOM      3  C3  N4B d   1       0.014   1.700   0.455  0.00  0.00     0.002 A 
ATOM      4  C4  N4B d   1      -0.100   0.432   1.004  0.00  0.00    -0.004 A 
ATOM      5  C5  N4B d   1      -1.304   0.001   1.482  0.00  0.00     0.002 A 
ATOM      6  C6  N4B d   1      -2.410   0.826   1.466  0.00  0.00     0.002 A 
ENDROOT
BRANCH   1   7
ATOM      7  C1' N4B d   1      -3.513   2.994   1.037  0.00  0.00     0.057 C 
BRANCH   7   8
ATOM      8  C2' N4B d   1      -4.712   2.293   0.405  0.00  0.00     0.009 C 
BRANCH   8   9
ATOM      9  C3' N4B d   1      -5.999   2.578   1.159  0.00  0.00     0.004 C 
ATOM     10  C4' N4B d   1      -6.000   3.925   1.818  0.00  0.00     0.003 C 
ENDBRANCH   8   9
ENDBRANCH   7   8
ENDBRANCH   1   7
TORSDOF 3
ENDMDL
