MODEL 1
REMARK minimizedAffinity -1.29098284
REMARK minimizedRMSD -1
REMARK  1 active torsions:
REMARK  status: ('A' for Active; 'I' for Inactive)
REMARK    1  A    between atoms: C1_2  and  C2_3 
ROOT
ATOM      1  C2  UNL d   1      -3.723   2.256  -5.966  0.00  0.00    -0.077 A 
ATOM      2  C3  UNL d   1      -2.404   1.780  -5.972  0.00  0.00     0.002 A 
ATOM      3  C4  UNL d   1      -2.149   0.407  -5.987  0.00  0.00     0.002 A 
ATOM      4  C5  UNL d   1      -3.206  -0.500  -6.000  0.00  0.00    -0.004 A 
ATOM      5  C6  UNL d   1      -4.521  -0.036  -5.992  0.00  0.00     0.002 A 
ATOM      6  C7  UNL d   1      -4.778   1.335  -5.976  0.00  0.00     0.002 A 
ENDROOT
BRANCH   1   7
ATOM      7  C1  UNL d   1      -4.001   3.736  -6.000  0.00  0.00     0.055 C 
ATOM      8  C   UNL d   1      -2.731   4.543  -5.770  0.00  0.00     0.019 C 
ENDBRANCH   1   7
TORSDOF 1
ENDMDL
