MODEL 1
REMARK minimizedAffinity -0.34722957
REMARK minimizedRMSD -1
REMARK  1 active torsions:
REMARK  status: ('A' for Active; 'I' for Inactive)
REMARK    1  A    between atoms: C1_2  and  C2_3 
ROOT
ATOM      1  C2  UNL d   1      -3.763   1.751  -5.970  0.00  0.00    -0.077 A 
ATOM      2  C3  UNL d   1      -2.584   2.509  -5.978  0.00  0.00     0.002 A 
ATOM      3  C4  UNL d   1      -2.642   3.904  -5.994  0.00  0.00     0.002 A 
ATOM      4  C5  UNL d   1      -3.875   4.552  -5.999  0.00  0.00    -0.004 A 
ATOM      5  C6  UNL d   1      -5.053   3.807  -5.993  0.00  0.00     0.002 A 
ATOM      6  C7  UNL d   1      -4.998   2.412  -5.978  0.00  0.00     0.002 A 
ENDROOT
BRANCH   1   7
ATOM      7  C1  UNL d   1      -3.703   0.247  -5.902  0.00  0.00     0.055 C 
ATOM      8  C   UNL d   1      -5.096  -0.365  -5.934  0.00  0.00     0.019 C 
ENDBRANCH   1   7
TORSDOF 1
ENDMDL
