MODEL 1
REMARK minimizedAffinity 8.50120354
REMARK minimizedRMSD -1
REMARK  1 active torsions:
REMARK  status: ('A' for Active; 'I' for Inactive)
REMARK    1  A    between atoms: C1_2  and  C2_3 
ROOT
ATOM      1  C2  UNL d   1      -2.491  -4.306  -4.557  0.00  0.00    -0.077 A 
ATOM      2  C3  UNL d   1      -3.473  -3.305  -4.566  0.00  0.00     0.002 A 
ATOM      3  C4  UNL d   1      -4.656  -3.482  -5.286  0.00  0.00     0.002 A 
ATOM      4  C5  UNL d   1      -4.869  -4.659  -6.000  0.00  0.00    -0.004 A 
ATOM      5  C6  UNL d   1      -3.898  -5.660  -5.999  0.00  0.00     0.002 A 
ATOM      6  C7  UNL d   1      -2.715  -5.484  -5.281  0.00  0.00     0.002 A 
ENDROOT
BRANCH   1   7
ATOM      7  C1  UNL d   1      -1.236  -4.138  -3.741  0.00  0.00     0.055 C 
ATOM      8  C   UNL d   1      -1.509  -3.365  -2.459  0.00  0.00     0.019 C 
ENDBRANCH   1   7
TORSDOF 1
ENDMDL
