MODEL 1
REMARK minimizedAffinity -3.71349049
REMARK minimizedRMSD -1
REMARK  1 active torsions:
REMARK  status: ('A' for Active; 'I' for Inactive)
REMARK    1  A    between atoms: C1_2  and  C2_3 
ROOT
ATOM      1  C2  UNL d   1      -2.201  -4.176  -5.702  0.00  0.00    -0.077 A 
ATOM      2  C3  UNL d   1      -3.554  -4.507  -5.865  0.00  0.00     0.002 A 
ATOM      3  C4  UNL d   1      -4.515  -3.504  -6.000  0.00  0.00     0.002 A 
ATOM      4  C5  UNL d   1      -4.135  -2.164  -5.977  0.00  0.00    -0.004 A 
ATOM      5  C6  UNL d   1      -2.792  -1.824  -5.813  0.00  0.00     0.002 A 
ATOM      6  C7  UNL d   1      -1.830  -2.825  -5.677  0.00  0.00     0.002 A 
ENDROOT
BRANCH   1   7
ATOM      7  C1  UNL d   1      -1.157  -5.257  -5.605  0.00  0.00     0.055 C 
ATOM      8  C   UNL d   1      -0.763  -5.519  -4.159  0.00  0.00     0.019 C 
ENDBRANCH   1   7
TORSDOF 1
ENDMDL
