MODEL 1
REMARK minimizedAffinity 0.539749444
REMARK minimizedRMSD -1
REMARK  1 active torsions:
REMARK  status: ('A' for Active; 'I' for Inactive)
REMARK    1  A    between atoms: C1_2  and  C2_3 
ROOT
ATOM      1  C2  UNL d   1      -4.679   0.653  -5.999  0.00  0.00    -0.077 A 
ATOM      2  C3  UNL d   1      -3.305   0.930  -5.987  0.00  0.00     0.002 A 
ATOM      3  C4  UNL d   1      -2.851   2.251  -5.972  0.00  0.00     0.002 A 
ATOM      4  C5  UNL d   1      -3.765   3.303  -5.963  0.00  0.00    -0.004 A 
ATOM      5  C6  UNL d   1      -5.133   3.037  -5.977  0.00  0.00     0.002 A 
ATOM      6  C7  UNL d   1      -5.588   1.718  -5.994  0.00  0.00     0.002 A 
ENDROOT
BRANCH   1   7
ATOM      7  C1  UNL d   1      -5.170  -0.771  -5.967  0.00  0.00     0.055 C 
ATOM      8  C   UNL d   1      -4.011  -1.757  -5.984  0.00  0.00     0.019 C 
ENDBRANCH   1   7
TORSDOF 1
ENDMDL
