MODEL 1
REMARK minimizedAffinity -4.19844818
REMARK minimizedRMSD -1
REMARK  1 active torsions:
REMARK  status: ('A' for Active; 'I' for Inactive)
REMARK    1  A    between atoms: C1_2  and  C2_3 
ROOT
ATOM      1  C2  UNL d   1      -4.657   1.002  -5.921  0.00  0.00    -0.077 A 
ATOM      2  C3  UNL d   1      -3.258   0.950  -5.844  0.00  0.00     0.002 A 
ATOM      3  C4  UNL d   1      -2.513   2.125  -5.727  0.00  0.00     0.002 A 
ATOM      4  C5  UNL d   1      -3.158   3.360  -5.681  0.00  0.00    -0.004 A 
ATOM      5  C6  UNL d   1      -4.549   3.422  -5.759  0.00  0.00     0.002 A 
ATOM      6  C7  UNL d   1      -5.295   2.248  -5.877  0.00  0.00     0.002 A 
ENDROOT
BRANCH   1   7
ATOM      7  C1  UNL d   1      -5.465  -0.267  -5.998  0.00  0.00     0.055 C 
ATOM      8  C   UNL d   1      -4.567  -1.496  -5.992  0.00  0.00     0.019 C 
ENDBRANCH   1   7
TORSDOF 1
ENDMDL
