MODEL 1
REMARK minimizedAffinity 0.359661132
REMARK minimizedRMSD -1
REMARK  1 active torsions:
REMARK  status: ('A' for Active; 'I' for Inactive)
REMARK    1  A    between atoms: C1_2  and  C2_3 
ROOT
ATOM      1  C2  UNL d   1      -3.983   2.279  -5.929  0.00  0.00    -0.077 A 
ATOM      2  C3  UNL d   1      -2.616   1.979  -5.846  0.00  0.00     0.002 A 
ATOM      3  C4  UNL d   1      -2.184   0.652  -5.828  0.00  0.00     0.002 A 
ATOM      4  C5  UNL d   1      -3.111  -0.386  -5.897  0.00  0.00    -0.004 A 
ATOM      5  C6  UNL d   1      -4.473  -0.098  -5.978  0.00  0.00     0.002 A 
ATOM      6  C7  UNL d   1      -4.907   1.228  -5.995  0.00  0.00     0.002 A 
ENDROOT
BRANCH   1   7
ATOM      7  C1  UNL d   1      -4.448   3.710  -5.999  0.00  0.00     0.055 C 
ATOM      8  C   UNL d   1      -5.967   3.802  -5.951  0.00  0.00     0.019 C 
ENDBRANCH   1   7
TORSDOF 1
ENDMDL
