MODEL 1
REMARK minimizedAffinity -2.70485806
REMARK minimizedRMSD -1
REMARK  1 active torsions:
REMARK  status: ('A' for Active; 'I' for Inactive)
REMARK    1  A    between atoms: C1_2  and  C2_3 
ROOT
ATOM      1  C2  UNL d   1      -4.578   1.668  -6.000  0.00  0.00    -0.077 A 
ATOM      2  C3  UNL d   1      -5.829   1.035  -5.999  0.00  0.00     0.002 A 
ATOM      3  C4  UNL d   1      -5.915  -0.359  -6.000  0.00  0.00     0.002 A 
ATOM      4  C5  UNL d   1      -4.755  -1.130  -5.997  0.00  0.00    -0.004 A 
ATOM      5  C6  UNL d   1      -3.506  -0.510  -5.999  0.00  0.00     0.002 A 
ATOM      6  C7  UNL d   1      -3.418   0.883  -6.000  0.00  0.00     0.002 A 
ENDROOT
BRANCH   1   7
ATOM      7  C1  UNL d   1      -4.483   3.171  -5.949  0.00  0.00     0.055 C 
ATOM      8  C   UNL d   1      -3.057   3.626  -5.674  0.00  0.00     0.019 C 
ENDBRANCH   1   7
TORSDOF 1
ENDMDL
