MODEL 1
REMARK minimizedAffinity 0.417296797
REMARK minimizedRMSD -1
REMARK  1 active torsions:
REMARK  status: ('A' for Active; 'I' for Inactive)
REMARK    1  A    between atoms: C1_2  and  C2_3 
ROOT
ATOM      1  C2  UNL d   1      -0.760   2.848  -4.841  0.00  0.00    -0.076 A 
ATOM      2  C3  UNL d   1      -1.235   3.488  -5.998  0.00  0.00     0.004 A 
ATOM      3  C4  UNL d   1      -1.512   4.855  -6.000  0.00  0.00    -0.003 A 
ATOM      4  C5  UNL d   1      -1.318   5.602  -4.844  0.00  0.00     0.000 A 
ATOM      5  C6  UNL d   1      -0.831   4.986  -3.691  0.00  0.00     0.000 A 
ATOM      6  C7  UNL d   1      -0.531   3.613  -3.678  0.00  0.00    -0.073 A 
ATOM      7  C8  UNL d   1      -0.013   3.000  -2.406  0.00  0.00     0.078 C 
ENDROOT
BRANCH   1   8
ATOM      8  C1  UNL d   1      -0.503   1.359  -4.891  0.00  0.00     0.053 C 
ATOM      9  C   UNL d   1       0.946   1.028  -5.212  0.00  0.00     0.018 C 
ENDBRANCH   1   8
TORSDOF 1
ENDMDL
