MODEL 1
REMARK minimizedAffinity 6.48737335
REMARK minimizedRMSD -1
REMARK  1 active torsions:
REMARK  status: ('A' for Active; 'I' for Inactive)
REMARK    1  A    between atoms: C1_2  and  C2_3 
ROOT
ATOM      1  C2  UNL d   1       0.388   3.538   2.273  0.00  0.00    -0.076 A 
ATOM      2  C3  UNL d   1       0.032   3.973   3.561  0.00  0.00     0.004 A 
ATOM      3  C4  UNL d   1      -1.256   3.773   4.055  0.00  0.00    -0.003 A 
ATOM      4  C5  UNL d   1      -2.209   3.136   3.269  0.00  0.00     0.000 A 
ATOM      5  C6  UNL d   1      -1.868   2.683   1.995  0.00  0.00     0.000 A 
ATOM      6  C7  UNL d   1      -0.570   2.861   1.488  0.00  0.00    -0.073 A 
ATOM      7  C8  UNL d   1      -0.259   2.358   0.105  0.00  0.00     0.078 C 
ENDROOT
BRANCH   1   8
ATOM      8  C1  UNL d   1       1.792   3.806   1.780  0.00  0.00     0.053 C 
ATOM      9  C   UNL d   1       1.928   5.170   1.120  0.00  0.00     0.018 C 
ENDBRANCH   1   8
TORSDOF 1
ENDMDL
