MODEL 1
REMARK minimizedAffinity 2.39510512
REMARK minimizedRMSD -1
REMARK  1 active torsions:
REMARK  status: ('A' for Active; 'I' for Inactive)
REMARK    1  A    between atoms: C1_2  and  C2_3 
ROOT
ATOM      1  C2  UNL d   1       1.175  -4.045  -3.280  0.00  0.00    -0.076 A 
ATOM      2  C3  UNL d   1       1.196  -2.788  -3.908  0.00  0.00     0.004 A 
ATOM      3  C4  UNL d   1       2.399  -2.122  -4.140  0.00  0.00    -0.003 A 
ATOM      4  C5  UNL d   1       3.600  -2.703  -3.749  0.00  0.00     0.000 A 
ATOM      5  C6  UNL d   1       3.599  -3.958  -3.140  0.00  0.00     0.000 A 
ATOM      6  C7  UNL d   1       2.397  -4.650  -2.914  0.00  0.00    -0.073 A 
ATOM      7  C8  UNL d   1       2.454  -5.997  -2.248  0.00  0.00     0.078 C 
ENDROOT
BRANCH   1   8
ATOM      8  C1  UNL d   1      -0.161  -4.707  -3.030  0.00  0.00     0.053 C 
ATOM      9  C   UNL d   1      -1.098  -3.836  -2.207  0.00  0.00     0.018 C 
ENDBRANCH   1   8
TORSDOF 1
ENDMDL
