MODEL 1
REMARK minimizedAffinity 1.70916736
REMARK minimizedRMSD -1
REMARK  1 active torsions:
REMARK  status: ('A' for Active; 'I' for Inactive)
REMARK    1  A    between atoms: C1_2  and  C2_3 
ROOT
ATOM      1  C2  UNL d   1       2.524   2.684  -5.056  0.00  0.00    -0.076 A 
ATOM      2  C3  UNL d   1       3.160   3.520  -5.990  0.00  0.00     0.004 A 
ATOM      3  C4  UNL d   1       4.409   4.077  -5.720  0.00  0.00    -0.003 A 
ATOM      4  C5  UNL d   1       5.042   3.806  -4.513  0.00  0.00     0.000 A 
ATOM      5  C6  UNL d   1       4.434   2.964  -3.582  0.00  0.00     0.000 A 
ATOM      6  C7  UNL d   1       3.182   2.381  -3.845  0.00  0.00    -0.073 A 
ATOM      7  C8  UNL d   1       2.570   1.486  -2.803  0.00  0.00     0.078 C 
ENDROOT
BRANCH   1   8
ATOM      8  C1  UNL d   1       1.157   2.130  -5.392  0.00  0.00     0.053 C 
ATOM      9  C   UNL d   1       0.030   3.030  -4.910  0.00  0.00     0.018 C 
ENDBRANCH   1   8
TORSDOF 1
ENDMDL
