MODEL 1
REMARK minimizedAffinity 2.66904926
REMARK minimizedRMSD -1
REMARK  1 active torsions:
REMARK  status: ('A' for Active; 'I' for Inactive)
REMARK    1  A    between atoms: C1_2  and  C2_3 
ROOT
ATOM      1  C2  UNL d   1      -2.108   1.249   1.393  0.00  0.00    -0.076 A 
ATOM      2  C3  UNL d   1      -1.319   2.393   1.182  0.00  0.00     0.004 A 
ATOM      3  C4  UNL d   1      -0.981   3.237   2.239  0.00  0.00    -0.003 A 
ATOM      4  C5  UNL d   1      -1.426   2.949   3.525  0.00  0.00     0.000 A 
ATOM      5  C6  UNL d   1      -2.194   1.809   3.756  0.00  0.00     0.000 A 
ATOM      6  C7  UNL d   1      -2.531   0.939   2.704  0.00  0.00    -0.073 A 
ATOM      7  C8  UNL d   1      -3.367  -0.273   3.009  0.00  0.00     0.078 C 
ENDROOT
BRANCH   1   8
ATOM      8  C1  UNL d   1      -2.465   0.387   0.204  0.00  0.00     0.053 C 
ATOM      9  C   UNL d   1      -3.704   0.883  -0.525  0.00  0.00     0.018 C 
ENDBRANCH   1   8
TORSDOF 1
ENDMDL
