MODEL 1
REMARK minimizedAffinity -0.789859712
REMARK minimizedRMSD -1
REMARK  1 active torsions:
REMARK  status: ('A' for Active; 'I' for Inactive)
REMARK    1  A    between atoms: C1_2  and  C2_3 
ROOT
ATOM      1  C2  UNL d   1      -1.822   3.486  -5.536  0.00  0.00    -0.076 A 
ATOM      2  C3  UNL d   1      -2.719   2.425  -5.753  0.00  0.00     0.004 A 
ATOM      3  C4  UNL d   1      -4.073   2.666  -5.982  0.00  0.00    -0.003 A 
ATOM      4  C5  UNL d   1      -4.552   3.971  -6.000  0.00  0.00     0.000 A 
ATOM      5  C6  UNL d   1      -3.673   5.036  -5.805  0.00  0.00     0.000 A 
ATOM      6  C7  UNL d   1      -2.303   4.812  -5.588  0.00  0.00    -0.073 A 
ATOM      7  C8  UNL d   1      -1.402   5.998  -5.378  0.00  0.00     0.078 C 
ENDROOT
BRANCH   1   8
ATOM      8  C1  UNL d   1      -0.370   3.163  -5.266  0.00  0.00     0.053 C 
ATOM      9  C   UNL d   1       0.077   1.878  -5.945  0.00  0.00     0.018 C 
ENDBRANCH   1   8
TORSDOF 1
ENDMDL
