MODEL 1
REMARK minimizedAffinity 2.40233731
REMARK minimizedRMSD -1
REMARK  1 active torsions:
REMARK  status: ('A' for Active; 'I' for Inactive)
REMARK    1  A    between atoms: C1_2  and  C2_3 
ROOT
ATOM      1  C2  UNL d   1      -0.203   0.947  -0.779  0.00  0.00    -0.076 A 
ATOM      2  C3  UNL d   1      -0.634   1.630  -1.929  0.00  0.00     0.004 A 
ATOM      3  C4  UNL d   1       0.249   1.911  -2.970  0.00  0.00    -0.003 A 
ATOM      4  C5  UNL d   1       1.578   1.512  -2.878  0.00  0.00     0.000 A 
ATOM      5  C6  UNL d   1       2.019   0.818  -1.751  0.00  0.00     0.000 A 
ATOM      6  C7  UNL d   1       1.137   0.513  -0.700  0.00  0.00    -0.073 A 
ATOM      7  C8  UNL d   1       1.668  -0.232   0.494  0.00  0.00     0.078 C 
ENDROOT
BRANCH   1   8
ATOM      8  C1  UNL d   1      -1.200   0.695   0.330  0.00  0.00     0.053 C 
ATOM      9  C   UNL d   1      -1.657   1.978   1.006  0.00  0.00     0.018 C 
ENDBRANCH   1   8
TORSDOF 1
ENDMDL
