MODEL 1
REMARK minimizedAffinity -1.03216183
REMARK minimizedRMSD -1
REMARK  1 active torsions:
REMARK  status: ('A' for Active; 'I' for Inactive)
REMARK    1  A    between atoms: C1_2  and  C2_3 
ROOT
ATOM      1  C2  UNL d   1       0.669   0.439   0.761  0.00  0.00    -0.076 A 
ATOM      2  C3  UNL d   1       0.724   1.843   0.790  0.00  0.00     0.004 A 
ATOM      3  C4  UNL d   1      -0.423   2.601   1.020  0.00  0.00    -0.003 A 
ATOM      4  C5  UNL d   1      -1.643   1.968   1.225  0.00  0.00     0.000 A 
ATOM      5  C6  UNL d   1      -1.713   0.575   1.217  0.00  0.00     0.000 A 
ATOM      6  C7  UNL d   1      -0.563  -0.205   1.003  0.00  0.00    -0.073 A 
ATOM      7  C8  UNL d   1      -0.698  -1.703   0.999  0.00  0.00     0.078 C 
ENDROOT
BRANCH   1   8
ATOM      8  C1  UNL d   1       1.940  -0.330   0.481  0.00  0.00     0.053 C 
ATOM      9  C   UNL d   1       2.210  -0.488  -1.007  0.00  0.00     0.018 C 
ENDBRANCH   1   8
TORSDOF 1
ENDMDL
