MODEL 1
REMARK minimizedAffinity 0.0653442368
REMARK minimizedRMSD -1
REMARK  1 active torsions:
REMARK  status: ('A' for Active; 'I' for Inactive)
REMARK    1  A    between atoms: C1_2  and  C2_3 
ROOT
ATOM      1  C2  UNL d   1       0.941   1.530   1.113  0.00  0.00    -0.076 A 
ATOM      2  C3  UNL d   1       0.116   2.607   1.482  0.00  0.00     0.004 A 
ATOM      3  C4  UNL d   1      -1.258   2.571   1.250  0.00  0.00    -0.003 A 
ATOM      4  C5  UNL d   1      -1.830   1.457   0.646  0.00  0.00     0.000 A 
ATOM      5  C6  UNL d   1      -1.029   0.372   0.289  0.00  0.00     0.000 A 
ATOM      6  C7  UNL d   1       0.355   0.386   0.531  0.00  0.00    -0.073 A 
ATOM      7  C8  UNL d   1       1.172  -0.809   0.120  0.00  0.00     0.078 C 
ENDROOT
BRANCH   1   8
ATOM      8  C1  UNL d   1       2.428   1.637   1.365  0.00  0.00     0.053 C 
ATOM      9  C   UNL d   1       2.751   2.456   2.605  0.00  0.00     0.018 C 
ENDBRANCH   1   8
TORSDOF 1
ENDMDL
