MODEL 1
REMARK minimizedAffinity 0.82802546
REMARK minimizedRMSD -1
REMARK  1 active torsions:
REMARK  status: ('A' for Active; 'I' for Inactive)
REMARK    1  A    between atoms: C1_2  and  C2_3 
ROOT
ATOM      1  C2  UNL d   1       0.340   0.481   0.692  0.00  0.00    -0.076 A 
ATOM      2  C3  UNL d   1      -0.911   0.016   0.249  0.00  0.00     0.004 A 
ATOM      3  C4  UNL d   1      -2.069   0.761   0.460  0.00  0.00    -0.003 A 
ATOM      4  C5  UNL d   1      -1.997   1.985   1.117  0.00  0.00     0.000 A 
ATOM      5  C6  UNL d   1      -0.763   2.470   1.547  0.00  0.00     0.000 A 
ATOM      6  C7  UNL d   1       0.418   1.739   1.329  0.00  0.00    -0.073 A 
ATOM      7  C8  UNL d   1       1.721   2.307   1.820  0.00  0.00     0.078 C 
ENDROOT
BRANCH   1   8
ATOM      8  C1  UNL d   1       1.558  -0.383   0.460  0.00  0.00     0.053 C 
ATOM      9  C   UNL d   1       1.937  -0.472  -1.010  0.00  0.00     0.018 C 
ENDBRANCH   1   8
TORSDOF 1
ENDMDL
