MODEL 1
REMARK minimizedAffinity 4.53863335
REMARK minimizedRMSD -1
REMARK  1 active torsions:
REMARK  status: ('A' for Active; 'I' for Inactive)
REMARK    1  A    between atoms: C1_2  and  C2_3 
ROOT
ATOM      1  C2  UNL d   1       0.444   1.012   1.000  0.00  0.00    -0.076 A 
ATOM      2  C3  UNL d   1      -0.787   0.670   0.413  0.00  0.00     0.004 A 
ATOM      3  C4  UNL d   1      -1.951   1.368   0.728  0.00  0.00    -0.003 A 
ATOM      4  C5  UNL d   1      -1.904   2.421   1.635  0.00  0.00     0.000 A 
ATOM      5  C6  UNL d   1      -0.689   2.785   2.214  0.00  0.00     0.000 A 
ATOM      6  C7  UNL d   1       0.497   2.102   1.895  0.00  0.00    -0.073 A 
ATOM      7  C8  UNL d   1       1.778   2.534   2.554  0.00  0.00     0.078 C 
ENDROOT
BRANCH   1   8
ATOM      8  C1  UNL d   1       1.668   0.202   0.641  0.00  0.00     0.053 C 
ATOM      9  C   UNL d   1       1.875   0.094  -0.862  0.00  0.00     0.018 C 
ENDBRANCH   1   8
TORSDOF 1
ENDMDL
