MODEL 1
REMARK minimizedAffinity 2.07966709
REMARK minimizedRMSD -1
REMARK  1 active torsions:
REMARK  status: ('A' for Active; 'I' for Inactive)
REMARK    1  A    between atoms: C1_2  and  C2_3 
ROOT
ATOM      1  C2  UNL d   1      -3.557   3.771  -5.744  0.00  0.00    -0.076 A 
ATOM      2  C3  UNL d   1      -4.768   3.072  -5.883  0.00  0.00     0.004 A 
ATOM      3  C4  UNL d   1      -5.979   3.752  -5.999  0.00  0.00    -0.003 A 
ATOM      4  C5  UNL d   1      -5.998   5.142  -5.978  0.00  0.00     0.000 A 
ATOM      5  C6  UNL d   1      -4.804   5.852  -5.858  0.00  0.00     0.000 A 
ATOM      6  C7  UNL d   1      -3.573   5.182  -5.757  0.00  0.00    -0.073 A 
ATOM      7  C8  UNL d   1      -2.316   5.997  -5.623  0.00  0.00     0.078 C 
ENDROOT
BRANCH   1   8
ATOM      8  C1  UNL d   1      -2.277   2.979  -5.595  0.00  0.00     0.053 C 
ATOM      9  C   UNL d   1      -2.443   1.522  -5.999  0.00  0.00     0.018 C 
ENDBRANCH   1   8
TORSDOF 1
ENDMDL
