MODEL 1
REMARK minimizedAffinity 2.33038878
REMARK minimizedRMSD -1
REMARK  1 active torsions:
REMARK  status: ('A' for Active; 'I' for Inactive)
REMARK    1  A    between atoms: C1_2  and  C2_3 
ROOT
ATOM      1  C2  UNL d   1       1.226   1.760   1.041  0.00  0.00    -0.076 A 
ATOM      2  C3  UNL d   1       0.205   2.713   1.201  0.00  0.00     0.004 A 
ATOM      3  C4  UNL d   1      -1.119   2.405   0.889  0.00  0.00    -0.003 A 
ATOM      4  C5  UNL d   1      -1.442   1.139   0.413  0.00  0.00     0.000 A 
ATOM      5  C6  UNL d   1      -0.444   0.176   0.265  0.00  0.00     0.000 A 
ATOM      6  C7  UNL d   1       0.892   0.465   0.590  0.00  0.00    -0.073 A 
ATOM      7  C8  UNL d   1       1.929  -0.609   0.406  0.00  0.00     0.078 C 
ENDROOT
BRANCH   1   8
ATOM      8  C1  UNL d   1       2.647   2.160   1.370  0.00  0.00     0.053 C 
ATOM      9  C   UNL d   1       2.762   2.838   2.726  0.00  0.00     0.018 C 
ENDBRANCH   1   8
TORSDOF 1
ENDMDL
