MODEL 1
REMARK minimizedAffinity 3.54434633
REMARK minimizedRMSD -1
REMARK  1 active torsions:
REMARK  status: ('A' for Active; 'I' for Inactive)
REMARK    1  A    between atoms: C1_2  and  C2_3 
ROOT
ATOM      1  C2  UNL d   1       0.230  -1.519  -1.155  0.00  0.00    -0.076 A 
ATOM      2  C3  UNL d   1       0.171  -2.451  -2.206  0.00  0.00     0.004 A 
ATOM      3  C4  UNL d   1      -0.878  -3.364  -2.297  0.00  0.00    -0.003 A 
ATOM      4  C5  UNL d   1      -1.886  -3.359  -1.339  0.00  0.00     0.000 A 
ATOM      5  C6  UNL d   1      -1.854  -2.430  -0.300  0.00  0.00     0.000 A 
ATOM      6  C7  UNL d   1      -0.811  -1.492  -0.203  0.00  0.00    -0.073 A 
ATOM      7  C8  UNL d   1      -0.823  -0.516   0.942  0.00  0.00     0.078 C 
ENDROOT
BRANCH   1   8
ATOM      8  C1  UNL d   1       1.406  -0.571  -1.093  0.00  0.00     0.053 C 
ATOM      9  C   UNL d   1       2.272  -0.633  -2.342  0.00  0.00     0.018 C 
ENDBRANCH   1   8
TORSDOF 1
ENDMDL
