MODEL 1
REMARK minimizedAffinity -3.93286395
REMARK minimizedRMSD -1
REMARK  0 active torsions:
REMARK  status: ('A' for Active; 'I' for Inactive)
ROOT
ATOM      1  C   UNL d   1       1.213  -0.638   0.356  0.00  0.00     0.172 C 
ATOM      2  N   UNL d   1      -0.116  -0.801  -0.184  0.00  0.00    -0.070 N 
ATOM      3  C1  UNL d   1      -0.523  -0.413  -1.432  0.00  0.00    -0.004 A 
ATOM      4  C2  UNL d   1      -1.855  -0.744  -1.563  0.00  0.00    -0.047 A 
ATOM      5  C3  UNL d   1      -2.262  -1.350  -0.351  0.00  0.00    -0.047 A 
ATOM      6  C4  UNL d   1      -1.166  -1.373   0.485  0.00  0.00    -0.004 A 
ENDROOT
TORSDOF 0
ENDMDL
