MODEL 1
REMARK minimizedAffinity -3.03335738
REMARK minimizedRMSD -1
REMARK  0 active torsions:
REMARK  status: ('A' for Active; 'I' for Inactive)
ROOT
ATOM      1  C   UNL d   1       0.269   0.429   0.122  0.00  0.00     0.172 C 
ATOM      2  N   UNL d   1      -0.954  -0.143  -0.391  0.00  0.00    -0.070 N 
ATOM      3  C1  UNL d   1      -1.632  -1.200   0.155  0.00  0.00    -0.004 A 
ATOM      4  C2  UNL d   1      -2.743  -1.438  -0.626  0.00  0.00    -0.047 A 
ATOM      5  C3  UNL d   1      -2.731  -0.492  -1.679  0.00  0.00    -0.047 A 
ATOM      6  C4  UNL d   1      -1.613   0.297  -1.509  0.00  0.00    -0.004 A 
ENDROOT
TORSDOF 0
ENDMDL
