MODEL 1
REMARK minimizedAffinity -2.99300838
REMARK minimizedRMSD -1
REMARK  0 active torsions:
REMARK  status: ('A' for Active; 'I' for Inactive)
ROOT
ATOM      1  C   UNL d   1      -2.584  -1.295  -1.336  0.00  0.00     0.172 C 
ATOM      2  N   UNL d   1      -1.296  -0.818  -0.890  0.00  0.00    -0.070 N 
ATOM      3  C1  UNL d   1      -0.499   0.070  -1.561  0.00  0.00    -0.004 A 
ATOM      4  C2  UNL d   1       0.639   0.268  -0.808  0.00  0.00    -0.047 A 
ATOM      5  C3  UNL d   1       0.521  -0.529   0.355  0.00  0.00    -0.047 A 
ATOM      6  C4  UNL d   1      -0.687  -1.191   0.278  0.00  0.00    -0.004 A 
ENDROOT
TORSDOF 0
ENDMDL
