MODEL 1
REMARK minimizedAffinity -3.64865994
REMARK minimizedRMSD -1
REMARK  0 active torsions:
REMARK  status: ('A' for Active; 'I' for Inactive)
ROOT
ATOM      1  C   UNL d   1       0.165  -0.074  -1.931  0.00  0.00     0.172 C 
ATOM      2  N   UNL d   1      -0.921  -0.026  -0.980  0.00  0.00    -0.070 N 
ATOM      3  C1  UNL d   1      -0.944   0.719   0.168  0.00  0.00    -0.004 A 
ATOM      4  C2  UNL d   1      -2.149   0.490   0.796  0.00  0.00    -0.047 A 
ATOM      5  C3  UNL d   1      -2.875  -0.426  -0.002  0.00  0.00    -0.047 A 
ATOM      6  C4  UNL d   1      -2.091  -0.729  -1.095  0.00  0.00    -0.004 A 
ENDROOT
TORSDOF 0
ENDMDL
