MODEL 1
REMARK minimizedAffinity -3.83179927
REMARK minimizedRMSD -1
REMARK  0 active torsions:
REMARK  status: ('A' for Active; 'I' for Inactive)
ROOT
ATOM      1  C   UNL d   1      -2.095  -1.268  -2.882  0.00  0.00     0.172 C 
ATOM      2  N   UNL d   1      -2.202  -1.183  -1.444  0.00  0.00    -0.070 N 
ATOM      3  C1  UNL d   1      -1.494  -0.330  -0.640  0.00  0.00    -0.004 A 
ATOM      4  C2  UNL d   1      -1.883  -0.559   0.663  0.00  0.00    -0.047 A 
ATOM      5  C3  UNL d   1      -2.856  -1.586   0.640  0.00  0.00    -0.047 A 
ATOM      6  C4  UNL d   1      -3.035  -1.954  -0.677  0.00  0.00    -0.004 A 
ENDROOT
TORSDOF 0
ENDMDL
