MODEL 1
REMARK minimizedAffinity -2.81431866
REMARK minimizedRMSD -1
REMARK  0 active torsions:
REMARK  status: ('A' for Active; 'I' for Inactive)
ROOT
ATOM      1  C   UNL d   1      -0.342   0.079  -1.533  0.00  0.00     0.172 C 
ATOM      2  N   UNL d   1      -1.258  -0.914  -1.022  0.00  0.00    -0.070 N 
ATOM      3  C1  UNL d   1      -2.263  -1.514  -1.733  0.00  0.00    -0.004 A 
ATOM      4  C2  UNL d   1      -2.906  -2.397  -0.892  0.00  0.00    -0.047 A 
ATOM      5  C3  UNL d   1      -2.266  -2.324   0.368  0.00  0.00    -0.047 A 
ATOM      6  C4  UNL d   1      -1.250  -1.398   0.260  0.00  0.00    -0.004 A 
ENDROOT
TORSDOF 0
ENDMDL
