MODEL 1
REMARK minimizedAffinity -3.67015314
REMARK minimizedRMSD -1
REMARK  0 active torsions:
REMARK  status: ('A' for Active; 'I' for Inactive)
ROOT
ATOM      1  C   UNL d   1       0.048   0.762   0.189  0.00  0.00     0.172 C 
ATOM      2  N   UNL d   1       1.082   1.725   0.487  0.00  0.00    -0.070 N 
ATOM      3  C1  UNL d   1       1.118   3.020   0.043  0.00  0.00    -0.004 A 
ATOM      4  C2  UNL d   1       2.260   3.606   0.545  0.00  0.00    -0.047 A 
ATOM      5  C3  UNL d   1       2.934   2.629   1.316  0.00  0.00    -0.047 A 
ATOM      6  C4  UNL d   1       2.182   1.474   1.263  0.00  0.00    -0.004 A 
ENDROOT
TORSDOF 0
ENDMDL
