MODEL 1
REMARK minimizedAffinity -3.48223448
REMARK minimizedRMSD -1
REMARK  0 active torsions:
REMARK  status: ('A' for Active; 'I' for Inactive)
ROOT
ATOM      1  C   UNL d   1      -0.505   0.798  -1.822  0.00  0.00     0.172 C 
ATOM      2  N   UNL d   1      -1.432  -0.141  -1.236  0.00  0.00    -0.070 N 
ATOM      3  C1  UNL d   1      -1.321  -0.701   0.008  0.00  0.00    -0.004 A 
ATOM      4  C2  UNL d   1      -2.400  -1.538   0.192  0.00  0.00    -0.047 A 
ATOM      5  C3  UNL d   1      -3.186  -1.480  -0.983  0.00  0.00    -0.047 A 
ATOM      6  C4  UNL d   1      -2.564  -0.608  -1.850  0.00  0.00    -0.004 A 
ENDROOT
TORSDOF 0
ENDMDL
