MODEL 1
REMARK minimizedAffinity -3.47596979
REMARK minimizedRMSD -1
REMARK  0 active torsions:
REMARK  status: ('A' for Active; 'I' for Inactive)
ROOT
ATOM      1  C   UNL d   1       0.684   0.398  -0.150  0.00  0.00     0.172 C 
ATOM      2  N   UNL d   1      -0.629  -0.052  -0.550  0.00  0.00    -0.070 N 
ATOM      3  C1  UNL d   1      -1.446  -0.875   0.177  0.00  0.00    -0.004 A 
ATOM      4  C2  UNL d   1      -2.604  -1.066  -0.545  0.00  0.00    -0.047 A 
ATOM      5  C3  UNL d   1      -2.478  -0.333  -1.749  0.00  0.00    -0.047 A 
ATOM      6  C4  UNL d   1      -1.245   0.285  -1.726  0.00  0.00    -0.004 A 
ENDROOT
TORSDOF 0
ENDMDL
