MODEL 1
REMARK minimizedAffinity -3.35448265
REMARK minimizedRMSD -1
REMARK  0 active torsions:
REMARK  status: ('A' for Active; 'I' for Inactive)
ROOT
ATOM      1  C   UNL d   1      -1.903  -0.665  -2.401  0.00  0.00     0.172 C 
ATOM      2  N   UNL d   1      -1.806  -0.390  -0.986  0.00  0.00    -0.070 N 
ATOM      3  C1  UNL d   1      -0.658  -0.070  -0.312  0.00  0.00    -0.004 A 
ATOM      4  C2  UNL d   1      -0.985   0.118   1.013  0.00  0.00    -0.047 A 
ATOM      5  C3  UNL d   1      -2.378  -0.098   1.140  0.00  0.00    -0.047 A 
ATOM      6  C4  UNL d   1      -2.861  -0.411  -0.113  0.00  0.00    -0.004 A 
ENDROOT
TORSDOF 0
ENDMDL
