MODEL 1
REMARK minimizedAffinity -2.35096884
REMARK minimizedRMSD -1
REMARK  0 active torsions:
REMARK  status: ('A' for Active; 'I' for Inactive)
ROOT
ATOM      1  C   UNL d   1       0.408  -1.829   1.399  0.00  0.00     0.172 C 
ATOM      2  N   UNL d   1      -0.547  -0.748   1.324  0.00  0.00    -0.070 N 
ATOM      3  C1  UNL d   1      -1.904  -0.872   1.453  0.00  0.00    -0.004 A 
ATOM      4  C2  UNL d   1      -2.457   0.384   1.321  0.00  0.00    -0.047 A 
ATOM      5  C3  UNL d   1      -1.395   1.293   1.103  0.00  0.00    -0.047 A 
ATOM      6  C4  UNL d   1      -0.224   0.566   1.109  0.00  0.00    -0.004 A 
ENDROOT
TORSDOF 0
ENDMDL
