MODEL 1
REMARK minimizedAffinity -2.29251599
REMARK minimizedRMSD -1
REMARK  0 active torsions:
REMARK  status: ('A' for Active; 'I' for Inactive)
ROOT
ATOM      1  C   UNL d   1      -2.270  -1.415  -1.774  0.00  0.00     0.172 C 
ATOM      2  N   UNL d   1      -1.435  -0.732  -0.814  0.00  0.00    -0.070 N 
ATOM      3  C1  UNL d   1      -0.206  -0.187  -1.070  0.00  0.00    -0.004 A 
ATOM      4  C2  UNL d   1       0.262   0.369   0.101  0.00  0.00    -0.047 A 
ATOM      5  C3  UNL d   1      -0.721   0.150   1.095  0.00  0.00    -0.047 A 
ATOM      6  C4  UNL d   1      -1.761  -0.534   0.502  0.00  0.00    -0.004 A 
ENDROOT
TORSDOF 0
ENDMDL
