MODEL 1
REMARK minimizedAffinity -3.45127535
REMARK minimizedRMSD -1
REMARK  0 active torsions:
REMARK  status: ('A' for Active; 'I' for Inactive)
ROOT
ATOM      1  C   UNL d   1       1.681   0.232   0.039  0.00  0.00     0.172 C 
ATOM      2  N   UNL d   1       2.532   1.383   0.228  0.00  0.00    -0.070 N 
ATOM      3  C1  UNL d   1       2.890   1.921   1.436  0.00  0.00    -0.004 A 
ATOM      4  C2  UNL d   1       3.705   3.005   1.190  0.00  0.00    -0.047 A 
ATOM      5  C3  UNL d   1       3.841   3.123  -0.214  0.00  0.00    -0.047 A 
ATOM      6  C4  UNL d   1       3.104   2.107  -0.784  0.00  0.00    -0.004 A 
ENDROOT
TORSDOF 0
ENDMDL
