MODEL 1
REMARK minimizedAffinity -3.79978108
REMARK minimizedRMSD -1
REMARK  0 active torsions:
REMARK  status: ('A' for Active; 'I' for Inactive)
ROOT
ATOM      1  C   UNL d   1       0.710   0.201  -0.237  0.00  0.00     0.172 C 
ATOM      2  N   UNL d   1      -0.636  -0.053  -0.694  0.00  0.00    -0.070 N 
ATOM      3  C1  UNL d   1      -1.041  -0.093  -2.002  0.00  0.00    -0.004 A 
ATOM      4  C2  UNL d   1      -2.393  -0.362  -2.017  0.00  0.00    -0.047 A 
ATOM      5  C3  UNL d   1      -2.815  -0.488  -0.672  0.00  0.00    -0.047 A 
ATOM      6  C4  UNL d   1      -1.708  -0.292   0.126  0.00  0.00    -0.004 A 
ENDROOT
TORSDOF 0
ENDMDL
