MODEL 1
REMARK minimizedAffinity -4.08498812
REMARK minimizedRMSD -1
REMARK  0 active torsions:
REMARK  status: ('A' for Active; 'I' for Inactive)
ROOT
ATOM      1  C   UNL d   1       0.900  -0.117   0.377  0.00  0.00     0.172 C 
ATOM      2  N   UNL d   1      -0.495  -0.191   0.011  0.00  0.00    -0.070 N 
ATOM      3  C1  UNL d   1      -0.979  -0.379  -1.256  0.00  0.00    -0.004 A 
ATOM      4  C2  UNL d   1      -2.355  -0.392  -1.185  0.00  0.00    -0.047 A 
ATOM      5  C3  UNL d   1      -2.711  -0.204   0.171  0.00  0.00    -0.047 A 
ATOM      6  C4  UNL d   1      -1.540  -0.082   0.890  0.00  0.00    -0.004 A 
ENDROOT
TORSDOF 0
ENDMDL
