MODEL 1
REMARK minimizedAffinity -2.39503551
REMARK minimizedRMSD -1
REMARK  0 active torsions:
REMARK  status: ('A' for Active; 'I' for Inactive)
ROOT
ATOM      1  C   UNL d   1      -2.343  -5.126  -2.015  0.00  0.00     0.172 C 
ATOM      2  N   UNL d   1      -2.348  -3.683  -2.089  0.00  0.00    -0.070 N 
ATOM      3  C1  UNL d   1      -2.002  -2.939  -3.185  0.00  0.00    -0.004 A 
ATOM      4  C2  UNL d   1      -2.139  -1.609  -2.852  0.00  0.00    -0.047 A 
ATOM      5  C3  UNL d   1      -2.582  -1.552  -1.509  0.00  0.00    -0.047 A 
ATOM      6  C4  UNL d   1      -2.703  -2.850  -1.061  0.00  0.00    -0.004 A 
ENDROOT
TORSDOF 0
ENDMDL
