MODEL 1
REMARK minimizedAffinity 0.580895782
REMARK minimizedRMSD -1
REMARK  2 active torsions:
REMARK  status: ('A' for Active; 'I' for Inactive)
REMARK    1  A    between atoms: C2'_3  and  C1'_4 
REMARK    2  A    between atoms: C1'_4  and  C1_5 
ROOT
ATOM      1  C1  I4B d   1       0.628   0.900  -0.978  0.00  0.00    -0.075 A 
ATOM      2  C2  I4B d   1       0.003  -0.002  -0.152  0.00  0.00     0.003 A 
ATOM      3  C3  I4B d   1      -0.108   0.260   1.235  0.00  0.00     0.002 A 
ATOM      4  C4  I4B d   1       0.460   1.403   1.759  0.00  0.00    -0.004 A 
ATOM      5  C5  I4B d   1       1.073   2.327   0.917  0.00  0.00     0.002 A 
ATOM      6  C6  I4B d   1       1.147   2.080  -0.461  0.00  0.00     0.003 A 
ENDROOT
BRANCH   1   7
ATOM      7  C1' I4B d   1       0.756   0.577  -2.432  0.00  0.00     0.060 C 
BRANCH   7   8
ATOM      8  C2' I4B d   1       0.445  -0.895  -2.613  0.00  0.00    -0.013 C 
ATOM      9  C4' I4B d   1      -0.567  -1.109  -3.708  0.00  0.00     0.013 C 
ATOM     10  C3' I4B d   1       1.730  -1.606  -2.917  0.00  0.00     0.013 C 
ENDBRANCH   7   8
ENDBRANCH   1   7
TORSDOF 2
ENDMDL
