MODEL 1
REMARK minimizedAffinity 17.154108
REMARK minimizedRMSD -1
REMARK  2 active torsions:
REMARK  status: ('A' for Active; 'I' for Inactive)
REMARK    1  A    between atoms: C2'_3  and  C1'_4 
REMARK    2  A    between atoms: C1'_4  and  C1_5 
ROOT
ATOM      1  C1  I4B d   1       0.034   0.660   0.993  0.00  0.00    -0.075 A 
ATOM      2  C2  I4B d   1       0.161   1.887   0.390  0.00  0.00     0.003 A 
ATOM      3  C3  I4B d   1       0.944   2.029  -0.781  0.00  0.00     0.002 A 
ATOM      4  C4  I4B d   1       1.619   0.935  -1.283  0.00  0.00    -0.004 A 
ATOM      5  C5  I4B d   1       1.472  -0.313  -0.684  0.00  0.00     0.002 A 
ATOM      6  C6  I4B d   1       0.665  -0.454   0.454  0.00  0.00     0.003 A 
ENDROOT
BRANCH   1   7
ATOM      7  C1' I4B d   1      -0.774   0.553   2.247  0.00  0.00     0.060 C 
BRANCH   7   8
ATOM      8  C2' I4B d   1      -2.202   0.231   1.856  0.00  0.00    -0.013 C 
ATOM      9  C4' I4B d   1      -2.455   0.550   0.406  0.00  0.00     0.013 C 
ATOM     10  C3' I4B d   1      -2.443  -1.222   2.141  0.00  0.00     0.013 C 
ENDBRANCH   7   8
ENDBRANCH   1   7
TORSDOF 2
ENDMDL
