MODEL 1
REMARK minimizedAffinity 2.91786647
REMARK minimizedRMSD -1
REMARK  2 active torsions:
REMARK  status: ('A' for Active; 'I' for Inactive)
REMARK    1  A    between atoms: C2'_3  and  C1'_4 
REMARK    2  A    between atoms: C1'_4  and  C1_5 
ROOT
ATOM      1  C1  I4B d   1      -0.717  -1.143   1.113  0.00  0.00    -0.075 A 
ATOM      2  C2  I4B d   1      -0.288   0.147   1.303  0.00  0.00     0.003 A 
ATOM      3  C3  I4B d   1       0.900   0.602   0.681  0.00  0.00     0.002 A 
ATOM      4  C4  I4B d   1       1.650  -0.275  -0.075  0.00  0.00    -0.004 A 
ATOM      5  C5  I4B d   1       1.202  -1.576  -0.285  0.00  0.00     0.002 A 
ATOM      6  C6  I4B d   1       0.005  -2.010   0.302  0.00  0.00     0.003 A 
ENDROOT
BRANCH   1   7
ATOM      7  C1' I4B d   1      -1.958  -1.600   1.810  0.00  0.00     0.060 C 
BRANCH   7   8
ATOM      8  C2' I4B d   1      -2.213  -3.041   1.415  0.00  0.00    -0.013 C 
ATOM      9  C4' I4B d   1      -2.343  -3.181  -0.079  0.00  0.00     0.013 C 
ATOM     10  C3' I4B d   1      -1.080  -3.872   1.940  0.00  0.00     0.013 C 
ENDBRANCH   7   8
ENDBRANCH   1   7
TORSDOF 2
ENDMDL
