MODEL 1
REMARK minimizedAffinity 18.8442516
REMARK minimizedRMSD -1
REMARK  2 active torsions:
REMARK  status: ('A' for Active; 'I' for Inactive)
REMARK    1  A    between atoms: C2'_3  and  C1'_4 
REMARK    2  A    between atoms: C1'_4  and  C1_5 
ROOT
ATOM      1  C1  I4B d   1      -3.735   1.153   0.150  0.00  0.00    -0.075 A 
ATOM      2  C2  I4B d   1      -4.496   2.274  -0.072  0.00  0.00     0.003 A 
ATOM      3  C3  I4B d   1      -4.848   3.121   1.006  0.00  0.00     0.002 A 
ATOM      4  C4  I4B d   1      -4.463   2.786   2.288  0.00  0.00    -0.004 A 
ATOM      5  C5  I4B d   1      -3.673   1.661   2.508  0.00  0.00     0.002 A 
ATOM      6  C6  I4B d   1      -3.296   0.846   1.431  0.00  0.00     0.003 A 
ENDROOT
BRANCH   1   7
ATOM      7  C1' I4B d   1      -3.410   0.262  -1.007  0.00  0.00     0.060 C 
BRANCH   7   8
ATOM      8  C2' I4B d   1      -4.441  -0.848  -1.046  0.00  0.00    -0.013 C 
ATOM      9  C4' I4B d   1      -4.477  -1.510  -2.398  0.00  0.00     0.013 C 
ATOM     10  C3' I4B d   1      -4.101  -1.834   0.032  0.00  0.00     0.013 C 
ENDBRANCH   7   8
ENDBRANCH   1   7
TORSDOF 2
ENDMDL
