MODEL 1
REMARK minimizedAffinity 6.18332672
REMARK minimizedRMSD -1
REMARK  2 active torsions:
REMARK  status: ('A' for Active; 'I' for Inactive)
REMARK    1  A    between atoms: C2'_3  and  C1'_4 
REMARK    2  A    between atoms: C1'_4  and  C1_5 
ROOT
ATOM      1  C1  I4B d   1       0.931   0.680   0.888  0.00  0.00    -0.075 A 
ATOM      2  C2  I4B d   1       0.196   1.249   1.898  0.00  0.00     0.003 A 
ATOM      3  C3  I4B d   1      -1.083   0.735   2.225  0.00  0.00     0.002 A 
ATOM      4  C4  I4B d   1      -1.605  -0.308   1.488  0.00  0.00    -0.004 A 
ATOM      5  C5  I4B d   1      -0.849  -0.898   0.479  0.00  0.00     0.002 A 
ATOM      6  C6  I4B d   1       0.433  -0.409   0.185  0.00  0.00     0.003 A 
ENDROOT
BRANCH   1   7
ATOM      7  C1' I4B d   1       2.264   1.268   0.548  0.00  0.00     0.060 C 
BRANCH   7   8
ATOM      8  C2' I4B d   1       2.033   2.432  -0.396  0.00  0.00    -0.013 C 
ATOM      9  C4' I4B d   1       1.631   1.951  -1.765  0.00  0.00     0.013 C 
ATOM     10  C3' I4B d   1       0.975   3.310   0.202  0.00  0.00     0.013 C 
ENDBRANCH   7   8
ENDBRANCH   1   7
TORSDOF 2
ENDMDL
