MODEL 1
REMARK minimizedAffinity 4.97742987
REMARK minimizedRMSD -1
REMARK  2 active torsions:
REMARK  status: ('A' for Active; 'I' for Inactive)
REMARK    1  A    between atoms: C2'_3  and  C1'_4 
REMARK    2  A    between atoms: C1'_4  and  C1_5 
ROOT
ATOM      1  C1  I4B d   1      -0.077   5.968  -3.326  0.00  0.00    -0.075 A 
ATOM      2  C2  I4B d   1      -1.128   5.992  -4.209  0.00  0.00     0.003 A 
ATOM      3  C3  I4B d   1      -2.460   5.939  -3.732  0.00  0.00     0.002 A 
ATOM      4  C4  I4B d   1      -2.693   5.812  -2.378  0.00  0.00    -0.004 A 
ATOM      5  C5  I4B d   1      -1.627   5.810  -1.483  0.00  0.00     0.002 A 
ATOM      6  C6  I4B d   1      -0.311   5.901  -1.959  0.00  0.00     0.003 A 
ENDROOT
BRANCH   1   7
ATOM      7  C1' I4B d   1       1.318   5.992  -3.865  0.00  0.00     0.060 C 
BRANCH   7   8
ATOM      8  C2' I4B d   1       1.260   5.597  -5.327  0.00  0.00    -0.013 C 
ATOM      9  C4' I4B d   1       2.596   5.786  -5.996  0.00  0.00     0.013 C 
ATOM     10  C3' I4B d   1       0.813   4.168  -5.404  0.00  0.00     0.013 C 
ENDBRANCH   7   8
ENDBRANCH   1   7
TORSDOF 2
ENDMDL
