MODEL 1
REMARK minimizedAffinity 1.66140568
REMARK minimizedRMSD -1
REMARK  2 active torsions:
REMARK  status: ('A' for Active; 'I' for Inactive)
REMARK    1  A    between atoms: C2'_3  and  C1'_4 
REMARK    2  A    between atoms: C1'_4  and  C1_5 
ROOT
ATOM      1  C1  I4B d   1       0.981   5.959  -4.470  0.00  0.00    -0.075 A 
ATOM      2  C2  I4B d   1       0.929   5.957  -3.098  0.00  0.00     0.003 A 
ATOM      3  C3  I4B d   1      -0.321   5.952  -2.433  0.00  0.00     0.002 A 
ATOM      4  C4  I4B d   1      -1.485   6.000  -3.172  0.00  0.00    -0.004 A 
ATOM      5  C5  I4B d   1      -1.430   5.979  -4.563  0.00  0.00     0.002 A 
ATOM      6  C6  I4B d   1      -0.190   5.946  -5.216  0.00  0.00     0.003 A 
ENDROOT
BRANCH   1   7
ATOM      7  C1' I4B d   1       2.318   5.998  -5.140  0.00  0.00     0.060 C 
BRANCH   7   8
ATOM      8  C2' I4B d   1       2.692   4.579  -5.519  0.00  0.00    -0.013 C 
ATOM      9  C4' I4B d   1       3.695   4.003  -4.555  0.00  0.00     0.013 C 
ATOM     10  C3' I4B d   1       1.435   3.761  -5.546  0.00  0.00     0.013 C 
ENDBRANCH   7   8
ENDBRANCH   1   7
TORSDOF 2
ENDMDL
