MODEL 1
REMARK minimizedAffinity 2.11471248
REMARK minimizedRMSD -1
REMARK  2 active torsions:
REMARK  status: ('A' for Active; 'I' for Inactive)
REMARK    1  A    between atoms: C2'_3  and  C1'_4 
REMARK    2  A    between atoms: C1'_4  and  C1_5 
ROOT
ATOM      1  C1  I4B d   1       0.689   0.664   0.455  0.00  0.00    -0.075 A 
ATOM      2  C2  I4B d   1       1.120   0.534  -0.842  0.00  0.00     0.003 A 
ATOM      3  C3  I4B d   1       1.788   1.605  -1.482  0.00  0.00     0.002 A 
ATOM      4  C4  I4B d   1       1.958   2.799  -0.811  0.00  0.00    -0.004 A 
ATOM      5  C5  I4B d   1       1.541   2.921   0.512  0.00  0.00     0.002 A 
ATOM      6  C6  I4B d   1       0.913   1.843   1.153  0.00  0.00     0.003 A 
ENDROOT
BRANCH   1   7
ATOM      7  C1' I4B d   1      -0.043  -0.476   1.089  0.00  0.00     0.060 C 
BRANCH   7   8
ATOM      8  C2' I4B d   1      -1.239   0.090   1.827  0.00  0.00    -0.013 C 
ATOM      9  C4' I4B d   1      -2.244   0.675   0.870  0.00  0.00     0.013 C 
ATOM     10  C3' I4B d   1      -1.845  -1.014   2.641  0.00  0.00     0.013 C 
ENDBRANCH   7   8
ENDBRANCH   1   7
TORSDOF 2
ENDMDL
