MODEL 1
REMARK minimizedAffinity 7.4252696
REMARK minimizedRMSD -1
REMARK  2 active torsions:
REMARK  status: ('A' for Active; 'I' for Inactive)
REMARK    1  A    between atoms: C2'_3  and  C1'_4 
REMARK    2  A    between atoms: C1'_4  and  C1_5 
ROOT
ATOM      1  C1  I4B d   1       0.526   0.357   0.452  0.00  0.00    -0.075 A 
ATOM      2  C2  I4B d   1       0.747   0.261  -0.900  0.00  0.00     0.003 A 
ATOM      3  C3  I4B d   1       1.486   1.264  -1.574  0.00  0.00     0.002 A 
ATOM      4  C4  I4B d   1       1.939   2.362  -0.872  0.00  0.00    -0.004 A 
ATOM      5  C5  I4B d   1       1.734   2.446   0.502  0.00  0.00     0.002 A 
ATOM      6  C6  I4B d   1       1.034   1.431   1.171  0.00  0.00     0.003 A 
ENDROOT
BRANCH   1   7
ATOM      7  C1' I4B d   1      -0.286  -0.703   1.126  0.00  0.00     0.060 C 
BRANCH   7   8
ATOM      8  C2' I4B d   1      -1.229  -0.021   2.096  0.00  0.00    -0.013 C 
ATOM      9  C4' I4B d   1      -2.268   0.790   1.368  0.00  0.00     0.013 C 
ATOM     10  C3' I4B d   1      -1.867  -1.082   2.944  0.00  0.00     0.013 C 
ENDBRANCH   7   8
ENDBRANCH   1   7
TORSDOF 2
ENDMDL
