MODEL 1
REMARK minimizedAffinity 2.06718302
REMARK minimizedRMSD -1
REMARK  2 active torsions:
REMARK  status: ('A' for Active; 'I' for Inactive)
REMARK    1  A    between atoms: C2'_3  and  C1'_4 
REMARK    2  A    between atoms: C1'_4  and  C1_5 
ROOT
ATOM      1  C1  I4B d   1       0.585   0.311   0.184  0.00  0.00    -0.075 A 
ATOM      2  C2  I4B d   1       0.526   0.956  -1.026  0.00  0.00     0.003 A 
ATOM      3  C3  I4B d   1       0.957   2.300  -1.139  0.00  0.00     0.002 A 
ATOM      4  C4  I4B d   1       1.389   2.972  -0.014  0.00  0.00    -0.004 A 
ATOM      5  C5  I4B d   1       1.469   2.310   1.207  0.00  0.00     0.002 A 
ATOM      6  C6  I4B d   1       1.077   0.967   1.305  0.00  0.00     0.003 A 
ENDROOT
BRANCH   1   7
ATOM      7  C1' I4B d   1       0.091  -1.098   0.274  0.00  0.00     0.060 C 
BRANCH   7   8
ATOM      8  C2' I4B d   1      -1.382  -1.055   0.627  0.00  0.00    -0.013 C 
ATOM      9  C4' I4B d   1      -2.134  -2.182  -0.029  0.00  0.00     0.013 C 
ATOM     10  C3' I4B d   1      -1.503  -1.121   2.120  0.00  0.00     0.013 C 
ENDBRANCH   7   8
ENDBRANCH   1   7
TORSDOF 2
ENDMDL
