MODEL 1
REMARK minimizedAffinity 4.06007051
REMARK minimizedRMSD -1
REMARK  2 active torsions:
REMARK  status: ('A' for Active; 'I' for Inactive)
REMARK    1  A    between atoms: C2'_3  and  C1'_4 
REMARK    2  A    between atoms: C1'_4  and  C1_5 
ROOT
ATOM      1  C1  I4B d   1       0.215  -0.235  -2.621  0.00  0.00    -0.075 A 
ATOM      2  C2  I4B d   1       0.726  -0.919  -3.695  0.00  0.00     0.003 A 
ATOM      3  C3  I4B d   1      -0.121  -1.308  -4.762  0.00  0.00     0.002 A 
ATOM      4  C4  I4B d   1      -1.472  -1.038  -4.689  0.00  0.00    -0.004 A 
ATOM      5  C5  I4B d   1      -1.985  -0.324  -3.610  0.00  0.00     0.002 A 
ATOM      6  C6  I4B d   1      -1.134   0.091  -2.575  0.00  0.00     0.003 A 
ENDROOT
BRANCH   1   7
ATOM      7  C1' I4B d   1       1.132   0.131  -1.497  0.00  0.00     0.060 C 
BRANCH   7   8
ATOM      8  C2' I4B d   1       0.297   0.270  -0.240  0.00  0.00    -0.013 C 
ATOM      9  C4' I4B d   1      -0.090  -1.078   0.309  0.00  0.00     0.013 C 
ATOM     10  C3' I4B d   1       1.093   1.054   0.760  0.00  0.00     0.013 C 
ENDBRANCH   7   8
ENDBRANCH   1   7
TORSDOF 2
ENDMDL
