MODEL 1
REMARK minimizedAffinity 5.28827763
REMARK minimizedRMSD -1
REMARK  2 active torsions:
REMARK  status: ('A' for Active; 'I' for Inactive)
REMARK    1  A    between atoms: C2'_3  and  C1'_4 
REMARK    2  A    between atoms: C1'_4  and  C1_5 
ROOT
ATOM      1  C1  I4B d   1       0.593   0.899   1.300  0.00  0.00    -0.075 A 
ATOM      2  C2  I4B d   1       0.205   1.331   2.544  0.00  0.00     0.003 A 
ATOM      3  C3  I4B d   1      -1.051   0.947   3.073  0.00  0.00     0.002 A 
ATOM      4  C4  I4B d   1      -1.903   0.175   2.309  0.00  0.00    -0.004 A 
ATOM      5  C5  I4B d   1      -1.498  -0.282   1.058  0.00  0.00     0.002 A 
ATOM      6  C6  I4B d   1      -0.238   0.072   0.555  0.00  0.00     0.003 A 
ENDROOT
BRANCH   1   7
ATOM      7  C1' I4B d   1       1.912   1.351   0.759  0.00  0.00     0.060 C 
BRANCH   7   8
ATOM      8  C2' I4B d   1       1.733   2.750   0.203  0.00  0.00    -0.013 C 
ATOM      9  C4' I4B d   1       0.598   2.803  -0.785  0.00  0.00     0.013 C 
ATOM     10  C3' I4B d   1       1.491   3.678   1.356  0.00  0.00     0.013 C 
ENDBRANCH   7   8
ENDBRANCH   1   7
TORSDOF 2
ENDMDL
