MODEL 1
REMARK minimizedAffinity 6.80689812
REMARK minimizedRMSD -1
REMARK  2 active torsions:
REMARK  status: ('A' for Active; 'I' for Inactive)
REMARK    1  A    between atoms: C2'_3  and  C1'_4 
REMARK    2  A    between atoms: C1'_4  and  C1_5 
ROOT
ATOM      1  C1  I4B d   1      -0.268   0.623   1.638  0.00  0.00    -0.075 A 
ATOM      2  C2  I4B d   1      -0.069   0.545   0.282  0.00  0.00     0.003 A 
ATOM      3  C3  I4B d   1       1.097   1.099  -0.300  0.00  0.00     0.002 A 
ATOM      4  C4  I4B d   1       2.006   1.762   0.499  0.00  0.00    -0.004 A 
ATOM      5  C5  I4B d   1       1.814   1.820   1.877  0.00  0.00     0.002 A 
ATOM      6  C6  I4B d   1       0.675   1.236   2.452  0.00  0.00     0.003 A 
ENDROOT
BRANCH   1   7
ATOM      7  C1' I4B d   1      -1.527   0.056   2.215  0.00  0.00     0.060 C 
BRANCH   7   8
ATOM      8  C2' I4B d   1      -1.218  -1.336   2.730  0.00  0.00    -0.013 C 
ATOM      9  C4' I4B d   1      -2.232  -1.775   3.753  0.00  0.00     0.013 C 
ATOM     10  C3' I4B d   1      -1.194  -2.269   1.556  0.00  0.00     0.013 C 
ENDBRANCH   7   8
ENDBRANCH   1   7
TORSDOF 2
ENDMDL
