MODEL 1
REMARK minimizedAffinity 1.81058931
REMARK minimizedRMSD -1
REMARK  0 active torsions:
REMARK  status: ('A' for Active; 'I' for Inactive)
ROOT
ATOM      1  C   UNL d   1      -1.773  -0.274   2.158  0.00  0.00     0.172 C 
ATOM      2  N   UNL d   1      -2.052  -1.502   2.865  0.00  0.00    -0.070 N 
ATOM      3  C1  UNL d   1      -2.717  -1.603   4.058  0.00  0.00    -0.004 A 
ATOM      4  C2  UNL d   1      -2.777  -2.938   4.395  0.00  0.00    -0.047 A 
ATOM      5  C3  UNL d   1      -2.126  -3.664   3.370  0.00  0.00    -0.047 A 
ATOM      6  C4  UNL d   1      -1.687  -2.750   2.435  0.00  0.00    -0.004 A 
ENDROOT
TORSDOF 0
ENDMDL
