MODEL 1
REMARK minimizedAffinity 1.36048269
REMARK minimizedRMSD -1
REMARK  0 active torsions:
REMARK  status: ('A' for Active; 'I' for Inactive)
ROOT
ATOM      1  C   UNL d   1       3.698   5.998  -5.769  0.00  0.00     0.172 C 
ATOM      2  N   UNL d   1       2.382   5.444  -5.547  0.00  0.00    -0.070 N 
ATOM      3  C1  UNL d   1       2.106   4.293  -4.860  0.00  0.00    -0.004 A 
ATOM      4  C2  UNL d   1       0.740   4.111  -4.872  0.00  0.00    -0.047 A 
ATOM      5  C3  UNL d   1       0.176   5.190  -5.594  0.00  0.00    -0.047 A 
ATOM      6  C4  UNL d   1       1.215   6.000  -6.000  0.00  0.00    -0.004 A 
ENDROOT
TORSDOF 0
ENDMDL
