MODEL 1
REMARK minimizedAffinity 1.68829918
REMARK minimizedRMSD -1
REMARK  0 active torsions:
REMARK  status: ('A' for Active; 'I' for Inactive)
ROOT
ATOM      1  C   UNL d   1       0.125   5.747  -5.875  0.00  0.00     0.172 C 
ATOM      2  N   UNL d   1       1.475   5.393  -5.505  0.00  0.00    -0.070 N 
ATOM      3  C1  UNL d   1       1.829   4.412  -4.618  0.00  0.00    -0.004 A 
ATOM      4  C2  UNL d   1       3.205   4.388  -4.541  0.00  0.00    -0.047 A 
ATOM      5  C3  UNL d   1       3.695   5.390  -5.412  0.00  0.00    -0.047 A 
ATOM      6  C4  UNL d   1       2.602   5.997  -5.996  0.00  0.00    -0.004 A 
ENDROOT
TORSDOF 0
ENDMDL
