MODEL 1
REMARK minimizedAffinity -2.11143088
REMARK minimizedRMSD -1
REMARK  0 active torsions:
REMARK  status: ('A' for Active; 'I' for Inactive)
ROOT
ATOM      1  C   UNL d   1      -0.000   5.997  -4.638  0.00  0.00     0.172 C 
ATOM      2  N   UNL d   1      -1.143   5.997  -3.755  0.00  0.00    -0.070 N 
ATOM      3  C1  UNL d   1      -2.455   6.000  -4.147  0.00  0.00    -0.004 A 
ATOM      4  C2  UNL d   1      -3.235   5.999  -3.011  0.00  0.00    -0.047 A 
ATOM      5  C3  UNL d   1      -2.361   5.997  -1.897  0.00  0.00    -0.047 A 
ATOM      6  C4  UNL d   1      -1.072   5.996  -2.386  0.00  0.00    -0.004 A 
ENDROOT
TORSDOF 0
ENDMDL
