MODEL 1
REMARK minimizedAffinity 0.116020814
REMARK minimizedRMSD -1
REMARK  0 active torsions:
REMARK  status: ('A' for Active; 'I' for Inactive)
ROOT
ATOM      1  C   UNL d   1      -5.884   5.992  -5.267  0.00  0.00     0.172 C 
ATOM      2  N   UNL d   1      -4.733   5.993  -4.395  0.00  0.00    -0.070 N 
ATOM      3  C1  UNL d   1      -3.425   5.996  -4.801  0.00  0.00    -0.004 A 
ATOM      4  C2  UNL d   1      -2.633   5.996  -3.673  0.00  0.00    -0.047 A 
ATOM      5  C3  UNL d   1      -3.495   5.992  -2.551  0.00  0.00    -0.047 A 
ATOM      6  C4  UNL d   1      -4.789   5.990  -3.027  0.00  0.00    -0.004 A 
ENDROOT
TORSDOF 0
ENDMDL
