MODEL 1
REMARK minimizedAffinity 0.944586158
REMARK minimizedRMSD -1
REMARK  0 active torsions:
REMARK  status: ('A' for Active; 'I' for Inactive)
ROOT
ATOM      1  C   UNL d   1       2.632   5.925  -5.307  0.00  0.00     0.172 C 
ATOM      2  N   UNL d   1       1.243   5.948  -4.915  0.00  0.00    -0.070 N 
ATOM      3  C1  UNL d   1       0.777   5.988  -3.628  0.00  0.00    -0.004 A 
ATOM      4  C2  UNL d   1      -0.600   6.000  -3.678  0.00  0.00    -0.047 A 
ATOM      5  C3  UNL d   1      -0.975   5.965  -5.043  0.00  0.00    -0.047 A 
ATOM      6  C4  UNL d   1       0.186   5.933  -5.786  0.00  0.00    -0.004 A 
ENDROOT
TORSDOF 0
ENDMDL
