MODEL 1
REMARK minimizedAffinity 1.07398438
REMARK minimizedRMSD -1
REMARK  0 active torsions:
REMARK  status: ('A' for Active; 'I' for Inactive)
ROOT
ATOM      1  C   UNL d   1       2.383   5.887  -4.363  0.00  0.00     0.172 C 
ATOM      2  N   UNL d   1       3.786   5.933  -4.703  0.00  0.00    -0.070 N 
ATOM      3  C1  UNL d   1       4.824   5.959  -3.811  0.00  0.00    -0.004 A 
ATOM      4  C2  UNL d   1       5.999   5.999  -4.530  0.00  0.00    -0.047 A 
ATOM      5  C3  UNL d   1       5.655   5.999  -5.903  0.00  0.00    -0.047 A 
ATOM      6  C4  UNL d   1       4.279   5.957  -5.982  0.00  0.00    -0.004 A 
ENDROOT
TORSDOF 0
ENDMDL
