MODEL 1
REMARK minimizedAffinity -2.7606895
REMARK minimizedRMSD -1
REMARK  0 active torsions:
REMARK  status: ('A' for Active; 'I' for Inactive)
ROOT
ATOM      1  C   UNL d   1       2.976   1.188   1.578  0.00  0.00     0.172 C 
ATOM      2  N   UNL d   1       1.536   1.085   1.563  0.00  0.00    -0.070 N 
ATOM      3  C1  UNL d   1       0.742   1.163   0.450  0.00  0.00    -0.004 A 
ATOM      4  C2  UNL d   1      -0.567   1.018   0.855  0.00  0.00    -0.047 A 
ATOM      5  C3  UNL d   1      -0.560   0.849   2.260  0.00  0.00    -0.047 A 
ATOM      6  C4  UNL d   1       0.755   0.895   2.672  0.00  0.00    -0.004 A 
ENDROOT
TORSDOF 0
ENDMDL
