MODEL 1
REMARK minimizedAffinity -0.330507994
REMARK minimizedRMSD -1
REMARK  0 active torsions:
REMARK  status: ('A' for Active; 'I' for Inactive)
ROOT
ATOM      1  C   UNL d   1      -0.731   5.976  -5.571  0.00  0.00     0.172 C 
ATOM      2  N   UNL d   1      -1.573   5.985  -4.398  0.00  0.00    -0.070 N 
ATOM      3  C1  UNL d   1      -1.135   5.990  -3.101  0.00  0.00    -0.004 A 
ATOM      4  C2  UNL d   1      -2.244   6.000  -2.282  0.00  0.00    -0.047 A 
ATOM      5  C3  UNL d   1      -3.387   6.000  -3.116  0.00  0.00    -0.047 A 
ATOM      6  C4  UNL d   1      -2.943   5.991  -4.421  0.00  0.00    -0.004 A 
ENDROOT
TORSDOF 0
ENDMDL
