MODEL 1
REMARK minimizedAffinity -2.34709692
REMARK minimizedRMSD -1
REMARK  0 active torsions:
REMARK  status: ('A' for Active; 'I' for Inactive)
ROOT
ATOM      1  C   UNL d   1      -3.476   6.000  -2.585  0.00  0.00     0.172 C 
ATOM      2  N   UNL d   1      -2.302   5.999  -3.426  0.00  0.00    -0.070 N 
ATOM      3  C1  UNL d   1      -1.005   6.000  -2.986  0.00  0.00    -0.004 A 
ATOM      4  C2  UNL d   1      -0.184   5.998  -4.093  0.00  0.00    -0.047 A 
ATOM      5  C3  UNL d   1      -1.016   5.997  -5.237  0.00  0.00    -0.047 A 
ATOM      6  C4  UNL d   1      -2.322   5.998  -4.795  0.00  0.00    -0.004 A 
ENDROOT
TORSDOF 0
ENDMDL
