MODEL 1
REMARK minimizedAffinity -2.15740204
REMARK minimizedRMSD -1
REMARK  0 active torsions:
REMARK  status: ('A' for Active; 'I' for Inactive)
ROOT
ATOM      1  C   UNL d   1       1.421   5.986  -5.330  0.00  0.00     0.172 C 
ATOM      2  N   UNL d   1       0.150   5.991  -4.644  0.00  0.00    -0.070 N 
ATOM      3  C1  UNL d   1      -1.081   5.992  -5.245  0.00  0.00    -0.004 A 
ATOM      4  C2  UNL d   1      -2.035   5.997  -4.251  0.00  0.00    -0.047 A 
ATOM      5  C3  UNL d   1      -1.355   5.999  -3.010  0.00  0.00    -0.047 A 
ATOM      6  C4  UNL d   1      -0.003   5.995  -3.283  0.00  0.00    -0.004 A 
ENDROOT
TORSDOF 0
ENDMDL
