MODEL 1
REMARK minimizedAffinity 1.49669671
REMARK minimizedRMSD -1
REMARK  0 active torsions:
REMARK  status: ('A' for Active; 'I' for Inactive)
ROOT
ATOM      1  C   UNL d   1      -0.729   5.977  -4.431  0.00  0.00     0.172 C 
ATOM      2  N   UNL d   1      -1.557   5.986  -3.248  0.00  0.00    -0.070 N 
ATOM      3  C1  UNL d   1      -1.103   5.991  -1.956  0.00  0.00    -0.004 A 
ATOM      4  C2  UNL d   1      -2.201   6.000  -1.123  0.00  0.00    -0.047 A 
ATOM      5  C3  UNL d   1      -3.355   5.999  -1.943  0.00  0.00    -0.047 A 
ATOM      6  C4  UNL d   1      -2.927   5.990  -3.254  0.00  0.00    -0.004 A 
ENDROOT
TORSDOF 0
ENDMDL
