MODEL 1
REMARK minimizedAffinity 1.34948277
REMARK minimizedRMSD -1
REMARK  0 active torsions:
REMARK  status: ('A' for Active; 'I' for Inactive)
ROOT
ATOM      1  C   UNL d   1      -2.366  -1.229  -4.278  0.00  0.00     0.172 C 
ATOM      2  N   UNL d   1      -2.987  -1.448  -2.993  0.00  0.00    -0.070 N 
ATOM      3  C1  UNL d   1      -4.036  -2.293  -2.748  0.00  0.00    -0.004 A 
ATOM      4  C2  UNL d   1      -4.332  -2.218  -1.404  0.00  0.00    -0.047 A 
ATOM      5  C3  UNL d   1      -3.431  -1.296  -0.822  0.00  0.00    -0.047 A 
ATOM      6  C4  UNL d   1      -2.609  -0.834  -1.829  0.00  0.00    -0.004 A 
ENDROOT
TORSDOF 0
ENDMDL
