MODEL 1
REMARK minimizedAffinity -2.27451921
REMARK minimizedRMSD -1
REMARK  0 active torsions:
REMARK  status: ('A' for Active; 'I' for Inactive)
ROOT
ATOM      1  C   UNL d   1       1.814   6.000  -4.056  0.00  0.00     0.172 C 
ATOM      2  N   UNL d   1       3.168   5.985  -4.558  0.00  0.00    -0.070 N 
ATOM      3  C1  UNL d   1       3.530   5.997  -5.878  0.00  0.00    -0.004 A 
ATOM      4  C2  UNL d   1       4.906   5.976  -5.939  0.00  0.00    -0.047 A 
ATOM      5  C3  UNL d   1       5.388   5.949  -4.608  0.00  0.00    -0.047 A 
ATOM      6  C4  UNL d   1       4.291   5.955  -3.774  0.00  0.00    -0.004 A 
ENDROOT
TORSDOF 0
ENDMDL
