MODEL 1
REMARK minimizedAffinity 4.71888065
REMARK minimizedRMSD -1
REMARK  2 active torsions:
REMARK  status: ('A' for Active; 'I' for Inactive)
REMARK    1  A    between atoms: C2'_3  and  C1'_4 
REMARK    2  A    between atoms: C1'_4  and  C1_5 
ROOT
ATOM      1  C1  I4B d   1      -0.120  -0.744   2.919  0.00  0.00    -0.075 A 
ATOM      2  C2  I4B d   1      -0.034  -0.754   1.549  0.00  0.00     0.003 A 
ATOM      3  C3  I4B d   1       1.191  -0.445   0.909  0.00  0.00     0.002 A 
ATOM      4  C4  I4B d   1       2.284  -0.086   1.671  0.00  0.00    -0.004 A 
ATOM      5  C5  I4B d   1       2.201  -0.100   3.061  0.00  0.00     0.002 A 
ATOM      6  C6  I4B d   1       0.996  -0.443   3.689  0.00  0.00     0.003 A 
ENDROOT
BRANCH   1   7
ATOM      7  C1' I4B d   1      -1.438  -1.043   3.561  0.00  0.00     0.060 C 
BRANCH   7   8
ATOM      8  C2' I4B d   1      -1.203  -2.063   4.656  0.00  0.00    -0.013 C 
ATOM      9  C4' I4B d   1      -1.629  -1.528   5.999  0.00  0.00     0.013 C 
ATOM     10  C3' I4B d   1      -1.963  -3.306   4.302  0.00  0.00     0.013 C 
ENDBRANCH   7   8
ENDBRANCH   1   7
TORSDOF 2
ENDMDL
