MODEL 1
REMARK minimizedAffinity 8.21532154
REMARK minimizedRMSD -1
REMARK  2 active torsions:
REMARK  status: ('A' for Active; 'I' for Inactive)
REMARK    1  A    between atoms: C2'_3  and  C1'_4 
REMARK    2  A    between atoms: C1'_4  and  C1_5 
ROOT
ATOM      1  C1  I4B d   1       0.886  -0.727   2.807  0.00  0.00    -0.075 A 
ATOM      2  C2  I4B d   1       0.511  -0.399   1.528  0.00  0.00     0.003 A 
ATOM      3  C3  I4B d   1      -0.778  -0.740   1.054  0.00  0.00     0.002 A 
ATOM      4  C4  I4B d   1      -1.637  -1.449   1.870  0.00  0.00    -0.004 A 
ATOM      5  C5  I4B d   1      -1.263  -1.760   3.174  0.00  0.00     0.002 A 
ATOM      6  C6  I4B d   1       0.002  -1.386   3.650  0.00  0.00     0.003 A 
ENDROOT
BRANCH   1   7
ATOM      7  C1' I4B d   1       2.268  -0.380   3.264  0.00  0.00     0.060 C 
BRANCH   7   8
ATOM      8  C2' I4B d   1       3.122  -0.149   2.035  0.00  0.00    -0.013 C 
ATOM      9  C4' I4B d   1       3.422   1.315   1.846  0.00  0.00     0.013 C 
ATOM     10  C3' I4B d   1       4.384  -0.945   2.192  0.00  0.00     0.013 C 
ENDBRANCH   7   8
ENDBRANCH   1   7
TORSDOF 2
ENDMDL
