MODEL 1
REMARK minimizedAffinity 13.8624277
REMARK minimizedRMSD -1
REMARK  2 active torsions:
REMARK  status: ('A' for Active; 'I' for Inactive)
REMARK    1  A    between atoms: C2'_3  and  C1'_4 
REMARK    2  A    between atoms: C1'_4  and  C1_5 
ROOT
ATOM      1  C1  I4B d   1      -1.858   4.636  -3.375  0.00  0.00    -0.075 A 
ATOM      2  C2  I4B d   1      -0.522   4.328  -3.427  0.00  0.00     0.003 A 
ATOM      3  C3  I4B d   1      -0.101   3.047  -3.859  0.00  0.00     0.002 A 
ATOM      4  C4  I4B d   1      -1.047   2.094  -4.179  0.00  0.00    -0.004 A 
ATOM      5  C5  I4B d   1      -2.401   2.415  -4.148  0.00  0.00     0.002 A 
ATOM      6  C6  I4B d   1      -2.809   3.698  -3.755  0.00  0.00     0.003 A 
ENDROOT
BRANCH   1   7
ATOM      7  C1' I4B d   1      -2.268   5.988  -2.883  0.00  0.00     0.060 C 
BRANCH   7   8
ATOM      8  C2' I4B d   1      -2.121   6.000  -1.375  0.00  0.00    -0.013 C 
ATOM      9  C4' I4B d   1      -3.464   5.941  -0.696  0.00  0.00     0.013 C 
ATOM     10  C3' I4B d   1      -1.265   4.832  -0.984  0.00  0.00     0.013 C 
ENDBRANCH   7   8
ENDBRANCH   1   7
TORSDOF 2
ENDMDL
