MODEL 1
REMARK minimizedAffinity 16.5518532
REMARK minimizedRMSD -1
REMARK  2 active torsions:
REMARK  status: ('A' for Active; 'I' for Inactive)
REMARK    1  A    between atoms: C2'_3  and  C1'_4 
REMARK    2  A    between atoms: C1'_4  and  C1_5 
ROOT
ATOM      1  C1  I4B d   1      -1.012  -1.428   3.757  0.00  0.00    -0.075 A 
ATOM      2  C2  I4B d   1      -0.253  -1.153   4.867  0.00  0.00     0.003 A 
ATOM      3  C3  I4B d   1      -0.314  -2.000   6.000  0.00  0.00     0.002 A 
ATOM      4  C4  I4B d   1      -1.181  -3.074   5.999  0.00  0.00    -0.004 A 
ATOM      5  C5  I4B d   1      -1.932  -3.364   4.864  0.00  0.00     0.002 A 
ATOM      6  C6  I4B d   1      -1.839  -2.543   3.731  0.00  0.00     0.003 A 
ENDROOT
BRANCH   1   7
ATOM      7  C1' I4B d   1      -0.947  -0.494   2.590  0.00  0.00     0.060 C 
BRANCH   7   8
ATOM      8  C2' I4B d   1       0.003  -1.088   1.569  0.00  0.00    -0.013 C 
ATOM      9  C4' I4B d   1      -0.748  -1.680   0.406  0.00  0.00     0.013 C 
ATOM     10  C3' I4B d   1       0.934  -0.003   1.117  0.00  0.00     0.013 C 
ENDBRANCH   7   8
ENDBRANCH   1   7
TORSDOF 2
ENDMDL
