MODEL 1
REMARK minimizedAffinity 5.76405573
REMARK minimizedRMSD -1
REMARK  2 active torsions:
REMARK  status: ('A' for Active; 'I' for Inactive)
REMARK    1  A    between atoms: C2'_3  and  C1'_4 
REMARK    2  A    between atoms: C1'_4  and  C1_5 
ROOT
ATOM      1  C1  I4B d   1       1.464  -0.837   1.251  0.00  0.00    -0.075 A 
ATOM      2  C2  I4B d   1       0.481   0.119   1.324  0.00  0.00     0.003 A 
ATOM      3  C3  I4B d   1      -0.869  -0.259   1.520  0.00  0.00     0.002 A 
ATOM      4  C4  I4B d   1      -1.196  -1.598   1.588  0.00  0.00    -0.004 A 
ATOM      5  C5  I4B d   1      -0.196  -2.565   1.537  0.00  0.00     0.002 A 
ATOM      6  C6  I4B d   1       1.144  -2.182   1.380  0.00  0.00     0.003 A 
ENDROOT
BRANCH   1   7
ATOM      7  C1' I4B d   1       2.875  -0.404   1.010  0.00  0.00     0.060 C 
BRANCH   7   8
ATOM      8  C2' I4B d   1       3.704  -0.825   2.206  0.00  0.00    -0.013 C 
ATOM      9  C4' I4B d   1       5.175  -0.650   1.939  0.00  0.00     0.013 C 
ATOM     10  C3' I4B d   1       3.266  -0.006   3.384  0.00  0.00     0.013 C 
ENDBRANCH   7   8
ENDBRANCH   1   7
TORSDOF 2
ENDMDL
