MODEL 1
REMARK minimizedAffinity 11.3689737
REMARK minimizedRMSD -1
REMARK  2 active torsions:
REMARK  status: ('A' for Active; 'I' for Inactive)
REMARK    1  A    between atoms: C2'_3  and  C1'_4 
REMARK    2  A    between atoms: C1'_4  and  C1_5 
ROOT
ATOM      1  C1  I4B d   1      -0.529  -1.098   2.218  0.00  0.00    -0.075 A 
ATOM      2  C2  I4B d   1       0.295  -0.000   2.180  0.00  0.00     0.003 A 
ATOM      3  C3  I4B d   1       1.335   0.077   1.222  0.00  0.00     0.002 A 
ATOM      4  C4  I4B d   1       1.546  -0.981   0.361  0.00  0.00    -0.004 A 
ATOM      5  C5  I4B d   1       0.695  -2.082   0.386  0.00  0.00     0.002 A 
ATOM      6  C6  I4B d   1      -0.357  -2.136   1.312  0.00  0.00     0.003 A 
ENDROOT
BRANCH   1   7
ATOM      7  C1' I4B d   1      -1.596  -1.161   3.264  0.00  0.00     0.060 C 
BRANCH   7   8
ATOM      8  C2' I4B d   1      -1.100  -2.053   4.384  0.00  0.00    -0.013 C 
ATOM      9  C4' I4B d   1      -1.087  -1.321   5.700  0.00  0.00     0.013 C 
ATOM     10  C3' I4B d   1      -1.990  -3.259   4.444  0.00  0.00     0.013 C 
ENDBRANCH   7   8
ENDBRANCH   1   7
TORSDOF 2
ENDMDL
