MODEL 1
REMARK minimizedAffinity 7.02844763
REMARK minimizedRMSD -1
REMARK  2 active torsions:
REMARK  status: ('A' for Active; 'I' for Inactive)
REMARK    1  A    between atoms: C2'_3  and  C1'_4 
REMARK    2  A    between atoms: C1'_4  and  C1_5 
ROOT
ATOM      1  C1  I4B d   1       0.631  -0.941   1.162  0.00  0.00    -0.075 A 
ATOM      2  C2  I4B d   1      -0.216  -1.742   0.437  0.00  0.00     0.003 A 
ATOM      3  C3  I4B d   1      -1.372  -2.291   1.043  0.00  0.00     0.002 A 
ATOM      4  C4  I4B d   1      -1.614  -2.057   2.381  0.00  0.00    -0.004 A 
ATOM      5  C5  I4B d   1      -0.767  -1.226   3.109  0.00  0.00     0.002 A 
ATOM      6  C6  I4B d   1       0.356  -0.655   2.493  0.00  0.00     0.003 A 
ENDROOT
BRANCH   1   7
ATOM      7  C1' I4B d   1       1.859  -0.405   0.499  0.00  0.00     0.060 C 
BRANCH   7   8
ATOM      8  C2' I4B d   1       2.706   0.269   1.560  0.00  0.00    -0.013 C 
ATOM      9  C4' I4B d   1       3.928  -0.550   1.884  0.00  0.00     0.013 C 
ATOM     10  C3' I4B d   1       3.084   1.629   1.056  0.00  0.00     0.013 C 
ENDBRANCH   7   8
ENDBRANCH   1   7
TORSDOF 2
ENDMDL
