MODEL 1
REMARK minimizedAffinity 11.4476166
REMARK minimizedRMSD -1
REMARK  2 active torsions:
REMARK  status: ('A' for Active; 'I' for Inactive)
REMARK    1  A    between atoms: C2'_3  and  C1'_4 
REMARK    2  A    between atoms: C1'_4  and  C1_5 
ROOT
ATOM      1  C1  I4B d   1       1.055  -0.824   0.778  0.00  0.00    -0.075 A 
ATOM      2  C2  I4B d   1       0.566  -0.111   1.844  0.00  0.00     0.003 A 
ATOM      3  C3  I4B d   1      -0.667  -0.473   2.439  0.00  0.00     0.002 A 
ATOM      4  C4  I4B d   1      -1.397  -1.516   1.908  0.00  0.00    -0.004 A 
ATOM      5  C5  I4B d   1      -0.889  -2.253   0.842  0.00  0.00     0.002 A 
ATOM      6  C6  I4B d   1       0.351  -1.913   0.281  0.00  0.00     0.003 A 
ENDROOT
BRANCH   1   7
ATOM      7  C1' I4B d   1       2.344  -0.394   0.153  0.00  0.00     0.060 C 
BRANCH   7   8
ATOM      8  C2' I4B d   1       2.016   0.381  -1.107  0.00  0.00    -0.013 C 
ATOM      9  C4' I4B d   1       2.087   1.866  -0.868  0.00  0.00     0.013 C 
ATOM     10  C3' I4B d   1       2.981  -0.042  -2.175  0.00  0.00     0.013 C 
ENDBRANCH   7   8
ENDBRANCH   1   7
TORSDOF 2
ENDMDL
