MODEL 1
REMARK minimizedAffinity 12.8228168
REMARK minimizedRMSD -1
REMARK  2 active torsions:
REMARK  status: ('A' for Active; 'I' for Inactive)
REMARK    1  A    between atoms: C2'_3  and  C1'_4 
REMARK    2  A    between atoms: C1'_4  and  C1_5 
ROOT
ATOM      1  C1  I4B d   1       2.651   1.273  -0.783  0.00  0.00    -0.075 A 
ATOM      2  C2  I4B d   1       2.508  -0.091  -0.738  0.00  0.00     0.003 A 
ATOM      3  C3  I4B d   1       3.421  -0.927  -1.424  0.00  0.00     0.002 A 
ATOM      4  C4  I4B d   1       4.427  -0.359  -2.180  0.00  0.00    -0.004 A 
ATOM      5  C5  I4B d   1       4.585   1.023  -2.205  0.00  0.00     0.002 A 
ATOM      6  C6  I4B d   1       3.699   1.845  -1.493  0.00  0.00     0.003 A 
ENDROOT
BRANCH   1   7
ATOM      7  C1' I4B d   1       1.649   2.127  -0.074  0.00  0.00     0.060 C 
BRANCH   7   8
ATOM      8  C2' I4B d   1       1.376   3.342  -0.938  0.00  0.00    -0.013 C 
ATOM      9  C4' I4B d   1       0.673   2.956  -2.213  0.00  0.00     0.013 C 
ATOM     10  C3' I4B d   1       0.552   4.304  -0.136  0.00  0.00     0.013 C 
ENDBRANCH   7   8
ENDBRANCH   1   7
TORSDOF 2
ENDMDL
