MODEL 1
REMARK minimizedAffinity 19.8163013
REMARK minimizedRMSD -1
REMARK  2 active torsions:
REMARK  status: ('A' for Active; 'I' for Inactive)
REMARK    1  A    between atoms: C2'_3  and  C1'_4 
REMARK    2  A    between atoms: C1'_4  and  C1_5 
ROOT
ATOM      1  C1  I4B d   1       0.683   2.685  -3.602  0.00  0.00    -0.075 A 
ATOM      2  C2  I4B d   1       0.210   1.676  -4.403  0.00  0.00     0.003 A 
ATOM      3  C3  I4B d   1      -1.054   1.796  -5.030  0.00  0.00     0.002 A 
ATOM      4  C4  I4B d   1      -1.828   2.913  -4.790  0.00  0.00    -0.004 A 
ATOM      5  C5  I4B d   1      -1.337   3.946  -3.996  0.00  0.00     0.002 A 
ATOM      6  C6  I4B d   1      -0.069   3.837  -3.408  0.00  0.00     0.003 A 
ENDROOT
BRANCH   1   7
ATOM      7  C1' I4B d   1       2.007   2.511  -2.929  0.00  0.00     0.060 C 
BRANCH   7   8
ATOM      8  C2' I4B d   1       1.806   1.605  -1.730  0.00  0.00    -0.013 C 
ATOM      9  C4' I4B d   1       2.460   0.265  -1.944  0.00  0.00     0.013 C 
ATOM     10  C3' I4B d   1       2.372   2.298  -0.527  0.00  0.00     0.013 C 
ENDBRANCH   7   8
ENDBRANCH   1   7
TORSDOF 2
ENDMDL
