MODEL 1
REMARK minimizedAffinity 6.8403573
REMARK minimizedRMSD -1
REMARK  2 active torsions:
REMARK  status: ('A' for Active; 'I' for Inactive)
REMARK    1  A    between atoms: C2'_3  and  C1'_4 
REMARK    2  A    between atoms: C1'_4  and  C1_5 
ROOT
ATOM      1  C1  I4B d   1       2.856  -0.779  -1.281  0.00  0.00    -0.075 A 
ATOM      2  C2  I4B d   1       3.993  -0.604  -2.030  0.00  0.00     0.003 A 
ATOM      3  C3  I4B d   1       4.540   0.691  -2.202  0.00  0.00     0.002 A 
ATOM      4  C4  I4B d   1       3.894   1.780  -1.654  0.00  0.00    -0.004 A 
ATOM      5  C5  I4B d   1       2.754   1.597  -0.876  0.00  0.00     0.002 A 
ATOM      6  C6  I4B d   1       2.238   0.309  -0.678  0.00  0.00     0.003 A 
ENDROOT
BRANCH   1   7
ATOM      7  C1' I4B d   1       2.286  -2.156  -1.148  0.00  0.00     0.060 C 
BRANCH   7   8
ATOM      8  C2' I4B d   1       0.993  -2.205  -1.936  0.00  0.00    -0.013 C 
ATOM      9  C4' I4B d   1       1.165  -2.980  -3.216  0.00  0.00     0.013 C 
ATOM     10  C3' I4B d   1      -0.057  -2.826  -1.064  0.00  0.00     0.013 C 
ENDBRANCH   7   8
ENDBRANCH   1   7
TORSDOF 2
ENDMDL
