MODEL 1
REMARK minimizedAffinity 17.5083771
REMARK minimizedRMSD -1
REMARK  2 active torsions:
REMARK  status: ('A' for Active; 'I' for Inactive)
REMARK    1  A    between atoms: C2'_3  and  C1'_4 
REMARK    2  A    between atoms: C1'_4  and  C1_5 
ROOT
ATOM      1  C1  I4B d   1      -2.621  -2.945  -0.653  0.00  0.00    -0.075 A 
ATOM      2  C2  I4B d   1      -1.319  -2.573  -0.428  0.00  0.00     0.003 A 
ATOM      3  C3  I4B d   1      -0.980  -1.823   0.724  0.00  0.00     0.002 A 
ATOM      4  C4  I4B d   1      -1.975  -1.425   1.593  0.00  0.00    -0.004 A 
ATOM      5  C5  I4B d   1      -3.291  -1.822   1.376  0.00  0.00     0.002 A 
ATOM      6  C6  I4B d   1      -3.615  -2.597   0.253  0.00  0.00     0.003 A 
ENDROOT
BRANCH   1   7
ATOM      7  C1' I4B d   1      -2.949  -3.708  -1.896  0.00  0.00     0.060 C 
BRANCH   7   8
ATOM      8  C2' I4B d   1      -2.599  -5.163  -1.657  0.00  0.00    -0.013 C 
ATOM      9  C4' I4B d   1      -3.838  -5.997  -1.466  0.00  0.00     0.013 C 
ATOM     10  C3' I4B d   1      -1.796  -5.645  -2.828  0.00  0.00     0.013 C 
ENDBRANCH   7   8
ENDBRANCH   1   7
TORSDOF 2
ENDMDL
