MODEL 1
REMARK minimizedAffinity 10.1246185
REMARK minimizedRMSD -1
REMARK  2 active torsions:
REMARK  status: ('A' for Active; 'I' for Inactive)
REMARK    1  A    between atoms: C2'_3  and  C1'_4 
REMARK    2  A    between atoms: C1'_4  and  C1_5 
ROOT
ATOM      1  C1  I4B d   1       0.754  -0.139   1.965  0.00  0.00    -0.075 A 
ATOM      2  C2  I4B d   1       1.366  -0.179   3.193  0.00  0.00     0.003 A 
ATOM      3  C3  I4B d   1       2.776  -0.273   3.284  0.00  0.00     0.002 A 
ATOM      4  C4  I4B d   1       3.526  -0.374   2.131  0.00  0.00    -0.004 A 
ATOM      5  C5  I4B d   1       2.906  -0.310   0.886  0.00  0.00     0.002 A 
ATOM      6  C6  I4B d   1       1.512  -0.179   0.802  0.00  0.00     0.003 A 
ENDROOT
BRANCH   1   7
ATOM      7  C1' I4B d   1      -0.739  -0.073   1.906  0.00  0.00     0.060 C 
BRANCH   7   8
ATOM      8  C2' I4B d   1      -1.256  -1.464   1.598  0.00  0.00    -0.013 C 
ATOM      9  C4' I4B d   1      -0.414  -2.138   0.546  0.00  0.00     0.013 C 
ATOM     10  C3' I4B d   1      -1.259  -2.250   2.875  0.00  0.00     0.013 C 
ENDBRANCH   7   8
ENDBRANCH   1   7
TORSDOF 2
ENDMDL
