MODEL 1
REMARK minimizedAffinity 3.28897238
REMARK minimizedRMSD -1
REMARK  2 active torsions:
REMARK  status: ('A' for Active; 'I' for Inactive)
REMARK    1  A    between atoms: C2'_3  and  C1'_4 
REMARK    2  A    between atoms: C1'_4  and  C1_5 
ROOT
ATOM      1  C1  I4B d   1      -2.111   3.330  -3.266  0.00  0.00    -0.075 A 
ATOM      2  C2  I4B d   1      -2.514   4.457  -2.592  0.00  0.00     0.003 A 
ATOM      3  C3  I4B d   1      -1.553   5.373  -2.098  0.00  0.00     0.002 A 
ATOM      4  C4  I4B d   1      -0.210   5.099  -2.255  0.00  0.00    -0.004 A 
ATOM      5  C5  I4B d   1       0.195   3.969  -2.958  0.00  0.00     0.002 A 
ATOM      6  C6  I4B d   1      -0.761   3.084  -3.477  0.00  0.00     0.003 A 
ENDROOT
BRANCH   1   7
ATOM      7  C1' I4B d   1      -3.151   2.367  -3.745  0.00  0.00     0.060 C 
BRANCH   7   8
ATOM      8  C2' I4B d   1      -4.511   2.943  -3.407  0.00  0.00    -0.013 C 
ATOM      9  C4' I4B d   1      -5.420   2.936  -4.608  0.00  0.00     0.013 C 
ATOM     10  C3' I4B d   1      -5.091   2.134  -2.285  0.00  0.00     0.013 C 
ENDBRANCH   7   8
ENDBRANCH   1   7
TORSDOF 2
ENDMDL
