MODEL 1
REMARK minimizedAffinity 2.4982481
REMARK minimizedRMSD -1
REMARK  0 active torsions:
REMARK  status: ('A' for Active; 'I' for Inactive)
ROOT
ATOM      1  C   UNL d   1       5.344   2.547  -1.359  0.00  0.00     0.172 C 
ATOM      2  N   UNL d   1       4.343   1.507  -1.320  0.00  0.00    -0.070 N 
ATOM      3  C1  UNL d   1       4.295   0.413  -2.142  0.00  0.00    -0.004 A 
ATOM      4  C2  UNL d   1       3.194  -0.334  -1.786  0.00  0.00    -0.047 A 
ATOM      5  C3  UNL d   1       2.556   0.334  -0.714  0.00  0.00    -0.047 A 
ATOM      6  C4  UNL d   1       3.289   1.471  -0.446  0.00  0.00    -0.004 A 
ENDROOT
TORSDOF 0
ENDMDL
