MODEL 1
REMARK minimizedAffinity 3.87518454
REMARK minimizedRMSD -1
REMARK  0 active torsions:
REMARK  status: ('A' for Active; 'I' for Inactive)
ROOT
ATOM      1  C   UNL d   1       1.471   2.987   4.266  0.00  0.00     0.172 C 
ATOM      2  N   UNL d   1       2.760   3.472   4.701  0.00  0.00    -0.070 N 
ATOM      3  C1  UNL d   1       3.106   3.771   5.992  0.00  0.00    -0.004 A 
ATOM      4  C2  UNL d   1       4.416   4.199   5.990  0.00  0.00    -0.047 A 
ATOM      5  C3  UNL d   1       4.873   4.156   4.651  0.00  0.00    -0.047 A 
ATOM      6  C4  UNL d   1       3.828   3.703   3.875  0.00  0.00    -0.004 A 
ENDROOT
TORSDOF 0
ENDMDL
