MODEL 1
REMARK minimizedAffinity 7.46113825
REMARK minimizedRMSD -1
REMARK  0 active torsions:
REMARK  status: ('A' for Active; 'I' for Inactive)
ROOT
ATOM      1  C   UNL d   1       2.392  -0.052  -1.115  0.00  0.00     0.172 C 
ATOM      2  N   UNL d   1       3.555   0.802  -1.170  0.00  0.00    -0.070 N 
ATOM      3  C1  UNL d   1       4.082   1.361  -2.304  0.00  0.00    -0.004 A 
ATOM      4  C2  UNL d   1       5.183   2.104  -1.936  0.00  0.00    -0.047 A 
ATOM      5  C3  UNL d   1       5.323   1.986  -0.533  0.00  0.00    -0.047 A 
ATOM      6  C4  UNL d   1       4.303   1.174  -0.084  0.00  0.00    -0.004 A 
ENDROOT
TORSDOF 0
ENDMDL
