MODEL 1
REMARK minimizedAffinity 2.4986217
REMARK minimizedRMSD -1
REMARK  0 active torsions:
REMARK  status: ('A' for Active; 'I' for Inactive)
ROOT
ATOM      1  C   UNL d   1       5.398   2.044  -2.024  0.00  0.00     0.172 C 
ATOM      2  N   UNL d   1       4.362   1.082  -1.730  0.00  0.00    -0.070 N 
ATOM      3  C1  UNL d   1       3.763   0.251  -2.638  0.00  0.00    -0.004 A 
ATOM      4  C2  UNL d   1       2.832  -0.510  -1.964  0.00  0.00    -0.047 A 
ATOM      5  C3  UNL d   1       2.872  -0.121  -0.604  0.00  0.00    -0.047 A 
ATOM      6  C4  UNL d   1       3.828   0.866  -0.487  0.00  0.00    -0.004 A 
ENDROOT
TORSDOF 0
ENDMDL
