MODEL 1
REMARK minimizedAffinity -3.46249056
REMARK minimizedRMSD -1
REMARK  0 active torsions:
REMARK  status: ('A' for Active; 'I' for Inactive)
ROOT
ATOM      1  C   UNL d   1       0.944   3.689   5.342  0.00  0.00     0.172 C 
ATOM      2  N   UNL d   1       2.207   4.021   4.727  0.00  0.00    -0.070 N 
ATOM      3  C1  UNL d   1       3.288   4.567   5.367  0.00  0.00    -0.004 A 
ATOM      4  C2  UNL d   1       4.291   4.731   4.437  0.00  0.00    -0.047 A 
ATOM      5  C3  UNL d   1       3.797   4.269   3.194  0.00  0.00    -0.047 A 
ATOM      6  C4  UNL d   1       2.504   3.835   3.403  0.00  0.00    -0.004 A 
ENDROOT
TORSDOF 0
ENDMDL
