MODEL 1
REMARK minimizedAffinity 2.09944391
REMARK minimizedRMSD -1
REMARK  0 active torsions:
REMARK  status: ('A' for Active; 'I' for Inactive)
ROOT
ATOM      1  C   UNL d   1       1.461   0.458  -1.507  0.00  0.00     0.172 C 
ATOM      2  N   UNL d   1       0.107   0.923  -1.315  0.00  0.00    -0.070 N 
ATOM      3  C1  UNL d   1      -1.029   0.225  -1.627  0.00  0.00    -0.004 A 
ATOM      4  C2  UNL d   1      -2.112   1.010  -1.293  0.00  0.00    -0.047 A 
ATOM      5  C3  UNL d   1      -1.609   2.222  -0.763  0.00  0.00    -0.047 A 
ATOM      6  C4  UNL d   1      -0.233   2.141  -0.788  0.00  0.00    -0.004 A 
ENDROOT
TORSDOF 0
ENDMDL
