MODEL 1
REMARK minimizedAffinity 3.15699005
REMARK minimizedRMSD -1
REMARK  0 active torsions:
REMARK  status: ('A' for Active; 'I' for Inactive)
ROOT
ATOM      1  C   UNL d   1      -3.073   2.780  -0.267  0.00  0.00     0.172 C 
ATOM      2  N   UNL d   1      -1.733   2.279  -0.464  0.00  0.00    -0.070 N 
ATOM      3  C1  UNL d   1      -1.398   1.144  -1.153  0.00  0.00    -0.004 A 
ATOM      4  C2  UNL d   1      -0.027   1.014  -1.113  0.00  0.00    -0.047 A 
ATOM      5  C3  UNL d   1       0.481   2.110  -0.374  0.00  0.00    -0.047 A 
ATOM      6  C4  UNL d   1      -0.597   2.877   0.016  0.00  0.00    -0.004 A 
ENDROOT
TORSDOF 0
ENDMDL
