MODEL 1
REMARK minimizedAffinity -3.86602902
REMARK minimizedRMSD -1
REMARK  2 active torsions:
REMARK  status: ('A' for Active; 'I' for Inactive)
REMARK    1  A    between atoms: C1_2  and  C2_3 
REMARK    2  A    between atoms: C2_3  and  C3_4 
ROOT
ATOM      1  C3  UNL d   1      -0.497   0.417  -1.246  0.00  0.00    -0.075 A 
ATOM      2  C4  UNL d   1      -1.033   0.539   0.045  0.00  0.00     0.002 A 
ATOM      3  C5  UNL d   1      -0.379  -0.026   1.140  0.00  0.00     0.002 A 
ATOM      4  C6  UNL d   1       0.812  -0.726   0.958  0.00  0.00    -0.004 A 
ATOM      5  C7  UNL d   1       1.345  -0.868  -0.321  0.00  0.00     0.002 A 
ATOM      6  C8  UNL d   1       0.694  -0.300  -1.418  0.00  0.00     0.002 A 
ENDROOT
BRANCH   1   7
ATOM      7  C2  UNL d   1      -1.185   1.051  -2.431  0.00  0.00     0.056 C 
BRANCH   7   8
ATOM      8  C1  UNL d   1      -0.420   2.232  -3.038  0.00  0.00     0.007 C 
ATOM      9  C   UNL d   1      -0.633   3.537  -2.282  0.00  0.00     0.009 C 
ENDBRANCH   7   8
ENDBRANCH   1   7
TORSDOF 2
ENDMDL
