MODEL 1
REMARK minimizedAffinity -1.02324188
REMARK minimizedRMSD -1
REMARK  2 active torsions:
REMARK  status: ('A' for Active; 'I' for Inactive)
REMARK    1  A    between atoms: C1_2  and  C2_3 
REMARK    2  A    between atoms: C2_3  and  C3_4 
ROOT
ATOM      1  C3  UNL d   1      -0.769   1.458  -0.646  0.00  0.00    -0.075 A 
ATOM      2  C4  UNL d   1       0.492   1.568  -0.040  0.00  0.00     0.002 A 
ATOM      3  C5  UNL d   1       1.173   0.429   0.389  0.00  0.00     0.002 A 
ATOM      4  C6  UNL d   1       0.601  -0.831   0.229  0.00  0.00    -0.004 A 
ATOM      5  C7  UNL d   1      -0.658  -0.951  -0.356  0.00  0.00     0.002 A 
ATOM      6  C8  UNL d   1      -1.340   0.186  -0.791  0.00  0.00     0.002 A 
ENDROOT
BRANCH   1   7
ATOM      7  C2  UNL d   1      -1.498   2.684  -1.139  0.00  0.00     0.056 C 
BRANCH   7   8
ATOM      8  C1  UNL d   1      -1.636   2.756  -2.664  0.00  0.00     0.007 C 
ATOM      9  C   UNL d   1      -0.452   3.431  -3.342  0.00  0.00     0.009 C 
ENDBRANCH   7   8
ENDBRANCH   1   7
TORSDOF 2
ENDMDL
