MODEL 1
REMARK minimizedAffinity -5.38659763
REMARK minimizedRMSD -1
REMARK  2 active torsions:
REMARK  status: ('A' for Active; 'I' for Inactive)
REMARK    1  A    between atoms: C1_2  and  C2_3 
REMARK    2  A    between atoms: C2_3  and  C3_4 
ROOT
ATOM      1  C3  UNL d   1       0.818  -0.272   1.057  0.00  0.00    -0.075 A 
ATOM      2  C4  UNL d   1       1.773  -0.873   0.224  0.00  0.00     0.002 A 
ATOM      3  C5  UNL d   1       2.659  -1.823   0.733  0.00  0.00     0.002 A 
ATOM      4  C6  UNL d   1       2.608  -2.175   2.080  0.00  0.00    -0.004 A 
ATOM      5  C7  UNL d   1       1.674  -1.572   2.920  0.00  0.00     0.002 A 
ATOM      6  C8  UNL d   1       0.784  -0.625   2.412  0.00  0.00     0.002 A 
ENDROOT
BRANCH   1   7
ATOM      7  C2  UNL d   1      -0.163   0.735   0.505  0.00  0.00     0.056 C 
BRANCH   7   8
ATOM      8  C1  UNL d   1      -0.537   0.503  -0.963  0.00  0.00     0.007 C 
ATOM      9  C   UNL d   1      -0.562   1.784  -1.786  0.00  0.00     0.009 C 
ENDBRANCH   7   8
ENDBRANCH   1   7
TORSDOF 2
ENDMDL
