MODEL 1
REMARK minimizedAffinity -4.76525736
REMARK minimizedRMSD -1
REMARK  2 active torsions:
REMARK  status: ('A' for Active; 'I' for Inactive)
REMARK    1  A    between atoms: C1_2  and  C2_3 
REMARK    2  A    between atoms: C2_3  and  C3_4 
ROOT
ATOM      1  C3  UNL d   1      -0.356   0.157   0.056  0.00  0.00    -0.075 A 
ATOM      2  C4  UNL d   1      -1.301   0.224   1.091  0.00  0.00     0.002 A 
ATOM      3  C5  UNL d   1      -0.937  -0.083   2.402  0.00  0.00     0.002 A 
ATOM      4  C6  UNL d   1       0.369  -0.468   2.694  0.00  0.00    -0.004 A 
ATOM      5  C7  UNL d   1       1.312  -0.554   1.671  0.00  0.00     0.002 A 
ATOM      6  C8  UNL d   1       0.952  -0.244   0.359  0.00  0.00     0.002 A 
ENDROOT
BRANCH   1   7
ATOM      7  C2  UNL d   1      -0.736   0.516  -1.361  0.00  0.00     0.056 C 
BRANCH   7   8
ATOM      8  C1  UNL d   1      -0.197   1.873  -1.827  0.00  0.00     0.007 C 
ATOM      9  C   UNL d   1      -1.179   2.641  -2.701  0.00  0.00     0.009 C 
ENDBRANCH   7   8
ENDBRANCH   1   7
TORSDOF 2
ENDMDL
