MODEL 1
REMARK minimizedAffinity -1.88728607
REMARK minimizedRMSD -1
REMARK  2 active torsions:
REMARK  status: ('A' for Active; 'I' for Inactive)
REMARK    1  A    between atoms: C1_2  and  C2_3 
REMARK    2  A    between atoms: C2_3  and  C3_4 
ROOT
ATOM      1  C3  UNL d   1      -0.406   0.800  -0.967  0.00  0.00    -0.075 A 
ATOM      2  C4  UNL d   1       0.442  -0.312  -0.854  0.00  0.00     0.002 A 
ATOM      3  C5  UNL d   1       0.549  -1.000   0.355  0.00  0.00     0.002 A 
ATOM      4  C6  UNL d   1      -0.179  -0.581   1.466  0.00  0.00    -0.004 A 
ATOM      5  C7  UNL d   1      -1.012   0.532   1.369  0.00  0.00     0.002 A 
ATOM      6  C8  UNL d   1      -1.125   1.220   0.160  0.00  0.00     0.002 A 
ENDROOT
BRANCH   1   7
ATOM      7  C2  UNL d   1      -0.549   1.531  -2.280  0.00  0.00     0.056 C 
BRANCH   7   8
ATOM      8  C1  UNL d   1       0.033   2.949  -2.272  0.00  0.00     0.007 C 
ATOM      9  C   UNL d   1      -1.034   4.035  -2.246  0.00  0.00     0.009 C 
ENDBRANCH   7   8
ENDBRANCH   1   7
TORSDOF 2
ENDMDL
