MODEL 1
REMARK minimizedAffinity -3.5876708
REMARK minimizedRMSD -1
REMARK  2 active torsions:
REMARK  status: ('A' for Active; 'I' for Inactive)
REMARK    1  A    between atoms: C1_2  and  C2_3 
REMARK    2  A    between atoms: C2_3  and  C3_4 
ROOT
ATOM      1  C3  UNL d   1      -0.088  -0.166  -0.146  0.00  0.00    -0.075 A 
ATOM      2  C4  UNL d   1      -1.148   0.144   0.719  0.00  0.00     0.002 A 
ATOM      3  C5  UNL d   1      -1.165  -0.350   2.024  0.00  0.00     0.002 A 
ATOM      4  C6  UNL d   1      -0.131  -1.166   2.477  0.00  0.00    -0.004 A 
ATOM      5  C7  UNL d   1       0.919  -1.494   1.621  0.00  0.00     0.002 A 
ATOM      6  C8  UNL d   1       0.941  -0.998   0.316  0.00  0.00     0.002 A 
ENDROOT
BRANCH   1   7
ATOM      7  C2  UNL d   1      -0.049   0.389  -1.550  0.00  0.00     0.056 C 
BRANCH   7   8
ATOM      8  C1  UNL d   1      -1.011   1.558  -1.785  0.00  0.00     0.007 C 
ATOM      9  C   UNL d   1      -0.337   2.773  -2.410  0.00  0.00     0.009 C 
ENDBRANCH   7   8
ENDBRANCH   1   7
TORSDOF 2
ENDMDL
