MODEL 1
REMARK minimizedAffinity -5.09822702
REMARK minimizedRMSD -1
REMARK  1 active torsions:
REMARK  status: ('A' for Active; 'I' for Inactive)
REMARK    1  A    between atoms: C1_2  and  C2_3 
ROOT
ATOM      1  C2  UNL d   1      -0.687  -0.869   0.258  0.00  0.00    -0.073 A 
ATOM      2  C3  UNL d   1      -0.164  -1.509   1.386  0.00  0.00    -0.002 A 
ATOM      3  C4  UNL d   1      -0.982  -1.787   2.482  0.00  0.00     0.004 A 
ATOM      4  C5  UNL d   1      -2.331  -1.435   2.458  0.00  0.00    -0.004 A 
ATOM      5  C6  UNL d   1      -2.876  -0.805   1.334  0.00  0.00    -0.075 A 
ATOM      6  C7  UNL d   1      -4.325  -0.418   1.293  0.00  0.00     0.076 C 
ATOM      7  C8  UNL d   1      -2.047  -0.527   0.239  0.00  0.00     0.001 A 
ENDROOT
BRANCH   1   8
ATOM      8  C1  UNL d   1       0.191  -0.573  -0.931  0.00  0.00     0.053 C 
ATOM      9  C   UNL d   1       1.229  -1.660  -1.157  0.00  0.00     0.018 C 
ENDBRANCH   1   8
TORSDOF 1
ENDMDL
