MODEL 1
REMARK minimizedAffinity 0.2272861
REMARK minimizedRMSD -1
REMARK  1 active torsions:
REMARK  status: ('A' for Active; 'I' for Inactive)
REMARK    1  A    between atoms: C1_2  and  C2_3 
ROOT
ATOM      1  C2  UNL d   1      -0.868  -1.497   1.657  0.00  0.00    -0.073 A 
ATOM      2  C3  UNL d   1      -0.353  -0.675   0.648  0.00  0.00    -0.002 A 
ATOM      3  C4  UNL d   1      -1.208  -0.067  -0.272  0.00  0.00     0.004 A 
ATOM      4  C5  UNL d   1      -2.586  -0.270  -0.189  0.00  0.00    -0.004 A 
ATOM      5  C6  UNL d   1      -3.121  -1.078   0.819  0.00  0.00    -0.075 A 
ATOM      6  C7  UNL d   1      -4.600  -1.307   0.920  0.00  0.00     0.076 C 
ATOM      7  C8  UNL d   1      -2.255  -1.687   1.738  0.00  0.00     0.001 A 
ENDROOT
BRANCH   1   8
ATOM      8  C1  UNL d   1       0.052  -2.149   2.656  0.00  0.00     0.053 C 
ATOM      9  C   UNL d   1       0.875  -3.264   2.031  0.00  0.00     0.018 C 
ENDBRANCH   1   8
TORSDOF 1
ENDMDL
