MODEL 1
REMARK minimizedAffinity -0.474748582
REMARK minimizedRMSD -1
REMARK  1 active torsions:
REMARK  status: ('A' for Active; 'I' for Inactive)
REMARK    1  A    between atoms: C1_2  and  C2_3 
ROOT
ATOM      1  C2  UNL d   1       0.792  -2.230   1.511  0.00  0.00    -0.073 A 
ATOM      2  C3  UNL d   1       1.039  -1.745   0.221  0.00  0.00    -0.002 A 
ATOM      3  C4  UNL d   1       0.211  -0.769  -0.335  0.00  0.00     0.004 A 
ATOM      4  C5  UNL d   1      -0.866  -0.264   0.393  0.00  0.00    -0.004 A 
ATOM      5  C6  UNL d   1      -1.121  -0.727   1.688  0.00  0.00    -0.075 A 
ATOM      6  C7  UNL d   1      -2.277  -0.195   2.484  0.00  0.00     0.076 C 
ATOM      7  C8  UNL d   1      -0.287  -1.709   2.239  0.00  0.00     0.001 A 
ENDROOT
BRANCH   1   8
ATOM      8  C1  UNL d   1       1.687  -3.279   2.118  0.00  0.00     0.053 C 
ATOM      9  C   UNL d   1       2.275  -4.206   1.066  0.00  0.00     0.018 C 
ENDBRANCH   1   8
TORSDOF 1
ENDMDL
