MODEL 1
REMARK minimizedAffinity -1.41825438
REMARK minimizedRMSD -1
REMARK  1 active torsions:
REMARK  status: ('A' for Active; 'I' for Inactive)
REMARK    1  A    between atoms: C1_2  and  C2_3 
ROOT
ATOM      1  C2  UNL d   1      -0.509  -1.757   2.566  0.00  0.00    -0.073 A 
ATOM      2  C3  UNL d   1      -1.459  -2.472   3.304  0.00  0.00    -0.002 A 
ATOM      3  C4  UNL d   1      -1.251  -3.819   3.602  0.00  0.00     0.004 A 
ATOM      4  C5  UNL d   1      -0.090  -4.463   3.173  0.00  0.00    -0.004 A 
ATOM      5  C6  UNL d   1       0.876  -3.762   2.444  0.00  0.00    -0.075 A 
ATOM      6  C7  UNL d   1       2.129  -4.440   1.973  0.00  0.00     0.076 C 
ATOM      7  C8  UNL d   1       0.659  -2.410   2.147  0.00  0.00     0.001 A 
ENDROOT
BRANCH   1   8
ATOM      8  C1  UNL d   1      -0.726  -0.300   2.247  0.00  0.00     0.053 C 
ATOM      9  C   UNL d   1      -1.735  -0.106   1.127  0.00  0.00     0.018 C 
ENDBRANCH   1   8
TORSDOF 1
ENDMDL
