MODEL 1
REMARK minimizedAffinity -1.56007922
REMARK minimizedRMSD -1
REMARK  1 active torsions:
REMARK  status: ('A' for Active; 'I' for Inactive)
REMARK    1  A    between atoms: C1_2  and  C2_3 
ROOT
ATOM      1  C2  UNL d   1       0.607  -0.279  -0.977  0.00  0.00    -0.073 A 
ATOM      2  C3  UNL d   1      -0.626   0.201  -1.433  0.00  0.00    -0.002 A 
ATOM      3  C4  UNL d   1      -1.771   0.059  -0.648  0.00  0.00     0.004 A 
ATOM      4  C5  UNL d   1      -1.694  -0.556   0.602  0.00  0.00    -0.004 A 
ATOM      5  C6  UNL d   1      -0.469  -1.032   1.079  0.00  0.00    -0.075 A 
ATOM      6  C7  UNL d   1      -0.369  -1.698   2.420  0.00  0.00     0.076 C 
ATOM      7  C8  UNL d   1       0.676  -0.888   0.284  0.00  0.00     0.001 A 
ENDROOT
BRANCH   1   8
ATOM      8  C1  UNL d   1       1.848  -0.123  -1.818  0.00  0.00     0.053 C 
ATOM      9  C   UNL d   1       2.048   1.313  -2.277  0.00  0.00     0.018 C 
ENDBRANCH   1   8
TORSDOF 1
ENDMDL
