MODEL 1
REMARK minimizedAffinity 0.204142258
REMARK minimizedRMSD -1
REMARK  1 active torsions:
REMARK  status: ('A' for Active; 'I' for Inactive)
REMARK    1  A    between atoms: C1_2  and  C2_3 
ROOT
ATOM      1  C2  UNL d   1       0.284  -0.739   0.055  0.00  0.00    -0.073 A 
ATOM      2  C3  UNL d   1      -0.638   0.039  -0.654  0.00  0.00    -0.002 A 
ATOM      3  C4  UNL d   1      -1.834   0.435  -0.056  0.00  0.00     0.004 A 
ATOM      4  C5  UNL d   1      -2.118   0.065   1.259  0.00  0.00    -0.004 A 
ATOM      5  C6  UNL d   1      -1.203  -0.702   1.989  0.00  0.00    -0.075 A 
ATOM      6  C7  UNL d   1      -1.494  -1.110   3.403  0.00  0.00     0.076 C 
ATOM      7  C8  UNL d   1      -0.005  -1.098   1.379  0.00  0.00     0.001 A 
ENDROOT
BRANCH   1   8
ATOM      8  C1  UNL d   1       1.581  -1.164  -0.585  0.00  0.00     0.053 C 
ATOM      9  C   UNL d   1       2.638  -0.073  -0.510  0.00  0.00     0.018 C 
ENDBRANCH   1   8
TORSDOF 1
ENDMDL
