MODEL 1
REMARK minimizedAffinity 4.75925303
REMARK minimizedRMSD -1
REMARK  1 active torsions:
REMARK  status: ('A' for Active; 'I' for Inactive)
REMARK    1  A    between atoms: C1_2  and  C2_3 
ROOT
ATOM      1  C2  UNL d   1      -1.405  -0.642   0.370  0.00  0.00    -0.073 A 
ATOM      2  C3  UNL d   1      -0.843  -0.125   1.543  0.00  0.00    -0.002 A 
ATOM      3  C4  UNL d   1      -1.626   0.042   2.686  0.00  0.00     0.004 A 
ATOM      4  C5  UNL d   1      -2.975  -0.312   2.670  0.00  0.00    -0.004 A 
ATOM      5  C6  UNL d   1      -3.552  -0.842   1.512  0.00  0.00    -0.075 A 
ATOM      6  C7  UNL d   1      -5.003  -1.225   1.478  0.00  0.00     0.076 C 
ATOM      7  C8  UNL d   1      -2.760  -1.003   0.367  0.00  0.00     0.001 A 
ENDROOT
BRANCH   1   8
ATOM      8  C1  UNL d   1      -0.563  -0.829  -0.865  0.00  0.00     0.053 C 
ATOM      9  C   UNL d   1       0.921  -0.891  -0.538  0.00  0.00     0.018 C 
ENDBRANCH   1   8
TORSDOF 1
ENDMDL
