MODEL 1
REMARK minimizedAffinity -5.24597931
REMARK minimizedRMSD -1
REMARK  0 active torsions:
REMARK  status: ('A' for Active; 'I' for Inactive)
ROOT
ATOM      1  C1  DEN d   1      -0.701  -0.592   2.007  0.00  0.00     0.130 A 
ATOM      2  C2  DEN d   1      -1.618   0.519   2.247  0.00  0.00    -0.031 A 
ATOM      3  C3  DEN d   1      -1.481   1.473   1.128  0.00  0.00     0.027 A 
ATOM      4  C4  DEN d   1       0.051   1.337  -0.943  0.00  0.00     0.027 A 
ATOM      5  C5  DEN d   1       1.016   0.587  -1.578  0.00  0.00    -0.003 A 
ATOM      6  C6  DEN d   1       1.497  -0.581  -1.050  0.00  0.00     0.001 A 
ATOM      7  C7  DEN d   1       0.981  -1.058   0.127  0.00  0.00     0.017 A 
ATOM      8  C8  DEN d   1       0.013  -0.303   0.776  0.00  0.00    -0.094 A 
ATOM      9  C9  DEN d   1      -0.469   0.869   0.220  0.00  0.00    -0.072 A 
ENDROOT
TORSDOF 0
ENDMDL
