MODEL 1
REMARK minimizedAffinity -4.53278875
REMARK minimizedRMSD -1
REMARK  0 active torsions:
REMARK  status: ('A' for Active; 'I' for Inactive)
ROOT
ATOM      1  C1  DEN d   1      -2.150   1.758   2.413  0.00  0.00     0.130 A 
ATOM      2  C2  DEN d   1      -2.424   2.865   1.500  0.00  0.00    -0.031 A 
ATOM      3  C3  DEN d   1      -1.469   2.778   0.377  0.00  0.00     0.027 A 
ATOM      4  C4  DEN d   1       0.393   1.043  -0.038  0.00  0.00     0.027 A 
ATOM      5  C5  DEN d   1       1.016  -0.078   0.465  0.00  0.00    -0.003 A 
ATOM      6  C6  DEN d   1       0.652  -0.640   1.660  0.00  0.00     0.001 A 
ATOM      7  C7  DEN d   1      -0.392  -0.110   2.370  0.00  0.00     0.017 A 
ATOM      8  C8  DEN d   1      -1.020   1.024   1.873  0.00  0.00    -0.094 A 
ATOM      9  C9  DEN d   1      -0.646   1.571   0.657  0.00  0.00    -0.072 A 
ENDROOT
TORSDOF 0
ENDMDL
