MODEL 1
REMARK minimizedAffinity -6.09856606
REMARK minimizedRMSD -1
REMARK  0 active torsions:
REMARK  status: ('A' for Active; 'I' for Inactive)
ROOT
ATOM      1  C1  DEN d   1       0.792   2.010  -1.370  0.00  0.00     0.130 A 
ATOM      2  C2  DEN d   1       0.240   3.354  -1.517  0.00  0.00    -0.031 A 
ATOM      3  C3  DEN d   1      -0.633   3.619  -0.355  0.00  0.00     0.027 A 
ATOM      4  C4  DEN d   1      -1.177   2.087   1.648  0.00  0.00     0.027 A 
ATOM      5  C5  DEN d   1      -0.954   0.848   2.206  0.00  0.00    -0.003 A 
ATOM      6  C6  DEN d   1      -0.167  -0.095   1.600  0.00  0.00     0.001 A 
ATOM      7  C7  DEN d   1       0.462   0.202   0.420  0.00  0.00     0.017 A 
ATOM      8  C8  DEN d   1       0.236   1.447  -0.153  0.00  0.00    -0.094 A 
ATOM      9  C9  DEN d   1      -0.553   2.391   0.482  0.00  0.00    -0.072 A 
ENDROOT
TORSDOF 0
ENDMDL
