MODEL 1
REMARK minimizedAffinity -6.85517788
REMARK minimizedRMSD -1
REMARK  0 active torsions:
REMARK  status: ('A' for Active; 'I' for Inactive)
ROOT
ATOM      1  C1  DEN d   1       0.735   0.284  -0.726  0.00  0.00     0.130 A 
ATOM      2  C2  DEN d   1       0.507  -0.821   0.202  0.00  0.00    -0.031 A 
ATOM      3  C3  DEN d   1      -0.371  -0.335   1.284  0.00  0.00     0.027 A 
ATOM      4  C4  DEN d   1      -1.399   2.008   1.611  0.00  0.00     0.027 A 
ATOM      5  C5  DEN d   1      -1.482   3.280   1.089  0.00  0.00    -0.003 A 
ATOM      6  C6  DEN d   1      -0.810   3.649  -0.046  0.00  0.00     0.001 A 
ATOM      7  C7  DEN d   1      -0.061   2.723  -0.722  0.00  0.00     0.017 A 
ATOM      8  C8  DEN d   1       0.033   1.440  -0.199  0.00  0.00    -0.094 A 
ATOM      9  C9  DEN d   1      -0.663   1.083   0.943  0.00  0.00    -0.072 A 
ENDROOT
TORSDOF 0
ENDMDL
