MODEL 1
REMARK minimizedAffinity -5.06988573
REMARK minimizedRMSD -1
REMARK  0 active torsions:
REMARK  status: ('A' for Active; 'I' for Inactive)
ROOT
ATOM      1  C1  DEN d   1      -0.021  -0.351   0.582  0.00  0.00     0.130 A 
ATOM      2  C2  DEN d   1      -0.646  -0.777   1.831  0.00  0.00    -0.031 A 
ATOM      3  C3  DEN d   1      -1.338   0.389   2.416  0.00  0.00     0.027 A 
ATOM      4  C4  DEN d   1      -1.506   2.799   1.511  0.00  0.00     0.027 A 
ATOM      5  C5  DEN d   1      -1.129   3.643   0.491  0.00  0.00    -0.003 A 
ATOM      6  C6  DEN d   1      -0.334   3.228  -0.544  0.00  0.00     0.001 A 
ATOM      7  C7  DEN d   1       0.073   1.922  -0.606  0.00  0.00     0.017 A 
ATOM      8  C8  DEN d   1      -0.298   1.066   0.422  0.00  0.00    -0.094 A 
ATOM      9  C9  DEN d   1      -1.112   1.501   1.454  0.00  0.00    -0.072 A 
ENDROOT
TORSDOF 0
ENDMDL
