MODEL 1
REMARK minimizedAffinity -5.79963112
REMARK minimizedRMSD -1
REMARK  0 active torsions:
REMARK  status: ('A' for Active; 'I' for Inactive)
ROOT
ATOM      1  C1  DEN d   1       1.072   0.654  -0.105  0.00  0.00     0.130 A 
ATOM      2  C2  DEN d   1       0.852  -0.715  -0.561  0.00  0.00    -0.031 A 
ATOM      3  C3  DEN d   1      -0.578  -1.034  -0.375  0.00  0.00     0.027 A 
ATOM      4  C4  DEN d   1      -2.464   0.454   0.564  0.00  0.00     0.027 A 
ATOM      5  C5  DEN d   1      -2.759   1.691   1.092  0.00  0.00    -0.003 A 
ATOM      6  C6  DEN d   1      -1.801   2.649   1.288  0.00  0.00     0.001 A 
ATOM      7  C7  DEN d   1      -0.507   2.402   0.912  0.00  0.00     0.017 A 
ATOM      8  C8  DEN d   1      -0.200   1.155   0.386  0.00  0.00    -0.094 A 
ATOM      9  C9  DEN d   1      -1.185   0.203   0.184  0.00  0.00    -0.072 A 
ENDROOT
TORSDOF 0
ENDMDL
