MODEL 1
REMARK minimizedAffinity -4.55691671
REMARK minimizedRMSD -1
REMARK  0 active torsions:
REMARK  status: ('A' for Active; 'I' for Inactive)
ROOT
ATOM      1  C1  DEN d   1      -0.720   2.308   0.292  0.00  0.00     0.130 A 
ATOM      2  C2  DEN d   1      -2.064   2.419   0.854  0.00  0.00    -0.031 A 
ATOM      3  C3  DEN d   1      -2.586   1.053   1.059  0.00  0.00     0.027 A 
ATOM      4  C4  DEN d   1      -1.451  -1.210   0.568  0.00  0.00     0.027 A 
ATOM      5  C5  DEN d   1      -0.314  -1.812   0.075  0.00  0.00    -0.003 A 
ATOM      6  C6  DEN d   1       0.744  -1.089  -0.408  0.00  0.00     0.001 A 
ATOM      7  C7  DEN d   1       0.706   0.280  -0.366  0.00  0.00     0.017 A 
ATOM      8  C8  DEN d   1      -0.439   0.894   0.122  0.00  0.00    -0.094 A 
ATOM      9  C9  DEN d   1      -1.494   0.146   0.617  0.00  0.00    -0.072 A 
ENDROOT
TORSDOF 0
ENDMDL
