MODEL 1
REMARK minimizedAffinity -5.9223361
REMARK minimizedRMSD -1
REMARK  0 active torsions:
REMARK  status: ('A' for Active; 'I' for Inactive)
ROOT
ATOM      1  C1  DEN d   1       1.059   0.564  -0.953  0.00  0.00     0.130 A 
ATOM      2  C2  DEN d   1       0.658  -0.702  -0.347  0.00  0.00    -0.031 A 
ATOM      3  C3  DEN d   1      -0.497  -0.440   0.535  0.00  0.00     0.027 A 
ATOM      4  C4  DEN d   1      -1.699   1.791   1.015  0.00  0.00     0.027 A 
ATOM      5  C5  DEN d   1      -1.712   3.141   0.741  0.00  0.00    -0.003 A 
ATOM      6  C6  DEN d   1      -0.788   3.727  -0.083  0.00  0.00     0.001 A 
ATOM      7  C7  DEN d   1       0.160   2.954  -0.699  0.00  0.00     0.017 A 
ATOM      8  C8  DEN d   1       0.184   1.593  -0.422  0.00  0.00    -0.094 A 
ATOM      9  C9  DEN d   1      -0.766   1.017   0.404  0.00  0.00    -0.072 A 
ENDROOT
TORSDOF 0
ENDMDL
