MODEL 1
REMARK minimizedAffinity -4.95419884
REMARK minimizedRMSD -1
REMARK  0 active torsions:
REMARK  status: ('A' for Active; 'I' for Inactive)
ROOT
ATOM      1  C1  DEN d   1       0.865   2.586  -1.086  0.00  0.00     0.130 A 
ATOM      2  C2  DEN d   1       1.573   1.378  -1.501  0.00  0.00    -0.031 A 
ATOM      3  C3  DEN d   1       1.200   0.290  -0.575  0.00  0.00     0.027 A 
ATOM      4  C4  DEN d   1      -0.401   0.356   1.446  0.00  0.00     0.027 A 
ATOM      5  C5  DEN d   1      -1.229   1.162   2.196  0.00  0.00    -0.003 A 
ATOM      6  C6  DEN d   1      -1.388   2.495   1.929  0.00  0.00     0.001 A 
ATOM      7  C7  DEN d   1      -0.746   3.054   0.855  0.00  0.00     0.017 A 
ATOM      8  C8  DEN d   1       0.096   2.250   0.098  0.00  0.00    -0.094 A 
ATOM      9  C9  DEN d   1       0.235   0.901   0.378  0.00  0.00    -0.072 A 
ENDROOT
TORSDOF 0
ENDMDL
