MODEL 1
REMARK minimizedAffinity -5.93176174
REMARK minimizedRMSD -1
REMARK  0 active torsions:
REMARK  status: ('A' for Active; 'I' for Inactive)
ROOT
ATOM      1  C1  DEN d   1      -0.352  -0.484   1.000  0.00  0.00     0.130 A 
ATOM      2  C2  DEN d   1       0.765  -0.471   0.060  0.00  0.00    -0.031 A 
ATOM      3  C3  DEN d   1       0.796   0.853  -0.595  0.00  0.00     0.027 A 
ATOM      4  C4  DEN d   1      -0.768   2.873  -0.243  0.00  0.00     0.027 A 
ATOM      5  C5  DEN d   1      -1.870   3.334   0.443  0.00  0.00    -0.003 A 
ATOM      6  C6  DEN d   1      -2.559   2.549   1.331  0.00  0.00     0.001 A 
ATOM      7  C7  DEN d   1      -2.124   1.276   1.589  0.00  0.00     0.017 A 
ATOM      8  C8  DEN d   1      -1.018   0.802   0.896  0.00  0.00    -0.094 A 
ATOM      9  C9  DEN d   1      -0.329   1.615   0.012  0.00  0.00    -0.072 A 
ENDROOT
TORSDOF 0
ENDMDL
