MODEL 1
REMARK minimizedAffinity -6.18388891
REMARK minimizedRMSD -1
REMARK  0 active torsions:
REMARK  status: ('A' for Active; 'I' for Inactive)
ROOT
ATOM      1  C1  DEN d   1      -0.780  -0.706   0.315  0.00  0.00     0.130 A 
ATOM      2  C2  DEN d   1       0.324  -1.106  -0.554  0.00  0.00    -0.031 A 
ATOM      3  C3  DEN d   1       0.900   0.115  -1.152  0.00  0.00     0.027 A 
ATOM      4  C4  DEN d   1       0.198   2.574  -0.815  0.00  0.00     0.027 A 
ATOM      5  C5  DEN d   1      -0.694   3.410  -0.179  0.00  0.00    -0.003 A 
ATOM      6  C6  DEN d   1      -1.689   2.934   0.632  0.00  0.00     0.001 A 
ATOM      7  C7  DEN d   1      -1.789   1.588   0.866  0.00  0.00     0.017 A 
ATOM      8  C8  DEN d   1      -0.899   0.738   0.222  0.00  0.00    -0.094 A 
ATOM      9  C9  DEN d   1       0.108   1.240  -0.585  0.00  0.00    -0.072 A 
ENDROOT
TORSDOF 0
ENDMDL
