MODEL 1
REMARK minimizedAffinity -4.84845924
REMARK minimizedRMSD -1
REMARK  0 active torsions:
REMARK  status: ('A' for Active; 'I' for Inactive)
ROOT
ATOM      1  C1  DEN d   1      -0.377   3.472   0.277  0.00  0.00     0.130 A 
ATOM      2  C2  DEN d   1       0.280   3.679  -1.010  0.00  0.00    -0.031 A 
ATOM      3  C3  DEN d   1       0.901   2.402  -1.416  0.00  0.00     0.027 A 
ATOM      4  C4  DEN d   1       0.904   0.135  -0.185  0.00  0.00     0.027 A 
ATOM      5  C5  DEN d   1       0.486  -0.527   0.947  0.00  0.00    -0.003 A 
ATOM      6  C6  DEN d   1      -0.214   0.100   1.944  0.00  0.00     0.001 A 
ATOM      7  C7  DEN d   1      -0.556   1.419   1.806  0.00  0.00     0.017 A 
ATOM      8  C8  DEN d   1      -0.132   2.096   0.670  0.00  0.00    -0.094 A 
ATOM      9  C9  DEN d   1       0.564   1.441  -0.332  0.00  0.00    -0.072 A 
ENDROOT
TORSDOF 0
ENDMDL
