MODEL 1
REMARK minimizedAffinity 10.7721233
REMARK minimizedRMSD -1
REMARK  0 active torsions:
REMARK  status: ('A' for Active; 'I' for Inactive)
ROOT
ATOM      1  C   UNL d   1      -0.659   1.061   1.954  0.00  0.00     0.023 A 
ATOM      2  C1  UNL d   1      -0.564   1.326   0.588  0.00  0.00     0.003 A 
ATOM      3  C2  UNL d   1       0.604   1.005  -0.107  0.00  0.00     0.048 A 
ATOM      4  C3  UNL d   1       1.672   0.418   0.570  0.00  0.00     0.023 A 
ATOM      5  C4  UNL d   1       1.582   0.150   1.937  0.00  0.00     0.048 A 
ATOM      6  C5  UNL d   1       0.412   0.474   2.628  0.00  0.00     0.003 A 
ATOM      7  I   UNL d   1       3.411  -0.061  -0.462  0.00  0.00    -0.146 I 
ENDROOT
TORSDOF 0
ENDMDL
