MODEL 1
REMARK minimizedAffinity 4.13357925
REMARK minimizedRMSD -1
REMARK  0 active torsions:
REMARK  status: ('A' for Active; 'I' for Inactive)
ROOT
ATOM      1  C   UNL d   1      -2.000   1.417  -4.404  0.00  0.00     0.023 A 
ATOM      2  C1  UNL d   1      -2.814   1.646  -5.513  0.00  0.00     0.003 A 
ATOM      3  C2  UNL d   1      -3.960   0.872  -5.711  0.00  0.00     0.048 A 
ATOM      4  C3  UNL d   1      -4.285  -0.128  -4.795  0.00  0.00     0.023 A 
ATOM      5  C4  UNL d   1      -3.474  -0.360  -3.684  0.00  0.00     0.048 A 
ATOM      6  C5  UNL d   1      -2.329   0.416  -3.490  0.00  0.00     0.003 A 
ATOM      7  I   UNL d   1      -5.990  -1.280  -5.087  0.00  0.00    -0.146 I 
ENDROOT
TORSDOF 0
ENDMDL
