MODEL 1
REMARK minimizedAffinity 6.21355867
REMARK minimizedRMSD -1
REMARK  0 active torsions:
REMARK  status: ('A' for Active; 'I' for Inactive)
ROOT
ATOM      1  C   UNL d   1       5.995   3.110  -0.235  0.00  0.00     0.023 A 
ATOM      2  C1  UNL d   1       5.440   2.835  -1.485  0.00  0.00     0.003 A 
ATOM      3  C2  UNL d   1       4.677   1.680  -1.672  0.00  0.00     0.048 A 
ATOM      4  C3  UNL d   1       4.472   0.806  -0.605  0.00  0.00     0.023 A 
ATOM      5  C4  UNL d   1       5.024   1.078   0.647  0.00  0.00     0.048 A 
ATOM      6  C5  UNL d   1       5.787   2.233   0.830  0.00  0.00     0.003 A 
ATOM      7  I   UNL d   1       3.336  -0.912  -0.882  0.00  0.00    -0.146 I 
ENDROOT
TORSDOF 0
ENDMDL
