MODEL 1
REMARK minimizedAffinity 6.18219566
REMARK minimizedRMSD -1
REMARK  0 active torsions:
REMARK  status: ('A' for Active; 'I' for Inactive)
ROOT
ATOM      1  C   UNL d   1       5.999   3.414   0.165  0.00  0.00     0.023 A 
ATOM      2  C1  UNL d   1       5.717   2.516   1.194  0.00  0.00     0.003 A 
ATOM      3  C2  UNL d   1       4.942   1.382   0.939  0.00  0.00     0.048 A 
ATOM      4  C3  UNL d   1       4.453   1.153  -0.347  0.00  0.00     0.023 A 
ATOM      5  C4  UNL d   1       4.734   2.049  -1.379  0.00  0.00     0.048 A 
ATOM      6  C5  UNL d   1       5.509   3.182  -1.120  0.00  0.00     0.003 A 
ATOM      7  I   UNL d   1       3.300  -0.533  -0.728  0.00  0.00    -0.146 I 
ENDROOT
TORSDOF 0
ENDMDL
