MODEL 1
REMARK minimizedAffinity 10.3761625
REMARK minimizedRMSD -1
REMARK  0 active torsions:
REMARK  status: ('A' for Active; 'I' for Inactive)
ROOT
ATOM      1  C   UNL d   1      -0.814   1.049   1.233  0.00  0.00     0.023 A 
ATOM      2  C1  UNL d   1      -0.662   1.096  -0.153  0.00  0.00     0.003 A 
ATOM      3  C2  UNL d   1       0.593   0.880  -0.726  0.00  0.00     0.048 A 
ATOM      4  C3  UNL d   1       1.691   0.617   0.092  0.00  0.00     0.023 A 
ATOM      5  C4  UNL d   1       1.543   0.568   1.479  0.00  0.00     0.048 A 
ATOM      6  C5  UNL d   1       0.287   0.786   2.048  0.00  0.00     0.003 A 
ATOM      7  I   UNL d   1       3.560   0.295  -0.759  0.00  0.00    -0.146 I 
ENDROOT
TORSDOF 0
ENDMDL
