MODEL 1
REMARK minimizedAffinity 4.79547882
REMARK minimizedRMSD -1
REMARK  0 active torsions:
REMARK  status: ('A' for Active; 'I' for Inactive)
ROOT
ATOM      1  C   UNL d   1       2.293  -3.642  -2.144  0.00  0.00     0.023 A 
ATOM      2  C1  UNL d   1       2.177  -3.150  -0.844  0.00  0.00     0.003 A 
ATOM      3  C2  UNL d   1       2.842  -1.978  -0.477  0.00  0.00     0.048 A 
ATOM      4  C3  UNL d   1       3.620  -1.302  -1.416  0.00  0.00     0.023 A 
ATOM      5  C4  UNL d   1       3.738  -1.790  -2.719  0.00  0.00     0.048 A 
ATOM      6  C5  UNL d   1       3.072  -2.963  -3.080  0.00  0.00     0.003 A 
ATOM      7  I   UNL d   1       4.610   0.443  -0.874  0.00  0.00    -0.146 I 
ENDROOT
TORSDOF 0
ENDMDL
