MODEL 1
REMARK minimizedAffinity 5.26576281
REMARK minimizedRMSD -1
REMARK  0 active torsions:
REMARK  status: ('A' for Active; 'I' for Inactive)
ROOT
ATOM      1  C   UNL d   1      -0.690   1.523   0.294  0.00  0.00     0.023 A 
ATOM      2  C1  UNL d   1      -1.587   1.913   1.289  0.00  0.00     0.003 A 
ATOM      3  C2  UNL d   1      -2.958   1.720   1.110  0.00  0.00     0.048 A 
ATOM      4  C3  UNL d   1      -3.426   1.136  -0.066  0.00  0.00     0.023 A 
ATOM      5  C4  UNL d   1      -2.533   0.743  -1.064  0.00  0.00     0.048 A 
ATOM      6  C5  UNL d   1      -1.163   0.939  -0.881  0.00  0.00     0.003 A 
ATOM      7  I   UNL d   1      -5.467   0.848  -0.335  0.00  0.00    -0.146 I 
ENDROOT
TORSDOF 0
ENDMDL
