MODEL 1
REMARK minimizedAffinity 12.8702049
REMARK minimizedRMSD -1
REMARK  0 active torsions:
REMARK  status: ('A' for Active; 'I' for Inactive)
ROOT
ATOM      1  C   UNL d   1       4.740   1.240  -1.510  0.00  0.00     0.023 A 
ATOM      2  C1  UNL d   1       5.335   0.800  -0.328  0.00  0.00     0.003 A 
ATOM      3  C2  UNL d   1       4.718  -0.190   0.440  0.00  0.00     0.048 A 
ATOM      4  C3  UNL d   1       3.506  -0.736   0.019  0.00  0.00     0.023 A 
ATOM      5  C4  UNL d   1       2.907  -0.299  -1.164  0.00  0.00     0.048 A 
ATOM      6  C5  UNL d   1       3.528   0.691  -1.928  0.00  0.00     0.003 A 
ATOM      7  I   UNL d   1       2.585  -2.209   1.159  0.00  0.00    -0.146 I 
ENDROOT
TORSDOF 0
ENDMDL
