MODEL 1
REMARK minimizedAffinity -2.83769703
REMARK minimizedRMSD -1
REMARK  0 active torsions:
REMARK  status: ('A' for Active; 'I' for Inactive)
ROOT
ATOM      1  C   UNL d   1       5.425  -3.298   5.999  0.00  0.00     0.023 A 
ATOM      2  C1  UNL d   1       5.834  -2.260   5.161  0.00  0.00     0.003 A 
ATOM      3  C2  UNL d   1       6.000  -2.490   3.794  0.00  0.00     0.048 A 
ATOM      4  C3  UNL d   1       5.754  -3.759   3.271  0.00  0.00     0.023 A 
ATOM      5  C4  UNL d   1       5.344  -4.800   4.106  0.00  0.00     0.048 A 
ATOM      6  C5  UNL d   1       5.180  -4.566   5.472  0.00  0.00     0.003 A 
ATOM      7  I   UNL d   1       6.000  -4.103   1.236  0.00  0.00    -0.146 I 
ENDROOT
TORSDOF 0
ENDMDL
