MODEL 1
REMARK minimizedAffinity -0.375454515
REMARK minimizedRMSD -1
REMARK  0 active torsions:
REMARK  status: ('A' for Active; 'I' for Inactive)
ROOT
ATOM      1  C   UNL d   1       5.954  -2.260   1.877  0.00  0.00     0.023 A 
ATOM      2  C1  UNL d   1       5.999  -3.612   1.536  0.00  0.00     0.003 A 
ATOM      3  C2  UNL d   1       5.685  -4.584   2.488  0.00  0.00     0.048 A 
ATOM      4  C3  UNL d   1       5.326  -4.197   3.778  0.00  0.00     0.023 A 
ATOM      5  C4  UNL d   1       5.278  -2.846   4.124  0.00  0.00     0.048 A 
ATOM      6  C5  UNL d   1       5.594  -1.877   3.169  0.00  0.00     0.003 A 
ATOM      7  I   UNL d   1       4.857  -5.642   5.197  0.00  0.00    -0.146 I 
ENDROOT
TORSDOF 0
ENDMDL
