MODEL 1
REMARK minimizedAffinity -1.43604565
REMARK minimizedRMSD -1
REMARK  0 active torsions:
REMARK  status: ('A' for Active; 'I' for Inactive)
ROOT
ATOM      1  C   UNL d   1       3.560  -2.842   1.950  0.00  0.00     0.023 A 
ATOM      2  C1  UNL d   1       4.805  -2.280   2.233  0.00  0.00     0.003 A 
ATOM      3  C2  UNL d   1       5.501  -2.664   3.382  0.00  0.00     0.048 A 
ATOM      4  C3  UNL d   1       4.947  -3.611   4.242  0.00  0.00     0.023 A 
ATOM      5  C4  UNL d   1       3.702  -4.177   3.962  0.00  0.00     0.048 A 
ATOM      6  C5  UNL d   1       3.009  -3.790   2.813  0.00  0.00     0.003 A 
ATOM      7  I   UNL d   1       5.981  -4.184   5.951  0.00  0.00    -0.146 I 
ENDROOT
TORSDOF 0
ENDMDL
