MODEL 1
REMARK minimizedAffinity -2.74623919
REMARK minimizedRMSD -1
REMARK  0 active torsions:
REMARK  status: ('A' for Active; 'I' for Inactive)
ROOT
ATOM      1  C   UNL d   1       5.953  -2.454   2.640  0.00  0.00     0.023 A 
ATOM      2  C1  UNL d   1       5.946  -2.125   3.995  0.00  0.00     0.003 A 
ATOM      3  C2  UNL d   1       5.959  -3.135   4.960  0.00  0.00     0.048 A 
ATOM      4  C3  UNL d   1       5.980  -4.471   4.562  0.00  0.00     0.023 A 
ATOM      5  C4  UNL d   1       5.989  -4.805   3.207  0.00  0.00     0.048 A 
ATOM      6  C5  UNL d   1       5.975  -3.792   2.246  0.00  0.00     0.003 A 
ATOM      7  I   UNL d   1       6.000  -5.976   5.996  0.00  0.00    -0.146 I 
ENDROOT
TORSDOF 0
ENDMDL
