MODEL 1
REMARK minimizedAffinity -3.22988582
REMARK minimizedRMSD -1
REMARK  0 active torsions:
REMARK  status: ('A' for Active; 'I' for Inactive)
ROOT
ATOM      1  C   UNL d   1       6.000  -2.666   2.620  0.00  0.00     0.023 A 
ATOM      2  C1  UNL d   1       5.975  -4.059   2.544  0.00  0.00     0.003 A 
ATOM      3  C2  UNL d   1       5.297  -4.801   3.513  0.00  0.00     0.048 A 
ATOM      4  C3  UNL d   1       4.645  -4.143   4.556  0.00  0.00     0.023 A 
ATOM      5  C4  UNL d   1       4.666  -2.750   4.636  0.00  0.00     0.048 A 
ATOM      6  C5  UNL d   1       5.346  -2.013   3.665  0.00  0.00     0.003 A 
ATOM      7  I   UNL d   1       3.634  -5.245   6.000  0.00  0.00    -0.146 I 
ENDROOT
TORSDOF 0
ENDMDL
