MODEL 1
REMARK minimizedAffinity -2.59311008
REMARK minimizedRMSD -1
REMARK  0 active torsions:
REMARK  status: ('A' for Active; 'I' for Inactive)
ROOT
ATOM      1  C   UNL d   1       5.995  -3.180   5.996  0.00  0.00     0.023 A 
ATOM      2  C1  UNL d   1       5.997  -4.509   5.574  0.00  0.00     0.003 A 
ATOM      3  C2  UNL d   1       5.997  -4.810   4.210  0.00  0.00     0.048 A 
ATOM      4  C3  UNL d   1       5.995  -3.776   3.274  0.00  0.00     0.023 A 
ATOM      5  C4  UNL d   1       5.994  -2.444   3.692  0.00  0.00     0.048 A 
ATOM      6  C5  UNL d   1       5.994  -2.149   5.057  0.00  0.00     0.003 A 
ATOM      7  I   UNL d   1       5.995  -4.221   1.244  0.00  0.00    -0.146 I 
ENDROOT
TORSDOF 0
ENDMDL
