MODEL 1
REMARK minimizedAffinity -1.4772532
REMARK minimizedRMSD -1
REMARK  0 active torsions:
REMARK  status: ('A' for Active; 'I' for Inactive)
ROOT
ATOM      1  C   UNL d   1       5.962  -1.914   3.009  0.00  0.00     0.023 A 
ATOM      2  C1  UNL d   1       5.995  -1.833   4.402  0.00  0.00     0.003 A 
ATOM      3  C2  UNL d   1       6.000  -2.998   5.170  0.00  0.00     0.048 A 
ATOM      4  C3  UNL d   1       5.973  -4.242   4.540  0.00  0.00     0.023 A 
ATOM      5  C4  UNL d   1       5.942  -4.328   3.147  0.00  0.00     0.048 A 
ATOM      6  C5  UNL d   1       5.936  -3.160   2.383  0.00  0.00     0.003 A 
ATOM      7  I   UNL d   1       5.981  -5.979   5.682  0.00  0.00    -0.146 I 
ENDROOT
TORSDOF 0
ENDMDL
