MODEL 1
REMARK minimizedAffinity -1.84164
REMARK minimizedRMSD -1
REMARK  0 active torsions:
REMARK  status: ('A' for Active; 'I' for Inactive)
ROOT
ATOM      1  C   UNL d   1       5.272  -2.420   5.998  0.00  0.00     0.023 A 
ATOM      2  C1  UNL d   1       4.965  -3.717   5.589  0.00  0.00     0.003 A 
ATOM      3  C2  UNL d   1       5.173  -4.100   4.262  0.00  0.00     0.048 A 
ATOM      4  C3  UNL d   1       5.689  -3.181   3.350  0.00  0.00     0.023 A 
ATOM      5  C4  UNL d   1       5.999  -1.882   3.755  0.00  0.00     0.048 A 
ATOM      6  C5  UNL d   1       5.789  -1.503   5.082  0.00  0.00     0.003 A 
ATOM      7  I   UNL d   1       5.999  -3.749   1.375  0.00  0.00    -0.146 I 
ENDROOT
TORSDOF 0
ENDMDL
