MODEL 1
REMARK minimizedAffinity -2.12824416
REMARK minimizedRMSD -1
REMARK  0 active torsions:
REMARK  status: ('A' for Active; 'I' for Inactive)
ROOT
ATOM      1  C   UNL d   1       5.947  -2.842   2.297  0.00  0.00     0.023 A 
ATOM      2  C1  UNL d   1       6.000  -4.213   2.044  0.00  0.00     0.003 A 
ATOM      3  C2  UNL d   1       5.993  -5.120   3.106  0.00  0.00     0.048 A 
ATOM      4  C3  UNL d   1       5.933  -4.650   4.417  0.00  0.00     0.023 A 
ATOM      5  C4  UNL d   1       5.879  -3.279   4.675  0.00  0.00     0.048 A 
ATOM      6  C5  UNL d   1       5.886  -2.376   3.610  0.00  0.00     0.003 A 
ATOM      7  I   UNL d   1       5.923  -5.999   5.998  0.00  0.00    -0.146 I 
ENDROOT
TORSDOF 0
ENDMDL
