MODEL 1
REMARK minimizedAffinity -2.52285242
REMARK minimizedRMSD -1
REMARK  0 active torsions:
REMARK  status: ('A' for Active; 'I' for Inactive)
ROOT
ATOM      1  C   UNL d   1       5.005  -3.101   6.000  0.00  0.00     0.023 A 
ATOM      2  C1  UNL d   1       5.706  -2.263   5.132  0.00  0.00     0.003 A 
ATOM      3  C2  UNL d   1       5.992  -2.684   3.832  0.00  0.00     0.048 A 
ATOM      4  C3  UNL d   1       5.574  -3.944   3.406  0.00  0.00     0.023 A 
ATOM      5  C4  UNL d   1       4.872  -4.785   4.270  0.00  0.00     0.048 A 
ATOM      6  C5  UNL d   1       4.588  -4.361   5.569  0.00  0.00     0.003 A 
ATOM      7  I   UNL d   1       5.999  -4.573   1.471  0.00  0.00    -0.146 I 
ENDROOT
TORSDOF 0
ENDMDL
