MODEL 1
REMARK minimizedAffinity -1.28196502
REMARK minimizedRMSD -1
REMARK  0 active torsions:
REMARK  status: ('A' for Active; 'I' for Inactive)
ROOT
ATOM      1  C   UNL d   1       6.000  -2.851   6.000  0.00  0.00     0.023 A 
ATOM      2  C1  UNL d   1       5.999  -1.723   5.179  0.00  0.00     0.003 A 
ATOM      3  C2  UNL d   1       6.000  -1.868   3.790  0.00  0.00     0.048 A 
ATOM      4  C3  UNL d   1       6.000  -3.144   3.229  0.00  0.00     0.023 A 
ATOM      5  C4  UNL d   1       5.999  -4.276   4.046  0.00  0.00     0.048 A 
ATOM      6  C5  UNL d   1       6.000  -4.126   5.434  0.00  0.00     0.003 A 
ATOM      7  I   UNL d   1       6.000  -3.363   1.162  0.00  0.00    -0.146 I 
ENDROOT
TORSDOF 0
ENDMDL
