MODEL 1
REMARK minimizedAffinity -3.42248893
REMARK minimizedRMSD -1
REMARK  0 active torsions:
REMARK  status: ('A' for Active; 'I' for Inactive)
ROOT
ATOM      1  C   UNL d   1       5.964  -2.659   2.261  0.00  0.00     0.023 A 
ATOM      2  C1  UNL d   1       5.950  -2.251   3.595  0.00  0.00     0.003 A 
ATOM      3  C2  UNL d   1       5.959  -3.202   4.617  0.00  0.00     0.048 A 
ATOM      4  C3  UNL d   1       5.985  -4.559   4.299  0.00  0.00     0.023 A 
ATOM      5  C4  UNL d   1       6.000  -4.972   2.966  0.00  0.00     0.048 A 
ATOM      6  C5  UNL d   1       5.989  -4.018   1.947  0.00  0.00     0.003 A 
ATOM      7  I   UNL d   1       6.000  -5.977   5.819  0.00  0.00    -0.146 I 
ENDROOT
TORSDOF 0
ENDMDL
