MODEL 1
REMARK minimizedAffinity -3.28618956
REMARK minimizedRMSD -1
REMARK  0 active torsions:
REMARK  status: ('A' for Active; 'I' for Inactive)
ROOT
ATOM      1  C   UNL d   1       5.978  -3.538   1.128  0.00  0.00     0.023 A 
ATOM      2  C1  UNL d   1       5.980  -4.631   1.995  0.00  0.00     0.003 A 
ATOM      3  C2  UNL d   1       5.866  -4.431   3.373  0.00  0.00     0.048 A 
ATOM      4  C3  UNL d   1       5.751  -3.136   3.876  0.00  0.00     0.023 A 
ATOM      5  C4  UNL d   1       5.748  -2.039   3.013  0.00  0.00     0.048 A 
ATOM      6  C5  UNL d   1       5.863  -2.244   1.636  0.00  0.00     0.003 A 
ATOM      7  I   UNL d   1       5.582  -2.836   5.926  0.00  0.00    -0.146 I 
ENDROOT
TORSDOF 0
ENDMDL
