MODEL 1
REMARK minimizedAffinity -1.80713964
REMARK minimizedRMSD -1
REMARK  0 active torsions:
REMARK  status: ('A' for Active; 'I' for Inactive)
ROOT
ATOM      1  C   UNL d   1       5.991  -2.968   1.370  0.00  0.00     0.023 A 
ATOM      2  C1  UNL d   1       5.984  -2.034   2.407  0.00  0.00     0.003 A 
ATOM      3  C2  UNL d   1       5.982  -2.464   3.735  0.00  0.00     0.048 A 
ATOM      4  C3  UNL d   1       5.990  -3.828   4.021  0.00  0.00     0.023 A 
ATOM      5  C4  UNL d   1       5.999  -4.767   2.987  0.00  0.00     0.048 A 
ATOM      6  C5  UNL d   1       5.999  -4.332   1.660  0.00  0.00     0.003 A 
ATOM      7  I   UNL d   1       5.989  -4.470   5.997  0.00  0.00    -0.146 I 
ENDROOT
TORSDOF 0
ENDMDL
