MODEL 1
REMARK minimizedAffinity 5.24220514
REMARK minimizedRMSD -1
REMARK  0 active torsions:
REMARK  status: ('A' for Active; 'I' for Inactive)
ROOT
ATOM      1  C1  DEN d   1      -4.415   3.446   2.718  0.00  0.00     0.130 A 
ATOM      2  C2  DEN d   1      -3.039   3.754   2.339  0.00  0.00    -0.031 A 
ATOM      3  C3  DEN d   1      -2.523   4.770   3.279  0.00  0.00     0.027 A 
ATOM      4  C4  DEN d   1      -3.714   5.885   5.277  0.00  0.00     0.027 A 
ATOM      5  C5  DEN d   1      -4.894   5.954   5.984  0.00  0.00    -0.003 A 
ATOM      6  C6  DEN d   1      -5.999   5.223   5.635  0.00  0.00     0.001 A 
ATOM      7  C7  DEN d   1      -5.932   4.357   4.576  0.00  0.00     0.017 A 
ATOM      8  C8  DEN d   1      -4.748   4.288   3.853  0.00  0.00    -0.094 A 
ATOM      9  C9  DEN d   1      -3.639   5.025   4.230  0.00  0.00    -0.072 A 
ENDROOT
TORSDOF 0
ENDMDL
