MODEL 1
REMARK minimizedAffinity 14.4649649
REMARK minimizedRMSD -1
REMARK  0 active torsions:
REMARK  status: ('A' for Active; 'I' for Inactive)
ROOT
ATOM      1  C1  DEN d   1      -3.343  -4.192  -5.994  0.00  0.00     0.130 A 
ATOM      2  C2  DEN d   1      -4.792  -4.019  -5.956  0.00  0.00    -0.031 A 
ATOM      3  C3  DEN d   1      -5.079  -2.570  -5.941  0.00  0.00     0.027 A 
ATOM      4  C4  DEN d   1      -3.427  -0.590  -5.976  0.00  0.00     0.027 A 
ATOM      5  C5  DEN d   1      -2.095  -0.239  -5.997  0.00  0.00    -0.003 A 
ATOM      6  C6  DEN d   1      -1.094  -1.173  -5.984  0.00  0.00     0.001 A 
ATOM      7  C7  DEN d   1      -1.409  -2.506  -5.995  0.00  0.00     0.017 A 
ATOM      8  C8  DEN d   1      -2.750  -2.868  -5.967  0.00  0.00    -0.094 A 
ATOM      9  C9  DEN d   1      -3.747  -1.908  -5.992  0.00  0.00    -0.072 A 
ENDROOT
TORSDOF 0
ENDMDL
