MODEL 1
REMARK minimizedAffinity 4.02797985
REMARK minimizedRMSD -1
REMARK  0 active torsions:
REMARK  status: ('A' for Active; 'I' for Inactive)
ROOT
ATOM      1  C1  DEN d   1      -1.702  -3.129  -5.970  0.00  0.00     0.130 A 
ATOM      2  C2  DEN d   1      -1.778  -1.671  -5.991  0.00  0.00    -0.031 A 
ATOM      3  C3  DEN d   1      -3.205  -1.288  -5.998  0.00  0.00     0.027 A 
ATOM      4  C4  DEN d   1      -5.291  -2.805  -5.974  0.00  0.00     0.027 A 
ATOM      5  C5  DEN d   1      -5.730  -4.110  -5.967  0.00  0.00    -0.003 A 
ATOM      6  C6  DEN d   1      -4.864  -5.172  -5.995  0.00  0.00     0.001 A 
ATOM      7  C7  DEN d   1      -3.513  -4.946  -5.985  0.00  0.00     0.017 A 
ATOM      8  C8  DEN d   1      -3.063  -3.632  -6.000  0.00  0.00    -0.094 A 
ATOM      9  C9  DEN d   1      -3.954  -2.573  -5.959  0.00  0.00    -0.072 A 
ENDROOT
TORSDOF 0
ENDMDL
