MODEL 1
REMARK minimizedAffinity 10.5000086
REMARK minimizedRMSD -1
REMARK  0 active torsions:
REMARK  status: ('A' for Active; 'I' for Inactive)
ROOT
ATOM      1  C1  DEN d   1      -4.625   4.620   3.824  0.00  0.00     0.130 A 
ATOM      2  C2  DEN d   1      -4.979   5.485   4.947  0.00  0.00    -0.031 A 
ATOM      3  C3  DEN d   1      -5.584   4.643   5.998  0.00  0.00     0.027 A 
ATOM      4  C4  DEN d   1      -5.999   2.097   6.000  0.00  0.00     0.027 A 
ATOM      5  C5  DEN d   1      -5.876   0.939   5.264  0.00  0.00    -0.003 A 
ATOM      6  C6  DEN d   1      -5.363   0.932   3.994  0.00  0.00     0.001 A 
ATOM      7  C7  DEN d   1      -4.912   2.100   3.438  0.00  0.00     0.017 A 
ATOM      8  C8  DEN d   1      -5.039   3.273   4.171  0.00  0.00    -0.094 A 
ATOM      9  C9  DEN d   1      -5.549   3.257   5.458  0.00  0.00    -0.072 A 
ENDROOT
TORSDOF 0
ENDMDL
