MODEL 1
REMARK minimizedAffinity 19.3939629
REMARK minimizedRMSD -1
REMARK  0 active torsions:
REMARK  status: ('A' for Active; 'I' for Inactive)
ROOT
ATOM      1  C1  DEN d   1      -5.573   2.787   5.998  0.00  0.00     0.130 A 
ATOM      2  C2  DEN d   1      -5.998   3.728   4.965  0.00  0.00    -0.031 A 
ATOM      3  C3  DEN d   1      -5.990   3.018   3.670  0.00  0.00     0.027 A 
ATOM      4  C4  DEN d   1      -5.369   0.566   3.167  0.00  0.00     0.027 A 
ATOM      5  C5  DEN d   1      -4.935  -0.618   3.721  0.00  0.00    -0.003 A 
ATOM      6  C6  DEN d   1      -4.653  -0.740   5.056  0.00  0.00     0.001 A 
ATOM      7  C7  DEN d   1      -4.845   0.329   5.891  0.00  0.00     0.017 A 
ATOM      8  C8  DEN d   1      -5.276   1.529   5.338  0.00  0.00    -0.094 A 
ATOM      9  C9  DEN d   1      -5.567   1.628   3.989  0.00  0.00    -0.072 A 
ENDROOT
TORSDOF 0
ENDMDL
