MODEL 1
REMARK minimizedAffinity -1.9374851
REMARK minimizedRMSD -1
REMARK  0 active torsions:
REMARK  status: ('A' for Active; 'I' for Inactive)
ROOT
ATOM      1  C1  DEN d   1      -3.557   1.410   1.598  0.00  0.00     0.130 A 
ATOM      2  C2  DEN d   1      -3.570   0.120   0.913  0.00  0.00    -0.031 A 
ATOM      3  C3  DEN d   1      -2.344  -0.610   1.292  0.00  0.00     0.027 A 
ATOM      4  C4  DEN d   1      -0.438   0.125   2.867  0.00  0.00     0.027 A 
ATOM      5  C5  DEN d   1       0.022   1.142   3.673  0.00  0.00    -0.003 A 
ATOM      6  C6  DEN d   1      -0.655   2.324   3.816  0.00  0.00     0.001 A 
ATOM      7  C7  DEN d   1      -1.854   2.501   3.178  0.00  0.00     0.017 A 
ATOM      8  C8  DEN d   1      -2.322   1.482   2.358  0.00  0.00    -0.094 A 
ATOM      9  C9  DEN d   1      -1.628   0.290   2.236  0.00  0.00    -0.072 A 
ENDROOT
TORSDOF 0
ENDMDL
