MODEL 1
REMARK minimizedAffinity 6.88460732
REMARK minimizedRMSD -1
REMARK  0 active torsions:
REMARK  status: ('A' for Active; 'I' for Inactive)
ROOT
ATOM      1  C1  DEN d   1       2.334  -5.999   2.181  0.00  0.00     0.130 A 
ATOM      2  C2  DEN d   1       1.390  -4.928   1.874  0.00  0.00    -0.031 A 
ATOM      3  C3  DEN d   1       2.151  -3.670   1.744  0.00  0.00     0.027 A 
ATOM      4  C4  DEN d   1       4.690  -3.278   1.982  0.00  0.00     0.027 A 
ATOM      5  C5  DEN d   1       5.898  -3.882   2.251  0.00  0.00    -0.003 A 
ATOM      6  C6  DEN d   1       5.999  -5.215   2.546  0.00  0.00     0.001 A 
ATOM      7  C7  DEN d   1       4.876  -6.000   2.535  0.00  0.00     0.017 A 
ATOM      8  C8  DEN d   1       3.652  -5.397   2.273  0.00  0.00    -0.094 A 
ATOM      9  C9  DEN d   1       3.573  -4.049   1.965  0.00  0.00    -0.072 A 
ENDROOT
TORSDOF 0
ENDMDL
