MODEL 1
REMARK minimizedAffinity 12.7324486
REMARK minimizedRMSD -1
REMARK  0 active torsions:
REMARK  status: ('A' for Active; 'I' for Inactive)
ROOT
ATOM      1  C1  DEN d   1      -0.739  -0.385   2.056  0.00  0.00     0.130 A 
ATOM      2  C2  DEN d   1      -1.406   0.914   2.088  0.00  0.00    -0.031 A 
ATOM      3  C3  DEN d   1      -2.720   0.769   1.428  0.00  0.00     0.027 A 
ATOM      4  C4  DEN d   1      -3.781  -1.331   0.370  0.00  0.00     0.027 A 
ATOM      5  C5  DEN d   1      -3.590  -2.666   0.091  0.00  0.00    -0.003 A 
ATOM      6  C6  DEN d   1      -2.431  -3.320   0.414  0.00  0.00     0.001 A 
ATOM      7  C7  DEN d   1      -1.435  -2.652   1.076  0.00  0.00     0.017 A 
ATOM      8  C8  DEN d   1      -1.618  -1.304   1.354  0.00  0.00    -0.094 A 
ATOM      9  C9  DEN d   1      -2.802  -0.663   1.031  0.00  0.00    -0.072 A 
ENDROOT
TORSDOF 0
ENDMDL
