MODEL 1
REMARK minimizedAffinity 9.63457394
REMARK minimizedRMSD -1
REMARK  0 active torsions:
REMARK  status: ('A' for Active; 'I' for Inactive)
ROOT
ATOM      1  C1  DEN d   1       4.471   0.852  -4.709  0.00  0.00     0.130 A 
ATOM      2  C2  DEN d   1       4.406   0.172  -6.000  0.00  0.00    -0.031 A 
ATOM      3  C3  DEN d   1       3.210  -0.694  -6.000  0.00  0.00     0.027 A 
ATOM      4  C4  DEN d   1       1.459  -1.043  -4.139  0.00  0.00     0.027 A 
ATOM      5  C5  DEN d   1       1.098  -0.690  -2.857  0.00  0.00    -0.003 A 
ATOM      6  C6  DEN d   1       1.847   0.168  -2.097  0.00  0.00     0.001 A 
ATOM      7  C7  DEN d   1       2.973   0.738  -2.629  0.00  0.00     0.017 A 
ATOM      8  C8  DEN d   1       3.349   0.382  -3.917  0.00  0.00    -0.094 A 
ATOM      9  C9  DEN d   1       2.571  -0.478  -4.674  0.00  0.00    -0.072 A 
ENDROOT
TORSDOF 0
ENDMDL
