MODEL 1
REMARK minimizedAffinity 11.4101706
REMARK minimizedRMSD -1
REMARK  0 active torsions:
REMARK  status: ('A' for Active; 'I' for Inactive)
ROOT
ATOM      1  C1  DEN d   1       5.647  -2.484   2.548  0.00  0.00     0.130 A 
ATOM      2  C2  DEN d   1       5.701  -1.153   3.147  0.00  0.00    -0.031 A 
ATOM      3  C3  DEN d   1       5.808  -1.316   4.610  0.00  0.00     0.027 A 
ATOM      4  C4  DEN d   1       5.900  -3.487   6.000  0.00  0.00     0.027 A 
ATOM      5  C5  DEN d   1       5.874  -4.862   5.936  0.00  0.00    -0.003 A 
ATOM      6  C6  DEN d   1       5.738  -5.536   4.751  0.00  0.00     0.001 A 
ATOM      7  C7  DEN d   1       5.667  -4.834   3.576  0.00  0.00     0.017 A 
ATOM      8  C8  DEN d   1       5.685  -3.447   3.633  0.00  0.00    -0.094 A 
ATOM      9  C9  DEN d   1       5.836  -2.785   4.840  0.00  0.00    -0.072 A 
ENDROOT
TORSDOF 0
ENDMDL
