MODEL 1
REMARK minimizedAffinity 13.9272442
REMARK minimizedRMSD -1
REMARK  0 active torsions:
REMARK  status: ('A' for Active; 'I' for Inactive)
ROOT
ATOM      1  C1  DEN d   1       5.943  -1.561   4.730  0.00  0.00     0.130 A 
ATOM      2  C2  DEN d   1       5.972  -0.609   5.837  0.00  0.00    -0.031 A 
ATOM      3  C3  DEN d   1       6.000   0.753   5.267  0.00  0.00     0.027 A 
ATOM      4  C4  DEN d   1       5.996   1.476   2.791  0.00  0.00     0.027 A 
ATOM      5  C5  DEN d   1       5.989   1.025   1.490  0.00  0.00    -0.003 A 
ATOM      6  C6  DEN d   1       6.000  -0.309   1.180  0.00  0.00     0.001 A 
ATOM      7  C7  DEN d   1       5.973  -1.240   2.185  0.00  0.00     0.017 A 
ATOM      8  C8  DEN d   1       5.988  -0.793   3.499  0.00  0.00    -0.094 A 
ATOM      9  C9  DEN d   1       5.965   0.560   3.792  0.00  0.00    -0.072 A 
ENDROOT
TORSDOF 0
ENDMDL
