MODEL 1
REMARK minimizedAffinity 7.31143761
REMARK minimizedRMSD -1
REMARK  0 active torsions:
REMARK  status: ('A' for Active; 'I' for Inactive)
ROOT
ATOM      1  C1  DEN d   1      -0.052  -0.232   1.791  0.00  0.00     0.130 A 
ATOM      2  C2  DEN d   1      -0.236   1.117   2.321  0.00  0.00    -0.031 A 
ATOM      3  C3  DEN d   1      -1.639   1.513   2.081  0.00  0.00     0.027 A 
ATOM      4  C4  DEN d   1      -3.533   0.176   0.953  0.00  0.00     0.027 A 
ATOM      5  C5  DEN d   1      -3.854  -1.011   0.333  0.00  0.00    -0.003 A 
ATOM      6  C6  DEN d   1      -2.929  -2.000   0.126  0.00  0.00     0.001 A 
ATOM      7  C7  DEN d   1      -1.648  -1.838   0.584  0.00  0.00     0.017 A 
ATOM      8  C8  DEN d   1      -1.316  -0.641   1.204  0.00  0.00    -0.094 A 
ATOM      9  C9  DEN d   1      -2.268   0.342   1.414  0.00  0.00    -0.072 A 
ENDROOT
TORSDOF 0
ENDMDL
