MODEL 1
REMARK minimizedAffinity 14.8716154
REMARK minimizedRMSD -1
REMARK  0 active torsions:
REMARK  status: ('A' for Active; 'I' for Inactive)
ROOT
ATOM      1  C1  DEN d   1      -4.118   0.551   4.481  0.00  0.00     0.130 A 
ATOM      2  C2  DEN d   1      -5.565   0.355   4.446  0.00  0.00    -0.031 A 
ATOM      3  C3  DEN d   1      -6.000   0.421   3.036  0.00  0.00     0.027 A 
ATOM      4  C4  DEN d   1      -4.580   0.801   0.916  0.00  0.00     0.027 A 
ATOM      5  C5  DEN d   1      -3.307   1.029   0.444  0.00  0.00    -0.003 A 
ATOM      6  C6  DEN d   1      -2.228   1.147   1.280  0.00  0.00     0.001 A 
ATOM      7  C7  DEN d   1      -2.396   0.992   2.631  0.00  0.00     0.017 A 
ATOM      8  C8  DEN d   1      -3.679   0.769   3.115  0.00  0.00    -0.094 A 
ATOM      9  C9  DEN d   1      -4.754   0.641   2.252  0.00  0.00    -0.072 A 
ENDROOT
TORSDOF 0
ENDMDL
