MODEL 1
REMARK minimizedAffinity 3.0950284
REMARK minimizedRMSD -1
REMARK  0 active torsions:
REMARK  status: ('A' for Active; 'I' for Inactive)
ROOT
ATOM      1  O1  BZF d   1       4.460  -0.304   1.562  0.00  0.00    -0.204 OA
ATOM      2  C2  BZF d   1       4.725  -0.876   2.791  0.00  0.00     0.174 A 
ATOM      3  C3  BZF d   1       3.588  -1.303   3.376  0.00  0.00    -0.012 A 
ATOM      4  C3A BZF d   1       2.556  -1.061   2.414  0.00  0.00    -0.107 A 
ATOM      5  C4  BZF d   1       1.210  -1.287   2.404  0.00  0.00     0.055 A 
ATOM      6  C5  BZF d   1       0.477  -0.867   1.339  0.00  0.00    -0.016 A 
ATOM      7  C6  BZF d   1       1.057  -0.214   0.271  0.00  0.00     0.022 A 
ATOM      8  C7  BZF d   1       2.390   0.028   0.233  0.00  0.00     0.029 A 
ATOM      9  C7A BZF d   1       3.138  -0.425   1.293  0.00  0.00     0.058 A 
ENDROOT
TORSDOF 0
ENDMDL
