MODEL 1
REMARK minimizedAffinity 2.24017501
REMARK minimizedRMSD -1
REMARK  0 active torsions:
REMARK  status: ('A' for Active; 'I' for Inactive)
ROOT
ATOM      1  O1  BZF d   1      -2.148   3.293  -5.070  0.00  0.00    -0.204 OA
ATOM      2  C2  BZF d   1      -0.829   3.607  -4.803  0.00  0.00     0.174 A 
ATOM      3  C3  BZF d   1      -0.374   2.902  -3.747  0.00  0.00    -0.012 A 
ATOM      4  C3A BZF d   1      -1.449   2.028  -3.387  0.00  0.00    -0.107 A 
ATOM      5  C4  BZF d   1      -1.599   1.072  -2.424  0.00  0.00     0.055 A 
ATOM      6  C5  BZF d   1      -2.800   0.451  -2.291  0.00  0.00    -0.016 A 
ATOM      7  C6  BZF d   1      -3.873   0.764  -3.100  0.00  0.00     0.022 A 
ATOM      8  C7  BZF d   1      -3.771   1.702  -4.073  0.00  0.00     0.029 A 
ATOM      9  C7A BZF d   1      -2.548   2.308  -4.231  0.00  0.00     0.058 A 
ENDROOT
TORSDOF 0
ENDMDL
