MODEL 1
REMARK minimizedAffinity -1.84221709
REMARK minimizedRMSD -1
REMARK  0 active torsions:
REMARK  status: ('A' for Active; 'I' for Inactive)
ROOT
ATOM      1  O1  BZF d   1       0.497  -0.034   0.841  0.00  0.00    -0.204 OA
ATOM      2  C2  BZF d   1       1.153  -0.002  -0.374  0.00  0.00     0.174 A 
ATOM      3  C3  BZF d   1       2.452  -0.332  -0.225  0.00  0.00    -0.012 A 
ATOM      4  C3A BZF d   1       2.597  -0.675   1.156  0.00  0.00    -0.107 A 
ATOM      5  C4  BZF d   1       3.652  -1.101   1.912  0.00  0.00     0.055 A 
ATOM      6  C5  BZF d   1       3.478  -1.279   3.248  0.00  0.00    -0.016 A 
ATOM      7  C6  BZF d   1       2.266  -1.035   3.861  0.00  0.00     0.022 A 
ATOM      8  C7  BZF d   1       1.190  -0.616   3.152  0.00  0.00     0.029 A 
ATOM      9  C7A BZF d   1       1.354  -0.468   1.797  0.00  0.00     0.058 A 
ENDROOT
TORSDOF 0
ENDMDL
