MODEL 1
REMARK minimizedAffinity -3.6817615
REMARK minimizedRMSD -1
REMARK  0 active torsions:
REMARK  status: ('A' for Active; 'I' for Inactive)
ROOT
ATOM      1  O1  BZF d   1      -0.919  -6.000  -2.604  0.00  0.00    -0.204 OA
ATOM      2  C2  BZF d   1      -2.187  -6.000  -3.153  0.00  0.00     0.174 A 
ATOM      3  C3  BZF d   1      -2.126  -5.890  -4.495  0.00  0.00    -0.012 A 
ATOM      4  C3A BZF d   1      -0.731  -5.909  -4.812  0.00  0.00    -0.107 A 
ATOM      5  C4  BZF d   1      -0.034  -5.849  -5.985  0.00  0.00     0.055 A 
ATOM      6  C5  BZF d   1       1.324  -5.817  -5.945  0.00  0.00    -0.016 A 
ATOM      7  C6  BZF d   1       2.016  -5.839  -4.752  0.00  0.00     0.022 A 
ATOM      8  C7  BZF d   1       1.368  -5.903  -3.563  0.00  0.00     0.029 A 
ATOM      9  C7A BZF d   1      -0.003  -5.969  -3.602  0.00  0.00     0.058 A 
ENDROOT
TORSDOF 0
ENDMDL
