MODEL 1
REMARK minimizedAffinity -3.71491933
REMARK minimizedRMSD -1
REMARK  0 active torsions:
REMARK  status: ('A' for Active; 'I' for Inactive)
ROOT
ATOM      1  O1  BZF d   1       0.519   0.447   1.180  0.00  0.00    -0.204 OA
ATOM      2  C2  BZF d   1       1.102   0.588  -0.065  0.00  0.00     0.174 A 
ATOM      3  C3  BZF d   1       2.097  -0.306  -0.232  0.00  0.00    -0.012 A 
ATOM      4  C3A BZF d   1       2.078  -1.115   0.949  0.00  0.00    -0.107 A 
ATOM      5  C4  BZF d   1       2.819  -2.183   1.367  0.00  0.00     0.055 A 
ATOM      6  C5  BZF d   1       2.596  -2.698   2.605  0.00  0.00    -0.016 A 
ATOM      7  C6  BZF d   1       1.646  -2.165   3.451  0.00  0.00     0.022 A 
ATOM      8  C7  BZF d   1       0.883  -1.108   3.079  0.00  0.00     0.029 A 
ATOM      9  C7A BZF d   1       1.083  -0.607   1.816  0.00  0.00     0.058 A 
ENDROOT
TORSDOF 0
ENDMDL
