MODEL 1
REMARK minimizedAffinity 0.204060405
REMARK minimizedRMSD -1
REMARK  0 active torsions:
REMARK  status: ('A' for Active; 'I' for Inactive)
ROOT
ATOM      1  O1  BZF d   1      -4.436  -5.146   3.480  0.00  0.00    -0.204 OA
ATOM      2  C2  BZF d   1      -5.721  -5.642   3.381  0.00  0.00     0.174 A 
ATOM      3  C3  BZF d   1      -6.000  -6.000   2.111  0.00  0.00    -0.012 A 
ATOM      4  C3A BZF d   1      -4.783  -5.795   1.387  0.00  0.00    -0.107 A 
ATOM      5  C4  BZF d   1      -4.422  -5.985   0.084  0.00  0.00     0.055 A 
ATOM      6  C5  BZF d   1      -3.177  -5.617  -0.318  0.00  0.00    -0.016 A 
ATOM      7  C6  BZF d   1      -2.270  -5.052   0.555  0.00  0.00     0.022 A 
ATOM      8  C7  BZF d   1      -2.581  -4.848   1.858  0.00  0.00     0.029 A 
ATOM      9  C7A BZF d   1      -3.827  -5.249   2.274  0.00  0.00     0.058 A 
ENDROOT
TORSDOF 0
ENDMDL
