MODEL 1
REMARK minimizedAffinity -4.64496183
REMARK minimizedRMSD -1
REMARK  0 active torsions:
REMARK  status: ('A' for Active; 'I' for Inactive)
ROOT
ATOM      1  O1  BZF d   1      -2.812  -5.934   1.337  0.00  0.00    -0.204 OA
ATOM      2  C2  BZF d   1      -3.569  -5.922   2.492  0.00  0.00     0.174 A 
ATOM      3  C3  BZF d   1      -4.885  -5.885   2.201  0.00  0.00    -0.012 A 
ATOM      4  C3A BZF d   1      -4.958  -5.966   0.775  0.00  0.00    -0.107 A 
ATOM      5  C4  BZF d   1      -5.995  -5.990  -0.113  0.00  0.00     0.055 A 
ATOM      6  C5  BZF d   1      -5.725  -6.000  -1.445  0.00  0.00    -0.016 A 
ATOM      7  C6  BZF d   1      -4.432  -5.980  -1.923  0.00  0.00     0.022 A 
ATOM      8  C7  BZF d   1      -3.370  -5.961  -1.082  0.00  0.00     0.029 A 
ATOM      9  C7A BZF d   1      -3.639  -5.985   0.265  0.00  0.00     0.058 A 
ENDROOT
TORSDOF 0
ENDMDL
