MODEL 1
REMARK minimizedAffinity -3.44462848
REMARK minimizedRMSD -1
REMARK  0 active torsions:
REMARK  status: ('A' for Active; 'I' for Inactive)
ROOT
ATOM      1  O1  BZF d   1      -1.882  -5.766  -5.772  0.00  0.00    -0.204 OA
ATOM      2  C2  BZF d   1      -0.536  -5.555  -6.000  0.00  0.00     0.174 A 
ATOM      3  C3  BZF d   1       0.131  -5.418  -4.835  0.00  0.00    -0.012 A 
ATOM      4  C3A BZF d   1      -0.845  -5.643  -3.814  0.00  0.00    -0.107 A 
ATOM      5  C4  BZF d   1      -0.790  -5.659  -2.449  0.00  0.00     0.055 A 
ATOM      6  C5  BZF d   1      -1.938  -5.838  -1.744  0.00  0.00    -0.016 A 
ATOM      7  C6  BZF d   1      -3.157  -5.999  -2.369  0.00  0.00     0.022 A 
ATOM      8  C7  BZF d   1      -3.261  -5.996  -3.721  0.00  0.00     0.029 A 
ATOM      9  C7A BZF d   1      -2.098  -5.849  -4.437  0.00  0.00     0.058 A 
ENDROOT
TORSDOF 0
ENDMDL
