MODEL 1
REMARK minimizedAffinity -0.919728696
REMARK minimizedRMSD -1
REMARK  0 active torsions:
REMARK  status: ('A' for Active; 'I' for Inactive)
ROOT
ATOM      1  O1  BZF d   1       0.165  -4.977  -3.861  0.00  0.00    -0.204 OA
ATOM      2  C2  BZF d   1       0.785  -5.157  -5.083  0.00  0.00     0.174 A 
ATOM      3  C3  BZF d   1      -0.089  -5.620  -5.999  0.00  0.00    -0.012 A 
ATOM      4  C3A BZF d   1      -1.354  -5.648  -5.332  0.00  0.00    -0.107 A 
ATOM      5  C4  BZF d   1      -2.614  -6.000  -5.723  0.00  0.00     0.055 A 
ATOM      6  C5  BZF d   1      -3.619  -5.984  -4.808  0.00  0.00    -0.016 A 
ATOM      7  C6  BZF d   1      -3.398  -5.626  -3.494  0.00  0.00     0.022 A 
ATOM      8  C7  BZF d   1      -2.166  -5.264  -3.060  0.00  0.00     0.029 A 
ATOM      9  C7A BZF d   1      -1.156  -5.248  -3.990  0.00  0.00     0.058 A 
ENDROOT
TORSDOF 0
ENDMDL
