MODEL 1
REMARK minimizedAffinity 4.61946201
REMARK minimizedRMSD -1
REMARK  0 active torsions:
REMARK  status: ('A' for Active; 'I' for Inactive)
ROOT
ATOM      1  O1  BZF d   1       0.729  -5.038  -4.758  0.00  0.00    -0.204 OA
ATOM      2  C2  BZF d   1       0.340  -5.503  -5.999  0.00  0.00     0.174 A 
ATOM      3  C3  BZF d   1      -0.913  -5.999  -5.953  0.00  0.00    -0.012 A 
ATOM      4  C3A BZF d   1      -1.368  -5.750  -4.620  0.00  0.00    -0.107 A 
ATOM      5  C4  BZF d   1      -2.541  -5.998  -3.965  0.00  0.00     0.055 A 
ATOM      6  C5  BZF d   1      -2.637  -5.696  -2.644  0.00  0.00    -0.016 A 
ATOM      7  C6  BZF d   1      -1.580  -5.150  -1.945  0.00  0.00     0.022 A 
ATOM      8  C7  BZF d   1      -0.398  -4.881  -2.552  0.00  0.00     0.029 A 
ATOM      9  C7A BZF d   1      -0.309  -5.155  -3.895  0.00  0.00     0.058 A 
ENDROOT
TORSDOF 0
ENDMDL
