MODEL 1
REMARK minimizedAffinity 4.79879141
REMARK minimizedRMSD -1
REMARK  0 active torsions:
REMARK  status: ('A' for Active; 'I' for Inactive)
ROOT
ATOM      1  O1  BZF d   1      -5.997   0.317   0.451  0.00  0.00    -0.204 OA
ATOM      2  C2  BZF d   1      -5.008   0.010   1.366  0.00  0.00     0.174 A 
ATOM      3  C3  BZF d   1      -3.809  -0.094   0.757  0.00  0.00    -0.012 A 
ATOM      4  C3A BZF d   1      -4.049   0.255  -0.609  0.00  0.00    -0.107 A 
ATOM      5  C4  BZF d   1      -3.245   0.353  -1.709  0.00  0.00     0.055 A 
ATOM      6  C5  BZF d   1      -3.804   0.646  -2.912  0.00  0.00    -0.016 A 
ATOM      7  C6  BZF d   1      -5.162   0.842  -3.053  0.00  0.00     0.022 A 
ATOM      8  C7  BZF d   1      -6.000   0.760  -1.991  0.00  0.00     0.029 A 
ATOM      9  C7A BZF d   1      -5.434   0.497  -0.768  0.00  0.00     0.058 A 
ENDROOT
TORSDOF 0
ENDMDL
