MODEL 1
REMARK minimizedAffinity -3.79637575
REMARK minimizedRMSD -1
REMARK  0 active torsions:
REMARK  status: ('A' for Active; 'I' for Inactive)
ROOT
ATOM      1  O1  BZF d   1      -1.840  -5.563  -5.763  0.00  0.00    -0.204 OA
ATOM      2  C2  BZF d   1      -0.539  -5.162  -5.998  0.00  0.00     0.174 A 
ATOM      3  C3  BZF d   1       0.111  -4.939  -4.837  0.00  0.00    -0.012 A 
ATOM      4  C3A BZF d   1      -0.816  -5.308  -3.811  0.00  0.00    -0.107 A 
ATOM      5  C4  BZF d   1      -0.749  -5.324  -2.447  0.00  0.00     0.055 A 
ATOM      6  C5  BZF d   1      -1.854  -5.669  -1.736  0.00  0.00    -0.016 A 
ATOM      7  C6  BZF d   1      -3.042  -5.997  -2.354  0.00  0.00     0.022 A 
ATOM      8  C7  BZF d   1      -3.156  -6.000  -3.705  0.00  0.00     0.029 A 
ATOM      9  C7A BZF d   1      -2.032  -5.684  -4.427  0.00  0.00     0.058 A 
ENDROOT
TORSDOF 0
ENDMDL
