MODEL 1
REMARK minimizedAffinity 4.32533884
REMARK minimizedRMSD -1
REMARK  0 active torsions:
REMARK  status: ('A' for Active; 'I' for Inactive)
ROOT
ATOM      1  O1  BZF d   1      -0.730   1.816  -3.507  0.00  0.00    -0.204 OA
ATOM      2  C2  BZF d   1      -0.744   3.121  -3.960  0.00  0.00     0.174 A 
ATOM      3  C3  BZF d   1      -0.443   3.976  -2.962  0.00  0.00    -0.012 A 
ATOM      4  C3A BZF d   1      -0.138   3.148  -1.836  0.00  0.00    -0.107 A 
ATOM      5  C4  BZF d   1       0.249   3.413  -0.553  0.00  0.00     0.055 A 
ATOM      6  C5  BZF d   1       0.395   2.381   0.319  0.00  0.00    -0.016 A 
ATOM      7  C6  BZF d   1       0.159   1.075  -0.056  0.00  0.00     0.022 A 
ATOM      8  C7  BZF d   1      -0.221   0.762  -1.318  0.00  0.00     0.029 A 
ATOM      9  C7A BZF d   1      -0.338   1.800  -2.211  0.00  0.00     0.058 A 
ENDROOT
TORSDOF 0
ENDMDL
