MODEL 1
REMARK minimizedAffinity 3.0837369
REMARK minimizedRMSD -1
REMARK  0 active torsions:
REMARK  status: ('A' for Active; 'I' for Inactive)
ROOT
ATOM      1  O1  BZF d   1      -2.477   1.330  -2.353  0.00  0.00    -0.204 OA
ATOM      2  C2  BZF d   1      -3.799   1.522  -2.706  0.00  0.00     0.174 A 
ATOM      3  C3  BZF d   1      -3.923   2.570  -3.545  0.00  0.00    -0.012 A 
ATOM      4  C3A BZF d   1      -2.585   3.008  -3.801  0.00  0.00    -0.107 A 
ATOM      5  C4  BZF d   1      -2.054   4.002  -4.572  0.00  0.00     0.055 A 
ATOM      6  C5  BZF d   1      -0.711   4.212  -4.545  0.00  0.00    -0.016 A 
ATOM      7  C6  BZF d   1       0.127   3.451  -3.757  0.00  0.00     0.022 A 
ATOM      8  C7  BZF d   1      -0.353   2.450  -2.980  0.00  0.00     0.029 A 
ATOM      9  C7A BZF d   1      -1.705   2.214  -3.029  0.00  0.00     0.058 A 
ENDROOT
TORSDOF 0
ENDMDL
