MODEL 1
REMARK minimizedAffinity 2.31273127
REMARK minimizedRMSD -1
REMARK  0 active torsions:
REMARK  status: ('A' for Active; 'I' for Inactive)
ROOT
ATOM      1  O1  BZF d   1      -1.675  -5.909  -3.722  0.00  0.00    -0.204 OA
ATOM      2  C2  BZF d   1      -2.405  -5.979  -4.893  0.00  0.00     0.174 A 
ATOM      3  C3  BZF d   1      -1.589  -5.970  -5.967  0.00  0.00    -0.012 A 
ATOM      4  C3A BZF d   1      -0.263  -5.983  -5.431  0.00  0.00    -0.107 A 
ATOM      5  C4  BZF d   1       0.979  -5.997  -6.000  0.00  0.00     0.055 A 
ATOM      6  C5  BZF d   1       2.074  -5.933  -5.197  0.00  0.00    -0.016 A 
ATOM      7  C6  BZF d   1       1.963  -5.848  -3.824  0.00  0.00     0.022 A 
ATOM      8  C7  BZF d   1       0.753  -5.836  -3.215  0.00  0.00     0.029 A 
ATOM      9  C7A BZF d   1      -0.354  -5.934  -4.021  0.00  0.00     0.058 A 
ENDROOT
TORSDOF 0
ENDMDL
