MODEL 1
REMARK minimizedAffinity -1.8490262
REMARK minimizedRMSD -1
REMARK  0 active torsions:
REMARK  status: ('A' for Active; 'I' for Inactive)
ROOT
ATOM      1  O1  BZF d   1       4.257  -1.099   1.368  0.00  0.00    -0.204 OA
ATOM      2  C2  BZF d   1       4.380  -1.292   2.730  0.00  0.00     0.174 A 
ATOM      3  C3  BZF d   1       3.187  -1.149   3.343  0.00  0.00    -0.012 A 
ATOM      4  C3A BZF d   1       2.244  -0.938   2.288  0.00  0.00    -0.107 A 
ATOM      5  C4  BZF d   1       0.893  -0.745   2.261  0.00  0.00     0.055 A 
ATOM      6  C5  BZF d   1       0.285  -0.496   1.071  0.00  0.00    -0.016 A 
ATOM      7  C6  BZF d   1       0.997  -0.428  -0.108  0.00  0.00     0.022 A 
ATOM      8  C7  BZF d   1       2.339  -0.618  -0.132  0.00  0.00     0.029 A 
ATOM      9  C7A BZF d   1       2.951  -0.903   1.064  0.00  0.00     0.058 A 
ENDROOT
TORSDOF 0
ENDMDL
