MODEL 1
REMARK minimizedAffinity 1.18436611
REMARK minimizedRMSD -1
REMARK  0 active torsions:
REMARK  status: ('A' for Active; 'I' for Inactive)
ROOT
ATOM      1  O1  BZF d   1      -1.748  -5.980  -5.967  0.00  0.00    -0.204 OA
ATOM      2  C2  BZF d   1      -0.371  -5.873  -6.000  0.00  0.00     0.174 A 
ATOM      3  C3  BZF d   1       0.126  -5.714  -4.757  0.00  0.00    -0.012 A 
ATOM      4  C3A BZF d   1      -1.003  -5.815  -3.884  0.00  0.00    -0.107 A 
ATOM      5  C4  BZF d   1      -1.150  -5.755  -2.527  0.00  0.00     0.055 A 
ATOM      6  C5  BZF d   1      -2.399  -5.816  -1.995  0.00  0.00    -0.016 A 
ATOM      7  C6  BZF d   1      -3.522  -5.932  -2.788  0.00  0.00     0.022 A 
ATOM      8  C7  BZF d   1      -3.426  -6.000  -4.138  0.00  0.00     0.029 A 
ATOM      9  C7A BZF d   1      -2.163  -5.971  -4.678  0.00  0.00     0.058 A 
ENDROOT
TORSDOF 0
ENDMDL
