MODEL 1
REMARK minimizedAffinity 7.34944201
REMARK minimizedRMSD -1
REMARK  0 active torsions:
REMARK  status: ('A' for Active; 'I' for Inactive)
ROOT
ATOM      1  C   UNL d   1      -0.134  -1.005   1.068  0.00  0.00     0.077 C 
ATOM      2  C1  UNL d   1      -0.126  -1.762   2.363  0.00  0.00    -0.074 A 
ATOM      3  C2  UNL d   1       1.072  -2.219   2.922  0.00  0.00    -0.005 A 
ATOM      4  C3  UNL d   1       1.065  -2.913   4.132  0.00  0.00     0.006 A 
ATOM      5  C4  UNL d   1      -0.139  -3.157   4.794  0.00  0.00    -0.005 A 
ATOM      6  C5  UNL d   1      -1.347  -2.707   4.251  0.00  0.00    -0.074 A 
ATOM      7  C6  UNL d   1      -2.648  -2.952   4.956  0.00  0.00     0.077 C 
ATOM      8  C7  UNL d   1      -1.330  -2.004   3.039  0.00  0.00    -0.001 A 
ENDROOT
TORSDOF 0
ENDMDL
