MODEL 1
REMARK minimizedAffinity -0.432276964
REMARK minimizedRMSD -1
REMARK  0 active torsions:
REMARK  status: ('A' for Active; 'I' for Inactive)
ROOT
ATOM      1  C   UNL d   1       1.056  -0.723  -0.337  0.00  0.00     0.077 C 
ATOM      2  C1  UNL d   1       0.371  -1.189   0.914  0.00  0.00    -0.074 A 
ATOM      3  C2  UNL d   1      -0.933  -0.783   1.213  0.00  0.00    -0.005 A 
ATOM      4  C3  UNL d   1      -1.561  -1.233   2.375  0.00  0.00     0.006 A 
ATOM      5  C4  UNL d   1      -0.891  -2.092   3.247  0.00  0.00    -0.005 A 
ATOM      6  C5  UNL d   1       0.413  -2.510   2.964  0.00  0.00    -0.074 A 
ATOM      7  C6  UNL d   1       1.143  -3.440   3.886  0.00  0.00     0.077 C 
ATOM      8  C7  UNL d   1       1.034  -2.059   1.791  0.00  0.00    -0.001 A 
ENDROOT
TORSDOF 0
ENDMDL
