MODEL 1
REMARK minimizedAffinity 10.9290314
REMARK minimizedRMSD -1
REMARK  0 active torsions:
REMARK  status: ('A' for Active; 'I' for Inactive)
ROOT
ATOM      1  C   UNL d   1      -4.021  -1.807  -5.956  0.00  0.00     0.077 C 
ATOM      2  C1  UNL d   1      -3.718  -3.269  -5.822  0.00  0.00    -0.074 A 
ATOM      3  C2  UNL d   1      -4.719  -4.230  -5.999  0.00  0.00    -0.005 A 
ATOM      4  C3  UNL d   1      -4.419  -5.588  -5.881  0.00  0.00     0.006 A 
ATOM      5  C4  UNL d   1      -3.118  -5.997  -5.586  0.00  0.00    -0.005 A 
ATOM      6  C5  UNL d   1      -2.104  -5.051  -5.407  0.00  0.00    -0.074 A 
ATOM      7  C6  UNL d   1      -0.699  -5.474  -5.099  0.00  0.00     0.077 C 
ATOM      8  C7  UNL d   1      -2.412  -3.689  -5.534  0.00  0.00    -0.001 A 
ENDROOT
TORSDOF 0
ENDMDL
