MODEL 1
REMARK minimizedAffinity 4.2405262
REMARK minimizedRMSD -1
REMARK  0 active torsions:
REMARK  status: ('A' for Active; 'I' for Inactive)
ROOT
ATOM      1  C   UNL d   1      -3.439  -1.728  -5.673  0.00  0.00     0.077 C 
ATOM      2  C1  UNL d   1      -3.281  -3.219  -5.727  0.00  0.00    -0.074 A 
ATOM      3  C2  UNL d   1      -4.388  -4.053  -5.910  0.00  0.00    -0.005 A 
ATOM      4  C3  UNL d   1      -4.224  -5.437  -5.968  0.00  0.00     0.006 A 
ATOM      5  C4  UNL d   1      -2.953  -6.000  -5.844  0.00  0.00    -0.005 A 
ATOM      6  C5  UNL d   1      -1.834  -5.181  -5.661  0.00  0.00    -0.074 A 
ATOM      7  C6  UNL d   1      -0.460  -5.769  -5.536  0.00  0.00     0.077 C 
ATOM      8  C7  UNL d   1      -2.006  -3.791  -5.611  0.00  0.00    -0.001 A 
ENDROOT
TORSDOF 0
ENDMDL
