MODEL 1
REMARK minimizedAffinity 1.12583387
REMARK minimizedRMSD -1
REMARK  0 active torsions:
REMARK  status: ('A' for Active; 'I' for Inactive)
ROOT
ATOM      1  C   UNL d   1      -4.286   4.418  -1.396  0.00  0.00     0.077 C 
ATOM      2  C1  UNL d   1      -2.971   3.965  -1.956  0.00  0.00    -0.074 A 
ATOM      3  C2  UNL d   1      -2.529   4.414  -3.205  0.00  0.00    -0.005 A 
ATOM      4  C3  UNL d   1      -1.299   3.991  -3.709  0.00  0.00     0.006 A 
ATOM      5  C4  UNL d   1      -0.500   3.117  -2.971  0.00  0.00    -0.005 A 
ATOM      6  C5  UNL d   1      -0.925   2.658  -1.720  0.00  0.00    -0.074 A 
ATOM      7  C6  UNL d   1      -0.074   1.726  -0.909  0.00  0.00     0.077 C 
ATOM      8  C7  UNL d   1      -2.159   3.093  -1.217  0.00  0.00    -0.001 A 
ENDROOT
TORSDOF 0
ENDMDL
