MODEL 1
REMARK minimizedAffinity 0.656294823
REMARK minimizedRMSD -1
REMARK  0 active torsions:
REMARK  status: ('A' for Active; 'I' for Inactive)
ROOT
ATOM      1  C   UNL d   1      -1.160  -5.553  -1.710  0.00  0.00     0.077 C 
ATOM      2  C1  UNL d   1      -1.244  -5.606  -3.206  0.00  0.00    -0.074 A 
ATOM      3  C2  UNL d   1      -0.093  -5.512  -3.995  0.00  0.00    -0.005 A 
ATOM      4  C3  UNL d   1      -0.186  -5.573  -5.385  0.00  0.00     0.006 A 
ATOM      5  C4  UNL d   1      -1.429  -5.727  -6.000  0.00  0.00    -0.005 A 
ATOM      6  C5  UNL d   1      -2.591  -5.823  -5.228  0.00  0.00    -0.074 A 
ATOM      7  C6  UNL d   1      -3.934  -5.999  -5.872  0.00  0.00     0.077 C 
ATOM      8  C7  UNL d   1      -2.489  -5.769  -3.831  0.00  0.00    -0.001 A 
ENDROOT
TORSDOF 0
ENDMDL
