MODEL 1
REMARK minimizedAffinity 2.95494843
REMARK minimizedRMSD -1
REMARK  0 active torsions:
REMARK  status: ('A' for Active; 'I' for Inactive)
ROOT
ATOM      1  C   UNL d   1      -4.139  -5.989  -5.751  0.00  0.00     0.077 C 
ATOM      2  C1  UNL d   1      -2.755  -5.897  -5.178  0.00  0.00    -0.074 A 
ATOM      3  C2  UNL d   1      -1.629  -5.999  -6.000  0.00  0.00    -0.005 A 
ATOM      4  C3  UNL d   1      -0.349  -5.902  -5.454  0.00  0.00     0.006 A 
ATOM      5  C4  UNL d   1      -0.183  -5.703  -4.083  0.00  0.00    -0.005 A 
ATOM      6  C5  UNL d   1      -1.298  -5.598  -3.245  0.00  0.00    -0.074 A 
ATOM      7  C6  UNL d   1      -1.137  -5.374  -1.771  0.00  0.00     0.077 C 
ATOM      8  C7  UNL d   1      -2.581  -5.689  -3.802  0.00  0.00    -0.001 A 
ENDROOT
TORSDOF 0
ENDMDL
