MODEL 1
REMARK minimizedAffinity -0.0933133885
REMARK minimizedRMSD -1
REMARK  0 active torsions:
REMARK  status: ('A' for Active; 'I' for Inactive)
ROOT
ATOM      1  C   UNL d   1      -2.584  -4.341  -6.000  0.00  0.00     0.077 C 
ATOM      2  C1  UNL d   1      -3.110  -3.569  -4.826  0.00  0.00    -0.074 A 
ATOM      3  C2  UNL d   1      -2.579  -3.757  -3.546  0.00  0.00    -0.005 A 
ATOM      4  C3  UNL d   1      -3.072  -3.025  -2.466  0.00  0.00     0.006 A 
ATOM      5  C4  UNL d   1      -4.098  -2.099  -2.654  0.00  0.00    -0.005 A 
ATOM      6  C5  UNL d   1      -4.640  -1.896  -3.927  0.00  0.00    -0.074 A 
ATOM      7  C6  UNL d   1      -5.737  -0.897  -4.149  0.00  0.00     0.077 C 
ATOM      8  C7  UNL d   1      -4.135  -2.630  -5.009  0.00  0.00    -0.001 A 
ENDROOT
TORSDOF 0
ENDMDL
