MODEL 1
REMARK minimizedAffinity -0.27354899
REMARK minimizedRMSD -1
REMARK  0 active torsions:
REMARK  status: ('A' for Active; 'I' for Inactive)
ROOT
ATOM      1  C   UNL d   1      -1.615  -4.864  -4.074  0.00  0.00     0.077 C 
ATOM      2  C1  UNL d   1      -2.952  -4.829  -4.753  0.00  0.00    -0.074 A 
ATOM      3  C2  UNL d   1      -3.542  -6.000  -5.239  0.00  0.00    -0.005 A 
ATOM      4  C3  UNL d   1      -4.791  -5.953  -5.860  0.00  0.00     0.006 A 
ATOM      5  C4  UNL d   1      -5.460  -4.737  -6.000  0.00  0.00    -0.005 A 
ATOM      6  C5  UNL d   1      -4.886  -3.556  -5.519  0.00  0.00    -0.074 A 
ATOM      7  C6  UNL d   1      -5.597  -2.242  -5.652  0.00  0.00     0.077 C 
ATOM      8  C7  UNL d   1      -3.635  -3.612  -4.890  0.00  0.00    -0.001 A 
ENDROOT
TORSDOF 0
ENDMDL
