MODEL 1
REMARK minimizedAffinity 15.718236
REMARK minimizedRMSD -1
REMARK  0 active torsions:
REMARK  status: ('A' for Active; 'I' for Inactive)
ROOT
ATOM      1  C   UNL d   1      -0.317  -1.658   0.757  0.00  0.00     0.077 C 
ATOM      2  C1  UNL d   1      -0.083  -2.289   2.097  0.00  0.00    -0.074 A 
ATOM      3  C2  UNL d   1      -1.056  -2.227   3.100  0.00  0.00    -0.005 A 
ATOM      4  C3  UNL d   1      -0.828  -2.827   4.339  0.00  0.00     0.006 A 
ATOM      5  C4  UNL d   1       0.372  -3.495   4.586  0.00  0.00    -0.005 A 
ATOM      6  C5  UNL d   1       1.355  -3.568   3.594  0.00  0.00    -0.074 A 
ATOM      7  C6  UNL d   1       2.647  -4.291   3.840  0.00  0.00     0.077 C 
ATOM      8  C7  UNL d   1       1.117  -2.969   2.350  0.00  0.00    -0.001 A 
ENDROOT
TORSDOF 0
ENDMDL
