MODEL 1
REMARK minimizedAffinity 2.8593955
REMARK minimizedRMSD -1
REMARK  0 active torsions:
REMARK  status: ('A' for Active; 'I' for Inactive)
ROOT
ATOM      1  C   UNL d   1      -4.663  -5.834  -5.956  0.00  0.00     0.077 C 
ATOM      2  C1  UNL d   1      -3.335  -5.837  -5.259  0.00  0.00    -0.074 A 
ATOM      3  C2  UNL d   1      -2.146  -5.996  -5.978  0.00  0.00    -0.005 A 
ATOM      4  C3  UNL d   1      -0.918  -5.986  -5.317  0.00  0.00     0.006 A 
ATOM      5  C4  UNL d   1      -0.866  -5.818  -3.933  0.00  0.00    -0.005 A 
ATOM      6  C5  UNL d   1      -2.044  -5.656  -3.197  0.00  0.00    -0.074 A 
ATOM      7  C6  UNL d   1      -2.006  -5.463  -1.710  0.00  0.00     0.077 C 
ATOM      8  C7  UNL d   1      -3.274  -5.660  -3.869  0.00  0.00    -0.001 A 
ENDROOT
TORSDOF 0
ENDMDL
