MODEL 1
REMARK minimizedAffinity 8.32406425
REMARK minimizedRMSD -1
REMARK  0 active torsions:
REMARK  status: ('A' for Active; 'I' for Inactive)
ROOT
ATOM      1  C   UNL d   1      -4.276  -0.516  -1.792  0.00  0.00     0.077 C 
ATOM      2  C1  UNL d   1      -3.054   0.011  -1.100  0.00  0.00    -0.074 A 
ATOM      3  C2  UNL d   1      -2.819   1.386  -1.005  0.00  0.00    -0.005 A 
ATOM      4  C3  UNL d   1      -1.683   1.862  -0.350  0.00  0.00     0.006 A 
ATOM      5  C4  UNL d   1      -0.772   0.969   0.215  0.00  0.00    -0.005 A 
ATOM      6  C5  UNL d   1      -0.990  -0.410   0.130  0.00  0.00    -0.074 A 
ATOM      7  C6  UNL d   1      -0.026  -1.383   0.740  0.00  0.00     0.077 C 
ATOM      8  C7  UNL d   1      -2.138  -0.880  -0.523  0.00  0.00    -0.001 A 
ENDROOT
TORSDOF 0
ENDMDL
