MODEL 1
REMARK minimizedAffinity 1.88714314
REMARK minimizedRMSD -1
REMARK  0 active torsions:
REMARK  status: ('A' for Active; 'I' for Inactive)
ROOT
ATOM      1  C   UNL d   1      -5.661  -0.471  -1.704  0.00  0.00     0.077 C 
ATOM      2  C1  UNL d   1      -5.460  -0.607  -3.184  0.00  0.00    -0.074 A 
ATOM      3  C2  UNL d   1      -6.000  -1.689  -3.887  0.00  0.00    -0.005 A 
ATOM      4  C3  UNL d   1      -5.812  -1.797  -5.265  0.00  0.00     0.006 A 
ATOM      5  C4  UNL d   1      -5.083  -0.826  -5.953  0.00  0.00    -0.005 A 
ATOM      6  C5  UNL d   1      -4.536   0.263  -5.267  0.00  0.00    -0.074 A 
ATOM      7  C6  UNL d   1      -3.759   1.321  -5.993  0.00  0.00     0.077 C 
ATOM      8  C7  UNL d   1      -4.735   0.368  -3.884  0.00  0.00    -0.001 A 
ENDROOT
TORSDOF 0
ENDMDL
