MODEL 1
REMARK minimizedAffinity -0.668581963
REMARK minimizedRMSD -1
REMARK  0 active torsions:
REMARK  status: ('A' for Active; 'I' for Inactive)
ROOT
ATOM      1  C   UNL d   1      -1.058  -5.295  -5.302  0.00  0.00     0.077 C 
ATOM      2  C1  UNL d   1      -2.503  -4.979  -5.550  0.00  0.00    -0.074 A 
ATOM      3  C2  UNL d   1      -3.453  -6.000  -5.660  0.00  0.00    -0.005 A 
ATOM      4  C3  UNL d   1      -4.795  -5.690  -5.881  0.00  0.00     0.006 A 
ATOM      5  C4  UNL d   1      -5.200  -4.359  -5.996  0.00  0.00    -0.005 A 
ATOM      6  C5  UNL d   1      -4.264  -3.326  -5.888  0.00  0.00    -0.074 A 
ATOM      7  C6  UNL d   1      -4.683  -1.890  -5.999  0.00  0.00     0.077 C 
ATOM      8  C7  UNL d   1      -2.918  -3.645  -5.659  0.00  0.00    -0.001 A 
ENDROOT
TORSDOF 0
ENDMDL
