MODEL 1
REMARK minimizedAffinity 2.70022607
REMARK minimizedRMSD -1
REMARK  0 active torsions:
REMARK  status: ('A' for Active; 'I' for Inactive)
ROOT
ATOM      1  C   UNL d   1      -1.967  -1.884   4.302  0.00  0.00     0.077 C 
ATOM      2  C1  UNL d   1      -1.142  -1.902   3.049  0.00  0.00    -0.074 A 
ATOM      3  C2  UNL d   1      -0.441  -3.050   2.666  0.00  0.00    -0.005 A 
ATOM      4  C3  UNL d   1       0.315  -3.054   1.494  0.00  0.00     0.006 A 
ATOM      5  C4  UNL d   1       0.377  -1.912   0.694  0.00  0.00    -0.005 A 
ATOM      6  C5  UNL d   1      -0.318  -0.755   1.061  0.00  0.00    -0.074 A 
ATOM      7  C6  UNL d   1      -0.269   0.478   0.208  0.00  0.00     0.077 C 
ATOM      8  C7  UNL d   1      -1.081  -0.761   2.237  0.00  0.00    -0.001 A 
ENDROOT
TORSDOF 0
ENDMDL
