MODEL 1
REMARK minimizedAffinity 6.33211613
REMARK minimizedRMSD -1
REMARK  0 active torsions:
REMARK  status: ('A' for Active; 'I' for Inactive)
ROOT
ATOM      1  C   UNL d   1      -2.310  -0.477  -0.636  0.00  0.00     0.077 C 
ATOM      2  C1  UNL d   1      -3.602  -0.407  -1.395  0.00  0.00    -0.074 A 
ATOM      3  C2  UNL d   1      -4.805  -0.126  -0.739  0.00  0.00    -0.005 A 
ATOM      4  C3  UNL d   1      -5.998  -0.054  -1.459  0.00  0.00     0.006 A 
ATOM      5  C4  UNL d   1      -6.000  -0.262  -2.839  0.00  0.00    -0.005 A 
ATOM      6  C5  UNL d   1      -4.806  -0.543  -3.511  0.00  0.00    -0.074 A 
ATOM      7  C6  UNL d   1      -4.788  -0.760  -4.995  0.00  0.00     0.077 C 
ATOM      8  C7  UNL d   1      -3.611  -0.607  -2.782  0.00  0.00    -0.001 A 
ENDROOT
TORSDOF 0
ENDMDL
