MODEL 1
REMARK minimizedAffinity -1.36312187
REMARK minimizedRMSD -1
REMARK  0 active torsions:
REMARK  status: ('A' for Active; 'I' for Inactive)
ROOT
ATOM      1  C   UNL d   1      -3.373  -3.731  -4.147  0.00  0.00     0.077 C 
ATOM      2  C1  UNL d   1      -4.285  -2.572  -3.875  0.00  0.00    -0.074 A 
ATOM      3  C2  UNL d   1      -4.899  -1.879  -4.923  0.00  0.00    -0.005 A 
ATOM      4  C3  UNL d   1      -5.752  -0.809  -4.654  0.00  0.00     0.006 A 
ATOM      5  C4  UNL d   1      -5.999  -0.422  -3.336  0.00  0.00    -0.005 A 
ATOM      6  C5  UNL d   1      -5.395  -1.103  -2.275  0.00  0.00    -0.074 A 
ATOM      7  C6  UNL d   1      -5.657  -0.706  -0.853  0.00  0.00     0.077 C 
ATOM      8  C7  UNL d   1      -4.544  -2.182  -2.553  0.00  0.00    -0.001 A 
ENDROOT
TORSDOF 0
ENDMDL
