MODEL 1
REMARK minimizedAffinity 3.65021396
REMARK minimizedRMSD -1
REMARK  3 active torsions:
REMARK  status: ('A' for Active; 'I' for Inactive)
REMARK    1  A    between atoms: C3'_2  and  C2'_3 
REMARK    2  A    between atoms: C2'_3  and  C1'_4 
REMARK    3  A    between atoms: C1'_4  and  C1_5 
ROOT
ATOM      1  C1  N4B d   1       0.453  -2.274   0.232  0.00  0.00    -0.075 A 
ATOM      2  C2  N4B d   1      -0.840  -1.707   0.206  0.00  0.00     0.002 A 
ATOM      3  C3  N4B d   1      -1.419  -1.372  -0.994  0.00  0.00     0.002 A 
ATOM      4  C4  N4B d   1      -0.719  -1.577  -2.173  0.00  0.00    -0.004 A 
ATOM      5  C5  N4B d   1       0.519  -2.148  -2.141  0.00  0.00     0.002 A 
ATOM      6  C6  N4B d   1       1.112  -2.493  -0.943  0.00  0.00     0.002 A 
ENDROOT
BRANCH   1   7
ATOM      7  C1' N4B d   1       1.162  -2.576   1.524  0.00  0.00     0.057 C 
BRANCH   7   8
ATOM      8  C2' N4B d   1       2.540  -1.921   1.505  0.00  0.00     0.009 C 
BRANCH   8   9
ATOM      9  C3' N4B d   1       2.452  -0.410   1.639  0.00  0.00     0.004 C 
ATOM     10  C4' N4B d   1       3.279   0.313   0.618  0.00  0.00     0.003 C 
ENDBRANCH   8   9
ENDBRANCH   7   8
ENDBRANCH   1   7
TORSDOF 3
ENDMDL
