MODEL 1
REMARK minimizedAffinity 4.79782963
REMARK minimizedRMSD -1
REMARK  3 active torsions:
REMARK  status: ('A' for Active; 'I' for Inactive)
REMARK    1  A    between atoms: C3'_2  and  C2'_3 
REMARK    2  A    between atoms: C2'_3  and  C1'_4 
REMARK    3  A    between atoms: C1'_4  and  C1_5 
ROOT
ATOM      1  C1  N4B d   1      -4.120   2.853  -0.238  0.00  0.00    -0.075 A 
ATOM      2  C2  N4B d   1      -5.357   3.432   0.118  0.00  0.00     0.002 A 
ATOM      3  C3  N4B d   1      -5.872   3.231   1.376  0.00  0.00     0.002 A 
ATOM      4  C4  N4B d   1      -5.180   2.443   2.283  0.00  0.00    -0.004 A 
ATOM      5  C5  N4B d   1      -3.973   1.909   1.939  0.00  0.00     0.002 A 
ATOM      6  C6  N4B d   1      -3.441   2.106   0.680  0.00  0.00     0.002 A 
ENDROOT
BRANCH   1   7
ATOM      7  C1' N4B d   1      -3.558   2.974  -1.628  0.00  0.00     0.057 C 
BRANCH   7   8
ATOM      8  C2' N4B d   1      -3.879   1.704  -2.410  0.00  0.00     0.009 C 
BRANCH   8   9
ATOM      9  C3' N4B d   1      -5.360   1.591  -2.728  0.00  0.00     0.004 C 
ATOM     10  C4' N4B d   1      -5.991   0.370  -2.130  0.00  0.00     0.003 C 
ENDBRANCH   8   9
ENDBRANCH   7   8
ENDBRANCH   1   7
TORSDOF 3
ENDMDL
