MODEL 1
REMARK minimizedAffinity -1.40362036
REMARK minimizedRMSD -1
REMARK  1 active torsions:
REMARK  status: ('A' for Active; 'I' for Inactive)
REMARK    1  A    between atoms: C1_2  and  C2_3 
ROOT
ATOM      1  C2  UNL d   1       5.981   2.350   3.534  0.00  0.00    -0.076 A 
ATOM      2  C3  UNL d   1       5.964   0.947   3.439  0.00  0.00     0.004 A 
ATOM      3  C4  UNL d   1       5.974   0.151   4.583  0.00  0.00    -0.003 A 
ATOM      4  C5  UNL d   1       6.000   0.744   5.840  0.00  0.00     0.000 A 
ATOM      5  C6  UNL d   1       5.999   2.134   5.953  0.00  0.00     0.000 A 
ATOM      6  C7  UNL d   1       5.974   2.951   4.810  0.00  0.00    -0.073 A 
ATOM      7  C8  UNL d   1       5.980   4.445   4.991  0.00  0.00     0.078 C 
ENDROOT
BRANCH   1   8
ATOM      8  C1  UNL d   1       5.998   3.161   2.258  0.00  0.00     0.053 C 
ATOM      9  C   UNL d   1       5.920   4.658   2.519  0.00  0.00     0.018 C 
ENDBRANCH   1   8
TORSDOF 1
ENDMDL
