MODEL 1
REMARK minimizedAffinity -0.726468027
REMARK minimizedRMSD -1
REMARK  1 active torsions:
REMARK  status: ('A' for Active; 'I' for Inactive)
REMARK    1  A    between atoms: C1_2  and  C2_3 
ROOT
ATOM      1  C2  UNL d   1       5.950  -1.319   5.255  0.00  0.00    -0.076 A 
ATOM      2  C3  UNL d   1       5.928  -0.125   5.997  0.00  0.00     0.004 A 
ATOM      3  C4  UNL d   1       5.948   1.115   5.362  0.00  0.00    -0.003 A 
ATOM      4  C5  UNL d   1       5.989   1.182   3.974  0.00  0.00     0.000 A 
ATOM      5  C6  UNL d   1       5.994   0.009   3.221  0.00  0.00     0.000 A 
ATOM      6  C7  UNL d   1       5.958  -1.250   3.845  0.00  0.00    -0.073 A 
ATOM      7  C8  UNL d   1       5.971  -2.483   2.984  0.00  0.00     0.078 C 
ENDROOT
BRANCH   1   8
ATOM      8  C1  UNL d   1       5.955  -2.635   5.999  0.00  0.00     0.053 C 
ATOM      9  C   UNL d   1       5.318  -3.760   5.198  0.00  0.00     0.018 C 
ENDBRANCH   1   8
TORSDOF 1
ENDMDL
