MODEL 1
REMARK minimizedAffinity 5.62964439
REMARK minimizedRMSD -1
REMARK  1 active torsions:
REMARK  status: ('A' for Active; 'I' for Inactive)
REMARK    1  A    between atoms: C1_2  and  C2_3 
ROOT
ATOM      1  C2  UNL d   1       5.904   0.363   4.573  0.00  0.00    -0.076 A 
ATOM      2  C3  UNL d   1       5.960  -0.224   5.849  0.00  0.00     0.004 A 
ATOM      3  C4  UNL d   1       6.000  -1.609   6.000  0.00  0.00    -0.003 A 
ATOM      4  C5  UNL d   1       5.986  -2.430   4.877  0.00  0.00     0.000 A 
ATOM      5  C6  UNL d   1       5.949  -1.863   3.603  0.00  0.00     0.000 A 
ATOM      6  C7  UNL d   1       5.924  -0.468   3.433  0.00  0.00    -0.073 A 
ATOM      7  C8  UNL d   1       5.878   0.088   2.036  0.00  0.00     0.078 C 
ENDROOT
BRANCH   1   8
ATOM      8  C1  UNL d   1       5.834   1.870   4.472  0.00  0.00     0.053 C 
ATOM      9  C   UNL d   1       4.608   2.347   3.710  0.00  0.00     0.018 C 
ENDBRANCH   1   8
TORSDOF 1
ENDMDL
