MODEL 1
REMARK minimizedAffinity -1.09201109
REMARK minimizedRMSD -1
REMARK  1 active torsions:
REMARK  status: ('A' for Active; 'I' for Inactive)
REMARK    1  A    between atoms: C1_2  and  C2_3 
ROOT
ATOM      1  C2  UNL d   1       5.245   2.513   3.750  0.00  0.00    -0.076 A 
ATOM      2  C3  UNL d   1       5.004   1.152   3.494  0.00  0.00     0.004 A 
ATOM      3  C4  UNL d   1       5.265   0.182   4.460  0.00  0.00    -0.003 A 
ATOM      4  C5  UNL d   1       5.771   0.558   5.700  0.00  0.00     0.000 A 
ATOM      5  C6  UNL d   1       6.000   1.905   5.978  0.00  0.00     0.000 A 
ATOM      6  C7  UNL d   1       5.727   2.897   5.020  0.00  0.00    -0.073 A 
ATOM      7  C8  UNL d   1       5.998   4.334   5.371  0.00  0.00     0.078 C 
ENDROOT
BRANCH   1   8
ATOM      8  C1  UNL d   1       4.969   3.517   2.654  0.00  0.00     0.053 C 
ATOM      9  C   UNL d   1       5.996   4.638   2.618  0.00  0.00     0.018 C 
ENDBRANCH   1   8
TORSDOF 1
ENDMDL
