MODEL 1
REMARK minimizedAffinity 5.42794085
REMARK minimizedRMSD -1
REMARK  1 active torsions:
REMARK  status: ('A' for Active; 'I' for Inactive)
REMARK    1  A    between atoms: C1_2  and  C2_3 
ROOT
ATOM      1  C2  UNL d   1      -5.231  -1.328   3.406  0.00  0.00    -0.076 A 
ATOM      2  C3  UNL d   1      -6.000  -2.465   3.708  0.00  0.00     0.004 A 
ATOM      3  C4  UNL d   1      -5.392  -3.669   4.062  0.00  0.00    -0.003 A 
ATOM      4  C5  UNL d   1      -4.006  -3.754   4.121  0.00  0.00     0.000 A 
ATOM      5  C6  UNL d   1      -3.228  -2.631   3.842  0.00  0.00     0.000 A 
ATOM      6  C7  UNL d   1      -3.825  -1.406   3.499  0.00  0.00    -0.073 A 
ATOM      7  C8  UNL d   1      -2.937  -0.228   3.203  0.00  0.00     0.078 C 
ENDROOT
BRANCH   1   8
ATOM      8  C1  UNL d   1      -5.944  -0.058   3.002  0.00  0.00     0.053 C 
ATOM      9  C   UNL d   1      -5.995   0.127   1.493  0.00  0.00     0.018 C 
ENDBRANCH   1   8
TORSDOF 1
ENDMDL
