MODEL 1
REMARK minimizedAffinity 2.05585241
REMARK minimizedRMSD -1
REMARK  1 active torsions:
REMARK  status: ('A' for Active; 'I' for Inactive)
REMARK    1  A    between atoms: C1_2  and  C2_3 
ROOT
ATOM      1  C2  UNL d   1       5.981   1.553   4.205  0.00  0.00    -0.076 A 
ATOM      2  C3  UNL d   1       5.981   2.442   5.294  0.00  0.00     0.004 A 
ATOM      3  C4  UNL d   1       5.990   3.821   5.094  0.00  0.00    -0.003 A 
ATOM      4  C5  UNL d   1       5.999   4.334   3.802  0.00  0.00     0.000 A 
ATOM      5  C6  UNL d   1       5.981   3.467   2.710  0.00  0.00     0.000 A 
ATOM      6  C7  UNL d   1       5.955   2.074   2.894  0.00  0.00    -0.073 A 
ATOM      7  C8  UNL d   1       5.943   1.185   1.680  0.00  0.00     0.078 C 
ENDROOT
BRANCH   1   8
ATOM      8  C1  UNL d   1       5.998   0.066   4.484  0.00  0.00     0.053 C 
ATOM      9  C   UNL d   1       5.631  -0.261   5.923  0.00  0.00     0.018 C 
ENDBRANCH   1   8
TORSDOF 1
ENDMDL
