MODEL 1
REMARK minimizedAffinity -0.246415868
REMARK minimizedRMSD -1
REMARK  1 active torsions:
REMARK  status: ('A' for Active; 'I' for Inactive)
REMARK    1  A    between atoms: C1_2  and  C2_3 
ROOT
ATOM      1  C2  UNL d   1       5.983   2.720   3.909  0.00  0.00    -0.076 A 
ATOM      2  C3  UNL d   1       5.999   2.639   5.312  0.00  0.00     0.004 A 
ATOM      3  C4  UNL d   1       5.997   1.405   5.960  0.00  0.00    -0.003 A 
ATOM      4  C5  UNL d   1       5.979   0.231   5.216  0.00  0.00     0.000 A 
ATOM      5  C6  UNL d   1       5.980   0.292   3.822  0.00  0.00     0.000 A 
ATOM      6  C7  UNL d   1       5.999   1.528   3.153  0.00  0.00    -0.073 A 
ATOM      7  C8  UNL d   1       5.993   1.535   1.649  0.00  0.00     0.078 C 
ENDROOT
BRANCH   1   8
ATOM      8  C1  UNL d   1       5.959   4.086   3.262  0.00  0.00     0.053 C 
ATOM      9  C   UNL d   1       5.968   5.214   4.282  0.00  0.00     0.018 C 
ENDBRANCH   1   8
TORSDOF 1
ENDMDL
