MODEL 1
REMARK minimizedAffinity 1.61155999
REMARK minimizedRMSD -1
REMARK  1 active torsions:
REMARK  status: ('A' for Active; 'I' for Inactive)
REMARK    1  A    between atoms: C1_2  and  C2_3 
ROOT
ATOM      1  C2  UNL d   1       5.975   0.863   4.877  0.00  0.00    -0.076 A 
ATOM      2  C3  UNL d   1       5.946   2.209   5.282  0.00  0.00     0.004 A 
ATOM      3  C4  UNL d   1       5.953   3.241   4.345  0.00  0.00    -0.003 A 
ATOM      4  C5  UNL d   1       5.989   2.944   2.987  0.00  0.00     0.000 A 
ATOM      5  C6  UNL d   1       6.000   1.614   2.567  0.00  0.00     0.000 A 
ATOM      6  C7  UNL d   1       5.976   0.562   3.498  0.00  0.00    -0.073 A 
ATOM      7  C8  UNL d   1       5.996  -0.853   2.989  0.00  0.00     0.078 C 
ENDROOT
BRANCH   1   8
ATOM      8  C1  UNL d   1       5.992  -0.213   5.939  0.00  0.00     0.053 C 
ATOM      9  C   UNL d   1       5.535  -1.563   5.408  0.00  0.00     0.018 C 
ENDBRANCH   1   8
TORSDOF 1
ENDMDL
