MODEL 1
REMARK minimizedAffinity 1.13196433
REMARK minimizedRMSD -1
REMARK  1 active torsions:
REMARK  status: ('A' for Active; 'I' for Inactive)
REMARK    1  A    between atoms: C1_2  and  C2_3 
ROOT
ATOM      1  C2  UNL d   1       5.927   0.314   4.445  0.00  0.00    -0.076 A 
ATOM      2  C3  UNL d   1       5.924   1.032   5.654  0.00  0.00     0.004 A 
ATOM      3  C4  UNL d   1       5.888   2.426   5.660  0.00  0.00    -0.003 A 
ATOM      4  C5  UNL d   1       5.854   3.123   4.457  0.00  0.00     0.000 A 
ATOM      5  C6  UNL d   1       5.839   2.427   3.250  0.00  0.00     0.000 A 
ATOM      6  C7  UNL d   1       5.858   1.021   3.226  0.00  0.00    -0.073 A 
ATOM      7  C8  UNL d   1       5.847   0.321   1.895  0.00  0.00     0.078 C 
ENDROOT
BRANCH   1   8
ATOM      8  C1  UNL d   1       5.995  -1.196   4.501  0.00  0.00     0.053 C 
ATOM      9  C   UNL d   1       5.999  -1.727   5.926  0.00  0.00     0.018 C 
ENDBRANCH   1   8
TORSDOF 1
ENDMDL
