MODEL 1
REMARK minimizedAffinity 6.00383615
REMARK minimizedRMSD -1
REMARK  1 active torsions:
REMARK  status: ('A' for Active; 'I' for Inactive)
REMARK    1  A    between atoms: C1_2  and  C2_3 
ROOT
ATOM      1  C2  UNL d   1       5.986   3.330   2.752  0.00  0.00    -0.076 A 
ATOM      2  C3  UNL d   1       5.996   4.403   1.844  0.00  0.00     0.004 A 
ATOM      3  C4  UNL d   1       5.977   5.723   2.294  0.00  0.00    -0.003 A 
ATOM      4  C5  UNL d   1       5.949   5.990   3.658  0.00  0.00     0.000 A 
ATOM      5  C6  UNL d   1       5.956   4.937   4.573  0.00  0.00     0.000 A 
ATOM      6  C7  UNL d   1       5.991   3.602   4.137  0.00  0.00    -0.073 A 
ATOM      7  C8  UNL d   1       5.992   2.506   5.167  0.00  0.00     0.078 C 
ENDROOT
BRANCH   1   8
ATOM      8  C1  UNL d   1       5.980   1.920   2.205  0.00  0.00     0.053 C 
ATOM      9  C   UNL d   1       5.920   0.870   3.304  0.00  0.00     0.018 C 
ENDBRANCH   1   8
TORSDOF 1
ENDMDL
