MODEL 1
REMARK minimizedAffinity 0.86907357
REMARK minimizedRMSD -1
REMARK  1 active torsions:
REMARK  status: ('A' for Active; 'I' for Inactive)
REMARK    1  A    between atoms: C1_2  and  C2_3 
ROOT
ATOM      1  C2  UNL d   1       5.924   2.064   3.453  0.00  0.00    -0.076 A 
ATOM      2  C3  UNL d   1       5.879   1.416   2.206  0.00  0.00     0.004 A 
ATOM      3  C4  UNL d   1       5.903   0.025   2.119  0.00  0.00    -0.003 A 
ATOM      4  C5  UNL d   1       5.971  -0.741   3.277  0.00  0.00     0.000 A 
ATOM      5  C6  UNL d   1       5.998  -0.116   4.524  0.00  0.00     0.000 A 
ATOM      6  C7  UNL d   1       5.958   1.285   4.630  0.00  0.00    -0.073 A 
ATOM      7  C8  UNL d   1       5.996   1.907   5.999  0.00  0.00     0.078 C 
ENDROOT
BRANCH   1   8
ATOM      8  C1  UNL d   1       5.923   3.575   3.485  0.00  0.00     0.053 C 
ATOM      9  C   UNL d   1       5.855   4.187   2.094  0.00  0.00     0.018 C 
ENDBRANCH   1   8
TORSDOF 1
ENDMDL
