MODEL 1
REMARK minimizedAffinity 5.72484398
REMARK minimizedRMSD -1
REMARK  1 active torsions:
REMARK  status: ('A' for Active; 'I' for Inactive)
REMARK    1  A    between atoms: C1_2  and  C2_3 
ROOT
ATOM      1  C2  UNL d   1       5.977   3.222   3.569  0.00  0.00    -0.076 A 
ATOM      2  C3  UNL d   1       5.952   3.009   4.958  0.00  0.00     0.004 A 
ATOM      3  C4  UNL d   1       5.960   4.082   5.849  0.00  0.00    -0.003 A 
ATOM      4  C5  UNL d   1       5.992   5.385   5.364  0.00  0.00     0.000 A 
ATOM      5  C6  UNL d   1       5.998   5.615   3.989  0.00  0.00     0.000 A 
ATOM      6  C7  UNL d   1       5.974   4.545   3.078  0.00  0.00    -0.073 A 
ATOM      7  C8  UNL d   1       5.989   4.852   1.605  0.00  0.00     0.078 C 
ENDROOT
BRANCH   1   8
ATOM      8  C1  UNL d   1       5.994   2.020   2.652  0.00  0.00     0.053 C 
ATOM      9  C   UNL d   1       5.967   0.705   3.415  0.00  0.00     0.018 C 
ENDBRANCH   1   8
TORSDOF 1
ENDMDL
