MODEL 1
REMARK minimizedAffinity 4.02627945
REMARK minimizedRMSD -1
REMARK  1 active torsions:
REMARK  status: ('A' for Active; 'I' for Inactive)
REMARK    1  A    between atoms: C1_2  and  C2_3 
ROOT
ATOM      1  C2  UNL d   1       5.975   4.715   2.454  0.00  0.00    -0.076 A 
ATOM      2  C3  UNL d   1       5.951   3.491   1.762  0.00  0.00     0.004 A 
ATOM      3  C4  UNL d   1       5.961   2.278   2.449  0.00  0.00    -0.003 A 
ATOM      4  C5  UNL d   1       5.994   2.269   3.839  0.00  0.00     0.000 A 
ATOM      5  C6  UNL d   1       6.000   3.473   4.542  0.00  0.00     0.000 A 
ATOM      6  C7  UNL d   1       5.973   4.705   3.865  0.00  0.00    -0.073 A 
ATOM      7  C8  UNL d   1       5.987   5.973   4.674  0.00  0.00     0.078 C 
ENDROOT
BRANCH   1   8
ATOM      8  C1  UNL d   1       5.990   5.998   1.655  0.00  0.00     0.053 C 
ATOM      9  C   UNL d   1       5.960   5.751   0.155  0.00  0.00     0.018 C 
ENDBRANCH   1   8
TORSDOF 1
ENDMDL
