MODEL 1
REMARK minimizedAffinity 0.792001963
REMARK minimizedRMSD -1
REMARK  1 active torsions:
REMARK  status: ('A' for Active; 'I' for Inactive)
REMARK    1  A    between atoms: C1_2  and  C2_3 
ROOT
ATOM      1  C2  UNL d   1       5.897   0.215   3.844  0.00  0.00    -0.076 A 
ATOM      2  C3  UNL d   1       5.796  -1.041   3.221  0.00  0.00     0.004 A 
ATOM      3  C4  UNL d   1       5.738  -2.213   3.973  0.00  0.00    -0.003 A 
ATOM      4  C5  UNL d   1       5.779  -2.148   5.361  0.00  0.00     0.000 A 
ATOM      5  C6  UNL d   1       5.861  -0.910   5.997  0.00  0.00     0.000 A 
ATOM      6  C7  UNL d   1       5.904   0.282   5.254  0.00  0.00    -0.073 A 
ATOM      7  C8  UNL d   1       5.999   1.590   5.992  0.00  0.00     0.078 C 
ENDROOT
BRANCH   1   8
ATOM      8  C1  UNL d   1       5.983   1.450   2.976  0.00  0.00     0.053 C 
ATOM      9  C   UNL d   1       5.995   2.734   3.790  0.00  0.00     0.018 C 
ENDBRANCH   1   8
TORSDOF 1
ENDMDL
