MODEL 1
REMARK minimizedAffinity -3.46469855
REMARK minimizedRMSD -1
REMARK  1 active torsions:
REMARK  status: ('A' for Active; 'I' for Inactive)
REMARK    1  A    between atoms: C1_2  and  C2_3 
ROOT
ATOM      1  C2  UNL d   1      -1.633   0.570  -0.616  0.00  0.00    -0.081 A 
ATOM      2  C3  UNL d   1      -0.667   1.556  -0.851  0.00  0.00     0.006 A 
ATOM      3  C4  UNL d   1       0.600   1.458  -0.270  0.00  0.00     0.002 A 
ATOM      4  C5  UNL d   1       0.924   0.370   0.547  0.00  0.00    -0.080 A 
ATOM      5  C6  UNL d   1       2.290   0.237   1.151  0.00  0.00     0.076 C 
ATOM      6  C7  UNL d   1      -0.047  -0.606   0.795  0.00  0.00     0.002 A 
ATOM      7  C8  UNL d   1      -1.314  -0.509   0.216  0.00  0.00     0.006 A 
ENDROOT
BRANCH   1   8
ATOM      8  C1  UNL d   1      -2.979   0.640  -1.292  0.00  0.00     0.054 C 
ATOM      9  C   UNL d   1      -2.913   0.095  -2.712  0.00  0.00     0.018 C 
ENDBRANCH   1   8
TORSDOF 1
ENDMDL
