MODEL 1
REMARK minimizedAffinity -4.70235157
REMARK minimizedRMSD -1
REMARK  1 active torsions:
REMARK  status: ('A' for Active; 'I' for Inactive)
REMARK    1  A    between atoms: C1_2  and  C2_3 
ROOT
ATOM      1  C2  UNL d   1       2.079  -1.281   1.407  0.00  0.00    -0.081 A 
ATOM      2  C3  UNL d   1       3.057  -0.286   1.517  0.00  0.00     0.006 A 
ATOM      3  C4  UNL d   1       2.876   0.957   0.906  0.00  0.00     0.002 A 
ATOM      4  C5  UNL d   1       1.710   1.228   0.181  0.00  0.00    -0.080 A 
ATOM      5  C6  UNL d   1       1.490   2.568  -0.455  0.00  0.00     0.076 C 
ATOM      6  C7  UNL d   1       0.740   0.227   0.056  0.00  0.00     0.002 A 
ATOM      7  C8  UNL d   1       0.921  -1.016   0.666  0.00  0.00     0.006 A 
ENDROOT
BRANCH   1   8
ATOM      8  C1  UNL d   1       2.242  -2.600   2.119  0.00  0.00     0.054 C 
ATOM      9  C   UNL d   1       0.930  -3.062   2.737  0.00  0.00     0.018 C 
ENDBRANCH   1   8
TORSDOF 1
ENDMDL
