MODEL 1
REMARK minimizedAffinity 15.9877167
REMARK minimizedRMSD -1
REMARK  2 active torsions:
REMARK  status: ('A' for Active; 'I' for Inactive)
REMARK    1  A    between atoms: C2'_3  and  C1'_4 
REMARK    2  A    between atoms: C1'_4  and  C1_5 
ROOT
ATOM      1  C1  I4B d   1       1.604  -3.181   1.387  0.00  0.00    -0.075 A 
ATOM      2  C2  I4B d   1       2.143  -2.251   0.534  0.00  0.00     0.003 A 
ATOM      3  C3  I4B d   1       2.062  -0.871   0.840  0.00  0.00     0.002 A 
ATOM      4  C4  I4B d   1       1.394  -0.465   1.978  0.00  0.00    -0.004 A 
ATOM      5  C5  I4B d   1       0.868  -1.411   2.853  0.00  0.00     0.002 A 
ATOM      6  C6  I4B d   1       0.984  -2.778   2.563  0.00  0.00     0.003 A 
ENDROOT
BRANCH   1   7
ATOM      7  C1' I4B d   1       1.678  -4.628   1.016  0.00  0.00     0.060 C 
BRANCH   7   8
ATOM      8  C2' I4B d   1       0.747  -4.858  -0.158  0.00  0.00    -0.013 C 
ATOM      9  C4' I4B d   1       1.517  -5.201  -1.406  0.00  0.00     0.013 C 
ATOM     10  C3' I4B d   1      -0.203  -5.957   0.213  0.00  0.00     0.013 C 
ENDBRANCH   7   8
ENDBRANCH   1   7
TORSDOF 2
ENDMDL
