MODEL 1
REMARK minimizedAffinity 10.0318918
REMARK minimizedRMSD -1
REMARK  2 active torsions:
REMARK  status: ('A' for Active; 'I' for Inactive)
REMARK    1  A    between atoms: C2'_3  and  C1'_4 
REMARK    2  A    between atoms: C1'_4  and  C1_5 
ROOT
ATOM      1  C1  I4B d   1      -3.430   3.646   1.097  0.00  0.00    -0.075 A 
ATOM      2  C2  I4B d   1      -4.305   4.068   0.128  0.00  0.00     0.003 A 
ATOM      3  C3  I4B d   1      -5.517   4.706   0.490  0.00  0.00     0.002 A 
ATOM      4  C4  I4B d   1      -5.834   4.855   1.825  0.00  0.00    -0.004 A 
ATOM      5  C5  I4B d   1      -4.935   4.447   2.806  0.00  0.00     0.002 A 
ATOM      6  C6  I4B d   1      -3.720   3.850   2.440  0.00  0.00     0.003 A 
ENDROOT
BRANCH   1   7
ATOM      7  C1' I4B d   1      -2.175   2.947   0.681  0.00  0.00     0.060 C 
BRANCH   7   8
ATOM      8  C2' I4B d   1      -1.258   2.876   1.885  0.00  0.00    -0.013 C 
ATOM      9  C4' I4B d   1      -0.177   1.846   1.687  0.00  0.00     0.013 C 
ATOM     10  C3' I4B d   1      -0.674   4.240   2.102  0.00  0.00     0.013 C 
ENDBRANCH   7   8
ENDBRANCH   1   7
TORSDOF 2
ENDMDL
