MODEL 1
REMARK minimizedAffinity 15.2100525
REMARK minimizedRMSD -1
REMARK  2 active torsions:
REMARK  status: ('A' for Active; 'I' for Inactive)
REMARK    1  A    between atoms: C2'_3  and  C1'_4 
REMARK    2  A    between atoms: C1'_4  and  C1_5 
ROOT
ATOM      1  C1  I4B d   1      -4.913  -3.270  -5.110  0.00  0.00    -0.075 A 
ATOM      2  C2  I4B d   1      -5.997  -3.850  -5.720  0.00  0.00     0.003 A 
ATOM      3  C3  I4B d   1      -6.000  -5.238  -6.000  0.00  0.00     0.002 A 
ATOM      4  C4  I4B d   1      -4.884  -5.994  -5.701  0.00  0.00    -0.004 A 
ATOM      5  C5  I4B d   1      -3.795  -5.409  -5.062  0.00  0.00     0.002 A 
ATOM      6  C6  I4B d   1      -3.814  -4.041  -4.754  0.00  0.00     0.003 A 
ENDROOT
BRANCH   1   7
ATOM      7  C1' I4B d   1      -4.930  -1.796  -4.860  0.00  0.00     0.060 C 
BRANCH   7   8
ATOM      8  C2' I4B d   1      -4.314  -1.547  -3.498  0.00  0.00    -0.013 C 
ATOM      9  C4' I4B d   1      -3.728  -0.162  -3.410  0.00  0.00     0.013 C 
ATOM     10  C3' I4B d   1      -5.380  -1.751  -2.463  0.00  0.00     0.013 C 
ENDBRANCH   7   8
ENDBRANCH   1   7
TORSDOF 2
ENDMDL
