MODEL 1
REMARK minimizedAffinity 12.1488647
REMARK minimizedRMSD -1
REMARK  2 active torsions:
REMARK  status: ('A' for Active; 'I' for Inactive)
REMARK    1  A    between atoms: C2'_3  and  C1'_4 
REMARK    2  A    between atoms: C1'_4  and  C1_5 
ROOT
ATOM      1  C1  I4B d   1       1.171  -0.283   2.936  0.00  0.00    -0.075 A 
ATOM      2  C2  I4B d   1       1.371  -0.181   4.290  0.00  0.00     0.003 A 
ATOM      3  C3  I4B d   1       1.029  -1.259   5.144  0.00  0.00     0.002 A 
ATOM      4  C4  I4B d   1       0.448  -2.391   4.610  0.00  0.00    -0.004 A 
ATOM      5  C5  I4B d   1       0.268  -2.501   3.234  0.00  0.00     0.002 A 
ATOM      6  C6  I4B d   1       0.643  -1.445   2.390  0.00  0.00     0.003 A 
ENDROOT
BRANCH   1   7
ATOM      7  C1' I4B d   1       1.513   0.887   2.068  0.00  0.00     0.060 C 
BRANCH   7   8
ATOM      8  C2' I4B d   1       3.008   0.868   1.827  0.00  0.00    -0.013 C 
ATOM      9  C4' I4B d   1       3.485  -0.514   1.467  0.00  0.00     0.013 C 
ATOM     10  C3' I4B d   1       3.313   1.848   0.733  0.00  0.00     0.013 C 
ENDBRANCH   7   8
ENDBRANCH   1   7
TORSDOF 2
ENDMDL
