MODEL 1
REMARK minimizedAffinity 9.3152132
REMARK minimizedRMSD -1
REMARK  2 active torsions:
REMARK  status: ('A' for Active; 'I' for Inactive)
REMARK    1  A    between atoms: C2'_3  and  C1'_4 
REMARK    2  A    between atoms: C1'_4  and  C1_5 
ROOT
ATOM      1  C1  I4B d   1       3.146  -1.482   1.493  0.00  0.00    -0.075 A 
ATOM      2  C2  I4B d   1       2.476  -0.420   0.939  0.00  0.00     0.003 A 
ATOM      3  C3  I4B d   1       1.098  -0.228   1.206  0.00  0.00     0.002 A 
ATOM      4  C4  I4B d   1       0.424  -1.144   1.987  0.00  0.00    -0.004 A 
ATOM      5  C5  I4B d   1       1.110  -2.208   2.567  0.00  0.00     0.002 A 
ATOM      6  C6  I4B d   1       2.482  -2.371   2.329  0.00  0.00     0.003 A 
ENDROOT
BRANCH   1   7
ATOM      7  C1' I4B d   1       4.592  -1.674   1.163  0.00  0.00     0.060 C 
BRANCH   7   8
ATOM      8  C2' I4B d   1       5.157  -2.703   2.121  0.00  0.00    -0.013 C 
ATOM      9  C4' I4B d   1       5.959  -3.747   1.388  0.00  0.00     0.013 C 
ATOM     10  C3' I4B d   1       5.999  -1.983   3.131  0.00  0.00     0.013 C 
ENDBRANCH   7   8
ENDBRANCH   1   7
TORSDOF 2
ENDMDL
