MODEL 1
REMARK minimizedAffinity -6.05324221
REMARK minimizedRMSD -1
REMARK  2 active torsions:
REMARK  status: ('A' for Active; 'I' for Inactive)
REMARK    1  A    between atoms: C1_2  and  C2_3 
REMARK    2  A    between atoms: C2_3  and  C3_4 
ROOT
ATOM      1  C3  UNL d   1       1.372   2.434  -1.072  0.00  0.00    -0.075 A 
ATOM      2  C4  UNL d   1       1.888   2.397   0.232  0.00  0.00     0.002 A 
ATOM      3  C5  UNL d   1       1.752   1.250   1.015  0.00  0.00     0.002 A 
ATOM      4  C6  UNL d   1       1.092   0.132   0.510  0.00  0.00    -0.004 A 
ATOM      5  C7  UNL d   1       0.561   0.164  -0.778  0.00  0.00     0.002 A 
ATOM      6  C8  UNL d   1       0.699   1.308  -1.565  0.00  0.00     0.002 A 
ENDROOT
BRANCH   1   7
ATOM      7  C2  UNL d   1       1.541   3.661  -1.935  0.00  0.00     0.056 C 
BRANCH   7   8
ATOM      8  C1  UNL d   1       2.724   4.548  -1.533  0.00  0.00     0.007 C 
ATOM      9  C   UNL d   1       2.302   5.924  -1.035  0.00  0.00     0.009 C 
ENDBRANCH   7   8
ENDBRANCH   1   7
TORSDOF 2
ENDMDL
