MODEL 1
REMARK minimizedAffinity -3.04996109
REMARK minimizedRMSD -1
REMARK  2 active torsions:
REMARK  status: ('A' for Active; 'I' for Inactive)
REMARK    1  A    between atoms: C1_2  and  C2_3 
REMARK    2  A    between atoms: C2_3  and  C3_4 
ROOT
ATOM      1  C3  UNL d   1       1.118   3.161  -0.163  0.00  0.00    -0.075 A 
ATOM      2  C4  UNL d   1       0.883   2.157   0.788  0.00  0.00     0.002 A 
ATOM      3  C5  UNL d   1       0.989   0.811   0.437  0.00  0.00     0.002 A 
ATOM      4  C6  UNL d   1       1.320   0.452  -0.868  0.00  0.00    -0.004 A 
ATOM      5  C7  UNL d   1       1.538   1.441  -1.824  0.00  0.00     0.002 A 
ATOM      6  C8  UNL d   1       1.437   2.789  -1.475  0.00  0.00     0.002 A 
ENDROOT
BRANCH   1   7
ATOM      7  C2  UNL d   1       1.033   4.620   0.218  0.00  0.00     0.056 C 
BRANCH   7   8
ATOM      8  C1  UNL d   1       1.271   5.584  -0.950  0.00  0.00     0.007 C 
ATOM      9  C   UNL d   1       2.729   5.997  -1.100  0.00  0.00     0.009 C 
ENDBRANCH   7   8
ENDBRANCH   1   7
TORSDOF 2
ENDMDL
