MODEL 1
REMARK minimizedAffinity -3.29724789
REMARK minimizedRMSD -1
REMARK  2 active torsions:
REMARK  status: ('A' for Active; 'I' for Inactive)
REMARK    1  A    between atoms: C1_2  and  C2_3 
REMARK    2  A    between atoms: C2_3  and  C3_4 
ROOT
ATOM      1  C3  UNL d   1       1.448   2.213  -1.205  0.00  0.00    -0.075 A 
ATOM      2  C4  UNL d   1       1.116   1.138  -2.043  0.00  0.00     0.002 A 
ATOM      3  C5  UNL d   1       1.072  -0.163  -1.542  0.00  0.00     0.002 A 
ATOM      4  C6  UNL d   1       1.368  -0.408  -0.203  0.00  0.00    -0.004 A 
ATOM      5  C7  UNL d   1       1.716   0.650   0.635  0.00  0.00     0.002 A 
ATOM      6  C8  UNL d   1       1.757   1.954   0.137  0.00  0.00     0.002 A 
ENDROOT
BRANCH   1   7
ATOM      7  C2  UNL d   1       1.469   3.627  -1.734  0.00  0.00     0.056 C 
BRANCH   7   8
ATOM      8  C1  UNL d   1       1.645   4.696  -0.650  0.00  0.00     0.007 C 
ATOM      9  C   UNL d   1       2.238   5.995  -1.179  0.00  0.00     0.009 C 
ENDBRANCH   7   8
ENDBRANCH   1   7
TORSDOF 2
ENDMDL
