MODEL 1
REMARK minimizedAffinity -5.3463335
REMARK minimizedRMSD -1
REMARK  2 active torsions:
REMARK  status: ('A' for Active; 'I' for Inactive)
REMARK    1  A    between atoms: C1_2  and  C2_3 
REMARK    2  A    between atoms: C2_3  and  C3_4 
ROOT
ATOM      1  C3  UNL d   1       1.301  -0.298  -1.212  0.00  0.00    -0.075 A 
ATOM      2  C4  UNL d   1       1.359  -0.158   0.182  0.00  0.00     0.002 A 
ATOM      3  C5  UNL d   1       1.088   1.072   0.783  0.00  0.00     0.002 A 
ATOM      4  C6  UNL d   1       0.766   2.177  -0.001  0.00  0.00    -0.004 A 
ATOM      5  C7  UNL d   1       0.721   2.054  -1.388  0.00  0.00     0.002 A 
ATOM      6  C8  UNL d   1       0.987   0.823  -1.992  0.00  0.00     0.002 A 
ENDROOT
BRANCH   1   7
ATOM      7  C2  UNL d   1       1.564  -1.633  -1.866  0.00  0.00     0.056 C 
BRANCH   7   8
ATOM      8  C1  UNL d   1       1.254  -2.838  -0.972  0.00  0.00     0.007 C 
ATOM      9  C   UNL d   1       0.008  -3.600  -1.402  0.00  0.00     0.009 C 
ENDBRANCH   7   8
ENDBRANCH   1   7
TORSDOF 2
ENDMDL
