MODEL 1
REMARK minimizedAffinity -0.831736445
REMARK minimizedRMSD -1
REMARK  2 active torsions:
REMARK  status: ('A' for Active; 'I' for Inactive)
REMARK    1  A    between atoms: C1_2  and  C2_3 
REMARK    2  A    between atoms: C2_3  and  C3_4 
ROOT
ATOM      1  C3  UNL d   1       1.152   1.017  -0.620  0.00  0.00    -0.075 A 
ATOM      2  C4  UNL d   1       1.547   1.645  -1.811  0.00  0.00     0.002 A 
ATOM      3  C5  UNL d   1       1.522   3.035  -1.921  0.00  0.00     0.002 A 
ATOM      4  C6  UNL d   1       1.093   3.814  -0.848  0.00  0.00    -0.004 A 
ATOM      5  C7  UNL d   1       0.683   3.201   0.334  0.00  0.00     0.002 A 
ATOM      6  C8  UNL d   1       0.711   1.810   0.448  0.00  0.00     0.002 A 
ENDROOT
BRANCH   1   7
ATOM      7  C2  UNL d   1       1.205  -0.486  -0.485  0.00  0.00     0.056 C 
BRANCH   7   8
ATOM      8  C1  UNL d   1       2.586  -1.030  -0.104  0.00  0.00     0.007 C 
ATOM      9  C   UNL d   1       3.416  -0.045   0.709  0.00  0.00     0.009 C 
ENDBRANCH   7   8
ENDBRANCH   1   7
TORSDOF 2
ENDMDL
