MODEL 1
REMARK minimizedAffinity -3.68147087
REMARK minimizedRMSD -1
REMARK  2 active torsions:
REMARK  status: ('A' for Active; 'I' for Inactive)
REMARK    1  A    between atoms: C1_2  and  C2_3 
REMARK    2  A    between atoms: C2_3  and  C3_4 
ROOT
ATOM      1  C3  UNL d   1       0.921   1.567  -0.943  0.00  0.00    -0.075 A 
ATOM      2  C4  UNL d   1       1.312   2.544  -1.869  0.00  0.00     0.002 A 
ATOM      3  C5  UNL d   1       1.592   3.845  -1.451  0.00  0.00     0.002 A 
ATOM      4  C6  UNL d   1       1.475   4.188  -0.106  0.00  0.00    -0.004 A 
ATOM      5  C7  UNL d   1       1.071   3.229   0.821  0.00  0.00     0.002 A 
ATOM      6  C8  UNL d   1       0.794   1.925   0.406  0.00  0.00     0.002 A 
ENDROOT
BRANCH   1   7
ATOM      7  C2  UNL d   1       0.645   0.149  -1.385  0.00  0.00     0.056 C 
BRANCH   7   8
ATOM      8  C1  UNL d   1       1.186  -0.919  -0.429  0.00  0.00     0.007 C 
ATOM      9  C   UNL d   1       0.629  -2.309  -0.704  0.00  0.00     0.009 C 
ENDBRANCH   7   8
ENDBRANCH   1   7
TORSDOF 2
ENDMDL
