MODEL 1
REMARK minimizedAffinity -2.82535481
REMARK minimizedRMSD -1
REMARK  2 active torsions:
REMARK  status: ('A' for Active; 'I' for Inactive)
REMARK    1  A    between atoms: C1_2  and  C2_3 
REMARK    2  A    between atoms: C2_3  and  C3_4 
ROOT
ATOM      1  C3  UNL d   1       1.352   0.566  -0.703  0.00  0.00    -0.075 A 
ATOM      2  C4  UNL d   1       0.942   0.892   0.598  0.00  0.00     0.002 A 
ATOM      3  C5  UNL d   1       0.841   2.225   0.995  0.00  0.00     0.002 A 
ATOM      4  C6  UNL d   1       1.157   3.247   0.103  0.00  0.00    -0.004 A 
ATOM      5  C7  UNL d   1       1.581   2.935  -1.187  0.00  0.00     0.002 A 
ATOM      6  C8  UNL d   1       1.679   1.602  -1.589  0.00  0.00     0.002 A 
ENDROOT
BRANCH   1   7
ATOM      7  C2  UNL d   1       1.435  -0.874  -1.149  0.00  0.00     0.056 C 
BRANCH   7   8
ATOM      8  C1  UNL d   1       0.680  -1.853  -0.243  0.00  0.00     0.007 C 
ATOM      9  C   UNL d   1      -0.278  -2.759  -1.004  0.00  0.00     0.009 C 
ENDBRANCH   7   8
ENDBRANCH   1   7
TORSDOF 2
ENDMDL
