MODEL 1
REMARK minimizedAffinity -3.26094246
REMARK minimizedRMSD -1
REMARK  2 active torsions:
REMARK  status: ('A' for Active; 'I' for Inactive)
REMARK    1  A    between atoms: C1_2  and  C2_3 
REMARK    2  A    between atoms: C2_3  and  C3_4 
ROOT
ATOM      1  C3  UNL d   1       1.422   2.490  -1.120  0.00  0.00    -0.075 A 
ATOM      2  C4  UNL d   1       1.493   2.343   0.273  0.00  0.00     0.002 A 
ATOM      3  C5  UNL d   1       1.164   1.128   0.875  0.00  0.00     0.002 A 
ATOM      4  C6  UNL d   1       0.752   0.050   0.095  0.00  0.00    -0.004 A 
ATOM      5  C7  UNL d   1       0.662   0.189  -1.288  0.00  0.00     0.002 A 
ATOM      6  C8  UNL d   1       0.995   1.402  -1.894  0.00  0.00     0.002 A 
ENDROOT
BRANCH   1   7
ATOM      7  C2  UNL d   1       1.805   3.793  -1.781  0.00  0.00     0.056 C 
BRANCH   7   8
ATOM      8  C1  UNL d   1       1.909   4.976  -0.812  0.00  0.00     0.007 C 
ATOM      9  C   UNL d   1       2.974   5.988  -1.213  0.00  0.00     0.009 C 
ENDBRANCH   7   8
ENDBRANCH   1   7
TORSDOF 2
ENDMDL
