MODEL 1
REMARK minimizedAffinity -5.51367044
REMARK minimizedRMSD -1
REMARK  2 active torsions:
REMARK  status: ('A' for Active; 'I' for Inactive)
REMARK    1  A    between atoms: C1_2  and  C2_3 
REMARK    2  A    between atoms: C2_3  and  C3_4 
ROOT
ATOM      1  C3  UNL d   1       1.034   1.383  -0.707  0.00  0.00    -0.075 A 
ATOM      2  C4  UNL d   1       1.304   2.671  -1.190  0.00  0.00     0.002 A 
ATOM      3  C5  UNL d   1       1.249   3.773  -0.336  0.00  0.00     0.002 A 
ATOM      4  C6  UNL d   1       0.915   3.603   1.006  0.00  0.00    -0.004 A 
ATOM      5  C7  UNL d   1       0.630   2.329   1.493  0.00  0.00     0.002 A 
ATOM      6  C8  UNL d   1       0.688   1.224   0.641  0.00  0.00     0.002 A 
ENDROOT
BRANCH   1   7
ATOM      7  C2  UNL d   1       1.121   0.182  -1.619  0.00  0.00     0.056 C 
BRANCH   7   8
ATOM      8  C1  UNL d   1       1.730  -1.059  -0.961  0.00  0.00     0.007 C 
ATOM      9  C   UNL d   1       1.570  -2.322  -1.796  0.00  0.00     0.009 C 
ENDBRANCH   7   8
ENDBRANCH   1   7
TORSDOF 2
ENDMDL
