MODEL 1
REMARK minimizedAffinity -0.335104614
REMARK minimizedRMSD -1
REMARK  1 active torsions:
REMARK  status: ('A' for Active; 'I' for Inactive)
REMARK    1  A    between atoms: C3_4  and  O_7 
ROOT
ATOM      1  C   UNL d   1       0.872  -2.981   0.527  0.00  0.00    -0.033 A 
ATOM      2  C1  UNL d   1       0.547  -4.324   0.324  0.00  0.00     0.039 A 
ATOM      3  C2  UNL d   1      -0.779  -4.696   0.092  0.00  0.00    -0.080 A 
ATOM      4  C3  UNL d   1      -1.769  -3.718   0.066  0.00  0.00     0.150 A 
ATOM      5  C4  UNL d   1      -1.452  -2.378   0.264  0.00  0.00    -0.007 A 
ATOM      6  C5  UNL d   1      -0.128  -2.008   0.495  0.00  0.00     0.039 A 
ENDROOT
BRANCH   4   7
ATOM      7  O   UNL d   1      -3.077  -4.033  -0.151  0.00  0.00    -0.526 OA
ATOM      8  H5  UNL d   1      -3.150  -4.998  -0.243  0.00  0.00     0.418 HD
ENDBRANCH   4   7
TORSDOF 1
ENDMDL
