MODEL 1
REMARK minimizedAffinity -3.4445796
REMARK minimizedRMSD -1
REMARK  1 active torsions:
REMARK  status: ('A' for Active; 'I' for Inactive)
REMARK    1  A    between atoms: C3_4  and  O_7 
ROOT
ATOM      1  C   UNL d   1      -0.074  -3.262   0.811  0.00  0.00    -0.033 A 
ATOM      2  C1  UNL d   1       0.319  -1.971   0.455  0.00  0.00     0.039 A 
ATOM      3  C2  UNL d   1       0.508  -1.642  -0.888  0.00  0.00    -0.080 A 
ATOM      4  C3  UNL d   1       0.300  -2.612  -1.865  0.00  0.00     0.150 A 
ATOM      5  C4  UNL d   1      -0.096  -3.899  -1.518  0.00  0.00    -0.007 A 
ATOM      6  C5  UNL d   1      -0.283  -4.226  -0.176  0.00  0.00     0.039 A 
ENDROOT
BRANCH   4   7
ATOM      7  O   UNL d   1       0.476  -2.339  -3.189  0.00  0.00    -0.526 OA
ATOM      8  H5  UNL d   1       0.778  -1.420  -3.276  0.00  0.00     0.418 HD
ENDBRANCH   4   7
TORSDOF 1
ENDMDL
