MODEL 1
REMARK minimizedAffinity -0.0477041341
REMARK minimizedRMSD -1
REMARK  1 active torsions:
REMARK  status: ('A' for Active; 'I' for Inactive)
REMARK    1  A    between atoms: C3_4  and  O_7 
ROOT
ATOM      1  C   UNL d   1       2.915  -1.409   4.792  0.00  0.00    -0.033 A 
ATOM      2  C1  UNL d   1       3.370  -1.942   6.000  0.00  0.00     0.039 A 
ATOM      3  C2  UNL d   1       4.286  -2.995   6.000  0.00  0.00    -0.080 A 
ATOM      4  C3  UNL d   1       4.739  -3.506   4.787  0.00  0.00     0.150 A 
ATOM      5  C4  UNL d   1       4.294  -2.978   3.580  0.00  0.00    -0.007 A 
ATOM      6  C5  UNL d   1       3.378  -1.927   3.582  0.00  0.00     0.039 A 
ENDROOT
BRANCH   4   7
ATOM      7  O   UNL d   1       5.630  -4.538   4.736  0.00  0.00    -0.526 OA
ATOM      8  H5  UNL d   1       5.827  -4.819   5.645  0.00  0.00     0.418 HD
ENDBRANCH   4   7
TORSDOF 1
ENDMDL
