MODEL 1
REMARK minimizedAffinity 7.08527851
REMARK minimizedRMSD -1
REMARK  1 active torsions:
REMARK  status: ('A' for Active; 'I' for Inactive)
REMARK    1  A    between atoms: C3_4  and  O_7 
ROOT
ATOM      1  C   UNL d   1      -0.057  -3.958   0.817  0.00  0.00    -0.033 A 
ATOM      2  C1  UNL d   1      -1.062  -2.992   0.745  0.00  0.00     0.039 A 
ATOM      3  C2  UNL d   1      -0.935  -1.914  -0.134  0.00  0.00    -0.080 A 
ATOM      4  C3  UNL d   1       0.200  -1.815  -0.934  0.00  0.00     0.150 A 
ATOM      5  C4  UNL d   1       1.203  -2.777  -0.870  0.00  0.00    -0.007 A 
ATOM      6  C5  UNL d   1       1.075  -3.851   0.009  0.00  0.00     0.039 A 
ENDROOT
BRANCH   4   7
ATOM      7  O   UNL d   1       0.371  -0.779  -1.803  0.00  0.00    -0.526 OA
ATOM      8  H5  UNL d   1      -0.388  -0.178  -1.719  0.00  0.00     0.418 HD
ENDBRANCH   4   7
TORSDOF 1
ENDMDL
