MODEL 1
REMARK minimizedAffinity -0.741738141
REMARK minimizedRMSD -1
REMARK  1 active torsions:
REMARK  status: ('A' for Active; 'I' for Inactive)
REMARK    1  A    between atoms: C3_4  and  O_7 
ROOT
ATOM      1  C   UNL d   1       0.133  -2.505  -0.838  0.00  0.00    -0.033 A 
ATOM      2  C1  UNL d   1      -0.872  -1.552  -0.667  0.00  0.00     0.039 A 
ATOM      3  C2  UNL d   1      -1.437  -1.350   0.594  0.00  0.00    -0.080 A 
ATOM      4  C3  UNL d   1      -0.988  -2.106   1.673  0.00  0.00     0.150 A 
ATOM      5  C4  UNL d   1       0.017  -3.054   1.510  0.00  0.00    -0.007 A 
ATOM      6  C5  UNL d   1       0.579  -3.255   0.250  0.00  0.00     0.039 A 
ENDROOT
BRANCH   4   7
ATOM      7  O   UNL d   1      -1.512  -1.948   2.922  0.00  0.00    -0.526 OA
ATOM      8  H5  UNL d   1      -2.216  -1.279   2.877  0.00  0.00     0.418 HD
ENDBRANCH   4   7
TORSDOF 1
ENDMDL
