MODEL 1
REMARK minimizedAffinity 6.99839926
REMARK minimizedRMSD -1
REMARK  1 active torsions:
REMARK  status: ('A' for Active; 'I' for Inactive)
REMARK    1  A    between atoms: C3_4  and  O_7 
ROOT
ATOM      1  C   UNL d   1      -0.053  -4.096   0.806  0.00  0.00    -0.033 A 
ATOM      2  C1  UNL d   1       1.092  -4.041   0.009  0.00  0.00     0.039 A 
ATOM      3  C2  UNL d   1       1.283  -2.973  -0.870  0.00  0.00    -0.080 A 
ATOM      4  C3  UNL d   1       0.323  -1.968  -0.942  0.00  0.00     0.150 A 
ATOM      5  C4  UNL d   1      -0.819  -2.014  -0.149  0.00  0.00    -0.007 A 
ATOM      6  C5  UNL d   1      -1.008  -3.082   0.727  0.00  0.00     0.039 A 
ENDROOT
BRANCH   4   7
ATOM      7  O   UNL d   1       0.463  -0.908  -1.789  0.00  0.00    -0.526 OA
ATOM      8  H5  UNL d   1       1.284  -1.025  -2.294  0.00  0.00     0.418 HD
ENDBRANCH   4   7
TORSDOF 1
ENDMDL
