MODEL 1
REMARK minimizedAffinity 4.85791683
REMARK minimizedRMSD -1
REMARK  1 active torsions:
REMARK  status: ('A' for Active; 'I' for Inactive)
REMARK    1  A    between atoms: C3_4  and  O_7 
ROOT
ATOM      1  C   UNL d   1       2.492   1.467  -0.117  0.00  0.00    -0.033 A 
ATOM      2  C1  UNL d   1       1.328   1.802  -0.813  0.00  0.00     0.039 A 
ATOM      3  C2  UNL d   1       0.818   0.936  -1.782  0.00  0.00    -0.080 A 
ATOM      4  C3  UNL d   1       1.479  -0.261  -2.044  0.00  0.00     0.150 A 
ATOM      5  C4  UNL d   1       2.637  -0.603  -1.352  0.00  0.00    -0.007 A 
ATOM      6  C5  UNL d   1       3.145   0.264  -0.386  0.00  0.00     0.039 A 
ENDROOT
BRANCH   4   7
ATOM      7  O   UNL d   1       1.022  -1.136  -2.984  0.00  0.00    -0.526 OA
ATOM      8  H5  UNL d   1       0.232  -0.755  -3.401  0.00  0.00     0.418 HD
ENDBRANCH   4   7
TORSDOF 1
ENDMDL
