MODEL 1
REMARK minimizedAffinity -2.67268491
REMARK minimizedRMSD -1
REMARK  1 active torsions:
REMARK  status: ('A' for Active; 'I' for Inactive)
REMARK    1  A    between atoms: C3_4  and  O_7 
ROOT
ATOM      1  C   UNL d   1       3.892   6.000  -2.987  0.00  0.00    -0.033 A 
ATOM      2  C1  UNL d   1       5.287   6.000  -2.946  0.00  0.00     0.039 A 
ATOM      3  C2  UNL d   1       5.997   4.845  -3.279  0.00  0.00    -0.080 A 
ATOM      4  C3  UNL d   1       5.301   3.698  -3.652  0.00  0.00     0.150 A 
ATOM      5  C4  UNL d   1       3.911   3.693  -3.699  0.00  0.00    -0.007 A 
ATOM      6  C5  UNL d   1       3.204   4.847  -3.365  0.00  0.00     0.039 A 
ENDROOT
BRANCH   4   7
ATOM      7  O   UNL d   1       5.950   2.546  -3.981  0.00  0.00    -0.526 OA
ATOM      8  H5  UNL d   1       6.905   2.690  -3.876  0.00  0.00     0.418 HD
ENDBRANCH   4   7
TORSDOF 1
ENDMDL
