MODEL 1
REMARK minimizedAffinity 5.84367275
REMARK minimizedRMSD -1
REMARK  1 active torsions:
REMARK  status: ('A' for Active; 'I' for Inactive)
REMARK    1  A    between atoms: C3_4  and  O_7 
ROOT
ATOM      1  C   UNL d   1       0.277  -4.000   0.186  0.00  0.00    -0.033 A 
ATOM      2  C1  UNL d   1      -0.278  -2.753   0.479  0.00  0.00     0.039 A 
ATOM      3  C2  UNL d   1      -0.160  -1.702  -0.433  0.00  0.00    -0.080 A 
ATOM      4  C3  UNL d   1       0.512  -1.913  -1.634  0.00  0.00     0.150 A 
ATOM      5  C4  UNL d   1       1.064  -3.154  -1.934  0.00  0.00    -0.007 A 
ATOM      6  C5  UNL d   1       0.946  -4.201  -1.021  0.00  0.00     0.039 A 
ENDROOT
BRANCH   4   7
ATOM      7  O   UNL d   1       0.657  -0.917  -2.553  0.00  0.00    -0.526 OA
ATOM      8  H5  UNL d   1       0.251  -0.108  -2.198  0.00  0.00     0.418 HD
ENDBRANCH   4   7
TORSDOF 1
ENDMDL
