MODEL 1
REMARK minimizedAffinity 3.62253189
REMARK minimizedRMSD -1
REMARK  1 active torsions:
REMARK  status: ('A' for Active; 'I' for Inactive)
REMARK    1  A    between atoms: C3_4  and  O_7 
ROOT
ATOM      1  C   UNL d   1       1.086  -3.772   0.983  0.00  0.00    -0.033 A 
ATOM      2  C1  UNL d   1       0.651  -3.672  -0.340  0.00  0.00     0.039 A 
ATOM      3  C2  UNL d   1      -0.672  -3.321  -0.617  0.00  0.00    -0.080 A 
ATOM      4  C3  UNL d   1      -1.547  -3.072   0.436  0.00  0.00     0.150 A 
ATOM      5  C4  UNL d   1      -1.120  -3.165   1.756  0.00  0.00    -0.007 A 
ATOM      6  C5  UNL d   1       0.201  -3.517   2.031  0.00  0.00     0.039 A 
ENDROOT
BRANCH   4   7
ATOM      7  O   UNL d   1      -2.849  -2.731   0.215  0.00  0.00    -0.526 OA
ATOM      8  H5  UNL d   1      -3.009  -2.733  -0.744  0.00  0.00     0.418 HD
ENDBRANCH   4   7
TORSDOF 1
ENDMDL
