MODEL 1
REMARK minimizedAffinity 7.12892008
REMARK minimizedRMSD -1
REMARK  1 active torsions:
REMARK  status: ('A' for Active; 'I' for Inactive)
REMARK    1  A    between atoms: C3_4  and  O_7 
ROOT
ATOM      1  C   UNL d   1       5.412  -5.916   5.620  0.00  0.00    -0.033 A 
ATOM      2  C1  UNL d   1       4.076  -5.959   5.217  0.00  0.00     0.039 A 
ATOM      3  C2  UNL d   1       3.319  -4.787   5.174  0.00  0.00    -0.080 A 
ATOM      4  C3  UNL d   1       3.910  -3.579   5.535  0.00  0.00     0.150 A 
ATOM      5  C4  UNL d   1       5.242  -3.528   5.934  0.00  0.00    -0.007 A 
ATOM      6  C5  UNL d   1       5.995  -4.700   5.977  0.00  0.00     0.039 A 
ENDROOT
BRANCH   4   7
ATOM      7  O   UNL d   1       3.211  -2.409   5.513  0.00  0.00    -0.526 OA
ATOM      8  H5  UNL d   1       2.297  -2.602   5.245  0.00  0.00     0.418 HD
ENDBRANCH   4   7
TORSDOF 1
ENDMDL
