MODEL 1
REMARK minimizedAffinity -0.80835861
REMARK minimizedRMSD -1
REMARK  1 active torsions:
REMARK  status: ('A' for Active; 'I' for Inactive)
REMARK    1  A    between atoms: C3_4  and  O_7 
ROOT
ATOM      1  C   UNL d   1       0.431  -0.346  -0.695  0.00  0.00    -0.033 A 
ATOM      2  C1  UNL d   1      -0.316  -0.168   0.472  0.00  0.00     0.039 A 
ATOM      3  C2  UNL d   1      -0.297   1.061   1.134  0.00  0.00    -0.080 A 
ATOM      4  C3  UNL d   1       0.469   2.103   0.619  0.00  0.00     0.150 A 
ATOM      5  C4  UNL d   1       1.212   1.934  -0.545  0.00  0.00    -0.007 A 
ATOM      6  C5  UNL d   1       1.193   0.705  -1.204  0.00  0.00     0.039 A 
ENDROOT
BRANCH   4   7
ATOM      7  O   UNL d   1       0.522   3.319   1.233  0.00  0.00    -0.526 OA
ATOM      8  H5  UNL d   1      -0.017   3.280   2.040  0.00  0.00     0.418 HD
ENDBRANCH   4   7
TORSDOF 1
ENDMDL
