MODEL 1
REMARK minimizedAffinity 3.0076232
REMARK minimizedRMSD -1
REMARK  1 active torsions:
REMARK  status: ('A' for Active; 'I' for Inactive)
REMARK    1  A    between atoms: C3_4  and  O_7 
ROOT
ATOM      1  C   UNL d   1       4.776  -4.842   5.955  0.00  0.00    -0.033 A 
ATOM      2  C1  UNL d   1       3.574  -4.137   5.873  0.00  0.00     0.039 A 
ATOM      3  C2  UNL d   1       3.582  -2.741   5.839  0.00  0.00    -0.080 A 
ATOM      4  C3  UNL d   1       4.797  -2.064   5.888  0.00  0.00     0.150 A 
ATOM      5  C4  UNL d   1       5.999  -2.760   5.966  0.00  0.00    -0.007 A 
ATOM      6  C5  UNL d   1       5.989  -4.154   6.000  0.00  0.00     0.039 A 
ENDROOT
BRANCH   4   7
ATOM      7  O   UNL d   1       4.855  -0.702   5.863  0.00  0.00    -0.526 OA
ATOM      8  H5  UNL d   1       3.947  -0.356   5.837  0.00  0.00     0.418 HD
ENDBRANCH   4   7
TORSDOF 1
ENDMDL
