MODEL 1
REMARK minimizedAffinity -1.09243798
REMARK minimizedRMSD -1
REMARK  1 active torsions:
REMARK  status: ('A' for Active; 'I' for Inactive)
REMARK    1  A    between atoms: C3_4  and  O_7 
ROOT
ATOM      1  C   UNL d   1      -0.688  -1.956   1.139  0.00  0.00    -0.033 A 
ATOM      2  C1  UNL d   1      -0.143  -0.671   1.169  0.00  0.00     0.039 A 
ATOM      3  C2  UNL d   1       0.143  -0.003  -0.023  0.00  0.00    -0.080 A 
ATOM      4  C3  UNL d   1      -0.121  -0.631  -1.238  0.00  0.00     0.150 A 
ATOM      5  C4  UNL d   1      -0.666  -1.910  -1.276  0.00  0.00    -0.007 A 
ATOM      6  C5  UNL d   1      -0.951  -2.575  -0.084  0.00  0.00     0.039 A 
ENDROOT
BRANCH   4   7
ATOM      7  O   UNL d   1       0.146  -0.022  -2.428  0.00  0.00    -0.526 OA
ATOM      8  H5  UNL d   1       0.547   0.845  -2.246  0.00  0.00     0.418 HD
ENDBRANCH   4   7
TORSDOF 1
ENDMDL
