MODEL 1
REMARK minimizedAffinity -2.14633393
REMARK minimizedRMSD -1
REMARK  0 active torsions:
REMARK  status: ('A' for Active; 'I' for Inactive)
ROOT
ATOM      1  N1  IND d   1      -1.223   0.423  -1.066  0.00  0.00    -0.196 N 
ATOM      2  C2  IND d   1      -0.171   0.015  -0.294  0.00  0.00     0.054 A 
ATOM      3  C3  IND d   1      -0.507   0.050   1.015  0.00  0.00    -0.031 A 
ATOM      4  C4  IND d   1      -2.759   0.648   2.110  0.00  0.00     0.051 A 
ATOM      5  C5  IND d   1      -4.009   1.118   1.817  0.00  0.00    -0.031 A 
ATOM      6  C6  IND d   1      -4.402   1.383   0.521  0.00  0.00     0.015 A 
ATOM      7  C7  IND d   1      -3.561   1.176  -0.536  0.00  0.00    -0.016 A 
ATOM      8  C8  IND d   1      -2.289   0.706  -0.241  0.00  0.00    -0.047 A 
ATOM      9  C9  IND d   1      -1.870   0.475   1.076  0.00  0.00    -0.096 A 
ATOM     10  HN1 IND d   1      -1.219   0.491  -1.923  0.00  0.00     0.298 HD
ENDROOT
TORSDOF 0
ENDMDL
