MODEL 1
REMARK minimizedAffinity -4.41115332
REMARK minimizedRMSD -1
REMARK  0 active torsions:
REMARK  status: ('A' for Active; 'I' for Inactive)
ROOT
ATOM      1  N1  IND d   1       0.669  -2.005   0.000  0.00  0.00    -0.196 N 
ATOM      2  C2  IND d   1       1.860  -2.311   0.599  0.00  0.00     0.054 A 
ATOM      3  C3  IND d   1       2.542  -1.181   0.891  0.00  0.00    -0.031 A 
ATOM      4  C4  IND d   1       1.850   1.278   0.570  0.00  0.00     0.051 A 
ATOM      5  C5  IND d   1       0.866   2.058   0.031  0.00  0.00    -0.031 A 
ATOM      6  C6  IND d   1      -0.258   1.513  -0.555  0.00  0.00     0.015 A 
ATOM      7  C7  IND d   1      -0.446   0.161  -0.615  0.00  0.00    -0.016 A 
ATOM      8  C8  IND d   1       0.554  -0.635  -0.074  0.00  0.00    -0.047 A 
ATOM      9  C9  IND d   1       1.717  -0.088   0.484  0.00  0.00    -0.096 A 
ATOM     10  HN1 IND d   1       0.089  -2.574  -0.282  0.00  0.00     0.298 HD
ENDROOT
TORSDOF 0
ENDMDL
