MODEL 1
REMARK minimizedAffinity -0.962763608
REMARK minimizedRMSD -1
REMARK  0 active torsions:
REMARK  status: ('A' for Active; 'I' for Inactive)
ROOT
ATOM      1  N1  IND d   1       0.089   0.627  -0.149  0.00  0.00    -0.196 N 
ATOM      2  C2  IND d   1      -0.799  -0.386  -0.383  0.00  0.00     0.054 A 
ATOM      3  C3  IND d   1      -0.147  -1.564  -0.504  0.00  0.00    -0.031 A 
ATOM      4  C4  IND d   1       2.364  -2.077  -0.254  0.00  0.00     0.051 A 
ATOM      5  C5  IND d   1       3.575  -1.469  -0.075  0.00  0.00    -0.031 A 
ATOM      6  C6  IND d   1       3.688  -0.104   0.094  0.00  0.00     0.015 A 
ATOM      7  C7  IND d   1       2.588   0.706   0.102  0.00  0.00    -0.016 A 
ATOM      8  C8  IND d   1       1.357   0.093  -0.086  0.00  0.00    -0.047 A 
ATOM      9  C9  IND d   1       1.240  -1.286  -0.301  0.00  0.00    -0.096 A 
ATOM     10  HN1 IND d   1      -0.111   1.459  -0.057  0.00  0.00     0.298 HD
ENDROOT
TORSDOF 0
ENDMDL
