MODEL 1
REMARK minimizedAffinity -5.22453594
REMARK minimizedRMSD -1
REMARK  0 active torsions:
REMARK  status: ('A' for Active; 'I' for Inactive)
ROOT
ATOM      1  N1  IND d   1      -0.248   0.566   0.069  0.00  0.00    -0.196 N 
ATOM      2  C2  IND d   1      -0.965  -0.589  -0.071  0.00  0.00     0.054 A 
ATOM      3  C3  IND d   1      -0.140  -1.660  -0.052  0.00  0.00    -0.031 A 
ATOM      4  C4  IND d   1       2.408  -1.756   0.301  0.00  0.00     0.051 A 
ATOM      5  C5  IND d   1       3.508  -0.956   0.436  0.00  0.00    -0.031 A 
ATOM      6  C6  IND d   1       3.409   0.421   0.458  0.00  0.00     0.015 A 
ATOM      7  C7  IND d   1       2.201   1.050   0.358  0.00  0.00    -0.016 A 
ATOM      8  C8  IND d   1       1.083   0.241   0.214  0.00  0.00    -0.047 A 
ATOM      9  C9  IND d   1       1.181  -1.155   0.147  0.00  0.00    -0.096 A 
ATOM     10  HN1 IND d   1      -0.573   1.362   0.066  0.00  0.00     0.298 HD
ENDROOT
TORSDOF 0
ENDMDL
