MODEL 1
REMARK minimizedAffinity -3.01752305
REMARK minimizedRMSD -1
REMARK  0 active torsions:
REMARK  status: ('A' for Active; 'I' for Inactive)
ROOT
ATOM      1  N1  IND d   1       1.619  -0.540   1.226  0.00  0.00    -0.196 N 
ATOM      2  C2  IND d   1       1.920  -1.816   0.837  0.00  0.00     0.054 A 
ATOM      3  C3  IND d   1       1.057  -2.233  -0.117  0.00  0.00    -0.031 A 
ATOM      4  C4  IND d   1      -0.860  -0.951  -1.260  0.00  0.00     0.051 A 
ATOM      5  C5  IND d   1      -1.543   0.232  -1.215  0.00  0.00    -0.031 A 
ATOM      6  C6  IND d   1      -1.197   1.240  -0.338  0.00  0.00     0.015 A 
ATOM      7  C7  IND d   1      -0.145   1.105   0.522  0.00  0.00    -0.016 A 
ATOM      8  C8  IND d   1       0.546  -0.098   0.484  0.00  0.00    -0.047 A 
ATOM      9  C9  IND d   1       0.174  -1.140  -0.374  0.00  0.00    -0.096 A 
ATOM     10  HN1 IND d   1       2.031  -0.090   1.832  0.00  0.00     0.298 HD
ENDROOT
TORSDOF 0
ENDMDL
