MODEL 1
REMARK minimizedAffinity -4.02878141
REMARK minimizedRMSD -1
REMARK  0 active torsions:
REMARK  status: ('A' for Active; 'I' for Inactive)
ROOT
ATOM      1  N1  IND d   1       0.022  -0.714  -1.408  0.00  0.00    -0.196 N 
ATOM      2  C2  IND d   1      -0.530   0.530  -1.286  0.00  0.00     0.054 A 
ATOM      3  C3  IND d   1      -0.055   1.149  -0.182  0.00  0.00    -0.031 A 
ATOM      4  C4  IND d   1       1.711   0.347   1.511  0.00  0.00     0.051 A 
ATOM      5  C5  IND d   1       2.475  -0.738   1.838  0.00  0.00    -0.031 A 
ATOM      6  C6  IND d   1       2.462  -1.893   1.083  0.00  0.00     0.015 A 
ATOM      7  C7  IND d   1       1.690  -2.002  -0.039  0.00  0.00    -0.016 A 
ATOM      8  C8  IND d   1       0.907  -0.905  -0.370  0.00  0.00    -0.047 A 
ATOM      9  C9  IND d   1       0.884   0.254   0.416  0.00  0.00    -0.096 A 
ATOM     10  HN1 IND d   1      -0.154  -1.283  -2.029  0.00  0.00     0.298 HD
ENDROOT
TORSDOF 0
ENDMDL
