MODEL 1
REMARK minimizedAffinity -5.28806353
REMARK minimizedRMSD -1
REMARK  0 active torsions:
REMARK  status: ('A' for Active; 'I' for Inactive)
ROOT
ATOM      1  N1  IND d   1      -0.133   1.367  -0.249  0.00  0.00    -0.196 N 
ATOM      2  C2  IND d   1      -1.091   0.568  -0.809  0.00  0.00     0.054 A 
ATOM      3  C3  IND d   1      -0.731  -0.732  -0.719  0.00  0.00    -0.031 A 
ATOM      4  C4  IND d   1       1.338  -1.783   0.397  0.00  0.00     0.051 A 
ATOM      5  C5  IND d   1       2.514  -1.454   1.010  0.00  0.00    -0.031 A 
ATOM      6  C6  IND d   1       2.874  -0.143   1.242  0.00  0.00     0.015 A 
ATOM      7  C7  IND d   1       2.062   0.894   0.878  0.00  0.00    -0.016 A 
ATOM      8  C8  IND d   1       0.870   0.565   0.249  0.00  0.00    -0.047 A 
ATOM      9  C9  IND d   1       0.519  -0.763  -0.028  0.00  0.00    -0.096 A 
ATOM     10  HN1 IND d   1      -0.154   2.226  -0.214  0.00  0.00     0.298 HD
ENDROOT
TORSDOF 0
ENDMDL
