MODEL 1
REMARK minimizedAffinity -4.64846134
REMARK minimizedRMSD -1
REMARK  0 active torsions:
REMARK  status: ('A' for Active; 'I' for Inactive)
ROOT
ATOM      1  N1  IND d   1       2.114   1.771  -0.116  0.00  0.00    -0.196 N 
ATOM      2  C2  IND d   1       0.940   2.364  -0.488  0.00  0.00     0.054 A 
ATOM      3  C3  IND d   1      -0.014   1.429  -0.698  0.00  0.00    -0.031 A 
ATOM      4  C4  IND d   1       0.103  -1.124  -0.390  0.00  0.00     0.051 A 
ATOM      5  C5  IND d   1       0.976  -2.135  -0.099  0.00  0.00    -0.031 A 
ATOM      6  C6  IND d   1       2.298  -1.890   0.210  0.00  0.00     0.015 A 
ATOM      7  C7  IND d   1       2.797  -0.619   0.251  0.00  0.00    -0.016 A 
ATOM      8  C8  IND d   1       1.916   0.410  -0.051  0.00  0.00    -0.047 A 
ATOM      9  C9  IND d   1       0.583   0.164  -0.407  0.00  0.00    -0.096 A 
ATOM     10  HN1 IND d   1       2.852   2.180   0.050  0.00  0.00     0.298 HD
ENDROOT
TORSDOF 0
ENDMDL
