MODEL 1
REMARK minimizedAffinity -4.63812494
REMARK minimizedRMSD -1
REMARK  0 active torsions:
REMARK  status: ('A' for Active; 'I' for Inactive)
ROOT
ATOM      1  N1  IND d   1       2.212   1.997   0.069  0.00  0.00    -0.196 N 
ATOM      2  C2  IND d   1       3.574   1.875   0.091  0.00  0.00     0.054 A 
ATOM      3  C3  IND d   1       3.929   0.571   0.044  0.00  0.00    -0.031 A 
ATOM      4  C4  IND d   1       2.446  -1.522  -0.176  0.00  0.00     0.051 A 
ATOM      5  C5  IND d   1       1.138  -1.918  -0.197  0.00  0.00    -0.031 A 
ATOM      6  C6  IND d   1       0.101  -1.011  -0.131  0.00  0.00     0.015 A 
ATOM      7  C7  IND d   1       0.333   0.333  -0.054  0.00  0.00    -0.016 A 
ATOM      8  C8  IND d   1       1.660   0.739  -0.025  0.00  0.00    -0.047 A 
ATOM      9  C9  IND d   1       2.718  -0.180  -0.049  0.00  0.00    -0.096 A 
ATOM     10  HN1 IND d   1       1.775   2.736   0.108  0.00  0.00     0.298 HD
ENDROOT
TORSDOF 0
ENDMDL
