MODEL 1
REMARK minimizedAffinity -5.54388762
REMARK minimizedRMSD -1
REMARK  0 active torsions:
REMARK  status: ('A' for Active; 'I' for Inactive)
ROOT
ATOM      1  N1  IND d   1       1.639   1.897  -0.272  0.00  0.00    -0.196 N 
ATOM      2  C2  IND d   1       0.760   2.674  -0.974  0.00  0.00     0.054 A 
ATOM      3  C3  IND d   1      -0.254   1.921  -1.455  0.00  0.00    -0.031 A 
ATOM      4  C4  IND d   1      -0.726  -0.588  -1.125  0.00  0.00     0.051 A 
ATOM      5  C5  IND d   1      -0.188  -1.724  -0.589  0.00  0.00    -0.031 A 
ATOM      6  C6  IND d   1       1.010  -1.710   0.097  0.00  0.00     0.015 A 
ATOM      7  C7  IND d   1       1.711  -0.553   0.283  0.00  0.00    -0.016 A 
ATOM      8  C8  IND d   1       1.171   0.602  -0.267  0.00  0.00    -0.047 A 
ATOM      9  C9  IND d   1      -0.022   0.586  -1.000  0.00  0.00    -0.096 A 
ATOM     10  HN1 IND d   1       2.362   2.172   0.104  0.00  0.00     0.298 HD
ENDROOT
TORSDOF 0
ENDMDL
