MODEL 1
REMARK minimizedAffinity 1.35640466
REMARK minimizedRMSD -1
REMARK  0 active torsions:
REMARK  status: ('A' for Active; 'I' for Inactive)
ROOT
ATOM      1  N1  IND d   1       0.597   1.952  -0.027  0.00  0.00    -0.196 N 
ATOM      2  C2  IND d   1      -0.593   1.289  -0.140  0.00  0.00     0.054 A 
ATOM      3  C3  IND d   1      -0.378  -0.031  -0.336  0.00  0.00    -0.031 A 
ATOM      4  C4  IND d   1       1.840  -1.336  -0.404  0.00  0.00     0.051 A 
ATOM      5  C5  IND d   1       3.195  -1.158  -0.386  0.00  0.00    -0.031 A 
ATOM      6  C6  IND d   1       3.765   0.090  -0.241  0.00  0.00     0.015 A 
ATOM      7  C7  IND d   1       2.997   1.211  -0.097  0.00  0.00    -0.016 A 
ATOM      8  C8  IND d   1       1.621   1.036  -0.123  0.00  0.00    -0.047 A 
ATOM      9  C9  IND d   1       1.037  -0.224  -0.312  0.00  0.00    -0.096 A 
ATOM     10  HN1 IND d   1       0.691   2.800   0.084  0.00  0.00     0.298 HD
ENDROOT
TORSDOF 0
ENDMDL
