MODEL 1
REMARK minimizedAffinity 4.13958931
REMARK minimizedRMSD -1
REMARK  1 active torsions:
REMARK  status: ('A' for Active; 'I' for Inactive)
REMARK    1  A    between atoms: C1_2  and  C2_3 
ROOT
ATOM      1  C2  UNL d   1       4.244   4.395   5.117  0.00  0.00    -0.081 A 
ATOM      2  C3  UNL d   1       3.026   4.164   5.767  0.00  0.00     0.006 A 
ATOM      3  C4  UNL d   1       2.534   2.864   5.907  0.00  0.00     0.002 A 
ATOM      4  C5  UNL d   1       3.254   1.774   5.407  0.00  0.00    -0.080 A 
ATOM      5  C6  UNL d   1       2.751   0.372   5.577  0.00  0.00     0.076 C 
ATOM      6  C7  UNL d   1       4.462   2.007   4.741  0.00  0.00     0.002 A 
ATOM      7  C8  UNL d   1       4.955   3.306   4.600  0.00  0.00     0.006 A 
ENDROOT
BRANCH   1   8
ATOM      8  C1  UNL d   1       4.809   5.789   5.021  0.00  0.00     0.054 C 
ATOM      9  C   UNL d   1       5.960   5.988   5.998  0.00  0.00     0.018 C 
ENDBRANCH   1   8
TORSDOF 1
ENDMDL
