MODEL 1
REMARK minimizedAffinity -3.50268221
REMARK minimizedRMSD -1
REMARK  1 active torsions:
REMARK  status: ('A' for Active; 'I' for Inactive)
REMARK    1  A    between atoms: C1_2  and  C2_3 
ROOT
ATOM      1  C2  UNL d   1       4.644   3.567   5.403  0.00  0.00    -0.081 A 
ATOM      2  C3  UNL d   1       4.599   2.301   6.000  0.00  0.00     0.006 A 
ATOM      3  C4  UNL d   1       3.602   1.388   5.649  0.00  0.00     0.002 A 
ATOM      4  C5  UNL d   1       2.639   1.722   4.690  0.00  0.00    -0.080 A 
ATOM      5  C6  UNL d   1       1.582   0.740   4.282  0.00  0.00     0.076 C 
ATOM      6  C7  UNL d   1       2.674   2.993   4.107  0.00  0.00     0.002 A 
ATOM      7  C8  UNL d   1       3.670   3.907   4.458  0.00  0.00     0.006 A 
ENDROOT
BRANCH   1   8
ATOM      8  C1  UNL d   1       5.756   4.530   5.733  0.00  0.00     0.054 C 
ATOM      9  C   UNL d   1       5.240   5.959   5.832  0.00  0.00     0.018 C 
ENDBRANCH   1   8
TORSDOF 1
ENDMDL
