MODEL 1
REMARK minimizedAffinity -1.1334995
REMARK minimizedRMSD -1
REMARK  1 active torsions:
REMARK  status: ('A' for Active; 'I' for Inactive)
REMARK    1  A    between atoms: C1_2  and  C2_3 
ROOT
ATOM      1  C2  UNL d   1       3.284   2.586   5.445  0.00  0.00    -0.081 A 
ATOM      2  C3  UNL d   1       4.665   2.468   5.243  0.00  0.00     0.006 A 
ATOM      3  C4  UNL d   1       5.502   3.573   5.409  0.00  0.00     0.002 A 
ATOM      4  C5  UNL d   1       4.975   4.812   5.788  0.00  0.00    -0.080 A 
ATOM      5  C6  UNL d   1       5.866   6.000   5.999  0.00  0.00     0.076 C 
ATOM      6  C7  UNL d   1       3.594   4.935   5.973  0.00  0.00     0.002 A 
ATOM      7  C8  UNL d   1       2.756   3.830   5.806  0.00  0.00     0.006 A 
ENDROOT
BRANCH   1   8
ATOM      8  C1  UNL d   1       2.386   1.381   5.330  0.00  0.00     0.054 C 
ATOM      9  C   UNL d   1       3.013   0.159   5.986  0.00  0.00     0.018 C 
ENDBRANCH   1   8
TORSDOF 1
ENDMDL
