MODEL 1
REMARK minimizedAffinity 3.34728718
REMARK minimizedRMSD -1
REMARK  1 active torsions:
REMARK  status: ('A' for Active; 'I' for Inactive)
REMARK    1  A    between atoms: C1_2  and  C2_3 
ROOT
ATOM      1  C2  UNL d   1       2.965   4.720   4.956  0.00  0.00    -0.081 A 
ATOM      2  C3  UNL d   1       2.451   5.477   3.896  0.00  0.00     0.006 A 
ATOM      3  C4  UNL d   1       1.108   5.861   3.886  0.00  0.00     0.002 A 
ATOM      4  C5  UNL d   1       0.259   5.503   4.939  0.00  0.00    -0.080 A 
ATOM      5  C6  UNL d   1      -1.177   5.936   4.956  0.00  0.00     0.076 C 
ATOM      6  C7  UNL d   1       0.768   4.732   5.990  0.00  0.00     0.002 A 
ATOM      7  C8  UNL d   1       2.111   4.347   6.000  0.00  0.00     0.006 A 
ENDROOT
BRANCH   1   8
ATOM      8  C1  UNL d   1       4.427   4.359   5.001  0.00  0.00     0.054 C 
ATOM      9  C   UNL d   1       5.181   5.225   6.000  0.00  0.00     0.018 C 
ENDBRANCH   1   8
TORSDOF 1
ENDMDL
