MODEL 1
REMARK minimizedAffinity 3.33638453
REMARK minimizedRMSD -1
REMARK  0 active torsions:
REMARK  status: ('A' for Active; 'I' for Inactive)
ROOT
ATOM      1  C1  BNZ d   1      -4.118   2.615  -4.473  0.00  0.00     0.000 A 
ATOM      2  C2  BNZ d   1      -2.984   3.042  -3.836  0.00  0.00     0.000 A 
ATOM      3  C3  BNZ d   1      -2.513   2.387  -2.732  0.00  0.00     0.000 A 
ATOM      4  C4  BNZ d   1      -3.197   1.333  -2.244  0.00  0.00     0.000 A 
ATOM      5  C5  BNZ d   1      -4.348   0.896  -2.869  0.00  0.00     0.000 A 
ATOM      6  C6  BNZ d   1      -4.798   1.533  -4.003  0.00  0.00     0.000 A 
ENDROOT
TORSDOF 0
ENDMDL
