MODEL 1
REMARK minimizedAffinity 9.4981308
REMARK minimizedRMSD -1
REMARK  0 active torsions:
REMARK  status: ('A' for Active; 'I' for Inactive)
ROOT
ATOM      1  C1  BNZ d   1       2.015  -1.866   0.988  0.00  0.00     0.000 A 
ATOM      2  C2  BNZ d   1       1.816  -1.252   2.196  0.00  0.00     0.000 A 
ATOM      3  C3  BNZ d   1       0.608  -1.333   2.832  0.00  0.00     0.000 A 
ATOM      4  C4  BNZ d   1      -0.409  -1.992   2.241  0.00  0.00     0.000 A 
ATOM      5  C5  BNZ d   1      -0.227  -2.609   1.019  0.00  0.00     0.000 A 
ATOM      6  C6  BNZ d   1       1.001  -2.559   0.401  0.00  0.00     0.000 A 
ENDROOT
TORSDOF 0
ENDMDL
