MODEL 1
REMARK minimizedAffinity 1.71826899
REMARK minimizedRMSD -1
REMARK  0 active torsions:
REMARK  status: ('A' for Active; 'I' for Inactive)
ROOT
ATOM      1  C1  BNZ d   1       0.304  -2.889   2.356  0.00  0.00     0.000 A 
ATOM      2  C2  BNZ d   1       1.632  -2.555   2.378  0.00  0.00     0.000 A 
ATOM      3  C3  BNZ d   1       2.056  -1.407   2.987  0.00  0.00     0.000 A 
ATOM      4  C4  BNZ d   1       1.148  -0.575   3.538  0.00  0.00     0.000 A 
ATOM      5  C5  BNZ d   1      -0.195  -0.893   3.516  0.00  0.00     0.000 A 
ATOM      6  C6  BNZ d   1      -0.614  -2.068   2.936  0.00  0.00     0.000 A 
ENDROOT
TORSDOF 0
ENDMDL
