MODEL 1
REMARK minimizedAffinity 4.34269047
REMARK minimizedRMSD -1
REMARK  0 active torsions:
REMARK  status: ('A' for Active; 'I' for Inactive)
ROOT
ATOM      1  C1  BNZ d   1       1.011  -1.887   0.756  0.00  0.00     0.000 A 
ATOM      2  C2  BNZ d   1       1.831  -2.868   0.266  0.00  0.00     0.000 A 
ATOM      3  C3  BNZ d   1       2.802  -3.425   1.050  0.00  0.00     0.000 A 
ATOM      4  C4  BNZ d   1       2.979  -2.974   2.309  0.00  0.00     0.000 A 
ATOM      5  C5  BNZ d   1       2.166  -1.979   2.814  0.00  0.00     0.000 A 
ATOM      6  C6  BNZ d   1       1.164  -1.448   2.035  0.00  0.00     0.000 A 
ENDROOT
TORSDOF 0
ENDMDL
