MODEL 1
REMARK minimizedAffinity 2.39285731
REMARK minimizedRMSD -1
REMARK  0 active torsions:
REMARK  status: ('A' for Active; 'I' for Inactive)
ROOT
ATOM      1  C1  BNZ d   1      -0.314   5.915   3.671  0.00  0.00     0.000 A 
ATOM      2  C2  BNZ d   1      -1.681   6.000   3.686  0.00  0.00     0.000 A 
ATOM      3  C3  BNZ d   1      -2.378   5.872   4.855  0.00  0.00     0.000 A 
ATOM      4  C4  BNZ d   1      -1.711   5.621   6.000  0.00  0.00     0.000 A 
ATOM      5  C5  BNZ d   1      -0.334   5.523   6.000  0.00  0.00     0.000 A 
ATOM      6  C6  BNZ d   1       0.367   5.691   4.828  0.00  0.00     0.000 A 
ENDROOT
TORSDOF 0
ENDMDL
