MODEL 1
REMARK minimizedAffinity -5.52496529
REMARK minimizedRMSD -1
REMARK  2 active torsions:
REMARK  status: ('A' for Active; 'I' for Inactive)
REMARK    1  A    between atoms: C1_2  and  C2_3 
REMARK    2  A    between atoms: C2_3  and  C3_4 
ROOT
ATOM      1  C3  UNL d   1      -0.222   0.250  -0.122  0.00  0.00    -0.075 A 
ATOM      2  C4  UNL d   1       1.017   0.836  -0.419  0.00  0.00     0.002 A 
ATOM      3  C5  UNL d   1       2.204   0.152  -0.160  0.00  0.00     0.002 A 
ATOM      4  C6  UNL d   1       2.169  -1.120   0.409  0.00  0.00    -0.004 A 
ATOM      5  C7  UNL d   1       0.945  -1.705   0.724  0.00  0.00     0.002 A 
ATOM      6  C8  UNL d   1      -0.245  -1.024   0.461  0.00  0.00     0.002 A 
ENDROOT
BRANCH   1   7
ATOM      7  C2  UNL d   1      -1.512   0.973  -0.428  0.00  0.00     0.056 C 
BRANCH   7   8
ATOM      8  C1  UNL d   1      -1.724   1.268  -1.916  0.00  0.00     0.007 C 
ATOM      9  C   UNL d   1      -3.066   0.775  -2.442  0.00  0.00     0.009 C 
ENDBRANCH   7   8
ENDBRANCH   1   7
TORSDOF 2
ENDMDL
