MODEL 1
REMARK minimizedAffinity -3.54517221
REMARK minimizedRMSD -1
REMARK  2 active torsions:
REMARK  status: ('A' for Active; 'I' for Inactive)
REMARK    1  A    between atoms: C1_2  and  C2_3 
REMARK    2  A    between atoms: C2_3  and  C3_4 
ROOT
ATOM      1  C3  UNL d   1      -0.147  -0.013   0.200  0.00  0.00    -0.075 A 
ATOM      2  C4  UNL d   1      -0.690  -1.305   0.250  0.00  0.00     0.002 A 
ATOM      3  C5  UNL d   1       0.117  -2.401   0.560  0.00  0.00     0.002 A 
ATOM      4  C6  UNL d   1       1.475  -2.220   0.813  0.00  0.00    -0.004 A 
ATOM      5  C7  UNL d   1       2.028  -0.943   0.749  0.00  0.00     0.002 A 
ATOM      6  C8  UNL d   1       1.223   0.155   0.444  0.00  0.00     0.002 A 
ENDROOT
BRANCH   1   7
ATOM      7  C2  UNL d   1      -1.020   1.181  -0.106  0.00  0.00     0.056 C 
BRANCH   7   8
ATOM      8  C1  UNL d   1      -1.070   1.553  -1.592  0.00  0.00     0.007 C 
ATOM      9  C   UNL d   1      -2.392   1.195  -2.256  0.00  0.00     0.009 C 
ENDBRANCH   7   8
ENDBRANCH   1   7
TORSDOF 2
ENDMDL
