MODEL 1
REMARK minimizedAffinity -5.47817373
REMARK minimizedRMSD -1
REMARK  2 active torsions:
REMARK  status: ('A' for Active; 'I' for Inactive)
REMARK    1  A    between atoms: C1_2  and  C2_3 
REMARK    2  A    between atoms: C2_3  and  C3_4 
ROOT
ATOM      1  C3  UNL d   1      -0.136   0.785  -0.323  0.00  0.00    -0.075 A 
ATOM      2  C4  UNL d   1       1.215   0.752  -0.698  0.00  0.00     0.002 A 
ATOM      3  C5  UNL d   1       2.031  -0.313  -0.313  0.00  0.00     0.002 A 
ATOM      4  C6  UNL d   1       1.510  -1.351   0.456  0.00  0.00    -0.004 A 
ATOM      5  C7  UNL d   1       0.173  -1.320   0.848  0.00  0.00     0.002 A 
ATOM      6  C8  UNL d   1      -0.646  -0.258   0.461  0.00  0.00     0.002 A 
ENDROOT
BRANCH   1   7
ATOM      7  C2  UNL d   1      -1.031   1.920  -0.760  0.00  0.00     0.056 C 
BRANCH   7   8
ATOM      8  C1  UNL d   1      -2.104   1.512  -1.776  0.00  0.00     0.007 C 
ATOM      9  C   UNL d   1      -2.243   2.496  -2.930  0.00  0.00     0.009 C 
ENDBRANCH   7   8
ENDBRANCH   1   7
TORSDOF 2
ENDMDL
