MODEL 1
REMARK minimizedAffinity -5.15775347
REMARK minimizedRMSD -1
REMARK  2 active torsions:
REMARK  status: ('A' for Active; 'I' for Inactive)
REMARK    1  A    between atoms: C1_2  and  C2_3 
REMARK    2  A    between atoms: C2_3  and  C3_4 
ROOT
ATOM      1  C3  UNL d   1      -0.202   0.459   0.066  0.00  0.00    -0.075 A 
ATOM      2  C4  UNL d   1      -0.540  -0.819   0.535  0.00  0.00     0.002 A 
ATOM      3  C5  UNL d   1       0.446  -1.789   0.721  0.00  0.00     0.002 A 
ATOM      4  C6  UNL d   1       1.777  -1.498   0.431  0.00  0.00    -0.004 A 
ATOM      5  C7  UNL d   1       2.122  -0.237  -0.051  0.00  0.00     0.002 A 
ATOM      6  C8  UNL d   1       1.138   0.736  -0.234  0.00  0.00     0.002 A 
ENDROOT
BRANCH   1   7
ATOM      7  C2  UNL d   1      -1.260   1.522  -0.110  0.00  0.00     0.056 C 
BRANCH   7   8
ATOM      8  C1  UNL d   1      -1.583   1.845  -1.572  0.00  0.00     0.007 C 
ATOM      9  C   UNL d   1      -3.011   1.489  -1.964  0.00  0.00     0.009 C 
ENDBRANCH   7   8
ENDBRANCH   1   7
TORSDOF 2
ENDMDL
