MODEL 1
REMARK minimizedAffinity -4.75531006
REMARK minimizedRMSD -1
REMARK  2 active torsions:
REMARK  status: ('A' for Active; 'I' for Inactive)
REMARK    1  A    between atoms: C1_2  and  C2_3 
REMARK    2  A    between atoms: C2_3  and  C3_4 
ROOT
ATOM      1  C3  UNL d   1      -0.173   0.327  -0.235  0.00  0.00    -0.075 A 
ATOM      2  C4  UNL d   1       1.172  -0.005  -0.447  0.00  0.00     0.002 A 
ATOM      3  C5  UNL d   1       1.724  -1.140   0.149  0.00  0.00     0.002 A 
ATOM      4  C6  UNL d   1       0.942  -1.949   0.970  0.00  0.00    -0.004 A 
ATOM      5  C7  UNL d   1      -0.392  -1.619   1.201  0.00  0.00     0.002 A 
ATOM      6  C8  UNL d   1      -0.948  -0.487   0.602  0.00  0.00     0.002 A 
ENDROOT
BRANCH   1   7
ATOM      7  C2  UNL d   1      -0.784   1.537  -0.901  0.00  0.00     0.056 C 
BRANCH   7   8
ATOM      8  C1  UNL d   1      -1.999   1.219  -1.779  0.00  0.00     0.007 C 
ATOM      9  C   UNL d   1      -1.964   1.922  -3.130  0.00  0.00     0.009 C 
ENDBRANCH   7   8
ENDBRANCH   1   7
TORSDOF 2
ENDMDL
