MODEL 1
REMARK minimizedAffinity -4.78820086
REMARK minimizedRMSD -1
REMARK  2 active torsions:
REMARK  status: ('A' for Active; 'I' for Inactive)
REMARK    1  A    between atoms: C1_2  and  C2_3 
REMARK    2  A    between atoms: C2_3  and  C3_4 
ROOT
ATOM      1  C3  UNL d   1      -0.174   0.225   0.132  0.00  0.00    -0.075 A 
ATOM      2  C4  UNL d   1      -0.624  -0.886   0.861  0.00  0.00     0.002 A 
ATOM      3  C5  UNL d   1       0.172  -2.025   0.979  0.00  0.00     0.002 A 
ATOM      4  C6  UNL d   1       1.420  -2.074   0.364  0.00  0.00    -0.004 A 
ATOM      5  C7  UNL d   1       1.871  -0.983  -0.376  0.00  0.00     0.002 A 
ATOM      6  C8  UNL d   1       1.079   0.161  -0.493  0.00  0.00     0.002 A 
ENDROOT
BRANCH   1   7
ATOM      7  C2  UNL d   1      -1.017   1.473   0.025  0.00  0.00     0.056 C 
BRANCH   7   8
ATOM      8  C1  UNL d   1      -1.143   2.020  -1.400  0.00  0.00     0.007 C 
ATOM      9  C   UNL d   1      -2.253   1.355  -2.204  0.00  0.00     0.009 C 
ENDBRANCH   7   8
ENDBRANCH   1   7
TORSDOF 2
ENDMDL
