MODEL 1
REMARK minimizedAffinity -5.86365318
REMARK minimizedRMSD -1
REMARK  2 active torsions:
REMARK  status: ('A' for Active; 'I' for Inactive)
REMARK    1  A    between atoms: C1_2  and  C2_3 
REMARK    2  A    between atoms: C2_3  and  C3_4 
ROOT
ATOM      1  C3  UNL d   1       0.134  -0.111   0.004  0.00  0.00    -0.075 A 
ATOM      2  C4  UNL d   1       1.423  -0.013  -0.539  0.00  0.00     0.002 A 
ATOM      3  C5  UNL d   1       2.263  -1.126  -0.575  0.00  0.00     0.002 A 
ATOM      4  C6  UNL d   1       1.830  -2.346  -0.060  0.00  0.00    -0.004 A 
ATOM      5  C7  UNL d   1       0.558  -2.451   0.497  0.00  0.00     0.002 A 
ATOM      6  C8  UNL d   1      -0.287  -1.339   0.530  0.00  0.00     0.002 A 
ENDROOT
BRANCH   1   7
ATOM      7  C2  UNL d   1      -0.791   1.083   0.018  0.00  0.00     0.056 C 
BRANCH   7   8
ATOM      8  C1  UNL d   1      -1.211   1.563  -1.375  0.00  0.00     0.007 C 
ATOM      9  C   UNL d   1      -2.260   0.672  -2.026  0.00  0.00     0.009 C 
ENDBRANCH   7   8
ENDBRANCH   1   7
TORSDOF 2
ENDMDL
