MODEL 1
REMARK minimizedAffinity -6.2563591
REMARK minimizedRMSD -1
REMARK  2 active torsions:
REMARK  status: ('A' for Active; 'I' for Inactive)
REMARK    1  A    between atoms: C1_2  and  C2_3 
REMARK    2  A    between atoms: C2_3  and  C3_4 
ROOT
ATOM      1  C3  UNL d   1      -0.263   0.027   0.082  0.00  0.00    -0.075 A 
ATOM      2  C4  UNL d   1      -0.646  -1.114   0.803  0.00  0.00     0.002 A 
ATOM      3  C5  UNL d   1       0.194  -2.225   0.870  0.00  0.00     0.002 A 
ATOM      4  C6  UNL d   1       1.422  -2.215   0.211  0.00  0.00    -0.004 A 
ATOM      5  C7  UNL d   1       1.806  -1.093  -0.521  0.00  0.00     0.002 A 
ATOM      6  C8  UNL d   1       0.969   0.022  -0.586  0.00  0.00     0.002 A 
ENDROOT
BRANCH   1   7
ATOM      7  C2  UNL d   1      -1.155   1.244   0.030  0.00  0.00     0.056 C 
BRANCH   7   8
ATOM      8  C1  UNL d   1      -1.474   1.722  -1.390  0.00  0.00     0.007 C 
ATOM      9  C   UNL d   1      -2.398   0.778  -2.148  0.00  0.00     0.009 C 
ENDBRANCH   7   8
ENDBRANCH   1   7
TORSDOF 2
ENDMDL
