MODEL 1
REMARK minimizedAffinity -0.794554889
REMARK minimizedRMSD -1
REMARK  2 active torsions:
REMARK  status: ('A' for Active; 'I' for Inactive)
REMARK    1  A    between atoms: C1_2  and  C2_3 
REMARK    2  A    between atoms: C2_3  and  C3_4 
ROOT
ATOM      1  C3  UNL d   1      -0.610   0.783  -0.244  0.00  0.00    -0.075 A 
ATOM      2  C4  UNL d   1       0.678   0.315  -0.543  0.00  0.00     0.002 A 
ATOM      3  C5  UNL d   1       1.320  -0.586   0.308  0.00  0.00     0.002 A 
ATOM      4  C6  UNL d   1       0.687  -1.022   1.470  0.00  0.00    -0.004 A 
ATOM      5  C7  UNL d   1      -0.585  -0.551   1.785  0.00  0.00     0.002 A 
ATOM      6  C8  UNL d   1      -1.231   0.347   0.934  0.00  0.00     0.002 A 
ENDROOT
BRANCH   1   7
ATOM      7  C2  UNL d   1      -1.321   1.735  -1.175  0.00  0.00     0.056 C 
BRANCH   7   8
ATOM      8  C1  UNL d   1      -1.487   1.204  -2.603  0.00  0.00     0.007 C 
ATOM      9  C   UNL d   1      -2.934   0.899  -2.966  0.00  0.00     0.009 C 
ENDBRANCH   7   8
ENDBRANCH   1   7
TORSDOF 2
ENDMDL
