MODEL 1
REMARK minimizedAffinity -4.29689121
REMARK minimizedRMSD -1
REMARK  2 active torsions:
REMARK  status: ('A' for Active; 'I' for Inactive)
REMARK    1  A    between atoms: C1_2  and  C2_3 
REMARK    2  A    between atoms: C2_3  and  C3_4 
ROOT
ATOM      1  C3  UNL d   1       0.552  -0.099  -0.260  0.00  0.00    -0.075 A 
ATOM      2  C4  UNL d   1      -0.376  -0.912   0.408  0.00  0.00     0.002 A 
ATOM      3  C5  UNL d   1       0.057  -1.896   1.298  0.00  0.00     0.002 A 
ATOM      4  C6  UNL d   1       1.419  -2.087   1.522  0.00  0.00    -0.004 A 
ATOM      5  C7  UNL d   1       2.349  -1.297   0.850  0.00  0.00     0.002 A 
ATOM      6  C8  UNL d   1       1.919  -0.308  -0.037  0.00  0.00     0.002 A 
ENDROOT
BRANCH   1   7
ATOM      7  C2  UNL d   1       0.089   0.987  -1.201  0.00  0.00     0.056 C 
BRANCH   7   8
ATOM      8  C1  UNL d   1      -1.282   1.574  -0.850  0.00  0.00     0.007 C 
ATOM      9  C   UNL d   1      -2.141   1.866  -2.073  0.00  0.00     0.009 C 
ENDBRANCH   7   8
ENDBRANCH   1   7
TORSDOF 2
ENDMDL
