MODEL 1
REMARK minimizedAffinity -4.96567106
REMARK minimizedRMSD -1
REMARK  2 active torsions:
REMARK  status: ('A' for Active; 'I' for Inactive)
REMARK    1  A    between atoms: C1_2  and  C2_3 
REMARK    2  A    between atoms: C2_3  and  C3_4 
ROOT
ATOM      1  C3  UNL d   1      -0.152   0.187  -0.083  0.00  0.00    -0.075 A 
ATOM      2  C4  UNL d   1       1.053   0.250  -0.797  0.00  0.00     0.002 A 
ATOM      3  C5  UNL d   1       2.004  -0.762  -0.672  0.00  0.00     0.002 A 
ATOM      4  C6  UNL d   1       1.769  -1.843   0.175  0.00  0.00    -0.004 A 
ATOM      5  C7  UNL d   1       0.582  -1.908   0.902  0.00  0.00     0.002 A 
ATOM      6  C8  UNL d   1      -0.374  -0.899   0.775  0.00  0.00     0.002 A 
ENDROOT
BRANCH   1   7
ATOM      7  C2  UNL d   1      -1.199   1.264  -0.236  0.00  0.00     0.056 C 
BRANCH   7   8
ATOM      8  C1  UNL d   1      -1.390   1.747  -1.678  0.00  0.00     0.007 C 
ATOM      9  C   UNL d   1      -2.260   0.817  -2.513  0.00  0.00     0.009 C 
ENDBRANCH   7   8
ENDBRANCH   1   7
TORSDOF 2
ENDMDL
