MODEL 1
REMARK minimizedAffinity -5.95769691
REMARK minimizedRMSD -1
REMARK  3 active torsions:
REMARK  status: ('A' for Active; 'I' for Inactive)
REMARK    1  A    between atoms: C3'_2  and  C2'_3 
REMARK    2  A    between atoms: C2'_3  and  C1'_4 
REMARK    3  A    between atoms: C1'_4  and  C1_5 
ROOT
ATOM      1  C1  N4B d   1      -0.720  -0.666   0.251  0.00  0.00    -0.075 A 
ATOM      2  C2  N4B d   1      -2.007  -0.714  -0.328  0.00  0.00     0.002 A 
ATOM      3  C3  N4B d   1      -2.926  -1.633   0.118  0.00  0.00     0.002 A 
ATOM      4  C4  N4B d   1      -2.575  -2.521   1.123  0.00  0.00    -0.004 A 
ATOM      5  C5  N4B d   1      -1.339  -2.451   1.694  0.00  0.00     0.002 A 
ATOM      6  C6  N4B d   1      -0.406  -1.531   1.259  0.00  0.00     0.002 A 
ENDROOT
BRANCH   1   7
ATOM      7  C1' N4B d   1       0.347   0.263  -0.261  0.00  0.00     0.057 C 
BRANCH   7   8
ATOM      8  C2' N4B d   1       1.531   0.244   0.700  0.00  0.00     0.009 C 
BRANCH   8   9
ATOM      9  C3' N4B d   1       2.454   1.432   0.489  0.00  0.00     0.004 C 
ATOM     10  C4' N4B d   1       2.670   2.230   1.741  0.00  0.00     0.003 C 
ENDBRANCH   8   9
ENDBRANCH   7   8
ENDBRANCH   1   7
TORSDOF 3
ENDMDL
