MODEL 1
REMARK minimizedAffinity -6.28504229
REMARK minimizedRMSD -1
REMARK  3 active torsions:
REMARK  status: ('A' for Active; 'I' for Inactive)
REMARK    1  A    between atoms: C3'_2  and  C2'_3 
REMARK    2  A    between atoms: C2'_3  and  C1'_4 
REMARK    3  A    between atoms: C1'_4  and  C1_5 
ROOT
ATOM      1  C1  N4B d   1      -0.162  -0.291   0.209  0.00  0.00    -0.075 A 
ATOM      2  C2  N4B d   1      -1.049  -0.688   1.234  0.00  0.00     0.002 A 
ATOM      3  C3  N4B d   1      -2.399  -0.741   0.991  0.00  0.00     0.002 A 
ATOM      4  C4  N4B d   1      -2.886  -0.384  -0.257  0.00  0.00    -0.004 A 
ATOM      5  C5  N4B d   1      -2.021  -0.026  -1.249  0.00  0.00     0.002 A 
ATOM      6  C6  N4B d   1      -0.661   0.027  -1.021  0.00  0.00     0.002 A 
ENDROOT
BRANCH   1   7
ATOM      7  C1' N4B d   1       1.314  -0.136   0.452  0.00  0.00     0.057 C 
BRANCH   7   8
ATOM      8  C2' N4B d   1       1.733   1.289   0.100  0.00  0.00     0.009 C 
BRANCH   8   9
ATOM      9  C3' N4B d   1       2.062   2.107   1.337  0.00  0.00     0.004 C 
ATOM     10  C4' N4B d   1       2.115   3.580   1.062  0.00  0.00     0.003 C 
ENDBRANCH   8   9
ENDBRANCH   7   8
ENDBRANCH   1   7
TORSDOF 3
ENDMDL
