MODEL 1
REMARK minimizedAffinity -5.55642223
REMARK minimizedRMSD -1
REMARK  3 active torsions:
REMARK  status: ('A' for Active; 'I' for Inactive)
REMARK    1  A    between atoms: C3'_2  and  C2'_3 
REMARK    2  A    between atoms: C2'_3  and  C1'_4 
REMARK    3  A    between atoms: C1'_4  and  C1_5 
ROOT
ATOM      1  C1  N4B d   1      -0.473  -0.162  -0.105  0.00  0.00    -0.075 A 
ATOM      2  C2  N4B d   1      -1.347  -0.271  -1.209  0.00  0.00     0.002 A 
ATOM      3  C3  N4B d   1      -2.456  -1.078  -1.129  0.00  0.00     0.002 A 
ATOM      4  C4  N4B d   1      -2.699  -1.796   0.032  0.00  0.00    -0.004 A 
ATOM      5  C5  N4B d   1      -1.864  -1.666   1.102  0.00  0.00     0.002 A 
ATOM      6  C6  N4B d   1      -0.748  -0.856   1.038  0.00  0.00     0.002 A 
ENDROOT
BRANCH   1   7
ATOM      7  C1' N4B d   1       0.798   0.640  -0.175  0.00  0.00     0.057 C 
BRANCH   7   8
ATOM      8  C2' N4B d   1       1.802   0.075   0.826  0.00  0.00     0.009 C 
BRANCH   8   9
ATOM      9  C3' N4B d   1       2.597   1.172   1.514  0.00  0.00     0.004 C 
ATOM     10  C4' N4B d   1       2.732   2.406   0.673  0.00  0.00     0.003 C 
ENDBRANCH   8   9
ENDBRANCH   7   8
ENDBRANCH   1   7
TORSDOF 3
ENDMDL
