MODEL 1
REMARK minimizedAffinity -4.55253935
REMARK minimizedRMSD -1
REMARK  3 active torsions:
REMARK  status: ('A' for Active; 'I' for Inactive)
REMARK    1  A    between atoms: C3'_2  and  C2'_3 
REMARK    2  A    between atoms: C2'_3  and  C1'_4 
REMARK    3  A    between atoms: C1'_4  and  C1_5 
ROOT
ATOM      1  C1  N4B d   1      -0.790  -0.844  -0.342  0.00  0.00    -0.075 A 
ATOM      2  C2  N4B d   1      -1.994  -1.137  -1.019  0.00  0.00     0.002 A 
ATOM      3  C3  N4B d   1      -2.753  -2.215  -0.635  0.00  0.00     0.002 A 
ATOM      4  C4  N4B d   1      -2.321  -3.021   0.407  0.00  0.00    -0.004 A 
ATOM      5  C5  N4B d   1      -1.169  -2.717   1.072  0.00  0.00     0.002 A 
ATOM      6  C6  N4B d   1      -0.398  -1.634   0.699  0.00  0.00     0.002 A 
ENDROOT
BRANCH   1   7
ATOM      7  C1' N4B d   1       0.117   0.273  -0.782  0.00  0.00     0.057 C 
BRANCH   7   8
ATOM      8  C2' N4B d   1       1.465   0.129  -0.082  0.00  0.00     0.009 C 
BRANCH   8   9
ATOM      9  C3' N4B d   1       2.297   1.396  -0.186  0.00  0.00     0.004 C 
ATOM     10  C4' N4B d   1       2.634   1.982   1.152  0.00  0.00     0.003 C 
ENDBRANCH   8   9
ENDBRANCH   7   8
ENDBRANCH   1   7
TORSDOF 3
ENDMDL
