MODEL 1
REMARK minimizedAffinity -1.6041615
REMARK minimizedRMSD -1
REMARK  1 active torsions:
REMARK  status: ('A' for Active; 'I' for Inactive)
REMARK    1  A    between atoms: C1_2  and  C2_3 
ROOT
ATOM      1  C2  UNL d   1       0.444   0.820   0.623  0.00  0.00    -0.081 A 
ATOM      2  C3  UNL d   1       0.652   1.492   1.833  0.00  0.00     0.006 A 
ATOM      3  C4  UNL d   1       0.552   2.884   1.896  0.00  0.00     0.002 A 
ATOM      4  C5  UNL d   1       0.236   3.626   0.752  0.00  0.00    -0.080 A 
ATOM      5  C6  UNL d   1       0.096   5.118   0.813  0.00  0.00     0.076 C 
ATOM      6  C7  UNL d   1       0.046   2.955  -0.461  0.00  0.00     0.002 A 
ATOM      7  C8  UNL d   1       0.146   1.564  -0.524  0.00  0.00     0.006 A 
ENDROOT
BRANCH   1   8
ATOM      8  C1  UNL d   1       0.487  -0.686   0.566  0.00  0.00     0.054 C 
ATOM      9  C   UNL d   1       1.751  -1.178  -0.125  0.00  0.00     0.018 C 
ENDBRANCH   1   8
TORSDOF 1
ENDMDL
