MODEL 1
REMARK minimizedAffinity -5.96666813
REMARK minimizedRMSD -1
REMARK  1 active torsions:
REMARK  status: ('A' for Active; 'I' for Inactive)
REMARK    1  A    between atoms: C1_2  and  C2_3 
ROOT
ATOM      1  C2  UNL d   1      -1.915   4.284   1.393  0.00  0.00    -0.081 A 
ATOM      2  C3  UNL d   1      -1.862   3.575   2.599  0.00  0.00     0.006 A 
ATOM      3  C4  UNL d   1      -1.139   2.384   2.689  0.00  0.00     0.002 A 
ATOM      4  C5  UNL d   1      -0.451   1.885   1.578  0.00  0.00    -0.080 A 
ATOM      5  C6  UNL d   1       0.354   0.623   1.669  0.00  0.00     0.076 C 
ATOM      6  C7  UNL d   1      -0.517   2.584   0.368  0.00  0.00     0.002 A 
ATOM      7  C8  UNL d   1      -1.241   3.776   0.277  0.00  0.00     0.006 A 
ENDROOT
BRANCH   1   8
ATOM      8  C1  UNL d   1      -2.640   5.603   1.310  0.00  0.00     0.054 C 
ATOM      9  C   UNL d   1      -3.569   5.800   2.499  0.00  0.00     0.018 C 
ENDBRANCH   1   8
TORSDOF 1
ENDMDL
