MODEL 1
REMARK minimizedAffinity 5.70474625
REMARK minimizedRMSD -1
REMARK  1 active torsions:
REMARK  status: ('A' for Active; 'I' for Inactive)
REMARK    1  A    between atoms: C1_2  and  C2_3 
ROOT
ATOM      1  C2  UNL d   1      -0.341   1.851  -1.035  0.00  0.00    -0.081 A 
ATOM      2  C3  UNL d   1      -0.875   1.907   0.259  0.00  0.00     0.006 A 
ATOM      3  C4  UNL d   1      -1.514   3.063   0.711  0.00  0.00     0.002 A 
ATOM      4  C5  UNL d   1      -1.638   4.179  -0.124  0.00  0.00    -0.080 A 
ATOM      5  C6  UNL d   1      -2.350   5.416   0.339  0.00  0.00     0.076 C 
ATOM      6  C7  UNL d   1      -1.090   4.129  -1.410  0.00  0.00     0.002 A 
ATOM      7  C8  UNL d   1      -0.450   2.974  -1.863  0.00  0.00     0.006 A 
ENDROOT
BRANCH   1   8
ATOM      8  C1  UNL d   1       0.292   0.583  -1.548  0.00  0.00     0.054 C 
ATOM      9  C   UNL d   1      -0.759  -0.402  -2.038  0.00  0.00     0.018 C 
ENDBRANCH   1   8
TORSDOF 1
ENDMDL
