MODEL 1
REMARK minimizedAffinity 5.72912884
REMARK minimizedRMSD -1
REMARK  1 active torsions:
REMARK  status: ('A' for Active; 'I' for Inactive)
REMARK    1  A    between atoms: C1_2  and  C2_3 
ROOT
ATOM      1  C2  UNL d   1      -0.543   2.627   1.634  0.00  0.00    -0.081 A 
ATOM      2  C3  UNL d   1      -1.132   3.770   1.081  0.00  0.00     0.006 A 
ATOM      3  C4  UNL d   1      -1.216   3.924  -0.305  0.00  0.00     0.002 A 
ATOM      4  C5  UNL d   1      -0.720   2.934  -1.161  0.00  0.00    -0.080 A 
ATOM      5  C6  UNL d   1      -0.832   3.073  -2.650  0.00  0.00     0.076 C 
ATOM      6  C7  UNL d   1      -0.116   1.800  -0.608  0.00  0.00     0.002 A 
ATOM      7  C8  UNL d   1      -0.031   1.646   0.777  0.00  0.00     0.006 A 
ENDROOT
BRANCH   1   8
ATOM      8  C1  UNL d   1      -0.509   2.428   3.127  0.00  0.00     0.054 C 
ATOM      9  C   UNL d   1      -0.659   0.959   3.494  0.00  0.00     0.018 C 
ENDBRANCH   1   8
TORSDOF 1
ENDMDL
