MODEL 1
REMARK minimizedAffinity 1.29062033
REMARK minimizedRMSD -1
REMARK  1 active torsions:
REMARK  status: ('A' for Active; 'I' for Inactive)
REMARK    1  A    between atoms: C1_2  and  C2_3 
ROOT
ATOM      1  C2  UNL d   1      -1.420   3.993   1.190  0.00  0.00    -0.081 A 
ATOM      2  C3  UNL d   1      -1.442   3.665   2.551  0.00  0.00     0.006 A 
ATOM      3  C4  UNL d   1      -0.942   2.437   2.991  0.00  0.00     0.002 A 
ATOM      4  C5  UNL d   1      -0.405   1.522   2.079  0.00  0.00    -0.080 A 
ATOM      5  C6  UNL d   1       0.163   0.213   2.542  0.00  0.00     0.076 C 
ATOM      6  C7  UNL d   1      -0.398   1.843   0.718  0.00  0.00     0.002 A 
ATOM      7  C8  UNL d   1      -0.899   3.070   0.277  0.00  0.00     0.006 A 
ENDROOT
BRANCH   1   8
ATOM      8  C1  UNL d   1      -1.900   5.343   0.720  0.00  0.00     0.054 C 
ATOM      9  C   UNL d   1      -3.011   5.877   1.612  0.00  0.00     0.018 C 
ENDBRANCH   1   8
TORSDOF 1
ENDMDL
