MODEL 1
REMARK minimizedAffinity 6.59740067
REMARK minimizedRMSD -1
REMARK  1 active torsions:
REMARK  status: ('A' for Active; 'I' for Inactive)
REMARK    1  A    between atoms: C1_2  and  C2_3 
ROOT
ATOM      1  C2  UNL d   1      -0.812   2.704   1.763  0.00  0.00    -0.081 A 
ATOM      2  C3  UNL d   1       0.493   2.202   1.830  0.00  0.00     0.006 A 
ATOM      3  C4  UNL d   1       0.781   1.078   2.607  0.00  0.00     0.002 A 
ATOM      4  C5  UNL d   1      -0.232   0.433   3.325  0.00  0.00    -0.080 A 
ATOM      5  C6  UNL d   1       0.058  -0.793   4.139  0.00  0.00     0.076 C 
ATOM      6  C7  UNL d   1      -1.533   0.944   3.272  0.00  0.00     0.002 A 
ATOM      7  C8  UNL d   1      -1.821   2.069   2.496  0.00  0.00     0.006 A 
ENDROOT
BRANCH   1   8
ATOM      8  C1  UNL d   1      -1.138   3.877   0.874  0.00  0.00     0.054 C 
ATOM      9  C   UNL d   1      -0.740   3.605  -0.569  0.00  0.00     0.018 C 
ENDBRANCH   1   8
TORSDOF 1
ENDMDL
