MODEL 1
REMARK minimizedAffinity 2.25994778
REMARK minimizedRMSD -1
REMARK  1 active torsions:
REMARK  status: ('A' for Active; 'I' for Inactive)
REMARK    1  A    between atoms: C1_2  and  C2_3 
ROOT
ATOM      1  C2  UNL d   1       3.265  -3.648  -1.718  0.00  0.00    -0.081 A 
ATOM      2  C3  UNL d   1       2.020  -3.584  -1.079  0.00  0.00     0.006 A 
ATOM      3  C4  UNL d   1       1.432  -2.349  -0.796  0.00  0.00     0.002 A 
ATOM      4  C5  UNL d   1       2.074  -1.159  -1.154  0.00  0.00    -0.080 A 
ATOM      5  C6  UNL d   1       1.439   0.173  -0.883  0.00  0.00     0.076 C 
ATOM      6  C7  UNL d   1       3.325  -1.222  -1.777  0.00  0.00     0.002 A 
ATOM      7  C8  UNL d   1       3.914  -2.457  -2.059  0.00  0.00     0.006 A 
ENDROOT
BRANCH   1   8
ATOM      8  C1  UNL d   1       3.872  -4.979  -2.082  0.00  0.00     0.054 C 
ATOM      9  C   UNL d   1       2.847  -5.893  -2.740  0.00  0.00     0.018 C 
ENDBRANCH   1   8
TORSDOF 1
ENDMDL
