MODEL 1
REMARK minimizedAffinity 2.68586016
REMARK minimizedRMSD -1
REMARK  1 active torsions:
REMARK  status: ('A' for Active; 'I' for Inactive)
REMARK    1  A    between atoms: C1_2  and  C2_3 
ROOT
ATOM      1  C2  UNL d   1      -0.531   1.946  -0.591  0.00  0.00    -0.081 A 
ATOM      2  C3  UNL d   1       0.045   2.424   0.592  0.00  0.00     0.006 A 
ATOM      3  C4  UNL d   1      -0.610   3.390   1.359  0.00  0.00     0.002 A 
ATOM      4  C5  UNL d   1      -1.856   3.888   0.960  0.00  0.00    -0.080 A 
ATOM      5  C6  UNL d   1      -2.584   4.903   1.789  0.00  0.00     0.076 C 
ATOM      6  C7  UNL d   1      -2.423   3.423  -0.232  0.00  0.00     0.002 A 
ATOM      7  C8  UNL d   1      -1.767   2.457  -0.999  0.00  0.00     0.006 A 
ENDROOT
BRANCH   1   8
ATOM      8  C1  UNL d   1       0.144   0.857  -1.386  0.00  0.00     0.054 C 
ATOM      9  C   UNL d   1      -0.829  -0.263  -1.728  0.00  0.00     0.018 C 
ENDBRANCH   1   8
TORSDOF 1
ENDMDL
