MODEL 1
REMARK minimizedAffinity 4.43974209
REMARK minimizedRMSD -1
REMARK  1 active torsions:
REMARK  status: ('A' for Active; 'I' for Inactive)
REMARK    1  A    between atoms: C1_2  and  C2_3 
ROOT
ATOM      1  C2  UNL d   1       1.557  -0.926  -0.298  0.00  0.00    -0.081 A 
ATOM      2  C3  UNL d   1       0.547  -0.088  -0.786  0.00  0.00     0.006 A 
ATOM      3  C4  UNL d   1      -0.201   0.703   0.090  0.00  0.00     0.002 A 
ATOM      4  C5  UNL d   1       0.054   0.675   1.465  0.00  0.00    -0.080 A 
ATOM      5  C6  UNL d   1      -0.722   1.542   2.412  0.00  0.00     0.076 C 
ATOM      6  C7  UNL d   1       1.051  -0.175   1.954  0.00  0.00     0.002 A 
ATOM      7  C8  UNL d   1       1.798  -0.967   1.079  0.00  0.00     0.006 A 
ENDROOT
BRANCH   1   8
ATOM      8  C1  UNL d   1       2.408  -1.732  -1.246  0.00  0.00     0.054 C 
ATOM      9  C   UNL d   1       2.315  -3.221  -0.945  0.00  0.00     0.018 C 
ENDBRANCH   1   8
TORSDOF 1
ENDMDL
