MODEL 1
REMARK minimizedAffinity -5.21824741
REMARK minimizedRMSD -1
REMARK  1 active torsions:
REMARK  status: ('A' for Active; 'I' for Inactive)
REMARK    1  A    between atoms: C3_4  and  O_7 
ROOT
ATOM      1  C   UNL d   1      -0.089   1.715   0.253  0.00  0.00    -0.033 A 
ATOM      2  C1  UNL d   1      -0.111   0.319   0.294  0.00  0.00     0.039 A 
ATOM      3  C2  UNL d   1      -1.320  -0.357   0.469  0.00  0.00    -0.080 A 
ATOM      4  C3  UNL d   1      -2.498   0.372   0.600  0.00  0.00     0.150 A 
ATOM      5  C4  UNL d   1      -2.484   1.763   0.556  0.00  0.00    -0.007 A 
ATOM      6  C5  UNL d   1      -1.276   2.436   0.382  0.00  0.00     0.039 A 
ENDROOT
BRANCH   4   7
ATOM      7  O   UNL d   1      -3.701  -0.243   0.777  0.00  0.00    -0.526 OA
ATOM      8  H5  UNL d   1      -3.553  -1.203   0.817  0.00  0.00     0.418 HD
ENDBRANCH   4   7
TORSDOF 1
ENDMDL
