MODEL 1
REMARK minimizedAffinity 1.38151729
REMARK minimizedRMSD -1
REMARK  1 active torsions:
REMARK  status: ('A' for Active; 'I' for Inactive)
REMARK    1  A    between atoms: C3_4  and  O_7 
ROOT
ATOM      1  C   UNL d   1      -3.605  -2.995  -0.971  0.00  0.00    -0.033 A 
ATOM      2  C1  UNL d   1      -3.196  -2.293  -2.107  0.00  0.00     0.039 A 
ATOM      3  C2  UNL d   1      -2.426  -2.929  -3.083  0.00  0.00    -0.080 A 
ATOM      4  C3  UNL d   1      -2.072  -4.264  -2.911  0.00  0.00     0.150 A 
ATOM      5  C4  UNL d   1      -2.478  -4.970  -1.784  0.00  0.00    -0.007 A 
ATOM      6  C5  UNL d   1      -3.247  -4.334  -0.810  0.00  0.00     0.039 A 
ENDROOT
BRANCH   4   7
ATOM      7  O   UNL d   1      -1.317  -4.925  -3.834  0.00  0.00    -0.526 OA
ATOM      8  H5  UNL d   1      -1.085  -4.304  -4.544  0.00  0.00     0.418 HD
ENDBRANCH   4   7
TORSDOF 1
ENDMDL
