MODEL 1
REMARK minimizedAffinity -1.15938795
REMARK minimizedRMSD -1
REMARK  1 active torsions:
REMARK  status: ('A' for Active; 'I' for Inactive)
REMARK    1  A    between atoms: C3_4  and  O_7 
ROOT
ATOM      1  C   UNL d   1      -1.209   0.987   0.162  0.00  0.00    -0.033 A 
ATOM      2  C1  UNL d   1      -2.219   0.166   0.667  0.00  0.00     0.039 A 
ATOM      3  C2  UNL d   1      -3.506   0.675   0.855  0.00  0.00    -0.080 A 
ATOM      4  C3  UNL d   1      -3.769   2.004   0.535  0.00  0.00     0.150 A 
ATOM      5  C4  UNL d   1      -2.769   2.826   0.028  0.00  0.00    -0.007 A 
ATOM      6  C5  UNL d   1      -1.484   2.317  -0.159  0.00  0.00     0.039 A 
ENDROOT
BRANCH   4   7
ATOM      7  O   UNL d   1      -5.008   2.546   0.706  0.00  0.00    -0.526 OA
ATOM      8  H5  UNL d   1      -5.590   1.869   1.090  0.00  0.00     0.418 HD
ENDBRANCH   4   7
TORSDOF 1
ENDMDL
