MODEL 1
REMARK minimizedAffinity -2.48197627
REMARK minimizedRMSD -1
REMARK  1 active torsions:
REMARK  status: ('A' for Active; 'I' for Inactive)
REMARK    1  A    between atoms: C3_4  and  O_7 
ROOT
ATOM      1  C   UNL d   1      -1.298   1.118   0.368  0.00  0.00    -0.033 A 
ATOM      2  C1  UNL d   1      -0.417   1.852  -0.429  0.00  0.00     0.039 A 
ATOM      3  C2  UNL d   1       0.943   1.890  -0.116  0.00  0.00    -0.080 A 
ATOM      4  C3  UNL d   1       1.409   1.190   0.994  0.00  0.00     0.150 A 
ATOM      5  C4  UNL d   1       0.537   0.453   1.789  0.00  0.00    -0.007 A 
ATOM      6  C5  UNL d   1      -0.821   0.417   1.476  0.00  0.00     0.039 A 
ENDROOT
BRANCH   4   7
ATOM      7  O   UNL d   1       2.727   1.201   1.341  0.00  0.00    -0.526 OA
ATOM      8  H5  UNL d   1       3.205   1.774   0.718  0.00  0.00     0.418 HD
ENDBRANCH   4   7
TORSDOF 1
ENDMDL
