MODEL 1
REMARK minimizedAffinity -0.109944947
REMARK minimizedRMSD -1
REMARK  1 active torsions:
REMARK  status: ('A' for Active; 'I' for Inactive)
REMARK    1  A    between atoms: C3_4  and  O_7 
ROOT
ATOM      1  C   UNL d   1      -1.704   1.398   1.067  0.00  0.00    -0.033 A 
ATOM      2  C1  UNL d   1      -2.587   0.442   1.573  0.00  0.00     0.039 A 
ATOM      3  C2  UNL d   1      -3.957   0.557   1.333  0.00  0.00    -0.080 A 
ATOM      4  C3  UNL d   1      -4.432   1.632   0.585  0.00  0.00     0.150 A 
ATOM      5  C4  UNL d   1      -3.558   2.586   0.075  0.00  0.00    -0.007 A 
ATOM      6  C5  UNL d   1      -2.190   2.470   0.316  0.00  0.00     0.039 A 
ENDROOT
BRANCH   4   7
ATOM      7  O   UNL d   1      -5.761   1.789   0.329  0.00  0.00    -0.526 OA
ATOM      8  H5  UNL d   1      -6.247   1.071   0.768  0.00  0.00     0.418 HD
ENDBRANCH   4   7
TORSDOF 1
ENDMDL
