MODEL 1
REMARK minimizedAffinity -4.57243395
REMARK minimizedRMSD -1
REMARK  1 active torsions:
REMARK  status: ('A' for Active; 'I' for Inactive)
REMARK    1  A    between atoms: C3_4  and  O_7 
ROOT
ATOM      1  C   UNL d   1      -0.523   0.396   0.564  0.00  0.00    -0.033 A 
ATOM      2  C1  UNL d   1      -0.830   1.728   0.280  0.00  0.00     0.039 A 
ATOM      3  C2  UNL d   1      -2.160   2.154   0.275  0.00  0.00    -0.080 A 
ATOM      4  C3  UNL d   1      -3.171   1.240   0.555  0.00  0.00     0.150 A 
ATOM      5  C4  UNL d   1      -2.873  -0.088   0.842  0.00  0.00    -0.007 A 
ATOM      6  C5  UNL d   1      -1.544  -0.512   0.847  0.00  0.00     0.039 A 
ENDROOT
BRANCH   4   7
ATOM      7  O   UNL d   1      -4.484   1.608   0.556  0.00  0.00    -0.526 OA
ATOM      8  H5  UNL d   1      -4.541   2.547   0.313  0.00  0.00     0.418 HD
ENDBRANCH   4   7
TORSDOF 1
ENDMDL
