MODEL 1
REMARK minimizedAffinity -3.31494832
REMARK minimizedRMSD -1
REMARK  1 active torsions:
REMARK  status: ('A' for Active; 'I' for Inactive)
REMARK    1  A    between atoms: C3_4  and  O_7 
ROOT
ATOM      1  C   UNL d   1       0.443   1.922   0.538  0.00  0.00    -0.033 A 
ATOM      2  C1  UNL d   1      -0.412   2.182  -0.535  0.00  0.00     0.039 A 
ATOM      3  C2  UNL d   1      -1.753   1.798  -0.470  0.00  0.00    -0.080 A 
ATOM      4  C3  UNL d   1      -2.226   1.158   0.672  0.00  0.00     0.150 A 
ATOM      5  C4  UNL d   1      -1.380   0.900   1.746  0.00  0.00    -0.007 A 
ATOM      6  C5  UNL d   1      -0.041   1.282   1.679  0.00  0.00     0.039 A 
ENDROOT
BRANCH   4   7
ATOM      7  O   UNL d   1      -3.525   0.761   0.780  0.00  0.00    -0.526 OA
ATOM      8  H5  UNL d   1      -3.984   0.979  -0.048  0.00  0.00     0.418 HD
ENDBRANCH   4   7
TORSDOF 1
ENDMDL
