MODEL 1
REMARK minimizedAffinity -2.55394864
REMARK minimizedRMSD -1
REMARK  1 active torsions:
REMARK  status: ('A' for Active; 'I' for Inactive)
REMARK    1  A    between atoms: C3_4  and  O_7 
ROOT
ATOM      1  C   UNL d   1      -0.358   1.531   0.978  0.00  0.00    -0.033 A 
ATOM      2  C1  UNL d   1      -0.836   0.232   0.799  0.00  0.00     0.039 A 
ATOM      3  C2  UNL d   1      -2.208  -0.000   0.687  0.00  0.00    -0.080 A 
ATOM      4  C3  UNL d   1      -3.091   1.075   0.755  0.00  0.00     0.150 A 
ATOM      5  C4  UNL d   1      -2.621   2.372   0.930  0.00  0.00    -0.007 A 
ATOM      6  C5  UNL d   1      -1.250   2.602   1.042  0.00  0.00     0.039 A 
ENDROOT
BRANCH   4   7
ATOM      7  O   UNL d   1      -4.439   0.897   0.657  0.00  0.00    -0.526 OA
ATOM      8  H5  UNL d   1      -4.618  -0.053   0.568  0.00  0.00     0.418 HD
ENDBRANCH   4   7
TORSDOF 1
ENDMDL
