MODEL 1
REMARK minimizedAffinity 2.68952751
REMARK minimizedRMSD -1
REMARK  1 active torsions:
REMARK  status: ('A' for Active; 'I' for Inactive)
REMARK    1  A    between atoms: C3_4  and  O_7 
ROOT
ATOM      1  C   UNL d   1       2.690  -4.997  -0.310  0.00  0.00    -0.033 A 
ATOM      2  C1  UNL d   1       3.776  -4.223  -0.725  0.00  0.00     0.039 A 
ATOM      3  C2  UNL d   1       3.937  -2.924  -0.237  0.00  0.00    -0.080 A 
ATOM      4  C3  UNL d   1       3.007  -2.413   0.663  0.00  0.00     0.150 A 
ATOM      5  C4  UNL d   1       1.925  -3.179   1.083  0.00  0.00    -0.007 A 
ATOM      6  C5  UNL d   1       1.765  -4.475   0.595  0.00  0.00     0.039 A 
ENDROOT
BRANCH   4   7
ATOM      7  O   UNL d   1       3.119  -1.149   1.163  0.00  0.00    -0.526 OA
ATOM      8  H5  UNL d   1       3.898  -0.728   0.762  0.00  0.00     0.418 HD
ENDBRANCH   4   7
TORSDOF 1
ENDMDL
