MODEL 1
REMARK minimizedAffinity -3.97965384
REMARK minimizedRMSD -1
REMARK  1 active torsions:
REMARK  status: ('A' for Active; 'I' for Inactive)
REMARK    1  A    between atoms: C3_4  and  O_7 
ROOT
ATOM      1  C   UNL d   1      -0.571   0.923   0.416  0.00  0.00    -0.033 A 
ATOM      2  C1  UNL d   1      -0.604   2.189  -0.172  0.00  0.00     0.039 A 
ATOM      3  C2  UNL d   1      -1.778   2.944  -0.141  0.00  0.00    -0.080 A 
ATOM      4  C3  UNL d   1      -2.909   2.423   0.481  0.00  0.00     0.150 A 
ATOM      5  C4  UNL d   1      -2.882   1.165   1.072  0.00  0.00    -0.007 A 
ATOM      6  C5  UNL d   1      -1.709   0.411   1.039  0.00  0.00     0.039 A 
ENDROOT
BRANCH   4   7
ATOM      7  O   UNL d   1      -4.079   3.122   0.533  0.00  0.00    -0.526 OA
ATOM      8  H5  UNL d   1      -3.958   3.961   0.059  0.00  0.00     0.418 HD
ENDBRANCH   4   7
TORSDOF 1
ENDMDL
