MODEL 1
REMARK minimizedAffinity -0.0219831299
REMARK minimizedRMSD -1
REMARK  1 active torsions:
REMARK  status: ('A' for Active; 'I' for Inactive)
REMARK    1  A    between atoms: C3_4  and  O_7 
ROOT
ATOM      1  C   UNL d   1       0.099   0.792   0.701  0.00  0.00    -0.033 A 
ATOM      2  C1  UNL d   1      -0.044   1.925  -0.102  0.00  0.00     0.039 A 
ATOM      3  C2  UNL d   1      -1.196   2.708  -0.007  0.00  0.00    -0.080 A 
ATOM      4  C3  UNL d   1      -2.195   2.349   0.894  0.00  0.00     0.150 A 
ATOM      5  C4  UNL d   1      -2.057   1.223   1.699  0.00  0.00    -0.007 A 
ATOM      6  C5  UNL d   1      -0.906   0.442   1.602  0.00  0.00     0.039 A 
ENDROOT
BRANCH   4   7
ATOM      7  O   UNL d   1      -3.339   3.079   1.018  0.00  0.00    -0.526 OA
ATOM      8  H5  UNL d   1      -3.308   3.811   0.379  0.00  0.00     0.418 HD
ENDBRANCH   4   7
TORSDOF 1
ENDMDL
