MODEL 1
REMARK minimizedAffinity -1.61785245
REMARK minimizedRMSD -1
REMARK  1 active torsions:
REMARK  status: ('A' for Active; 'I' for Inactive)
REMARK    1  A    between atoms: C3_4  and  O_7 
ROOT
ATOM      1  C   UNL d   1      -0.355   1.656   0.389  0.00  0.00    -0.033 A 
ATOM      2  C1  UNL d   1      -1.304   0.681   0.703  0.00  0.00     0.039 A 
ATOM      3  C2  UNL d   1      -2.661   1.008   0.728  0.00  0.00    -0.080 A 
ATOM      4  C3  UNL d   1      -3.056   2.311   0.436  0.00  0.00     0.150 A 
ATOM      5  C4  UNL d   1      -2.116   3.286   0.119  0.00  0.00    -0.007 A 
ATOM      6  C5  UNL d   1      -0.761   2.958   0.096  0.00  0.00     0.039 A 
ENDROOT
BRANCH   4   7
ATOM      7  O   UNL d   1      -4.368   2.678   0.452  0.00  0.00    -0.526 OA
ATOM      8  H5  UNL d   1      -4.900   1.908   0.715  0.00  0.00     0.418 HD
ENDBRANCH   4   7
TORSDOF 1
ENDMDL
