MODEL 1
REMARK minimizedAffinity -5.01415539
REMARK minimizedRMSD -1
REMARK  1 active torsions:
REMARK  status: ('A' for Active; 'I' for Inactive)
REMARK    1  A    between atoms: C3_4  and  O_7 
ROOT
ATOM      1  C   UNL d   1      -0.916   0.720   0.462  0.00  0.00    -0.033 A 
ATOM      2  C1  UNL d   1      -1.923  -0.077   1.010  0.00  0.00     0.039 A 
ATOM      3  C2  UNL d   1      -3.243   0.377   1.026  0.00  0.00    -0.080 A 
ATOM      4  C3  UNL d   1      -3.544   1.626   0.491  0.00  0.00     0.150 A 
ATOM      5  C4  UNL d   1      -2.546   2.423  -0.061  0.00  0.00    -0.007 A 
ATOM      6  C5  UNL d   1      -1.228   1.969  -0.075  0.00  0.00     0.039 A 
ENDROOT
BRANCH   4   7
ATOM      7  O   UNL d   1      -4.817   2.113   0.488  0.00  0.00    -0.526 OA
ATOM      8  H5  UNL d   1      -5.394   1.467   0.927  0.00  0.00     0.418 HD
ENDBRANCH   4   7
TORSDOF 1
ENDMDL
