MODEL 1
REMARK minimizedAffinity -3.57968688
REMARK minimizedRMSD -1
REMARK  1 active torsions:
REMARK  status: ('A' for Active; 'I' for Inactive)
REMARK    1  A    between atoms: C3_4  and  O_7 
ROOT
ATOM      1  C   UNL d   1      -1.013   1.005   0.216  0.00  0.00    -0.033 A 
ATOM      2  C1  UNL d   1      -1.493   2.103  -0.501  0.00  0.00     0.039 A 
ATOM      3  C2  UNL d   1      -2.851   2.426  -0.463  0.00  0.00    -0.080 A 
ATOM      4  C3  UNL d   1      -3.717   1.644   0.297  0.00  0.00     0.150 A 
ATOM      5  C4  UNL d   1      -3.246   0.551   1.017  0.00  0.00    -0.007 A 
ATOM      6  C5  UNL d   1      -1.889   0.230   0.976  0.00  0.00     0.039 A 
ENDROOT
BRANCH   4   7
ATOM      7  O   UNL d   1      -5.051   1.917   0.362  0.00  0.00    -0.526 OA
ATOM      8  H5  UNL d   1      -5.237   2.682  -0.208  0.00  0.00     0.418 HD
ENDBRANCH   4   7
TORSDOF 1
ENDMDL
