MODEL 1
REMARK minimizedAffinity 0.225716054
REMARK minimizedRMSD -1
REMARK  1 active torsions:
REMARK  status: ('A' for Active; 'I' for Inactive)
REMARK    1  A    between atoms: C3_4  and  O_7 
ROOT
ATOM      1  C   UNL d   1       0.436   0.643   1.091  0.00  0.00    -0.033 A 
ATOM      2  C1  UNL d   1      -0.772   0.336   1.721  0.00  0.00     0.039 A 
ATOM      3  C2  UNL d   1      -1.889   1.150   1.529  0.00  0.00    -0.080 A 
ATOM      4  C3  UNL d   1      -1.787   2.268   0.705  0.00  0.00     0.150 A 
ATOM      5  C4  UNL d   1      -0.588   2.578   0.070  0.00  0.00    -0.007 A 
ATOM      6  C5  UNL d   1       0.527   1.764   0.264  0.00  0.00     0.039 A 
ENDROOT
BRANCH   4   7
ATOM      7  O   UNL d   1      -2.849   3.095   0.491  0.00  0.00    -0.526 OA
ATOM      8  H5  UNL d   1      -3.600   2.773   1.015  0.00  0.00     0.418 HD
ENDBRANCH   4   7
TORSDOF 1
ENDMDL
