MODEL 1
REMARK minimizedAffinity -3.37837911
REMARK minimizedRMSD -1
REMARK  1 active torsions:
REMARK  status: ('A' for Active; 'I' for Inactive)
REMARK    1  A    between atoms: C3_4  and  O_7 
ROOT
ATOM      1  C   UNL d   1      -0.733   0.821   0.513  0.00  0.00    -0.033 A 
ATOM      2  C1  UNL d   1      -1.344   2.013   0.121  0.00  0.00     0.039 A 
ATOM      3  C2  UNL d   1      -2.730   2.156   0.221  0.00  0.00    -0.080 A 
ATOM      4  C3  UNL d   1      -3.491   1.101   0.716  0.00  0.00     0.150 A 
ATOM      5  C4  UNL d   1      -2.889  -0.089   1.112  0.00  0.00    -0.007 A 
ATOM      6  C5  UNL d   1      -1.505  -0.230   1.010  0.00  0.00     0.039 A 
ENDROOT
BRANCH   4   7
ATOM      7  O   UNL d   1      -4.847   1.192   0.829  0.00  0.00    -0.526 OA
ATOM      8  H5  UNL d   1      -5.126   2.059   0.491  0.00  0.00     0.418 HD
ENDBRANCH   4   7
TORSDOF 1
ENDMDL
