MODEL 1
REMARK minimizedAffinity -2.58673954
REMARK minimizedRMSD -1
REMARK  1 active torsions:
REMARK  status: ('A' for Active; 'I' for Inactive)
REMARK    1  A    between atoms: C3_4  and  O_7 
ROOT
ATOM      1  C   UNL d   1       1.135   0.471   0.468  0.00  0.00    -0.033 A 
ATOM      2  C1  UNL d   1      -0.015   0.023   1.121  0.00  0.00     0.039 A 
ATOM      3  C2  UNL d   1      -1.092   0.889   1.315  0.00  0.00    -0.080 A 
ATOM      4  C3  UNL d   1      -1.007   2.199   0.852  0.00  0.00     0.150 A 
ATOM      5  C4  UNL d   1       0.134   2.652   0.197  0.00  0.00    -0.007 A 
ATOM      6  C5  UNL d   1       1.209   1.785   0.005  0.00  0.00     0.039 A 
ENDROOT
BRANCH   4   7
ATOM      7  O   UNL d   1      -2.031   3.083   1.023  0.00  0.00    -0.526 OA
ATOM      8  H5  UNL d   1      -2.741   2.640   1.516  0.00  0.00     0.418 HD
ENDBRANCH   4   7
TORSDOF 1
ENDMDL
