MODEL 1
REMARK minimizedAffinity -1.93410969
REMARK minimizedRMSD -1
REMARK  1 active torsions:
REMARK  status: ('A' for Active; 'I' for Inactive)
REMARK    1  A    between atoms: C3_4  and  O_7 
ROOT
ATOM      1  C   UNL d   1      -0.671   0.545   1.235  0.00  0.00    -0.033 A 
ATOM      2  C1  UNL d   1      -1.896  -0.032   1.574  0.00  0.00     0.039 A 
ATOM      3  C2  UNL d   1      -3.072   0.713   1.474  0.00  0.00    -0.080 A 
ATOM      4  C3  UNL d   1      -3.010   2.032   1.034  0.00  0.00     0.150 A 
ATOM      5  C4  UNL d   1      -1.794   2.613   0.692  0.00  0.00    -0.007 A 
ATOM      6  C5  UNL d   1      -0.620   1.867   0.793  0.00  0.00     0.039 A 
ENDROOT
BRANCH   4   7
ATOM      7  O   UNL d   1      -4.131   2.800   0.925  0.00  0.00    -0.526 OA
ATOM      8  H5  UNL d   1      -4.893   2.276   1.223  0.00  0.00     0.418 HD
ENDBRANCH   4   7
TORSDOF 1
ENDMDL
