MODEL 1
REMARK minimizedAffinity -2.91152382
REMARK minimizedRMSD -1
REMARK  1 active torsions:
REMARK  status: ('A' for Active; 'I' for Inactive)
REMARK    1  A    between atoms: C3_4  and  O_7 
ROOT
ATOM      1  C   UNL d   1      -4.112   0.871   0.350  0.00  0.00    -0.033 A 
ATOM      2  C1  UNL d   1      -3.582   2.122   0.030  0.00  0.00     0.039 A 
ATOM      3  C2  UNL d   1      -2.199   2.318   0.032  0.00  0.00    -0.080 A 
ATOM      4  C3  UNL d   1      -1.359   1.256   0.354  0.00  0.00     0.150 A 
ATOM      5  C4  UNL d   1      -1.880   0.005   0.670  0.00  0.00    -0.007 A 
ATOM      6  C5  UNL d   1      -3.261  -0.188   0.668  0.00  0.00     0.039 A 
ENDROOT
BRANCH   4   7
ATOM      7  O   UNL d   1      -0.004   1.400   0.374  0.00  0.00    -0.526 OA
ATOM      8  H5  UNL d   1       0.211   2.324   0.164  0.00  0.00     0.418 HD
ENDBRANCH   4   7
TORSDOF 1
ENDMDL
