MODEL 1
REMARK minimizedAffinity 1.42409074
REMARK minimizedRMSD -1
REMARK  0 active torsions:
REMARK  status: ('A' for Active; 'I' for Inactive)
ROOT
ATOM      1  C   UNL d   1      -3.768  -0.193   0.802  0.00  0.00     0.077 C 
ATOM      2  C1  UNL d   1      -2.706  -0.364  -0.243  0.00  0.00    -0.074 A 
ATOM      3  C2  UNL d   1      -1.437   0.201  -0.078  0.00  0.00    -0.005 A 
ATOM      4  C3  UNL d   1      -0.457   0.026  -1.054  0.00  0.00     0.006 A 
ATOM      5  C4  UNL d   1      -0.734  -0.715  -2.204  0.00  0.00    -0.005 A 
ATOM      6  C5  UNL d   1      -1.997  -1.288  -2.386  0.00  0.00    -0.074 A 
ATOM      7  C6  UNL d   1      -2.309  -2.095  -3.611  0.00  0.00     0.077 C 
ATOM      8  C7  UNL d   1      -2.975  -1.113  -1.397  0.00  0.00    -0.001 A 
ENDROOT
TORSDOF 0
ENDMDL
