MODEL 1
REMARK minimizedAffinity -1.46080232
REMARK minimizedRMSD -1
REMARK  0 active torsions:
REMARK  status: ('A' for Active; 'I' for Inactive)
ROOT
ATOM      1  C   UNL d   1      -5.997   2.330   5.929  0.00  0.00     0.077 C 
ATOM      2  C1  UNL d   1      -5.868   3.583   5.115  0.00  0.00    -0.074 A 
ATOM      3  C2  UNL d   1      -6.000   4.842   5.708  0.00  0.00    -0.005 A 
ATOM      4  C3  UNL d   1      -5.867   5.999   4.939  0.00  0.00     0.006 A 
ATOM      5  C4  UNL d   1      -5.602   5.907   3.572  0.00  0.00    -0.005 A 
ATOM      6  C5  UNL d   1      -5.466   4.656   2.962  0.00  0.00    -0.074 A 
ATOM      7  C6  UNL d   1      -5.172   4.540   1.496  0.00  0.00     0.077 C 
ATOM      8  C7  UNL d   1      -5.594   3.499   3.743  0.00  0.00    -0.001 A 
ENDROOT
TORSDOF 0
ENDMDL
