MODEL 1
REMARK minimizedAffinity 11.42453
REMARK minimizedRMSD -1
REMARK  0 active torsions:
REMARK  status: ('A' for Active; 'I' for Inactive)
ROOT
ATOM      1  C   UNL d   1      -0.717   2.420   4.905  0.00  0.00     0.077 C 
ATOM      2  C1  UNL d   1       0.604   1.860   4.469  0.00  0.00    -0.074 A 
ATOM      3  C2  UNL d   1       0.696   0.572   3.930  0.00  0.00    -0.005 A 
ATOM      4  C3  UNL d   1       1.931   0.068   3.521  0.00  0.00     0.006 A 
ATOM      5  C4  UNL d   1       3.083   0.845   3.646  0.00  0.00    -0.005 A 
ATOM      6  C5  UNL d   1       3.010   2.134   4.182  0.00  0.00    -0.074 A 
ATOM      7  C6  UNL d   1       4.238   2.986   4.315  0.00  0.00     0.077 C 
ATOM      8  C7  UNL d   1       1.765   2.637   4.585  0.00  0.00    -0.001 A 
ENDROOT
TORSDOF 0
ENDMDL
