MODEL 1
REMARK minimizedAffinity 0.180155948
REMARK minimizedRMSD -1
REMARK  0 active torsions:
REMARK  status: ('A' for Active; 'I' for Inactive)
ROOT
ATOM      1  C   UNL d   1      -3.163  -1.947   3.786  0.00  0.00     0.077 C 
ATOM      2  C1  UNL d   1      -3.194  -0.740   2.896  0.00  0.00    -0.074 A 
ATOM      3  C2  UNL d   1      -2.821  -0.829   1.551  0.00  0.00    -0.005 A 
ATOM      4  C3  UNL d   1      -2.863   0.300   0.733  0.00  0.00     0.006 A 
ATOM      5  C4  UNL d   1      -3.278   1.527   1.251  0.00  0.00    -0.005 A 
ATOM      6  C5  UNL d   1      -3.655   1.636   2.593  0.00  0.00    -0.074 A 
ATOM      7  C6  UNL d   1      -4.113   2.945   3.163  0.00  0.00     0.077 C 
ATOM      8  C7  UNL d   1      -3.617   0.495   3.407  0.00  0.00    -0.001 A 
ENDROOT
TORSDOF 0
ENDMDL
