MODEL 1
REMARK minimizedAffinity -2.9759388
REMARK minimizedRMSD -1
REMARK  0 active torsions:
REMARK  status: ('A' for Active; 'I' for Inactive)
ROOT
ATOM      1  C   UNL d   1      -5.551   4.754   1.646  0.00  0.00     0.077 C 
ATOM      2  C1  UNL d   1      -5.701   4.778   3.138  0.00  0.00    -0.074 A 
ATOM      3  C2  UNL d   1      -5.827   5.988   3.828  0.00  0.00    -0.005 A 
ATOM      4  C3  UNL d   1      -5.976   5.995   5.215  0.00  0.00     0.006 A 
ATOM      5  C4  UNL d   1      -6.000   4.794   5.925  0.00  0.00    -0.005 A 
ATOM      6  C5  UNL d   1      -5.876   3.574   5.252  0.00  0.00    -0.074 A 
ATOM      7  C6  UNL d   1      -5.910   2.274   5.999  0.00  0.00     0.077 C 
ATOM      8  C7  UNL d   1      -5.734   3.576   3.858  0.00  0.00    -0.001 A 
ENDROOT
TORSDOF 0
ENDMDL
