MODEL 1
REMARK minimizedAffinity 9.53257084
REMARK minimizedRMSD -1
REMARK  0 active torsions:
REMARK  status: ('A' for Active; 'I' for Inactive)
ROOT
ATOM      1  C   UNL d   1       2.347  -1.460   2.210  0.00  0.00     0.077 C 
ATOM      2  C1  UNL d   1       2.295  -0.275   3.128  0.00  0.00    -0.074 A 
ATOM      3  C2  UNL d   1       1.890  -0.414   4.460  0.00  0.00    -0.005 A 
ATOM      4  C3  UNL d   1       1.857   0.696   5.304  0.00  0.00     0.006 A 
ATOM      5  C4  UNL d   1       2.226   1.954   4.826  0.00  0.00    -0.005 A 
ATOM      6  C5  UNL d   1       2.634   2.112   3.498  0.00  0.00    -0.074 A 
ATOM      7  C6  UNL d   1       3.044   3.455   2.971  0.00  0.00     0.077 C 
ATOM      8  C7  UNL d   1       2.672   0.991   2.658  0.00  0.00    -0.001 A 
ENDROOT
TORSDOF 0
ENDMDL
