MODEL 1
REMARK minimizedAffinity -2.91694117
REMARK minimizedRMSD -1
REMARK  0 active torsions:
REMARK  status: ('A' for Active; 'I' for Inactive)
ROOT
ATOM      1  C   UNL d   1      -5.326   5.998   1.025  0.00  0.00     0.077 C 
ATOM      2  C1  UNL d   1      -5.406   5.166   2.270  0.00  0.00    -0.074 A 
ATOM      3  C2  UNL d   1      -5.218   3.781   2.222  0.00  0.00    -0.005 A 
ATOM      4  C3  UNL d   1      -5.286   3.021   3.390  0.00  0.00     0.006 A 
ATOM      5  C4  UNL d   1      -5.543   3.638   4.616  0.00  0.00    -0.005 A 
ATOM      6  C5  UNL d   1      -5.733   5.021   4.683  0.00  0.00    -0.074 A 
ATOM      7  C6  UNL d   1      -6.000   5.701   5.993  0.00  0.00     0.077 C 
ATOM      8  C7  UNL d   1      -5.656   5.779   3.506  0.00  0.00    -0.001 A 
ENDROOT
TORSDOF 0
ENDMDL
