MODEL 1
REMARK minimizedAffinity 1.55281329
REMARK minimizedRMSD -1
REMARK  0 active torsions:
REMARK  status: ('A' for Active; 'I' for Inactive)
ROOT
ATOM      1  C   UNL d   1      -5.922   2.317   5.978  0.00  0.00     0.077 C 
ATOM      2  C1  UNL d   1      -5.952   3.581   5.171  0.00  0.00    -0.074 A 
ATOM      3  C2  UNL d   1      -5.980   4.832   5.796  0.00  0.00    -0.005 A 
ATOM      4  C3  UNL d   1      -5.998   5.999   5.033  0.00  0.00     0.006 A 
ATOM      5  C4  UNL d   1      -5.988   5.927   3.639  0.00  0.00    -0.005 A 
ATOM      6  C5  UNL d   1      -5.960   4.685   2.997  0.00  0.00    -0.074 A 
ATOM      7  C6  UNL d   1      -5.940   4.591   1.500  0.00  0.00     0.077 C 
ATOM      8  C7  UNL d   1      -5.935   3.517   3.771  0.00  0.00    -0.001 A 
ENDROOT
TORSDOF 0
ENDMDL
