MODEL 1
REMARK minimizedAffinity -3.48745751
REMARK minimizedRMSD -1
REMARK  0 active torsions:
REMARK  status: ('A' for Active; 'I' for Inactive)
ROOT
ATOM      1  C   UNL d   1      -4.733   5.975   1.146  0.00  0.00     0.077 C 
ATOM      2  C1  UNL d   1      -5.181   5.164   2.325  0.00  0.00    -0.074 A 
ATOM      3  C2  UNL d   1      -5.390   3.786   2.212  0.00  0.00    -0.005 A 
ATOM      4  C3  UNL d   1      -5.798   3.043   3.320  0.00  0.00     0.006 A 
ATOM      5  C4  UNL d   1      -6.000   3.670   4.550  0.00  0.00    -0.005 A 
ATOM      6  C5  UNL d   1      -5.795   5.047   4.682  0.00  0.00    -0.074 A 
ATOM      7  C6  UNL d   1      -5.998   5.734   6.000  0.00  0.00     0.077 C 
ATOM      8  C7  UNL d   1      -5.379   5.785   3.566  0.00  0.00    -0.001 A 
ENDROOT
TORSDOF 0
ENDMDL
