MODEL 1
REMARK minimizedAffinity -3.04300976
REMARK minimizedRMSD -1
REMARK  0 active torsions:
REMARK  status: ('A' for Active; 'I' for Inactive)
ROOT
ATOM      1  C   UNL d   1      -4.898   2.265   6.000  0.00  0.00     0.077 C 
ATOM      2  C1  UNL d   1      -5.126   3.570   5.296  0.00  0.00    -0.074 A 
ATOM      3  C2  UNL d   1      -5.565   4.698   5.996  0.00  0.00    -0.005 A 
ATOM      4  C3  UNL d   1      -5.763   5.907   5.329  0.00  0.00     0.006 A 
ATOM      5  C4  UNL d   1      -5.524   6.000   3.958  0.00  0.00    -0.005 A 
ATOM      6  C5  UNL d   1      -5.083   4.883   3.241  0.00  0.00    -0.074 A 
ATOM      7  C6  UNL d   1      -4.812   4.969   1.768  0.00  0.00     0.077 C 
ATOM      8  C7  UNL d   1      -4.880   3.674   3.919  0.00  0.00    -0.001 A 
ENDROOT
TORSDOF 0
ENDMDL
