MODEL 1
REMARK minimizedAffinity -3.0170033
REMARK minimizedRMSD -1
REMARK  0 active torsions:
REMARK  status: ('A' for Active; 'I' for Inactive)
ROOT
ATOM      1  C   UNL d   1      -5.621   4.115   1.670  0.00  0.00     0.077 C 
ATOM      2  C1  UNL d   1      -5.562   4.144   3.168  0.00  0.00    -0.074 A 
ATOM      3  C2  UNL d   1      -5.999   5.264   3.883  0.00  0.00    -0.005 A 
ATOM      4  C3  UNL d   1      -5.947   5.272   5.277  0.00  0.00     0.006 A 
ATOM      5  C4  UNL d   1      -5.458   4.163   5.969  0.00  0.00    -0.005 A 
ATOM      6  C5  UNL d   1      -5.018   3.034   5.271  0.00  0.00    -0.074 A 
ATOM      7  C6  UNL d   1      -4.499   1.830   5.999  0.00  0.00     0.077 C 
ATOM      8  C7  UNL d   1      -5.080   3.031   3.871  0.00  0.00    -0.001 A 
ENDROOT
TORSDOF 0
ENDMDL
