MODEL 1
REMARK minimizedAffinity -1.42417181
REMARK minimizedRMSD -1
REMARK  0 active torsions:
REMARK  status: ('A' for Active; 'I' for Inactive)
ROOT
ATOM      1  C   UNL d   1      -5.991   3.309   0.965  0.00  0.00     0.077 C 
ATOM      2  C1  UNL d   1      -5.985   3.988   2.303  0.00  0.00    -0.074 A 
ATOM      3  C2  UNL d   1      -5.990   5.383   2.401  0.00  0.00    -0.005 A 
ATOM      4  C3  UNL d   1      -5.995   6.000   3.653  0.00  0.00     0.006 A 
ATOM      5  C4  UNL d   1      -5.993   5.229   4.816  0.00  0.00    -0.005 A 
ATOM      6  C5  UNL d   1      -5.989   3.833   4.737  0.00  0.00    -0.074 A 
ATOM      7  C6  UNL d   1      -5.998   2.989   5.977  0.00  0.00     0.077 C 
ATOM      8  C7  UNL d   1      -5.992   3.220   3.476  0.00  0.00    -0.001 A 
ENDROOT
TORSDOF 0
ENDMDL
