MODEL 1
REMARK minimizedAffinity 0.286660224
REMARK minimizedRMSD -1
REMARK  0 active torsions:
REMARK  status: ('A' for Active; 'I' for Inactive)
ROOT
ATOM      1  C   UNL d   1      -6.000   4.790   1.308  0.00  0.00     0.077 C 
ATOM      2  C1  UNL d   1      -5.253   4.184   2.459  0.00  0.00    -0.074 A 
ATOM      3  C2  UNL d   1      -3.881   3.931   2.372  0.00  0.00    -0.005 A 
ATOM      4  C3  UNL d   1      -3.198   3.376   3.454  0.00  0.00     0.006 A 
ATOM      5  C4  UNL d   1      -3.880   3.067   4.632  0.00  0.00    -0.005 A 
ATOM      6  C5  UNL d   1      -5.253   3.313   4.737  0.00  0.00    -0.074 A 
ATOM      7  C6  UNL d   1      -6.000   2.996   5.998  0.00  0.00     0.077 C 
ATOM      8  C7  UNL d   1      -5.930   3.878   3.648  0.00  0.00    -0.001 A 
ENDROOT
TORSDOF 0
ENDMDL
