MODEL 1
REMARK minimizedAffinity -3.85158515
REMARK minimizedRMSD -1
REMARK  0 active torsions:
REMARK  status: ('A' for Active; 'I' for Inactive)
ROOT
ATOM      1  C   UNL d   1      -4.873   4.885   1.815  0.00  0.00     0.077 C 
ATOM      2  C1  UNL d   1      -5.132   4.667   3.276  0.00  0.00    -0.074 A 
ATOM      3  C2  UNL d   1      -5.757   5.650   4.050  0.00  0.00    -0.005 A 
ATOM      4  C3  UNL d   1      -5.999   5.428   5.405  0.00  0.00     0.006 A 
ATOM      5  C4  UNL d   1      -5.620   4.224   6.000  0.00  0.00    -0.005 A 
ATOM      6  C5  UNL d   1      -4.994   3.229   5.241  0.00  0.00    -0.074 A 
ATOM      7  C6  UNL d   1      -4.589   1.926   5.862  0.00  0.00     0.077 C 
ATOM      8  C7  UNL d   1      -4.760   3.457   3.878  0.00  0.00    -0.001 A 
ENDROOT
TORSDOF 0
ENDMDL
