MODEL 1
REMARK minimizedAffinity -2.74966288
REMARK minimizedRMSD -1
REMARK  0 active torsions:
REMARK  status: ('A' for Active; 'I' for Inactive)
ROOT
ATOM      1  C   UNL d   1      -5.439   6.000   1.138  0.00  0.00     0.077 C 
ATOM      2  C1  UNL d   1      -5.605   4.952   2.198  0.00  0.00    -0.074 A 
ATOM      3  C2  UNL d   1      -5.857   3.619   1.858  0.00  0.00    -0.005 A 
ATOM      4  C3  UNL d   1      -6.000   2.654   2.855  0.00  0.00     0.006 A 
ATOM      5  C4  UNL d   1      -5.892   3.011   4.200  0.00  0.00    -0.005 A 
ATOM      6  C5  UNL d   1      -5.639   4.339   4.559  0.00  0.00    -0.074 A 
ATOM      7  C6  UNL d   1      -5.510   4.738   5.999  0.00  0.00     0.077 C 
ATOM      8  C7  UNL d   1      -5.490   5.302   3.551  0.00  0.00    -0.001 A 
ENDROOT
TORSDOF 0
ENDMDL
