MODEL 1
REMARK minimizedAffinity -3.91826034
REMARK minimizedRMSD -1
REMARK  0 active torsions:
REMARK  status: ('A' for Active; 'I' for Inactive)
ROOT
ATOM      1  C   UNL d   1      -5.256   4.795   0.161  0.00  0.00     0.077 C 
ATOM      2  C1  UNL d   1      -5.187   4.797   1.659  0.00  0.00    -0.074 A 
ATOM      3  C2  UNL d   1      -5.183   5.997   2.377  0.00  0.00    -0.005 A 
ATOM      4  C3  UNL d   1      -5.127   5.982   3.771  0.00  0.00     0.006 A 
ATOM      5  C4  UNL d   1      -5.075   4.770   4.460  0.00  0.00    -0.005 A 
ATOM      6  C5  UNL d   1      -5.079   3.560   3.759  0.00  0.00    -0.074 A 
ATOM      7  C6  UNL d   1      -5.033   2.247   4.483  0.00  0.00     0.077 C 
ATOM      8  C7  UNL d   1      -5.142   3.582   2.359  0.00  0.00    -0.001 A 
ENDROOT
TORSDOF 0
ENDMDL
