MODEL 1
REMARK minimizedAffinity -3.55185223
REMARK minimizedRMSD -1
REMARK  0 active torsions:
REMARK  status: ('A' for Active; 'I' for Inactive)
ROOT
ATOM      1  C   UNL d   1      -2.498   2.625   5.249  0.00  0.00     0.077 C 
ATOM      2  C1  UNL d   1      -3.725   3.373   4.818  0.00  0.00    -0.074 A 
ATOM      3  C2  UNL d   1      -4.870   3.399   5.621  0.00  0.00    -0.005 A 
ATOM      4  C3  UNL d   1      -6.000   4.106   5.212  0.00  0.00     0.006 A 
ATOM      5  C4  UNL d   1      -5.997   4.793   3.998  0.00  0.00    -0.005 A 
ATOM      6  C5  UNL d   1      -4.862   4.779   3.182  0.00  0.00    -0.074 A 
ATOM      7  C6  UNL d   1      -4.839   5.521   1.878  0.00  0.00     0.077 C 
ATOM      8  C7  UNL d   1      -3.727   4.072   3.603  0.00  0.00    -0.001 A 
ENDROOT
TORSDOF 0
ENDMDL
