MODEL 1
REMARK minimizedAffinity -4.34802532
REMARK minimizedRMSD -1
REMARK  0 active torsions:
REMARK  status: ('A' for Active; 'I' for Inactive)
ROOT
ATOM      1  C1  DEN d   1      -0.011   0.277  -1.540  0.00  0.00     0.130 A 
ATOM      2  C2  DEN d   1       0.718  -0.972  -1.338  0.00  0.00    -0.031 A 
ATOM      3  C3  DEN d   1       0.585  -1.354   0.083  0.00  0.00     0.027 A 
ATOM      4  C4  DEN d   1      -0.677  -0.141   1.977  0.00  0.00     0.027 A 
ATOM      5  C5  DEN d   1      -1.438   0.963   2.292  0.00  0.00    -0.003 A 
ATOM      6  C6  DEN d   1      -1.745   1.925   1.367  0.00  0.00     0.001 A 
ATOM      7  C7  DEN d   1      -1.328   1.779   0.071  0.00  0.00     0.017 A 
ATOM      8  C8  DEN d   1      -0.554   0.672  -0.252  0.00  0.00    -0.094 A 
ATOM      9  C9  DEN d   1      -0.264  -0.296   0.694  0.00  0.00    -0.072 A 
ENDROOT
TORSDOF 0
ENDMDL
