MODEL 1
REMARK minimizedAffinity -0.881156504
REMARK minimizedRMSD -1
REMARK  0 active torsions:
REMARK  status: ('A' for Active; 'I' for Inactive)
ROOT
ATOM      1  C1  DEN d   1      -0.971   2.210   0.021  0.00  0.00     0.130 A 
ATOM      2  C2  DEN d   1      -0.406   2.805  -1.187  0.00  0.00    -0.031 A 
ATOM      3  C3  DEN d   1       0.472   1.803  -1.823  0.00  0.00     0.027 A 
ATOM      4  C4  DEN d   1       1.006  -0.603  -1.061  0.00  0.00     0.027 A 
ATOM      5  C5  DEN d   1       0.772  -1.550  -0.089  0.00  0.00    -0.003 A 
ATOM      6  C6  DEN d   1      -0.026  -1.302   0.996  0.00  0.00     0.001 A 
ATOM      7  C7  DEN d   1      -0.655  -0.090   1.113  0.00  0.00     0.017 A 
ATOM      8  C8  DEN d   1      -0.418   0.873   0.141  0.00  0.00    -0.094 A 
ATOM      9  C9  DEN d   1       0.382   0.598  -0.955  0.00  0.00    -0.072 A 
ENDROOT
TORSDOF 0
ENDMDL
