MODEL 1
REMARK minimizedAffinity -5.28274536
REMARK minimizedRMSD -1
REMARK  0 active torsions:
REMARK  status: ('A' for Active; 'I' for Inactive)
ROOT
ATOM      1  C1  DEN d   1      -1.564   2.466   0.715  0.00  0.00     0.130 A 
ATOM      2  C2  DEN d   1      -2.150   1.643   1.771  0.00  0.00    -0.031 A 
ATOM      3  C3  DEN d   1      -1.447   0.345   1.781  0.00  0.00     0.027 A 
ATOM      4  C4  DEN d   1       0.485  -0.466   0.276  0.00  0.00     0.027 A 
ATOM      5  C5  DEN d   1       1.311  -0.124  -0.772  0.00  0.00    -0.003 A 
ATOM      6  C6  DEN d   1       1.215   1.082  -1.415  0.00  0.00     0.001 A 
ATOM      7  C7  DEN d   1       0.301   2.009  -0.986  0.00  0.00     0.017 A 
ATOM      8  C8  DEN d   1      -0.540   1.668   0.065  0.00  0.00    -0.094 A 
ATOM      9  C9  DEN d   1      -0.419   0.449   0.710  0.00  0.00    -0.072 A 
ENDROOT
TORSDOF 0
ENDMDL
