MODEL 1
REMARK minimizedAffinity -5.93186188
REMARK minimizedRMSD -1
REMARK  0 active torsions:
REMARK  status: ('A' for Active; 'I' for Inactive)
ROOT
ATOM      1  C1  DEN d   1      -1.683   2.193   0.764  0.00  0.00     0.130 A 
ATOM      2  C2  DEN d   1      -2.269   1.209   1.671  0.00  0.00    -0.031 A 
ATOM      3  C3  DEN d   1      -1.513  -0.052   1.527  0.00  0.00     0.027 A 
ATOM      4  C4  DEN d   1       0.500  -0.572   0.001  0.00  0.00     0.027 A 
ATOM      5  C5  DEN d   1       1.346  -0.056  -0.956  0.00  0.00    -0.003 A 
ATOM      6  C6  DEN d   1       1.221   1.224  -1.428  0.00  0.00     0.001 A 
ATOM      7  C7  DEN d   1       0.256   2.047  -0.910  0.00  0.00     0.017 A 
ATOM      8  C8  DEN d   1      -0.605   1.532   0.050  0.00  0.00    -0.094 A 
ATOM      9  C9  DEN d   1      -0.455   0.239   0.522  0.00  0.00    -0.072 A 
ENDROOT
TORSDOF 0
ENDMDL
