MODEL 1
REMARK minimizedAffinity -6.23106718
REMARK minimizedRMSD -1
REMARK  0 active torsions:
REMARK  status: ('A' for Active; 'I' for Inactive)
ROOT
ATOM      1  C1  DEN d   1       0.103   2.277  -1.240  0.00  0.00     0.130 A 
ATOM      2  C2  DEN d   1       1.308   1.474  -1.430  0.00  0.00    -0.031 A 
ATOM      3  C3  DEN d   1       1.284   0.375  -0.444  0.00  0.00     0.027 A 
ATOM      4  C4  DEN d   1      -0.493  -0.161   1.346  0.00  0.00     0.027 A 
ATOM      5  C5  DEN d   1      -1.689   0.244   1.897  0.00  0.00    -0.003 A 
ATOM      6  C6  DEN d   1      -2.349   1.365   1.468  0.00  0.00     0.001 A 
ATOM      7  C7  DEN d   1      -1.839   2.095   0.427  0.00  0.00     0.017 A 
ATOM      8  C8  DEN d   1      -0.630   1.697  -0.129  0.00  0.00    -0.094 A 
ATOM      9  C9  DEN d   1       0.015   0.554   0.311  0.00  0.00    -0.072 A 
ENDROOT
TORSDOF 0
ENDMDL
