MODEL 1
REMARK minimizedAffinity -1.91677225
REMARK minimizedRMSD -1
REMARK  0 active torsions:
REMARK  status: ('A' for Active; 'I' for Inactive)
ROOT
ATOM      1  C1  DEN d   1      -0.441  -0.413  -0.795  0.00  0.00     0.130 A 
ATOM      2  C2  DEN d   1       0.855  -0.933  -0.369  0.00  0.00    -0.031 A 
ATOM      3  C3  DEN d   1       1.220  -0.267   0.898  0.00  0.00     0.027 A 
ATOM      4  C4  DEN d   1      -0.091   1.507   2.234  0.00  0.00     0.027 A 
ATOM      5  C5  DEN d   1      -1.238   2.269   2.263  0.00  0.00    -0.003 A 
ATOM      6  C6  DEN d   1      -2.175   2.217   1.266  0.00  0.00     0.001 A 
ATOM      7  C7  DEN d   1      -2.004   1.350   0.219  0.00  0.00     0.017 A 
ATOM      8  C8  DEN d   1      -0.847   0.583   0.179  0.00  0.00    -0.094 A 
ATOM      9  C9  DEN d   1       0.082   0.642   1.203  0.00  0.00    -0.072 A 
ENDROOT
TORSDOF 0
ENDMDL
