MODEL 1
REMARK minimizedAffinity -4.60037613
REMARK minimizedRMSD -1
REMARK  0 active torsions:
REMARK  status: ('A' for Active; 'I' for Inactive)
ROOT
ATOM      1  C1  DEN d   1       1.511  -0.422  -0.301  0.00  0.00     0.130 A 
ATOM      2  C2  DEN d   1       0.437  -1.138   0.382  0.00  0.00    -0.031 A 
ATOM      3  C3  DEN d   1      -0.786  -0.315   0.299  0.00  0.00     0.027 A 
ATOM      4  C4  DEN d   1      -1.120   1.986  -0.819  0.00  0.00     0.027 A 
ATOM      5  C5  DEN d   1      -0.496   2.997  -1.515  0.00  0.00    -0.003 A 
ATOM      6  C6  DEN d   1       0.838   2.955  -1.824  0.00  0.00     0.001 A 
ATOM      7  C7  DEN d   1       1.582   1.859  -1.474  0.00  0.00     0.017 A 
ATOM      8  C8  DEN d   1       0.961   0.839  -0.765  0.00  0.00    -0.094 A 
ATOM      9  C9  DEN d   1      -0.391   0.894  -0.473  0.00  0.00    -0.072 A 
ENDROOT
TORSDOF 0
ENDMDL
