MODEL 1
REMARK minimizedAffinity -2.42591476
REMARK minimizedRMSD -1
REMARK  0 active torsions:
REMARK  status: ('A' for Active; 'I' for Inactive)
ROOT
ATOM      1  C1  DEN d   1      -0.943   2.660   0.095  0.00  0.00     0.130 A 
ATOM      2  C2  DEN d   1      -1.698   2.854   1.330  0.00  0.00    -0.031 A 
ATOM      3  C3  DEN d   1      -1.558   1.633   2.148  0.00  0.00     0.027 A 
ATOM      4  C4  DEN d   1      -0.248  -0.527   1.628  0.00  0.00     0.027 A 
ATOM      5  C5  DEN d   1       0.541  -1.165   0.696  0.00  0.00    -0.003 A 
ATOM      6  C6  DEN d   1       0.860  -0.590  -0.506  0.00  0.00     0.001 A 
ATOM      7  C7  DEN d   1       0.425   0.677  -0.789  0.00  0.00     0.017 A 
ATOM      8  C8  DEN d   1      -0.377   1.323   0.142  0.00  0.00    -0.094 A 
ATOM      9  C9  DEN d   1      -0.679   0.731   1.357  0.00  0.00    -0.072 A 
ENDROOT
TORSDOF 0
ENDMDL
