MODEL 1
REMARK minimizedAffinity -1.74836385
REMARK minimizedRMSD -1
REMARK  0 active torsions:
REMARK  status: ('A' for Active; 'I' for Inactive)
ROOT
ATOM      1  C1  DEN d   1      -0.444  -0.216  -1.591  0.00  0.00     0.130 A 
ATOM      2  C2  DEN d   1       0.020   0.120  -0.247  0.00  0.00    -0.031 A 
ATOM      3  C3  DEN d   1       0.885  -0.980   0.226  0.00  0.00     0.027 A 
ATOM      4  C4  DEN d   1       1.553  -3.155  -0.988  0.00  0.00     0.027 A 
ATOM      5  C5  DEN d   1       1.398  -3.889  -2.143  0.00  0.00    -0.003 A 
ATOM      6  C6  DEN d   1       0.598  -3.470  -3.173  0.00  0.00     0.001 A 
ATOM      7  C7  DEN d   1      -0.043  -2.262  -3.086  0.00  0.00     0.017 A 
ATOM      8  C8  DEN d   1       0.103  -1.520  -1.921  0.00  0.00    -0.094 A 
ATOM      9  C9  DEN d   1       0.926  -1.955  -0.897  0.00  0.00    -0.072 A 
ENDROOT
TORSDOF 0
ENDMDL
