MODEL 1
REMARK minimizedAffinity -5.08000708
REMARK minimizedRMSD -1
REMARK  0 active torsions:
REMARK  status: ('A' for Active; 'I' for Inactive)
ROOT
ATOM      1  C1  DEN d   1       0.804  -0.527   1.871  0.00  0.00     0.130 A 
ATOM      2  C2  DEN d   1       1.001  -1.352   0.681  0.00  0.00    -0.031 A 
ATOM      3  C3  DEN d   1       0.167  -0.796  -0.403  0.00  0.00     0.027 A 
ATOM      4  C4  DEN d   1      -1.398   1.254  -0.357  0.00  0.00     0.027 A 
ATOM      5  C5  DEN d   1      -1.903   2.264   0.432  0.00  0.00    -0.003 A 
ATOM      6  C6  DEN d   1      -1.569   2.393   1.754  0.00  0.00     0.001 A 
ATOM      7  C7  DEN d   1      -0.672   1.524   2.316  0.00  0.00     0.017 A 
ATOM      8  C8  DEN d   1      -0.165   0.498   1.528  0.00  0.00    -0.094 A 
ATOM      9  C9  DEN d   1      -0.505   0.392   0.190  0.00  0.00    -0.072 A 
ENDROOT
TORSDOF 0
ENDMDL
