MODEL 1
REMARK minimizedAffinity -3.98338199
REMARK minimizedRMSD -1
REMARK  0 active torsions:
REMARK  status: ('A' for Active; 'I' for Inactive)
ROOT
ATOM      1  C1  DEN d   1       0.384  -0.229  -1.588  0.00  0.00     0.130 A 
ATOM      2  C2  DEN d   1       1.095  -1.440  -1.189  0.00  0.00    -0.031 A 
ATOM      3  C3  DEN d   1       0.855  -1.656   0.252  0.00  0.00     0.027 A 
ATOM      4  C4  DEN d   1      -0.545  -0.243   1.894  0.00  0.00     0.027 A 
ATOM      5  C5  DEN d   1      -1.327   0.884   2.020  0.00  0.00    -0.003 A 
ATOM      6  C6  DEN d   1      -1.563   1.731   0.970  0.00  0.00     0.001 A 
ATOM      7  C7  DEN d   1      -1.049   1.439  -0.266  0.00  0.00     0.017 A 
ATOM      8  C8  DEN d   1      -0.254   0.308  -0.400  0.00  0.00    -0.094 A 
ATOM      9  C9  DEN d   1      -0.037  -0.542   0.671  0.00  0.00    -0.072 A 
ENDROOT
TORSDOF 0
ENDMDL
