MODEL 1
REMARK minimizedAffinity -2.77069545
REMARK minimizedRMSD -1
REMARK  0 active torsions:
REMARK  status: ('A' for Active; 'I' for Inactive)
ROOT
ATOM      1  C1  DEN d   1      -1.588   1.929  -0.048  0.00  0.00     0.130 A 
ATOM      2  C2  DEN d   1      -2.085   1.933   1.325  0.00  0.00    -0.031 A 
ATOM      3  C3  DEN d   1      -1.446   0.813   2.045  0.00  0.00     0.027 A 
ATOM      4  C4  DEN d   1       0.258  -0.915   1.173  0.00  0.00     0.027 A 
ATOM      5  C5  DEN d   1       0.972  -1.330   0.071  0.00  0.00    -0.003 A 
ATOM      6  C6  DEN d   1       0.858  -0.714  -1.147  0.00  0.00     0.001 A 
ATOM      7  C7  DEN d   1       0.045   0.380  -1.281  0.00  0.00     0.017 A 
ATOM      8  C8  DEN d   1      -0.684   0.800  -0.176  0.00  0.00    -0.094 A 
ATOM      9  C9  DEN d   1      -0.546   0.171   1.050  0.00  0.00    -0.072 A 
ENDROOT
TORSDOF 0
ENDMDL
