MODEL 1
REMARK minimizedAffinity -4.3287425
REMARK minimizedRMSD -1
REMARK  0 active torsions:
REMARK  status: ('A' for Active; 'I' for Inactive)
ROOT
ATOM      1  C1  DEN d   1      -1.567  -0.888   0.717  0.00  0.00     0.130 A 
ATOM      2  C2  DEN d   1      -0.653  -0.236   1.652  0.00  0.00    -0.031 A 
ATOM      3  C3  DEN d   1       0.710  -0.318   1.090  0.00  0.00     0.027 A 
ATOM      4  C4  DEN d   1       1.490  -1.382  -1.126  0.00  0.00     0.027 A 
ATOM      5  C5  DEN d   1       1.079  -2.067  -2.248  0.00  0.00    -0.003 A 
ATOM      6  C6  DEN d   1      -0.226  -2.433  -2.443  0.00  0.00     0.001 A 
ATOM      7  C7  DEN d   1      -1.176  -2.077  -1.522  0.00  0.00     0.017 A 
ATOM      8  C8  DEN d   1      -0.768  -1.393  -0.384  0.00  0.00    -0.094 A 
ATOM      9  C9  DEN d   1       0.555  -1.021  -0.212  0.00  0.00    -0.072 A 
ENDROOT
TORSDOF 0
ENDMDL
