MODEL 1
REMARK minimizedAffinity -3.35015321
REMARK minimizedRMSD -1
REMARK  0 active torsions:
REMARK  status: ('A' for Active; 'I' for Inactive)
ROOT
ATOM      1  C1  DEN d   1       0.634   1.063  -0.606  0.00  0.00     0.130 A 
ATOM      2  C2  DEN d   1       0.818  -0.323  -1.027  0.00  0.00    -0.031 A 
ATOM      3  C3  DEN d   1       0.042  -1.185  -0.114  0.00  0.00     0.027 A 
ATOM      4  C4  DEN d   1      -1.424  -0.512   1.898  0.00  0.00     0.027 A 
ATOM      5  C5  DEN d   1      -1.878   0.548   2.652  0.00  0.00    -0.003 A 
ATOM      6  C6  DEN d   1      -1.502   1.840   2.396  0.00  0.00     0.001 A 
ATOM      7  C7  DEN d   1      -0.683   2.110   1.331  0.00  0.00     0.017 A 
ATOM      8  C8  DEN d   1      -0.216   1.046   0.571  0.00  0.00    -0.094 A 
ATOM      9  C9  DEN d   1      -0.617  -0.252   0.839  0.00  0.00    -0.072 A 
ENDROOT
TORSDOF 0
ENDMDL
