MODEL 1
REMARK minimizedAffinity -2.9100678
REMARK minimizedRMSD -1
REMARK  0 active torsions:
REMARK  status: ('A' for Active; 'I' for Inactive)
ROOT
ATOM      1  C4' PXY d   1      -0.605  -0.503  -1.514  0.00  0.00     0.077 C 
ATOM      2  C1' PXY d   1      -5.061  -4.041  -0.495  0.00  0.00     0.077 C 
ATOM      3  C1  PXY d   1      -3.889  -3.121  -0.772  0.00  0.00    -0.082 A 
ATOM      4  C2  PXY d   1      -3.447  -2.319   0.183  0.00  0.00     0.003 A 
ATOM      5  C3  PXY d   1      -2.408  -1.458  -0.060  0.00  0.00     0.003 A 
ATOM      6  C4  PXY d   1      -1.780  -1.455  -1.277  0.00  0.00    -0.082 A 
ATOM      7  C5  PXY d   1      -2.218  -2.278  -2.253  0.00  0.00     0.003 A 
ATOM      8  C6  PXY d   1      -3.301  -3.115  -1.999  0.00  0.00     0.003 A 
ENDROOT
TORSDOF 0
ENDMDL
