MODEL 1
REMARK minimizedAffinity -1.89389861
REMARK minimizedRMSD -1
REMARK  0 active torsions:
REMARK  status: ('A' for Active; 'I' for Inactive)
ROOT
ATOM      1  C4' PXY d   1      -2.834  -2.799  -4.399  0.00  0.00     0.077 C 
ATOM      2  C1' PXY d   1      -0.423  -0.540   0.344  0.00  0.00     0.077 C 
ATOM      3  C1  PXY d   1      -1.053  -1.145  -0.895  0.00  0.00    -0.082 A 
ATOM      4  C2  PXY d   1      -1.128  -0.430  -2.006  0.00  0.00     0.003 A 
ATOM      5  C3  PXY d   1      -1.723  -0.949  -3.127  0.00  0.00     0.003 A 
ATOM      6  C4  PXY d   1      -2.199  -2.233  -3.127  0.00  0.00    -0.082 A 
ATOM      7  C5  PXY d   1      -2.117  -2.973  -2.001  0.00  0.00     0.003 A 
ATOM      8  C6  PXY d   1      -1.546  -2.412  -0.861  0.00  0.00     0.003 A 
ENDROOT
TORSDOF 0
ENDMDL
