MODEL 1
REMARK minimizedAffinity -3.18929577
REMARK minimizedRMSD -1
REMARK  0 active torsions:
REMARK  status: ('A' for Active; 'I' for Inactive)
ROOT
ATOM      1  C4' PXY d   1       0.225   0.028  -0.735  0.00  0.00     0.077 C 
ATOM      2  C1' PXY d   1      -3.850  -4.072  -0.814  0.00  0.00     0.077 C 
ATOM      3  C1  PXY d   1      -2.776  -3.001  -0.805  0.00  0.00    -0.082 A 
ATOM      4  C2  PXY d   1      -2.394  -2.469   0.345  0.00  0.00     0.003 A 
ATOM      5  C3  PXY d   1      -1.447  -1.477   0.368  0.00  0.00     0.003 A 
ATOM      6  C4  PXY d   1      -0.848  -1.063  -0.791  0.00  0.00    -0.082 A 
ATOM      7  C5  PXY d   1      -1.226  -1.609  -1.967  0.00  0.00     0.003 A 
ATOM      8  C6  PXY d   1      -2.218  -2.585  -1.973  0.00  0.00     0.003 A 
ENDROOT
TORSDOF 0
ENDMDL
