MODEL 1
REMARK minimizedAffinity -2.28740406
REMARK minimizedRMSD -1
REMARK  0 active torsions:
REMARK  status: ('A' for Active; 'I' for Inactive)
ROOT
ATOM      1  C4' PXY d   1      -3.142  -3.766  -3.024  0.00  0.00     0.077 C 
ATOM      2  C1' PXY d   1      -0.411  -0.041   0.452  0.00  0.00     0.077 C 
ATOM      3  C1  PXY d   1      -1.134  -1.008  -0.465  0.00  0.00    -0.082 A 
ATOM      4  C2  PXY d   1      -1.271  -2.273  -0.104  0.00  0.00     0.003 A 
ATOM      5  C3  PXY d   1      -1.894  -3.168  -0.936  0.00  0.00     0.003 A 
ATOM      6  C4  PXY d   1      -2.428  -2.752  -2.125  0.00  0.00    -0.082 A 
ATOM      7  C5  PXY d   1      -2.302  -1.460  -2.496  0.00  0.00     0.003 A 
ATOM      8  C6  PXY d   1      -1.630  -0.577  -1.656  0.00  0.00     0.003 A 
ENDROOT
TORSDOF 0
ENDMDL
