MODEL 1
REMARK minimizedAffinity -1.22898817
REMARK minimizedRMSD -1
REMARK  0 active torsions:
REMARK  status: ('A' for Active; 'I' for Inactive)
ROOT
ATOM      1  C4' PXY d   1      -5.192  -2.672  -0.825  0.00  0.00     0.077 C 
ATOM      2  C1' PXY d   1       0.194  -0.616  -0.396  0.00  0.00     0.077 C 
ATOM      3  C1  PXY d   1      -1.217  -1.156  -0.521  0.00  0.00    -0.082 A 
ATOM      4  C2  PXY d   1      -2.117  -0.856   0.401  0.00  0.00     0.003 A 
ATOM      5  C3  PXY d   1      -3.389  -1.362   0.320  0.00  0.00     0.003 A 
ATOM      6  C4  PXY d   1      -3.758  -2.141  -0.744  0.00  0.00    -0.082 A 
ATOM      7  C5  PXY d   1      -2.849  -2.443  -1.695  0.00  0.00     0.003 A 
ATOM      8  C6  PXY d   1      -1.552  -1.953  -1.573  0.00  0.00     0.003 A 
ENDROOT
TORSDOF 0
ENDMDL
