MODEL 1
REMARK minimizedAffinity -1.90477812
REMARK minimizedRMSD -1
REMARK  0 active torsions:
REMARK  status: ('A' for Active; 'I' for Inactive)
ROOT
ATOM      1  C4' PXY d   1      -2.190  -3.261  -3.704  0.00  0.00     0.077 C 
ATOM      2  C1' PXY d   1      -0.984  -0.036   0.939  0.00  0.00     0.077 C 
ATOM      3  C1  PXY d   1      -1.305  -0.871  -0.285  0.00  0.00    -0.082 A 
ATOM      4  C2  PXY d   1      -1.511  -2.171  -0.153  0.00  0.00     0.003 A 
ATOM      5  C3  PXY d   1      -1.770  -2.947  -1.254  0.00  0.00     0.003 A 
ATOM      6  C4  PXY d   1      -1.873  -2.377  -2.494  0.00  0.00    -0.082 A 
ATOM      7  C5  PXY d   1      -1.674  -1.050  -2.635  0.00  0.00     0.003 A 
ATOM      8  C6  PXY d   1      -1.371  -0.286  -1.511  0.00  0.00     0.003 A 
ENDROOT
TORSDOF 0
ENDMDL
