MODEL 1
REMARK minimizedAffinity 1.55817866
REMARK minimizedRMSD -1
REMARK  0 active torsions:
REMARK  status: ('A' for Active; 'I' for Inactive)
ROOT
ATOM      1  C4' PXY d   1      -2.851  -2.289  -3.966  0.00  0.00     0.077 C 
ATOM      2  C1' PXY d   1      -0.065  -0.472   0.762  0.00  0.00     0.077 C 
ATOM      3  C1  PXY d   1      -0.795  -0.961  -0.474  0.00  0.00    -0.082 A 
ATOM      4  C2  PXY d   1      -0.727  -0.260  -1.594  0.00  0.00     0.003 A 
ATOM      5  C3  PXY d   1      -1.407  -0.670  -2.711  0.00  0.00     0.003 A 
ATOM      6  C4  PXY d   1      -2.122  -1.838  -2.697  0.00  0.00    -0.082 A 
ATOM      7  C5  PXY d   1      -2.188  -2.564  -1.561  0.00  0.00     0.003 A 
ATOM      8  C6  PXY d   1      -1.524  -2.109  -0.426  0.00  0.00     0.003 A 
ENDROOT
TORSDOF 0
ENDMDL
