MODEL 1
REMARK minimizedAffinity 1.68455684
REMARK minimizedRMSD -1
REMARK  0 active torsions:
REMARK  status: ('A' for Active; 'I' for Inactive)
ROOT
ATOM      1  C4' PXY d   1      -3.351   3.757   4.785  0.00  0.00     0.077 C 
ATOM      2  C1' PXY d   1      -5.999   5.999   0.162  0.00  0.00     0.077 C 
ATOM      3  C1  PXY d   1      -5.307   5.422   1.381  0.00  0.00    -0.082 A 
ATOM      4  C2  PXY d   1      -4.362   4.509   1.226  0.00  0.00     0.003 A 
ATOM      5  C3  PXY d   1      -3.749   3.953   2.319  0.00  0.00     0.003 A 
ATOM      6  C4  PXY d   1      -4.069   4.374   3.582  0.00  0.00    -0.082 A 
ATOM      7  C5  PXY d   1      -5.025   5.313   3.748  0.00  0.00     0.003 A 
ATOM      8  C6  PXY d   1      -5.664   5.835   2.627  0.00  0.00     0.003 A 
ENDROOT
TORSDOF 0
ENDMDL
