MODEL 1
REMARK minimizedAffinity 3.61817813
REMARK minimizedRMSD -1
REMARK  0 active torsions:
REMARK  status: ('A' for Active; 'I' for Inactive)
ROOT
ATOM      1  C4' PXY d   1      -2.401  -0.125   3.363  0.00  0.00     0.077 C 
ATOM      2  C1' PXY d   1      -0.049   0.215  -1.906  0.00  0.00     0.077 C 
ATOM      3  C1  PXY d   1      -0.670   0.138  -0.525  0.00  0.00    -0.082 A 
ATOM      4  C2  PXY d   1      -0.208  -0.738   0.352  0.00  0.00     0.003 A 
ATOM      5  C3  PXY d   1      -0.779  -0.843   1.594  0.00  0.00     0.003 A 
ATOM      6  C4  PXY d   1      -1.799  -0.006   1.961  0.00  0.00    -0.082 A 
ATOM      7  C5  PXY d   1      -2.268   0.899   1.075  0.00  0.00     0.003 A 
ATOM      8  C6  PXY d   1      -1.702   0.961  -0.195  0.00  0.00     0.003 A 
ENDROOT
TORSDOF 0
ENDMDL
