MODEL 1
REMARK minimizedAffinity 2.20262766
REMARK minimizedRMSD -1
REMARK  0 active torsions:
REMARK  status: ('A' for Active; 'I' for Inactive)
ROOT
ATOM      1  C4' PXY d   1      -6.000  -5.995  -0.741  0.00  0.00     0.077 C 
ATOM      2  C1' PXY d   1      -2.622  -1.799  -2.840  0.00  0.00     0.077 C 
ATOM      3  C1  PXY d   1      -3.512  -2.892  -2.280  0.00  0.00    -0.082 A 
ATOM      4  C2  PXY d   1      -3.233  -4.159  -2.538  0.00  0.00     0.003 A 
ATOM      5  C3  PXY d   1      -4.045  -5.158  -2.066  0.00  0.00     0.003 A 
ATOM      6  C4  PXY d   1      -5.124  -4.859  -1.278  0.00  0.00    -0.082 A 
ATOM      7  C5  PXY d   1      -5.409  -3.569  -1.001  0.00  0.00     0.003 A 
ATOM      8  C6  PXY d   1      -4.596  -2.568  -1.523  0.00  0.00     0.003 A 
ENDROOT
TORSDOF 0
ENDMDL
