MODEL 1
REMARK minimizedAffinity 3.8685627
REMARK minimizedRMSD -1
REMARK  0 active torsions:
REMARK  status: ('A' for Active; 'I' for Inactive)
ROOT
ATOM      1  C4' PXY d   1      -0.655  -0.790   0.811  0.00  0.00     0.077 C 
ATOM      2  C1' PXY d   1      -3.018  -2.206  -4.271  0.00  0.00     0.077 C 
ATOM      3  C1  PXY d   1      -2.392  -1.825  -2.944  0.00  0.00    -0.082 A 
ATOM      4  C2  PXY d   1      -2.253  -2.741  -1.999  0.00  0.00     0.003 A 
ATOM      5  C3  PXY d   1      -1.718  -2.405  -0.782  0.00  0.00     0.003 A 
ATOM      6  C4  PXY d   1      -1.273  -1.132  -0.548  0.00  0.00    -0.082 A 
ATOM      7  C5  PXY d   1      -1.402  -0.194  -1.510  0.00  0.00     0.003 A 
ATOM      8  C6  PXY d   1      -1.985  -0.545  -2.724  0.00  0.00     0.003 A 
ENDROOT
TORSDOF 0
ENDMDL
