MODEL 1
REMARK minimizedAffinity 12.1946659
REMARK minimizedRMSD -1
REMARK  0 active torsions:
REMARK  status: ('A' for Active; 'I' for Inactive)
ROOT
ATOM      1  C4' PXY d   1      -2.621  -0.332   3.352  0.00  0.00     0.077 C 
ATOM      2  C1' PXY d   1       0.776  -0.482  -1.323  0.00  0.00     0.077 C 
ATOM      3  C1  PXY d   1      -0.122  -0.434  -0.103  0.00  0.00    -0.082 A 
ATOM      4  C2  PXY d   1       0.351  -0.813   1.073  0.00  0.00     0.003 A 
ATOM      5  C3  PXY d   1      -0.457  -0.806   2.181  0.00  0.00     0.003 A 
ATOM      6  C4  PXY d   1      -1.747  -0.355   2.095  0.00  0.00    -0.082 A 
ATOM      7  C5  PXY d   1      -2.234   0.044   0.900  0.00  0.00     0.003 A 
ATOM      8  C6  PXY d   1      -1.410  -0.010  -0.220  0.00  0.00     0.003 A 
ENDROOT
TORSDOF 0
ENDMDL
