MODEL 1
REMARK minimizedAffinity 1.01863956
REMARK minimizedRMSD -1
REMARK  0 active torsions:
REMARK  status: ('A' for Active; 'I' for Inactive)
ROOT
ATOM      1  C4' PXY d   1      -5.669   5.985  -0.376  0.00  0.00     0.077 C 
ATOM      2  C1' PXY d   1      -3.734   5.907   5.070  0.00  0.00     0.077 C 
ATOM      3  C1  PXY d   1      -4.230   5.933   3.638  0.00  0.00    -0.082 A 
ATOM      4  C2  PXY d   1      -5.530   5.982   3.397  0.00  0.00     0.003 A 
ATOM      5  C3  PXY d   1      -5.997   5.974   2.108  0.00  0.00     0.003 A 
ATOM      6  C4  PXY d   1      -5.123   5.968   1.054  0.00  0.00    -0.082 A 
ATOM      7  C5  PXY d   1      -3.795   5.928   1.292  0.00  0.00     0.003 A 
ATOM      8  C6  PXY d   1      -3.342   5.895   2.608  0.00  0.00     0.003 A 
ENDROOT
TORSDOF 0
ENDMDL
