MODEL 1
REMARK minimizedAffinity -4.12998533
REMARK minimizedRMSD -1
REMARK  0 active torsions:
REMARK  status: ('A' for Active; 'I' for Inactive)
ROOT
ATOM      1  C4' PXY d   1      -3.471   0.813   3.387  0.00  0.00     0.077 C 
ATOM      2  C1' PXY d   1      -5.675   5.894   5.040  0.00  0.00     0.077 C 
ATOM      3  C1  PXY d   1      -5.099   4.565   4.594  0.00  0.00    -0.082 A 
ATOM      4  C2  PXY d   1      -5.163   3.520   5.403  0.00  0.00     0.003 A 
ATOM      5  C3  PXY d   1      -4.618   2.318   5.028  0.00  0.00     0.003 A 
ATOM      6  C4  PXY d   1      -4.048   2.172   3.792  0.00  0.00    -0.082 A 
ATOM      7  C5  PXY d   1      -3.988   3.231   2.957  0.00  0.00     0.003 A 
ATOM      8  C6  PXY d   1      -4.510   4.452   3.372  0.00  0.00     0.003 A 
ENDROOT
TORSDOF 0
ENDMDL
