MODEL 1
REMARK minimizedAffinity -3.3600204
REMARK minimizedRMSD -1
REMARK  0 active torsions:
REMARK  status: ('A' for Active; 'I' for Inactive)
ROOT
ATOM      1  C4' PXY d   1      -5.950   5.956   1.054  0.00  0.00     0.077 C 
ATOM      2  C1' PXY d   1      -4.494   3.342   6.000  0.00  0.00     0.077 C 
ATOM      3  C1  PXY d   1      -4.882   4.037   4.710  0.00  0.00    -0.082 A 
ATOM      4  C2  PXY d   1      -4.908   3.350   3.579  0.00  0.00     0.003 A 
ATOM      5  C3  PXY d   1      -5.226   3.970   2.398  0.00  0.00     0.003 A 
ATOM      6  C4  PXY d   1      -5.573   5.294   2.382  0.00  0.00    -0.082 A 
ATOM      7  C5  PXY d   1      -5.560   5.999   3.533  0.00  0.00     0.003 A 
ATOM      8  C6  PXY d   1      -5.194   5.361   4.715  0.00  0.00     0.003 A 
ENDROOT
TORSDOF 0
ENDMDL
