MODEL 1
REMARK minimizedAffinity -2.13834786
REMARK minimizedRMSD -1
REMARK  0 active torsions:
REMARK  status: ('A' for Active; 'I' for Inactive)
ROOT
ATOM      1  C4' PXY d   1      -5.961   5.833   0.742  0.00  0.00     0.077 C 
ATOM      2  C1' PXY d   1      -4.513   3.911   5.998  0.00  0.00     0.077 C 
ATOM      3  C1  PXY d   1      -4.883   4.408   4.614  0.00  0.00    -0.082 A 
ATOM      4  C2  PXY d   1      -5.536   5.551   4.483  0.00  0.00     0.003 A 
ATOM      5  C3  PXY d   1      -5.907   6.000   3.241  0.00  0.00     0.003 A 
ATOM      6  C4  PXY d   1      -5.558   5.297   2.119  0.00  0.00    -0.082 A 
ATOM      7  C5  PXY d   1      -4.883   4.136   2.244  0.00  0.00     0.003 A 
ATOM      8  C6  PXY d   1      -4.552   3.677   3.516  0.00  0.00     0.003 A 
ENDROOT
TORSDOF 0
ENDMDL
