MODEL 1
REMARK minimizedAffinity -1.16352606
REMARK minimizedRMSD -1
REMARK  0 active torsions:
REMARK  status: ('A' for Active; 'I' for Inactive)
ROOT
ATOM      1  C4' PXY d   1      -4.129   4.867   5.959  0.00  0.00     0.077 C 
ATOM      2  C1' PXY d   1      -6.000   4.984   0.491  0.00  0.00     0.077 C 
ATOM      3  C1  PXY d   1      -5.510   4.940   1.925  0.00  0.00    -0.082 A 
ATOM      4  C2  PXY d   1      -5.666   5.999   2.702  0.00  0.00     0.003 A 
ATOM      5  C3  PXY d   1      -5.200   5.988   3.991  0.00  0.00     0.003 A 
ATOM      6  C4  PXY d   1      -4.616   4.863   4.507  0.00  0.00    -0.082 A 
ATOM      7  C5  PXY d   1      -4.463   3.774   3.724  0.00  0.00     0.003 A 
ATOM      8  C6  PXY d   1      -4.905   3.820   2.405  0.00  0.00     0.003 A 
ENDROOT
TORSDOF 0
ENDMDL
