MODEL 1
REMARK minimizedAffinity 6.91411543
REMARK minimizedRMSD -1
REMARK  0 active torsions:
REMARK  status: ('A' for Active; 'I' for Inactive)
ROOT
ATOM      1  C4' PXY d   1       3.548  -1.175   4.471  0.00  0.00     0.077 C 
ATOM      2  C1' PXY d   1      -0.051   3.347   4.366  0.00  0.00     0.077 C 
ATOM      3  C1  PXY d   1       0.903   2.169   4.397  0.00  0.00    -0.082 A 
ATOM      4  C2  PXY d   1       0.607   1.070   3.722  0.00  0.00     0.003 A 
ATOM      5  C3  PXY d   1       1.442  -0.016   3.764  0.00  0.00     0.003 A 
ATOM      6  C4  PXY d   1       2.619   0.042   4.462  0.00  0.00    -0.082 A 
ATOM      7  C5  PXY d   1       2.934   1.164   5.144  0.00  0.00     0.003 A 
ATOM      8  C6  PXY d   1       2.052   2.241   5.121  0.00  0.00     0.003 A 
ENDROOT
TORSDOF 0
ENDMDL
