MODEL 1
REMARK minimizedAffinity -4.56226873
REMARK minimizedRMSD -1
REMARK  0 active torsions:
REMARK  status: ('A' for Active; 'I' for Inactive)
ROOT
ATOM      1  C4' PXY d   1      -4.891   0.122   4.864  0.00  0.00     0.077 C 
ATOM      2  C1' PXY d   1      -4.908   5.549   2.873  0.00  0.00     0.077 C 
ATOM      3  C1  PXY d   1      -4.899   4.130   3.407  0.00  0.00    -0.082 A 
ATOM      4  C2  PXY d   1      -4.786   3.115   2.565  0.00  0.00     0.003 A 
ATOM      5  C3  PXY d   1      -4.809   1.824   3.028  0.00  0.00     0.003 A 
ATOM      6  C4  PXY d   1      -4.895   1.571   4.371  0.00  0.00    -0.082 A 
ATOM      7  C5  PXY d   1      -5.000   2.601   5.237  0.00  0.00     0.003 A 
ATOM      8  C6  PXY d   1      -5.016   3.903   4.743  0.00  0.00     0.003 A 
ENDROOT
TORSDOF 0
ENDMDL
