MODEL 1
REMARK minimizedAffinity -1.58152008
REMARK minimizedRMSD -1
REMARK  0 active torsions:
REMARK  status: ('A' for Active; 'I' for Inactive)
ROOT
ATOM      1  C4' PXY d   1      -4.607   5.556   6.000  0.00  0.00     0.077 C 
ATOM      2  C1' PXY d   1      -5.046   5.980   0.252  0.00  0.00     0.077 C 
ATOM      3  C1  PXY d   1      -4.920   5.862   1.758  0.00  0.00    -0.082 A 
ATOM      4  C2  PXY d   1      -5.998   5.980   2.516  0.00  0.00     0.003 A 
ATOM      5  C3  PXY d   1      -5.897   5.908   3.881  0.00  0.00     0.003 A 
ATOM      6  C4  PXY d   1      -4.688   5.659   4.474  0.00  0.00    -0.082 A 
ATOM      7  C5  PXY d   1      -3.586   5.526   3.707  0.00  0.00     0.003 A 
ATOM      8  C6  PXY d   1      -3.703   5.644   2.325  0.00  0.00     0.003 A 
ENDROOT
TORSDOF 0
ENDMDL
