MODEL 1
REMARK minimizedAffinity -3.15860844
REMARK minimizedRMSD -1
REMARK  1 active torsions:
REMARK  status: ('A' for Active; 'I' for Inactive)
REMARK    1  A    between atoms: C1_2  and  C2_3 
ROOT
ATOM      1  C2  UNL d   1       0.617   1.013   0.572  0.00  0.00    -0.077 A 
ATOM      2  C3  UNL d   1       0.809   1.516   1.866  0.00  0.00     0.002 A 
ATOM      3  C4  UNL d   1       0.024   1.059   2.926  0.00  0.00     0.002 A 
ATOM      4  C5  UNL d   1      -0.956   0.094   2.703  0.00  0.00    -0.004 A 
ATOM      5  C6  UNL d   1      -1.157  -0.411   1.419  0.00  0.00     0.002 A 
ATOM      6  C7  UNL d   1      -0.374   0.046   0.359  0.00  0.00     0.002 A 
ENDROOT
BRANCH   1   7
ATOM      7  C1  UNL d   1       1.496   1.469  -0.563  0.00  0.00     0.055 C 
ATOM      8  C   UNL d   1       2.580   0.445  -0.869  0.00  0.00     0.019 C 
ENDBRANCH   1   7
TORSDOF 1
ENDMDL
