MODEL 1
REMARK minimizedAffinity -2.44553781
REMARK minimizedRMSD -1
REMARK  1 active torsions:
REMARK  status: ('A' for Active; 'I' for Inactive)
REMARK    1  A    between atoms: C1_2  and  C2_3 
ROOT
ATOM      1  C2  UNL d   1      -1.192  -0.957  -1.594  0.00  0.00    -0.077 A 
ATOM      2  C3  UNL d   1      -2.195  -1.752  -1.022  0.00  0.00     0.002 A 
ATOM      3  C4  UNL d   1      -3.271  -2.195  -1.794  0.00  0.00     0.002 A 
ATOM      4  C5  UNL d   1      -3.352  -1.852  -3.142  0.00  0.00    -0.004 A 
ATOM      5  C6  UNL d   1      -2.360  -1.061  -3.719  0.00  0.00     0.002 A 
ATOM      6  C7  UNL d   1      -1.285  -0.615  -2.949  0.00  0.00     0.002 A 
ENDROOT
BRANCH   1   7
ATOM      7  C1  UNL d   1      -0.006  -0.519  -0.776  0.00  0.00     0.055 C 
ATOM      8  C   UNL d   1      -0.421  -0.123   0.634  0.00  0.00     0.019 C 
ENDBRANCH   1   7
TORSDOF 1
ENDMDL
