MODEL 1
REMARK minimizedAffinity -4.41772509
REMARK minimizedRMSD -1
REMARK  1 active torsions:
REMARK  status: ('A' for Active; 'I' for Inactive)
REMARK    1  A    between atoms: C1_2  and  C2_3 
ROOT
ATOM      1  C2  UNL d   1      -0.636  -0.528  -1.093  0.00  0.00    -0.077 A 
ATOM      2  C3  UNL d   1      -0.943  -1.241   0.074  0.00  0.00     0.002 A 
ATOM      3  C4  UNL d   1      -0.695  -0.682   1.329  0.00  0.00     0.002 A 
ATOM      4  C5  UNL d   1      -0.144   0.594   1.429  0.00  0.00    -0.004 A 
ATOM      5  C6  UNL d   1       0.166   1.311   0.274  0.00  0.00     0.002 A 
ATOM      6  C7  UNL d   1      -0.080   0.753  -0.982  0.00  0.00     0.002 A 
ENDROOT
BRANCH   1   7
ATOM      7  C1  UNL d   1      -0.948  -1.109  -2.447  0.00  0.00     0.055 C 
ATOM      8  C   UNL d   1      -2.446  -1.299  -2.637  0.00  0.00     0.019 C 
ENDBRANCH   1   7
TORSDOF 1
ENDMDL
