MODEL 1
REMARK minimizedAffinity -3.33770442
REMARK minimizedRMSD -1
REMARK  1 active torsions:
REMARK  status: ('A' for Active; 'I' for Inactive)
REMARK    1  A    between atoms: C1_2  and  C2_3 
ROOT
ATOM      1  C2  UNL d   1       0.314   0.070   0.102  0.00  0.00    -0.077 A 
ATOM      2  C3  UNL d   1       1.038   1.139  -0.446  0.00  0.00     0.002 A 
ATOM      3  C4  UNL d   1       1.155   2.344   0.250  0.00  0.00     0.002 A 
ATOM      4  C5  UNL d   1       0.553   2.490   1.498  0.00  0.00    -0.004 A 
ATOM      5  C6  UNL d   1      -0.171   1.434   2.050  0.00  0.00     0.002 A 
ATOM      6  C7  UNL d   1      -0.289   0.230   1.356  0.00  0.00     0.002 A 
ENDROOT
BRANCH   1   7
ATOM      7  C1  UNL d   1       0.229  -1.246  -0.625  0.00  0.00     0.055 C 
ATOM      8  C   UNL d   1      -1.053  -1.348  -1.439  0.00  0.00     0.019 C 
ENDBRANCH   1   7
TORSDOF 1
ENDMDL
