MODEL 1
REMARK minimizedAffinity -2.87279248
REMARK minimizedRMSD -1
REMARK  1 active torsions:
REMARK  status: ('A' for Active; 'I' for Inactive)
REMARK    1  A    between atoms: C1_2  and  C2_3 
ROOT
ATOM      1  C2  UNL d   1      -0.320  -0.546  -0.090  0.00  0.00    -0.077 A 
ATOM      2  C3  UNL d   1       0.202   0.754  -0.036  0.00  0.00     0.002 A 
ATOM      3  C4  UNL d   1      -0.072   1.580   1.056  0.00  0.00     0.002 A 
ATOM      4  C5  UNL d   1      -0.865   1.115   2.103  0.00  0.00    -0.004 A 
ATOM      5  C6  UNL d   1      -1.391  -0.176   2.057  0.00  0.00     0.002 A 
ATOM      6  C7  UNL d   1      -1.119  -1.003   0.966  0.00  0.00     0.002 A 
ENDROOT
BRANCH   1   7
ATOM      7  C1  UNL d   1       0.015  -1.456  -1.243  0.00  0.00     0.055 C 
ATOM      8  C   UNL d   1      -1.110  -1.488  -2.267  0.00  0.00     0.019 C 
ENDBRANCH   1   7
TORSDOF 1
ENDMDL
