MODEL 1
REMARK minimizedAffinity -3.94095254
REMARK minimizedRMSD -1
REMARK  1 active torsions:
REMARK  status: ('A' for Active; 'I' for Inactive)
REMARK    1  A    between atoms: C1_2  and  C2_3 
ROOT
ATOM      1  C2  UNL d   1       0.346   0.163   0.270  0.00  0.00    -0.077 A 
ATOM      2  C3  UNL d   1       1.050   1.201  -0.356  0.00  0.00     0.002 A 
ATOM      3  C4  UNL d   1       1.361   2.367   0.347  0.00  0.00     0.002 A 
ATOM      4  C5  UNL d   1       0.975   2.504   1.678  0.00  0.00    -0.004 A 
ATOM      5  C6  UNL d   1       0.273   1.478   2.309  0.00  0.00     0.002 A 
ATOM      6  C7  UNL d   1      -0.040   0.312   1.608  0.00  0.00     0.002 A 
ENDROOT
BRANCH   1   7
ATOM      7  C1  UNL d   1       0.053  -1.116  -0.471  0.00  0.00     0.055 C 
ATOM      8  C   UNL d   1      -1.433  -1.254  -0.771  0.00  0.00     0.019 C 
ENDBRANCH   1   7
TORSDOF 1
ENDMDL
