MODEL 1
REMARK minimizedAffinity -2.30740714
REMARK minimizedRMSD -1
REMARK  1 active torsions:
REMARK  status: ('A' for Active; 'I' for Inactive)
REMARK    1  A    between atoms: C1_2  and  C2_3 
ROOT
ATOM      1  C2  UNL d   1      -0.450  -0.710  -0.164  0.00  0.00    -0.077 A 
ATOM      2  C3  UNL d   1       0.820  -0.537  -0.732  0.00  0.00     0.002 A 
ATOM      3  C4  UNL d   1       1.725   0.368  -0.174  0.00  0.00     0.002 A 
ATOM      4  C5  UNL d   1       1.372   1.103   0.956  0.00  0.00    -0.004 A 
ATOM      5  C6  UNL d   1       0.110   0.939   1.527  0.00  0.00     0.002 A 
ATOM      6  C7  UNL d   1      -0.796   0.036   0.970  0.00  0.00     0.002 A 
ENDROOT
BRANCH   1   7
ATOM      7  C1  UNL d   1      -1.410  -1.721  -0.735  0.00  0.00     0.055 C 
ATOM      8  C   UNL d   1      -1.695  -1.445  -2.205  0.00  0.00     0.019 C 
ENDBRANCH   1   7
TORSDOF 1
ENDMDL
