MODEL 1
REMARK minimizedAffinity 2.40854692
REMARK minimizedRMSD -1
REMARK  1 active torsions:
REMARK  status: ('A' for Active; 'I' for Inactive)
REMARK    1  A    between atoms: C1_2  and  C2_3 
ROOT
ATOM      1  C2  UNL d   1      -2.037  -1.410  -0.974  0.00  0.00    -0.077 A 
ATOM      2  C3  UNL d   1      -2.756  -2.596  -0.770  0.00  0.00     0.002 A 
ATOM      3  C4  UNL d   1      -3.663  -3.046  -1.732  0.00  0.00     0.002 A 
ATOM      4  C5  UNL d   1      -3.856  -2.319  -2.904  0.00  0.00    -0.004 A 
ATOM      5  C6  UNL d   1      -3.147  -1.137  -3.116  0.00  0.00     0.002 A 
ATOM      6  C7  UNL d   1      -2.241  -0.685  -2.156  0.00  0.00     0.002 A 
ENDROOT
BRANCH   1   7
ATOM      7  C1  UNL d   1      -1.022  -0.948   0.039  0.00  0.00     0.055 C 
ATOM      8  C   UNL d   1      -1.696  -0.363   1.271  0.00  0.00     0.019 C 
ENDBRANCH   1   7
TORSDOF 1
ENDMDL
