MODEL 1
REMARK minimizedAffinity -2.25334644
REMARK minimizedRMSD -1
REMARK  1 active torsions:
REMARK  status: ('A' for Active; 'I' for Inactive)
REMARK    1  A    between atoms: C1_2  and  C2_3 
ROOT
ATOM      1  C2  UNL d   1      -4.096  -2.454  -2.013  0.00  0.00    -0.077 A 
ATOM      2  C3  UNL d   1      -2.952  -2.661  -1.230  0.00  0.00     0.002 A 
ATOM      3  C4  UNL d   1      -1.729  -2.098  -1.602  0.00  0.00     0.002 A 
ATOM      4  C5  UNL d   1      -1.641  -1.321  -2.755  0.00  0.00    -0.004 A 
ATOM      5  C6  UNL d   1      -2.772  -1.111  -3.542  0.00  0.00     0.002 A 
ATOM      6  C7  UNL d   1      -3.995  -1.674  -3.172  0.00  0.00     0.002 A 
ENDROOT
BRANCH   1   7
ATOM      7  C1  UNL d   1      -5.425  -3.019  -1.587  0.00  0.00     0.055 C 
ATOM      8  C   UNL d   1      -5.280  -3.915  -0.365  0.00  0.00     0.019 C 
ENDBRANCH   1   7
TORSDOF 1
ENDMDL
