MODEL 1
REMARK minimizedAffinity -6.50961304
REMARK minimizedRMSD -1
REMARK  1 active torsions:
REMARK  status: ('A' for Active; 'I' for Inactive)
REMARK    1  A    between atoms: C1_2  and  C2_3 
ROOT
ATOM      1  C2  UNL d   1       1.331   1.500   0.912  0.00  0.00    -0.077 A 
ATOM      2  C3  UNL d   1       0.465   2.120   1.824  0.00  0.00     0.002 A 
ATOM      3  C4  UNL d   1      -0.807   1.596   2.058  0.00  0.00     0.002 A 
ATOM      4  C5  UNL d   1      -1.223   0.447   1.388  0.00  0.00    -0.004 A 
ATOM      5  C6  UNL d   1      -0.370  -0.175   0.478  0.00  0.00     0.002 A 
ATOM      6  C7  UNL d   1       0.901   0.348   0.241  0.00  0.00     0.002 A 
ENDROOT
BRANCH   1   7
ATOM      7  C1  UNL d   1       2.722   2.036   0.694  0.00  0.00     0.055 C 
ATOM      8  C   UNL d   1       3.686   0.928   0.296  0.00  0.00     0.019 C 
ENDBRANCH   1   7
TORSDOF 1
ENDMDL
