MODEL 1
REMARK minimizedAffinity -2.38871813
REMARK minimizedRMSD -1
REMARK  2 active torsions:
REMARK  status: ('A' for Active; 'I' for Inactive)
REMARK    1  A    between atoms: C2'_3  and  C1'_4 
REMARK    2  A    between atoms: C1'_4  and  C1_5 
ROOT
ATOM      1  C1  I4B d   1      -0.249  -0.597  -0.661  0.00  0.00    -0.075 A 
ATOM      2  C2  I4B d   1       1.076  -0.911  -0.838  0.00  0.00     0.003 A 
ATOM      3  C3  I4B d   1       2.081   0.036  -0.523  0.00  0.00     0.002 A 
ATOM      4  C4  I4B d   1       1.717   1.293  -0.086  0.00  0.00    -0.004 A 
ATOM      5  C5  I4B d   1       0.375   1.602   0.115  0.00  0.00     0.002 A 
ATOM      6  C6  I4B d   1      -0.614   0.647  -0.163  0.00  0.00     0.003 A 
ENDROOT
BRANCH   1   7
ATOM      7  C1' I4B d   1      -1.285  -1.609  -1.034  0.00  0.00     0.060 C 
BRANCH   7   8
ATOM      8  C2' I4B d   1      -2.058  -1.069  -2.221  0.00  0.00    -0.013 C 
ATOM      9  C4' I4B d   1      -1.193  -1.007  -3.452  0.00  0.00     0.013 C 
ATOM     10  C3' I4B d   1      -3.248  -1.955  -2.440  0.00  0.00     0.013 C 
ENDBRANCH   7   8
ENDBRANCH   1   7
TORSDOF 2
ENDMDL
