MODEL 1
REMARK minimizedAffinity -2.99243903
REMARK minimizedRMSD -1
REMARK  2 active torsions:
REMARK  status: ('A' for Active; 'I' for Inactive)
REMARK    1  A    between atoms: C2'_3  and  C1'_4 
REMARK    2  A    between atoms: C1'_4  and  C1_5 
ROOT
ATOM      1  C1  I4B d   1       0.063  -0.223  -0.317  0.00  0.00    -0.075 A 
ATOM      2  C2  I4B d   1      -1.022   0.138   0.442  0.00  0.00     0.003 A 
ATOM      3  C3  I4B d   1      -0.919   1.199   1.374  0.00  0.00     0.002 A 
ATOM      4  C4  I4B d   1       0.294   1.834   1.550  0.00  0.00    -0.004 A 
ATOM      5  C5  I4B d   1       1.387   1.482   0.763  0.00  0.00     0.002 A 
ATOM      6  C6  I4B d   1       1.268   0.455  -0.185  0.00  0.00     0.003 A 
ENDROOT
BRANCH   1   7
ATOM      7  C1' I4B d   1      -0.072  -1.369  -1.268  0.00  0.00     0.060 C 
BRANCH   7   8
ATOM      8  C2' I4B d   1      -1.295  -1.121  -2.127  0.00  0.00    -0.013 C 
ATOM      9  C4' I4B d   1      -0.940  -1.110  -3.591  0.00  0.00     0.013 C 
ATOM     10  C3' I4B d   1      -2.300  -2.192  -1.822  0.00  0.00     0.013 C 
ENDBRANCH   7   8
ENDBRANCH   1   7
TORSDOF 2
ENDMDL
