MODEL 1
REMARK minimizedAffinity -4.45336485
REMARK minimizedRMSD -1
REMARK  2 active torsions:
REMARK  status: ('A' for Active; 'I' for Inactive)
REMARK    1  A    between atoms: C2'_3  and  C1'_4 
REMARK    2  A    between atoms: C1'_4  and  C1_5 
ROOT
ATOM      1  C1  I4B d   1      -0.517  -0.631  -0.277  0.00  0.00    -0.075 A 
ATOM      2  C2  I4B d   1       0.813  -0.499  -0.589  0.00  0.00     0.003 A 
ATOM      3  C3  I4B d   1       1.605   0.476   0.065  0.00  0.00     0.002 A 
ATOM      4  C4  I4B d   1       1.018   1.325   0.981  0.00  0.00    -0.004 A 
ATOM      5  C5  I4B d   1      -0.325   1.174   1.313  0.00  0.00     0.002 A 
ATOM      6  C6  I4B d   1      -1.095   0.182   0.689  0.00  0.00     0.003 A 
ENDROOT
BRANCH   1   7
ATOM      7  C1' I4B d   1      -1.332  -1.649  -1.010  0.00  0.00     0.060 C 
BRANCH   7   8
ATOM      8  C2' I4B d   1      -1.745  -1.048  -2.338  0.00  0.00    -0.013 C 
ATOM      9  C4' I4B d   1      -0.953  -1.639  -3.474  0.00  0.00     0.013 C 
ATOM     10  C3' I4B d   1      -3.214  -1.289  -2.518  0.00  0.00     0.013 C 
ENDBRANCH   7   8
ENDBRANCH   1   7
TORSDOF 2
ENDMDL
