MODEL 1
REMARK minimizedAffinity -6.50240612
REMARK minimizedRMSD -1
REMARK  2 active torsions:
REMARK  status: ('A' for Active; 'I' for Inactive)
REMARK    1  A    between atoms: C2'_3  and  C1'_4 
REMARK    2  A    between atoms: C1'_4  and  C1_5 
ROOT
ATOM      1  C1  I4B d   1      -0.670  -0.436  -1.059  0.00  0.00    -0.075 A 
ATOM      2  C2  I4B d   1      -1.044  -1.753  -0.953  0.00  0.00     0.003 A 
ATOM      3  C3  I4B d   1      -1.914  -2.326  -1.912  0.00  0.00     0.002 A 
ATOM      4  C4  I4B d   1      -2.423  -1.539  -2.924  0.00  0.00    -0.004 A 
ATOM      5  C5  I4B d   1      -2.026  -0.210  -3.043  0.00  0.00     0.002 A 
ATOM      6  C6  I4B d   1      -1.134   0.342  -2.111  0.00  0.00     0.003 A 
ENDROOT
BRANCH   1   7
ATOM      7  C1' I4B d   1       0.224   0.146  -0.010  0.00  0.00     0.060 C 
BRANCH   7   8
ATOM      8  C2' I4B d   1      -0.508   1.305   0.636  0.00  0.00    -0.013 C 
ATOM      9  C4' I4B d   1      -1.298   0.851   1.835  0.00  0.00     0.013 C 
ATOM     10  C3' I4B d   1       0.509   2.339   1.019  0.00  0.00     0.013 C 
ENDBRANCH   7   8
ENDBRANCH   1   7
TORSDOF 2
ENDMDL
