MODEL 1
REMARK minimizedAffinity -0.562006712
REMARK minimizedRMSD -1
REMARK  2 active torsions:
REMARK  status: ('A' for Active; 'I' for Inactive)
REMARK    1  A    between atoms: C2'_3  and  C1'_4 
REMARK    2  A    between atoms: C1'_4  and  C1_5 
ROOT
ATOM      1  C1  I4B d   1      -0.583  -0.172  -0.183  0.00  0.00    -0.075 A 
ATOM      2  C2  I4B d   1      -0.970   0.194   1.082  0.00  0.00     0.003 A 
ATOM      3  C3  I4B d   1      -0.262   1.201   1.781  0.00  0.00     0.002 A 
ATOM      4  C4  I4B d   1       0.851   1.776   1.202  0.00  0.00    -0.004 A 
ATOM      5  C5  I4B d   1       1.228   1.421  -0.090  0.00  0.00     0.002 A 
ATOM      6  C6  I4B d   1       0.500   0.449  -0.792  0.00  0.00     0.003 A 
ENDROOT
BRANCH   1   7
ATOM      7  C1' I4B d   1      -1.333  -1.262  -0.879  0.00  0.00     0.060 C 
BRANCH   7   8
ATOM      8  C2' I4B d   1      -1.775  -0.736  -2.230  0.00  0.00    -0.013 C 
ATOM      9  C4' I4B d   1      -0.732  -0.995  -3.284  0.00  0.00     0.013 C 
ATOM     10  C3' I4B d   1      -3.075  -1.396  -2.581  0.00  0.00     0.013 C 
ENDBRANCH   7   8
ENDBRANCH   1   7
TORSDOF 2
ENDMDL
