MODEL 1
REMARK minimizedAffinity -3.8795414
REMARK minimizedRMSD -1
REMARK  2 active torsions:
REMARK  status: ('A' for Active; 'I' for Inactive)
REMARK    1  A    between atoms: C2'_3  and  C1'_4 
REMARK    2  A    between atoms: C1'_4  and  C1_5 
ROOT
ATOM      1  C1  I4B d   1      -1.035  -0.579  -0.849  0.00  0.00    -0.075 A 
ATOM      2  C2  I4B d   1      -1.537   0.308  -1.767  0.00  0.00     0.003 A 
ATOM      3  C3  I4B d   1      -2.281  -0.160  -2.878  0.00  0.00     0.002 A 
ATOM      4  C4  I4B d   1      -2.453  -1.518  -3.056  0.00  0.00    -0.004 A 
ATOM      5  C5  I4B d   1      -1.963  -2.415  -2.111  0.00  0.00     0.002 A 
ATOM      6  C6  I4B d   1      -1.259  -1.942  -0.994  0.00  0.00     0.003 A 
ENDROOT
BRANCH   1   7
ATOM      7  C1' I4B d   1      -0.226  -0.052   0.294  0.00  0.00     0.060 C 
BRANCH   7   8
ATOM      8  C2' I4B d   1       0.967   0.685  -0.279  0.00  0.00    -0.013 C 
ATOM      9  C4' I4B d   1       1.414   1.794   0.636  0.00  0.00     0.013 C 
ATOM     10  C3' I4B d   1       2.066  -0.312  -0.497  0.00  0.00     0.013 C 
ENDBRANCH   7   8
ENDBRANCH   1   7
TORSDOF 2
ENDMDL
