MODEL 1
REMARK minimizedAffinity -5.34071207
REMARK minimizedRMSD -1
REMARK  2 active torsions:
REMARK  status: ('A' for Active; 'I' for Inactive)
REMARK    1  A    between atoms: C2'_3  and  C1'_4 
REMARK    2  A    between atoms: C1'_4  and  C1_5 
ROOT
ATOM      1  C1  I4B d   1       0.125   0.101  -0.198  0.00  0.00    -0.075 A 
ATOM      2  C2  I4B d   1      -0.453   0.055   1.046  0.00  0.00     0.003 A 
ATOM      3  C3  I4B d   1      -0.389   1.179   1.904  0.00  0.00     0.002 A 
ATOM      4  C4  I4B d   1       0.303   2.303   1.501  0.00  0.00    -0.004 A 
ATOM      5  C5  I4B d   1       0.869   2.357   0.231  0.00  0.00     0.002 A 
ATOM      6  C6  I4B d   1       0.770   1.253  -0.629  0.00  0.00     0.003 A 
ENDROOT
BRANCH   1   7
ATOM      7  C1' I4B d   1       0.067  -1.116  -1.066  0.00  0.00     0.060 C 
BRANCH   7   8
ATOM      8  C2' I4B d   1      -1.345  -1.240  -1.600  0.00  0.00    -0.013 C 
ATOM      9  C4' I4B d   1      -1.377  -1.086  -3.098  0.00  0.00     0.013 C 
ATOM     10  C3' I4B d   1      -1.883  -2.576  -1.182  0.00  0.00     0.013 C 
ENDBRANCH   7   8
ENDBRANCH   1   7
TORSDOF 2
ENDMDL
