MODEL 1
REMARK minimizedAffinity -1.68353176
REMARK minimizedRMSD -1
REMARK  2 active torsions:
REMARK  status: ('A' for Active; 'I' for Inactive)
REMARK    1  A    between atoms: C2'_3  and  C1'_4 
REMARK    2  A    between atoms: C1'_4  and  C1_5 
ROOT
ATOM      1  C1  I4B d   1      -0.328  -0.372  -0.226  0.00  0.00    -0.075 A 
ATOM      2  C2  I4B d   1       0.733   0.406  -0.617  0.00  0.00     0.003 A 
ATOM      3  C3  I4B d   1       1.042   1.595   0.087  0.00  0.00     0.002 A 
ATOM      4  C4  I4B d   1       0.238   1.993   1.135  0.00  0.00    -0.004 A 
ATOM      5  C5  I4B d   1      -0.824   1.191   1.544  0.00  0.00     0.002 A 
ATOM      6  C6  I4B d   1      -1.102  -0.006   0.867  0.00  0.00     0.003 A 
ENDROOT
BRANCH   1   7
ATOM      7  C1' I4B d   1      -0.645  -1.605  -1.012  0.00  0.00     0.060 C 
BRANCH   7   8
ATOM      8  C2' I4B d   1      -2.017  -1.425  -1.630  0.00  0.00    -0.013 C 
ATOM      9  C4' I4B d   1      -1.923  -1.234  -3.120  0.00  0.00     0.013 C 
ATOM     10  C3' I4B d   1      -2.840  -2.632  -1.289  0.00  0.00     0.013 C 
ENDBRANCH   7   8
ENDBRANCH   1   7
TORSDOF 2
ENDMDL
