MODEL 1
REMARK minimizedAffinity -4.65866375
REMARK minimizedRMSD -1
REMARK  2 active torsions:
REMARK  status: ('A' for Active; 'I' for Inactive)
REMARK    1  A    between atoms: C2'_3  and  C1'_4 
REMARK    2  A    between atoms: C1'_4  and  C1_5 
ROOT
ATOM      1  C1  I4B d   1      -0.106   0.030  -0.182  0.00  0.00    -0.075 A 
ATOM      2  C2  I4B d   1      -0.833   0.084   0.981  0.00  0.00     0.003 A 
ATOM      3  C3  I4B d   1      -0.738   1.214   1.828  0.00  0.00     0.002 A 
ATOM      4  C4  I4B d   1       0.128   2.238   1.502  0.00  0.00    -0.004 A 
ATOM      5  C5  I4B d   1       0.847   2.191   0.311  0.00  0.00     0.002 A 
ATOM      6  C6  I4B d   1       0.720   1.086  -0.543  0.00  0.00     0.003 A 
ENDROOT
BRANCH   1   7
ATOM      7  C1' I4B d   1      -0.206  -1.194  -1.037  0.00  0.00     0.060 C 
BRANCH   7   8
ATOM      8  C2' I4B d   1      -1.586  -1.215  -1.662  0.00  0.00    -0.013 C 
ATOM      9  C4' I4B d   1      -1.503  -1.202  -3.166  0.00  0.00     0.013 C 
ATOM     10  C3' I4B d   1      -2.298  -2.440  -1.170  0.00  0.00     0.013 C 
ENDBRANCH   7   8
ENDBRANCH   1   7
TORSDOF 2
ENDMDL
