MODEL 1
REMARK minimizedAffinity -2.88671303
REMARK minimizedRMSD -1
REMARK  2 active torsions:
REMARK  status: ('A' for Active; 'I' for Inactive)
REMARK    1  A    between atoms: C2'_3  and  C1'_4 
REMARK    2  A    between atoms: C1'_4  and  C1_5 
ROOT
ATOM      1  C1  I4B d   1      -0.295  -0.293  -0.143  0.00  0.00    -0.075 A 
ATOM      2  C2  I4B d   1       1.077  -0.290  -0.116  0.00  0.00     0.003 A 
ATOM      3  C3  I4B d   1       1.777   0.826   0.404  0.00  0.00     0.002 A 
ATOM      4  C4  I4B d   1       1.071   1.930   0.837  0.00  0.00    -0.004 A 
ATOM      5  C5  I4B d   1      -0.321   1.915   0.831  0.00  0.00     0.002 A 
ATOM      6  C6  I4B d   1      -1.009   0.792   0.349  0.00  0.00     0.003 A 
ENDROOT
BRANCH   1   7
ATOM      7  C1' I4B d   1      -1.002  -1.474  -0.729  0.00  0.00     0.060 C 
BRANCH   7   8
ATOM      8  C2' I4B d   1      -1.813  -0.991  -1.914  0.00  0.00    -0.013 C 
ATOM      9  C4' I4B d   1      -1.018  -1.074  -3.190  0.00  0.00     0.013 C 
ATOM     10  C3' I4B d   1      -3.056  -1.827  -1.995  0.00  0.00     0.013 C 
ENDBRANCH   7   8
ENDBRANCH   1   7
TORSDOF 2
ENDMDL
