MODEL 1
REMARK minimizedAffinity -5.47017622
REMARK minimizedRMSD -1
REMARK  2 active torsions:
REMARK  status: ('A' for Active; 'I' for Inactive)
REMARK    1  A    between atoms: C2'_3  and  C1'_4 
REMARK    2  A    between atoms: C1'_4  and  C1_5 
ROOT
ATOM      1  C1  I4B d   1       1.426   1.588   0.179  0.00  0.00    -0.075 A 
ATOM      2  C2  I4B d   1       2.791   1.702   0.090  0.00  0.00     0.003 A 
ATOM      3  C3  I4B d   1       3.571   0.604  -0.347  0.00  0.00     0.002 A 
ATOM      4  C4  I4B d   1       2.954  -0.596  -0.634  0.00  0.00    -0.004 A 
ATOM      5  C5  I4B d   1       1.568  -0.703  -0.565  0.00  0.00     0.002 A 
ATOM      6  C6  I4B d   1       0.798   0.399  -0.168  0.00  0.00     0.003 A 
ENDROOT
BRANCH   1   7
ATOM      7  C1' I4B d   1       0.636   2.757   0.676  0.00  0.00     0.060 C 
BRANCH   7   8
ATOM      8  C2' I4B d   1      -0.043   2.347   1.967  0.00  0.00    -0.013 C 
ATOM      9  C4' I4B d   1      -1.101   1.304   1.719  0.00  0.00     0.013 C 
ATOM     10  C3' I4B d   1       1.012   1.837   2.903  0.00  0.00     0.013 C 
ENDBRANCH   7   8
ENDBRANCH   1   7
TORSDOF 2
ENDMDL
