MODEL 1
REMARK minimizedAffinity -1.76375842
REMARK minimizedRMSD -1
REMARK  1 active torsions:
REMARK  status: ('A' for Active; 'I' for Inactive)
REMARK    1  A    between atoms: C1_2  and  C2_3 
ROOT
ATOM      1  C2  UNL d   1       1.327   0.666   0.046  0.00  0.00    -0.081 A 
ATOM      2  C3  UNL d   1       0.975  -0.416   0.862  0.00  0.00     0.006 A 
ATOM      3  C4  UNL d   1      -0.206  -1.124   0.628  0.00  0.00     0.002 A 
ATOM      4  C5  UNL d   1      -1.051  -0.767  -0.429  0.00  0.00    -0.080 A 
ATOM      5  C6  UNL d   1      -2.306  -1.538  -0.709  0.00  0.00     0.076 C 
ATOM      6  C7  UNL d   1      -0.708   0.325  -1.233  0.00  0.00     0.002 A 
ATOM      7  C8  UNL d   1       0.473   1.034  -1.000  0.00  0.00     0.006 A 
ENDROOT
BRANCH   1   8
ATOM      8  C1  UNL d   1       2.632   1.391   0.255  0.00  0.00     0.054 C 
ATOM      9  C   UNL d   1       2.498   2.478   1.312  0.00  0.00     0.018 C 
ENDBRANCH   1   8
TORSDOF 1
ENDMDL
