MODEL 1
REMARK minimizedAffinity -3.36461496
REMARK minimizedRMSD -1
REMARK  1 active torsions:
REMARK  status: ('A' for Active; 'I' for Inactive)
REMARK    1  A    between atoms: C1_2  and  C2_3 
ROOT
ATOM      1  C2  UNL d   1      -0.947  -1.385   0.728  0.00  0.00    -0.081 A 
ATOM      2  C3  UNL d   1      -2.089  -1.199  -0.061  0.00  0.00     0.006 A 
ATOM      3  C4  UNL d   1      -2.033  -0.411  -1.213  0.00  0.00     0.002 A 
ATOM      4  C5  UNL d   1      -0.834   0.198  -1.599  0.00  0.00    -0.080 A 
ATOM      5  C6  UNL d   1      -0.754   1.022  -2.850  0.00  0.00     0.076 C 
ATOM      6  C7  UNL d   1       0.302   0.026  -0.802  0.00  0.00     0.002 A 
ATOM      7  C8  UNL d   1       0.247  -0.761   0.350  0.00  0.00     0.006 A 
ENDROOT
BRANCH   1   8
ATOM      8  C1  UNL d   1      -0.987  -2.287   1.935  0.00  0.00     0.054 C 
ATOM      9  C   UNL d   1       0.382  -2.883   2.227  0.00  0.00     0.018 C 
ENDBRANCH   1   8
TORSDOF 1
ENDMDL
