MODEL 1
REMARK minimizedAffinity -2.8737824
REMARK minimizedRMSD -1
REMARK  1 active torsions:
REMARK  status: ('A' for Active; 'I' for Inactive)
REMARK    1  A    between atoms: C1_2  and  C2_3 
ROOT
ATOM      1  C2  UNL d   1       1.596   1.447   0.223  0.00  0.00    -0.081 A 
ATOM      2  C3  UNL d   1       1.187   2.412   1.152  0.00  0.00     0.006 A 
ATOM      3  C4  UNL d   1       2.017   3.491   1.465  0.00  0.00     0.002 A 
ATOM      4  C5  UNL d   1       3.267   3.627   0.850  0.00  0.00    -0.080 A 
ATOM      5  C6  UNL d   1       4.155   4.796   1.155  0.00  0.00     0.076 C 
ATOM      6  C7  UNL d   1       3.683   2.654  -0.065  0.00  0.00     0.002 A 
ATOM      7  C8  UNL d   1       2.853   1.575  -0.378  0.00  0.00     0.006 A 
ENDROOT
BRANCH   1   8
ATOM      8  C1  UNL d   1       0.676   0.318  -0.165  0.00  0.00     0.054 C 
ATOM      9  C   UNL d   1      -0.277   0.738  -1.275  0.00  0.00     0.018 C 
ENDBRANCH   1   8
TORSDOF 1
ENDMDL
