MODEL 1
REMARK minimizedAffinity -2.68107009
REMARK minimizedRMSD -1
REMARK  1 active torsions:
REMARK  status: ('A' for Active; 'I' for Inactive)
REMARK    1  A    between atoms: C1_2  and  C2_3 
ROOT
ATOM      1  C2  UNL d   1       1.267   1.211   0.167  0.00  0.00    -0.081 A 
ATOM      2  C3  UNL d   1       1.045  -0.074   0.678  0.00  0.00     0.006 A 
ATOM      3  C4  UNL d   1      -0.002  -0.859   0.190  0.00  0.00     0.002 A 
ATOM      4  C5  UNL d   1      -0.839  -0.376  -0.822  0.00  0.00    -0.080 A 
ATOM      5  C6  UNL d   1      -1.948  -1.220  -1.376  0.00  0.00     0.076 C 
ATOM      6  C7  UNL d   1      -0.628   0.914  -1.320  0.00  0.00     0.002 A 
ATOM      7  C8  UNL d   1       0.418   1.700  -0.832  0.00  0.00     0.006 A 
ENDROOT
BRANCH   1   8
ATOM      8  C1  UNL d   1       2.435   2.035   0.645  0.00  0.00     0.054 C 
ATOM      9  C   UNL d   1       2.200   2.562   2.053  0.00  0.00     0.018 C 
ENDBRANCH   1   8
TORSDOF 1
ENDMDL
