MODEL 1
REMARK minimizedAffinity -2.26887488
REMARK minimizedRMSD -1
REMARK  1 active torsions:
REMARK  status: ('A' for Active; 'I' for Inactive)
REMARK    1  A    between atoms: C1_2  and  C2_3 
ROOT
ATOM      1  C2  UNL d   1       1.264   0.886  -0.369  0.00  0.00    -0.081 A 
ATOM      2  C3  UNL d   1       0.540   1.200  -1.526  0.00  0.00     0.006 A 
ATOM      3  C4  UNL d   1      -0.667   0.553  -1.803  0.00  0.00     0.002 A 
ATOM      4  C5  UNL d   1      -1.173  -0.411  -0.925  0.00  0.00    -0.080 A 
ATOM      5  C6  UNL d   1      -2.483  -1.091  -1.196  0.00  0.00     0.076 C 
ATOM      6  C7  UNL d   1      -0.441  -0.737   0.221  0.00  0.00     0.002 A 
ATOM      7  C8  UNL d   1       0.766  -0.092   0.499  0.00  0.00     0.006 A 
ENDROOT
BRANCH   1   8
ATOM      8  C1  UNL d   1       2.533   1.627  -0.035  0.00  0.00     0.054 C 
ATOM      9  C   UNL d   1       2.317   2.607   1.109  0.00  0.00     0.018 C 
ENDBRANCH   1   8
TORSDOF 1
ENDMDL
