MODEL 1
REMARK minimizedAffinity -3.66491866
REMARK minimizedRMSD -1
REMARK  1 active torsions:
REMARK  status: ('A' for Active; 'I' for Inactive)
REMARK    1  A    between atoms: C1_2  and  C2_3 
ROOT
ATOM      1  C2  UNL d   1       0.445   0.121   0.057  0.00  0.00    -0.081 A 
ATOM      2  C3  UNL d   1       0.225  -1.054   0.786  0.00  0.00     0.006 A 
ATOM      3  C4  UNL d   1      -0.960  -1.776   0.624  0.00  0.00     0.002 A 
ATOM      4  C5  UNL d   1      -1.940  -1.340  -0.275  0.00  0.00    -0.080 A 
ATOM      5  C6  UNL d   1      -3.203  -2.122  -0.480  0.00  0.00     0.076 C 
ATOM      6  C7  UNL d   1      -1.727  -0.157  -0.990  0.00  0.00     0.002 A 
ATOM      7  C8  UNL d   1      -0.543   0.566  -0.828  0.00  0.00     0.006 A 
ENDROOT
BRANCH   1   8
ATOM      8  C1  UNL d   1       1.749   0.866   0.181  0.00  0.00     0.054 C 
ATOM      9  C   UNL d   1       1.725   1.830   1.359  0.00  0.00     0.018 C 
ENDBRANCH   1   8
TORSDOF 1
ENDMDL
