MODEL 1
REMARK minimizedAffinity -4.02045107
REMARK minimizedRMSD -1
REMARK  1 active torsions:
REMARK  status: ('A' for Active; 'I' for Inactive)
REMARK    1  A    between atoms: C1_2  and  C2_3 
ROOT
ATOM      1  C2  UNL d   1       1.197   1.016   0.009  0.00  0.00    -0.081 A 
ATOM      2  C3  UNL d   1       0.402   1.430  -1.067  0.00  0.00     0.006 A 
ATOM      3  C4  UNL d   1      -0.799   0.777  -1.353  0.00  0.00     0.002 A 
ATOM      4  C5  UNL d   1      -1.230  -0.295  -0.564  0.00  0.00    -0.080 A 
ATOM      5  C6  UNL d   1      -2.532  -0.985  -0.842  0.00  0.00     0.076 C 
ATOM      6  C7  UNL d   1      -0.427  -0.720   0.500  0.00  0.00     0.002 A 
ATOM      7  C8  UNL d   1       0.774  -0.068   0.786  0.00  0.00     0.006 A 
ENDROOT
BRANCH   1   8
ATOM      8  C1  UNL d   1       2.461   1.758   0.359  0.00  0.00     0.054 C 
ATOM      9  C   UNL d   1       2.166   3.200   0.749  0.00  0.00     0.018 C 
ENDBRANCH   1   8
TORSDOF 1
ENDMDL
