MODEL 1
REMARK minimizedAffinity -0.948180318
REMARK minimizedRMSD -1
REMARK  1 active torsions:
REMARK  status: ('A' for Active; 'I' for Inactive)
REMARK    1  A    between atoms: C1_2  and  C2_3 
ROOT
ATOM      1  C2  UNL d   1       1.045   0.709  -0.073  0.00  0.00    -0.081 A 
ATOM      2  C3  UNL d   1       0.830  -0.335   0.835  0.00  0.00     0.006 A 
ATOM      3  C4  UNL d   1      -0.325  -1.117   0.755  0.00  0.00     0.002 A 
ATOM      4  C5  UNL d   1      -1.279  -0.873  -0.239  0.00  0.00    -0.080 A 
ATOM      5  C6  UNL d   1      -2.508  -1.724  -0.356  0.00  0.00     0.076 C 
ATOM      6  C7  UNL d   1      -1.072   0.181  -1.136  0.00  0.00     0.002 A 
ATOM      7  C8  UNL d   1       0.082   0.963  -1.056  0.00  0.00     0.006 A 
ENDROOT
BRANCH   1   8
ATOM      8  C1  UNL d   1       2.320   1.512  -0.029  0.00  0.00     0.054 C 
ATOM      9  C   UNL d   1       2.710   1.853   1.402  0.00  0.00     0.018 C 
ENDBRANCH   1   8
TORSDOF 1
ENDMDL
