MODEL 1
REMARK minimizedAffinity -1.83390665
REMARK minimizedRMSD -1
REMARK  1 active torsions:
REMARK  status: ('A' for Active; 'I' for Inactive)
REMARK    1  A    between atoms: C1_2  and  C2_3 
ROOT
ATOM      1  C2  UNL d   1       3.883   3.553  -1.447  0.00  0.00    -0.081 A 
ATOM      2  C3  UNL d   1       3.761   4.502  -0.425  0.00  0.00     0.006 A 
ATOM      3  C4  UNL d   1       3.224   4.143   0.814  0.00  0.00     0.002 A 
ATOM      4  C5  UNL d   1       2.807   2.829   1.053  0.00  0.00    -0.080 A 
ATOM      5  C6  UNL d   1       2.256   2.424   2.388  0.00  0.00     0.076 C 
ATOM      6  C7  UNL d   1       2.912   1.886   0.026  0.00  0.00     0.002 A 
ATOM      7  C8  UNL d   1       3.448   2.244  -1.213  0.00  0.00     0.006 A 
ENDROOT
BRANCH   1   8
ATOM      8  C1  UNL d   1       4.521   3.921  -2.762  0.00  0.00     0.054 C 
ATOM      9  C   UNL d   1       5.999   3.558  -2.780  0.00  0.00     0.018 C 
ENDBRANCH   1   8
TORSDOF 1
ENDMDL
