MODEL 1
REMARK minimizedAffinity 0.107316338
REMARK minimizedRMSD -1
REMARK  0 active torsions:
REMARK  status: ('A' for Active; 'I' for Inactive)
ROOT
ATOM      1  C   UNL d   1       0.559  -0.004   0.977  0.00  0.00     0.020 A 
ATOM      2  C1  UNL d   1       0.774  -1.364   0.757  0.00  0.00     0.020 A 
ATOM      3  C2  UNL d   1       1.749  -1.779  -0.153  0.00  0.00     0.034 A 
ATOM      4  C3  UNL d   1       2.512  -0.833  -0.846  0.00  0.00     0.017 A 
ATOM      5  C4  UNL d   1       2.296   0.532  -0.625  0.00  0.00     0.017 A 
ATOM      6  C5  UNL d   1       1.318   0.942   0.287  0.00  0.00     0.034 A 
ATOM      7 Cl   UNL d   1       3.199   1.758  -1.443  0.00  0.00    -0.070 Cl
ATOM      8 Cl1  UNL d   1       3.701  -1.417  -1.956  0.00  0.00    -0.070 Cl
ENDROOT
TORSDOF 0
ENDMDL
