MODEL 1
REMARK minimizedAffinity -0.747258008
REMARK minimizedRMSD -1
REMARK  0 active torsions:
REMARK  status: ('A' for Active; 'I' for Inactive)
ROOT
ATOM      1  C   UNL d   1      -2.143   4.201  -5.302  0.00  0.00     0.020 A 
ATOM      2  C1  UNL d   1      -1.546   3.777  -4.115  0.00  0.00     0.020 A 
ATOM      3  C2  UNL d   1      -2.325   3.204  -3.108  0.00  0.00     0.034 A 
ATOM      4  C3  UNL d   1      -3.705   3.054  -3.285  0.00  0.00     0.017 A 
ATOM      5  C4  UNL d   1      -4.303   3.479  -4.477  0.00  0.00     0.017 A 
ATOM      6  C5  UNL d   1      -3.518   4.053  -5.482  0.00  0.00     0.034 A 
ATOM      7 Cl   UNL d   1      -6.000   3.327  -4.769  0.00  0.00    -0.070 Cl
ATOM      8 Cl1  UNL d   1      -4.608   2.336  -1.998  0.00  0.00    -0.070 Cl
ENDROOT
TORSDOF 0
ENDMDL
