MODEL 1
REMARK minimizedAffinity 3.84054232
REMARK minimizedRMSD -1
REMARK  0 active torsions:
REMARK  status: ('A' for Active; 'I' for Inactive)
ROOT
ATOM      1  C   UNL d   1       1.436  -1.620   0.779  0.00  0.00     0.020 A 
ATOM      2  C1  UNL d   1       1.898  -1.915  -0.504  0.00  0.00     0.020 A 
ATOM      3  C2  UNL d   1       2.523  -0.925  -1.265  0.00  0.00     0.034 A 
ATOM      4  C3  UNL d   1       2.688   0.363  -0.746  0.00  0.00     0.017 A 
ATOM      5  C4  UNL d   1       2.225   0.658   0.542  0.00  0.00     0.017 A 
ATOM      6  C5  UNL d   1       1.600  -0.336   1.300  0.00  0.00     0.034 A 
ATOM      7 Cl   UNL d   1       2.393   2.226   1.251  0.00  0.00    -0.070 Cl
ATOM      8 Cl1  UNL d   1       3.471   1.538  -1.743  0.00  0.00    -0.070 Cl
ENDROOT
TORSDOF 0
ENDMDL
