MODEL 1
REMARK minimizedAffinity 4.85786772
REMARK minimizedRMSD -1
REMARK  0 active torsions:
REMARK  status: ('A' for Active; 'I' for Inactive)
ROOT
ATOM      1  C   UNL d   1       1.485   0.687   0.960  0.00  0.00     0.020 A 
ATOM      2  C1  UNL d   1       0.590  -0.380   0.896  0.00  0.00     0.020 A 
ATOM      3  C2  UNL d   1       0.867  -1.476   0.075  0.00  0.00     0.034 A 
ATOM      4  C3  UNL d   1       2.042  -1.507  -0.684  0.00  0.00     0.017 A 
ATOM      5  C4  UNL d   1       2.940  -0.435  -0.619  0.00  0.00     0.017 A 
ATOM      6  C5  UNL d   1       2.658   0.659   0.204  0.00  0.00     0.034 A 
ATOM      7 Cl   UNL d   1       4.410  -0.401  -1.527  0.00  0.00    -0.070 Cl
ATOM      8 Cl1  UNL d   1       2.321  -2.893  -1.677  0.00  0.00    -0.070 Cl
ENDROOT
TORSDOF 0
ENDMDL
