MODEL 1
REMARK minimizedAffinity 4.04237509
REMARK minimizedRMSD -1
REMARK  0 active torsions:
REMARK  status: ('A' for Active; 'I' for Inactive)
ROOT
ATOM      1  C   UNL d   1       2.184  -1.326   0.992  0.00  0.00     0.020 A 
ATOM      2  C1  UNL d   1       1.029  -0.555   1.121  0.00  0.00     0.020 A 
ATOM      3  C2  UNL d   1       0.721   0.407   0.157  0.00  0.00     0.034 A 
ATOM      4  C3  UNL d   1       1.568   0.601  -0.940  0.00  0.00     0.017 A 
ATOM      5  C4  UNL d   1       2.727  -0.173  -1.069  0.00  0.00     0.017 A 
ATOM      6  C5  UNL d   1       3.031  -1.135  -0.101  0.00  0.00     0.034 A 
ATOM      7 Cl   UNL d   1       3.820   0.008  -2.395  0.00  0.00    -0.070 Cl
ATOM      8 Cl1  UNL d   1       1.124   1.807  -2.094  0.00  0.00    -0.070 Cl
ENDROOT
TORSDOF 0
ENDMDL
