MODEL 1
REMARK minimizedAffinity 2.8227284
REMARK minimizedRMSD -1
REMARK  0 active torsions:
REMARK  status: ('A' for Active; 'I' for Inactive)
ROOT
ATOM      1  C   UNL d   1       0.534  -0.667   1.488  0.00  0.00     0.020 A 
ATOM      2  C1  UNL d   1       0.898  -1.931   1.025  0.00  0.00     0.020 A 
ATOM      3  C2  UNL d   1       1.921  -2.062   0.084  0.00  0.00     0.034 A 
ATOM      4  C3  UNL d   1       2.585  -0.928  -0.397  0.00  0.00     0.017 A 
ATOM      5  C4  UNL d   1       2.220   0.341   0.069  0.00  0.00     0.017 A 
ATOM      6  C5  UNL d   1       1.194   0.466   1.011  0.00  0.00     0.034 A 
ATOM      7 Cl   UNL d   1       2.992   1.787  -0.478  0.00  0.00    -0.070 Cl
ATOM      8 Cl1  UNL d   1       3.842  -1.164  -1.559  0.00  0.00    -0.070 Cl
ENDROOT
TORSDOF 0
ENDMDL
