MODEL 1
REMARK minimizedAffinity 6.83708096
REMARK minimizedRMSD -1
REMARK  0 active torsions:
REMARK  status: ('A' for Active; 'I' for Inactive)
ROOT
ATOM      1  C   UNL d   1       0.056  -0.380   2.682  0.00  0.00     0.020 A 
ATOM      2  C1  UNL d   1      -0.080  -1.741   2.412  0.00  0.00     0.020 A 
ATOM      3  C2  UNL d   1      -1.334  -2.269   2.100  0.00  0.00     0.034 A 
ATOM      4  C3  UNL d   1      -2.458  -1.435   2.056  0.00  0.00     0.017 A 
ATOM      5  C4  UNL d   1      -2.320  -0.069   2.327  0.00  0.00     0.017 A 
ATOM      6  C5  UNL d   1      -1.062   0.454   2.639  0.00  0.00     0.034 A 
ATOM      7 Cl   UNL d   1      -3.660   1.022   2.292  0.00  0.00    -0.070 Cl
ATOM      8 Cl1  UNL d   1      -3.978  -2.156   1.662  0.00  0.00    -0.070 Cl
ENDROOT
TORSDOF 0
ENDMDL
