MODEL 1
REMARK minimizedAffinity -0.706362605
REMARK minimizedRMSD -1
REMARK  0 active torsions:
REMARK  status: ('A' for Active; 'I' for Inactive)
ROOT
ATOM      1  C   UNL d   1      -0.402  -0.747   2.301  0.00  0.00     0.020 A 
ATOM      2  C1  UNL d   1      -0.107  -2.092   2.082  0.00  0.00     0.020 A 
ATOM      3  C2  UNL d   1       0.728  -2.460   1.025  0.00  0.00     0.034 A 
ATOM      4  C3  UNL d   1       1.272  -1.483   0.183  0.00  0.00     0.017 A 
ATOM      5  C4  UNL d   1       0.975  -0.133   0.404  0.00  0.00     0.017 A 
ATOM      6  C5  UNL d   1       0.138   0.230   1.464  0.00  0.00     0.034 A 
ATOM      7 Cl   UNL d   1       1.608   1.130  -0.591  0.00  0.00    -0.070 Cl
ATOM      8 Cl1  UNL d   1       2.297  -2.010  -1.103  0.00  0.00    -0.070 Cl
ENDROOT
TORSDOF 0
ENDMDL
