MODEL 1
REMARK minimizedAffinity -2.38089085
REMARK minimizedRMSD -1
REMARK  0 active torsions:
REMARK  status: ('A' for Active; 'I' for Inactive)
ROOT
ATOM      1  C   UNL d   1       0.414  -0.127   0.790  0.00  0.00     0.020 A 
ATOM      2  C1  UNL d   1       1.204   0.963   0.428  0.00  0.00     0.020 A 
ATOM      3  C2  UNL d   1       2.286   0.784  -0.437  0.00  0.00     0.034 A 
ATOM      4  C3  UNL d   1       2.581  -0.487  -0.942  0.00  0.00     0.017 A 
ATOM      5  C4  UNL d   1       1.787  -1.581  -0.577  0.00  0.00     0.017 A 
ATOM      6  C5  UNL d   1       0.705  -1.396   0.288  0.00  0.00     0.034 A 
ATOM      7 Cl   UNL d   1       2.089  -3.180  -1.159  0.00  0.00    -0.070 Cl
ATOM      8 Cl1  UNL d   1       3.934  -0.635  -2.006  0.00  0.00    -0.070 Cl
ENDROOT
TORSDOF 0
ENDMDL
