MODEL 1
REMARK minimizedAffinity 4.20402813
REMARK minimizedRMSD -1
REMARK  0 active torsions:
REMARK  status: ('A' for Active; 'I' for Inactive)
ROOT
ATOM      1  C   UNL d   1      -0.419  -1.739   1.800  0.00  0.00     0.020 A 
ATOM      2  C1  UNL d   1      -0.403  -0.527   2.489  0.00  0.00     0.020 A 
ATOM      3  C2  UNL d   1       0.409   0.519   2.044  0.00  0.00     0.034 A 
ATOM      4  C3  UNL d   1       1.208   0.355   0.907  0.00  0.00     0.017 A 
ATOM      5  C4  UNL d   1       1.191  -0.862   0.215  0.00  0.00     0.017 A 
ATOM      6  C5  UNL d   1       0.376  -1.906   0.666  0.00  0.00     0.034 A 
ATOM      7 Cl   UNL d   1       2.149  -1.140  -1.196  0.00  0.00    -0.070 Cl
ATOM      8 Cl1  UNL d   1       2.186   1.690   0.413  0.00  0.00    -0.070 Cl
ENDROOT
TORSDOF 0
ENDMDL
