MODEL 1
REMARK minimizedAffinity 4.16673326
REMARK minimizedRMSD -1
REMARK  0 active torsions:
REMARK  status: ('A' for Active; 'I' for Inactive)
ROOT
ATOM      1  C   UNL d   1       0.618   0.658   2.132  0.00  0.00     0.020 A 
ATOM      2  C1  UNL d   1       0.343  -0.708   2.100  0.00  0.00     0.020 A 
ATOM      3  C2  UNL d   1       0.798  -1.487   1.034  0.00  0.00     0.034 A 
ATOM      4  C3  UNL d   1       1.531  -0.900  -0.003  0.00  0.00     0.017 A 
ATOM      5  C4  UNL d   1       1.807   0.472   0.030  0.00  0.00     0.017 A 
ATOM      6  C5  UNL d   1       1.348   1.247   1.099  0.00  0.00     0.034 A 
ATOM      7 Cl   UNL d   1       2.705   1.267  -1.214  0.00  0.00    -0.070 Cl
ATOM      8 Cl1  UNL d   1       2.064  -1.924  -1.290  0.00  0.00    -0.070 Cl
ENDROOT
TORSDOF 0
ENDMDL
