MODEL 1
REMARK minimizedAffinity 2.24809074
REMARK minimizedRMSD -1
REMARK  0 active torsions:
REMARK  status: ('A' for Active; 'I' for Inactive)
ROOT
ATOM      1  C   UNL d   1       0.463  -1.412   0.690  0.00  0.00     0.020 A 
ATOM      2  C1  UNL d   1       0.317  -0.048   0.940  0.00  0.00     0.020 A 
ATOM      3  C2  UNL d   1       1.142   0.873   0.292  0.00  0.00     0.034 A 
ATOM      4  C3  UNL d   1       2.117   0.432  -0.611  0.00  0.00     0.017 A 
ATOM      5  C4  UNL d   1       2.263  -0.938  -0.861  0.00  0.00     0.017 A 
ATOM      6  C5  UNL d   1       1.434  -1.856  -0.209  0.00  0.00     0.034 A 
ATOM      7 Cl   UNL d   1       3.443  -1.558  -1.962  0.00  0.00    -0.070 Cl
ATOM      8 Cl1  UNL d   1       3.102   1.626  -1.377  0.00  0.00    -0.070 Cl
ENDROOT
TORSDOF 0
ENDMDL
