MODEL 1
REMARK minimizedAffinity 7.03300095
REMARK minimizedRMSD -1
REMARK  0 active torsions:
REMARK  status: ('A' for Active; 'I' for Inactive)
ROOT
ATOM      1  C   UNL d   1       0.590   4.148  -3.202  0.00  0.00     0.020 A 
ATOM      2  C1  UNL d   1      -0.598   4.860  -3.040  0.00  0.00     0.020 A 
ATOM      3  C2  UNL d   1      -1.825   4.227  -3.248  0.00  0.00     0.034 A 
ATOM      4  C3  UNL d   1      -1.867   2.879  -3.621  0.00  0.00     0.017 A 
ATOM      5  C4  UNL d   1      -0.674   2.165  -3.784  0.00  0.00     0.017 A 
ATOM      6  C5  UNL d   1       0.552   2.804  -3.573  0.00  0.00     0.034 A 
ATOM      7 Cl   UNL d   1      -0.646   0.499  -4.242  0.00  0.00    -0.070 Cl
ATOM      8 Cl1  UNL d   1      -3.420   2.160  -3.863  0.00  0.00    -0.070 Cl
ENDROOT
TORSDOF 0
ENDMDL
