MODEL 1
REMARK minimizedAffinity 4.72269726
REMARK minimizedRMSD -1
REMARK  0 active torsions:
REMARK  status: ('A' for Active; 'I' for Inactive)
ROOT
ATOM      1  C   UNL d   1       0.731  -1.745  -0.203  0.00  0.00     0.020 A 
ATOM      2  C1  UNL d   1       0.283  -0.872   0.789  0.00  0.00     0.020 A 
ATOM      3  C2  UNL d   1       1.119   0.146   1.251  0.00  0.00     0.034 A 
ATOM      4  C3  UNL d   1       2.407   0.294   0.723  0.00  0.00     0.017 A 
ATOM      5  C4  UNL d   1       2.855  -0.582  -0.272  0.00  0.00     0.017 A 
ATOM      6  C5  UNL d   1       2.014  -1.600  -0.732  0.00  0.00     0.034 A 
ATOM      7 Cl   UNL d   1       4.431  -0.462  -0.972  0.00  0.00    -0.070 Cl
ATOM      8 Cl1  UNL d   1       3.386   1.576   1.342  0.00  0.00    -0.070 Cl
ENDROOT
TORSDOF 0
ENDMDL
