MODEL 1
REMARK minimizedAffinity 2.35589528
REMARK minimizedRMSD -1
REMARK  0 active torsions:
REMARK  status: ('A' for Active; 'I' for Inactive)
ROOT
ATOM      1  C   UNL d   1       1.895   1.402  -0.343  0.00  0.00     0.020 A 
ATOM      2  C1  UNL d   1       0.966   1.207   0.678  0.00  0.00     0.020 A 
ATOM      3  C2  UNL d   1       0.528  -0.083   0.987  0.00  0.00     0.034 A 
ATOM      4  C3  UNL d   1       1.019  -1.182   0.274  0.00  0.00     0.017 A 
ATOM      5  C4  UNL d   1       1.952  -0.985  -0.751  0.00  0.00     0.017 A 
ATOM      6  C5  UNL d   1       2.387   0.308  -1.056  0.00  0.00     0.034 A 
ATOM      7 Cl   UNL d   1       2.603  -2.292  -1.676  0.00  0.00    -0.070 Cl
ATOM      8 Cl1  UNL d   1       0.435  -2.749   0.709  0.00  0.00    -0.070 Cl
ENDROOT
TORSDOF 0
ENDMDL
