MODEL 1
REMARK minimizedAffinity 1.67756236
REMARK minimizedRMSD -1
REMARK  0 active torsions:
REMARK  status: ('A' for Active; 'I' for Inactive)
ROOT
ATOM      1  C   UNL d   1      -2.134   1.604  -4.169  0.00  0.00     0.020 A 
ATOM      2  C1  UNL d   1      -1.109   1.004  -4.900  0.00  0.00     0.020 A 
ATOM      3  C2  UNL d   1       0.091   1.686  -5.109  0.00  0.00     0.034 A 
ATOM      4  C3  UNL d   1       0.270   2.972  -4.588  0.00  0.00     0.017 A 
ATOM      5  C4  UNL d   1      -0.759   3.574  -3.855  0.00  0.00     0.017 A 
ATOM      6  C5  UNL d   1      -1.959   2.887  -3.648  0.00  0.00     0.034 A 
ATOM      7 Cl   UNL d   1      -0.612   5.159  -3.180  0.00  0.00    -0.070 Cl
ATOM      8 Cl1  UNL d   1       1.781   3.757  -4.885  0.00  0.00    -0.070 Cl
ENDROOT
TORSDOF 0
ENDMDL
