MODEL 1
REMARK minimizedAffinity -0.457514316
REMARK minimizedRMSD -1
REMARK  0 active torsions:
REMARK  status: ('A' for Active; 'I' for Inactive)
ROOT
ATOM      1  C   UNL d   1       1.054  -0.796   1.113  0.00  0.00     0.020 A 
ATOM      2  C1  UNL d   1       1.133   0.595   1.163  0.00  0.00     0.020 A 
ATOM      3  C2  UNL d   1       1.904   1.285   0.225  0.00  0.00     0.034 A 
ATOM      4  C3  UNL d   1       2.598   0.584  -0.768  0.00  0.00     0.017 A 
ATOM      5  C4  UNL d   1       2.518  -0.813  -0.818  0.00  0.00     0.017 A 
ATOM      6  C5  UNL d   1       1.745  -1.498   0.124  0.00  0.00     0.034 A 
ATOM      7 Cl   UNL d   1       3.346  -1.747  -2.013  0.00  0.00    -0.070 Cl
ATOM      8 Cl1  UNL d   1       3.532   1.501  -1.896  0.00  0.00    -0.070 Cl
ENDROOT
TORSDOF 0
ENDMDL
