MODEL 1
REMARK minimizedAffinity 8.91333866
REMARK minimizedRMSD -1
REMARK  0 active torsions:
REMARK  status: ('A' for Active; 'I' for Inactive)
ROOT
ATOM      1  C   UNL d   1      -0.782   0.966  -4.291  0.00  0.00     0.020 A 
ATOM      2  C1  UNL d   1      -1.957   1.453  -3.719  0.00  0.00     0.020 A 
ATOM      3  C2  UNL d   1      -2.012   2.766  -3.247  0.00  0.00     0.034 A 
ATOM      4  C3  UNL d   1      -0.890   3.597  -3.347  0.00  0.00     0.017 A 
ATOM      5  C4  UNL d   1       0.289   3.108  -3.922  0.00  0.00     0.017 A 
ATOM      6  C5  UNL d   1       0.338   1.792  -4.392  0.00  0.00     0.034 A 
ATOM      7 Cl   UNL d   1       1.713   4.074  -4.080  0.00  0.00    -0.070 Cl
ATOM      8 Cl1  UNL d   1      -1.029   5.210  -2.743  0.00  0.00    -0.070 Cl
ENDROOT
TORSDOF 0
ENDMDL
