MODEL 1
REMARK minimizedAffinity 0.123703681
REMARK minimizedRMSD -1
REMARK  0 active torsions:
REMARK  status: ('A' for Active; 'I' for Inactive)
ROOT
ATOM      1  C   UNL d   1       1.423   2.077   1.390  0.00  0.00     0.078 C 
ATOM      2  C1  UNL d   1       0.280   1.128   1.181  0.00  0.00    -0.077 A 
ATOM      3  C2  UNL d   1      -0.017   0.626  -0.092  0.00  0.00    -0.001 A 
ATOM      4  C3  UNL d   1      -1.089  -0.249  -0.273  0.00  0.00     0.003 A 
ATOM      5  C4  UNL d   1      -1.874  -0.628   0.814  0.00  0.00    -0.005 A 
ATOM      6  C5  UNL d   1      -1.588  -0.131   2.084  0.00  0.00     0.003 A 
ATOM      7  C6  UNL d   1      -0.516   0.744   2.267  0.00  0.00    -0.001 A 
ENDROOT
TORSDOF 0
ENDMDL
