MODEL 1
REMARK minimizedAffinity -2.10833263
REMARK minimizedRMSD -1
REMARK  0 active torsions:
REMARK  status: ('A' for Active; 'I' for Inactive)
ROOT
ATOM      1  C   UNL d   1      -2.484  -0.856   0.001  0.00  0.00     0.078 C 
ATOM      2  C1  UNL d   1      -1.481  -0.042   0.762  0.00  0.00    -0.077 A 
ATOM      3  C2  UNL d   1      -0.477   0.672   0.097  0.00  0.00    -0.001 A 
ATOM      4  C3  UNL d   1       0.456   1.417   0.819  0.00  0.00     0.003 A 
ATOM      5  C4  UNL d   1       0.396   1.454   2.211  0.00  0.00    -0.005 A 
ATOM      6  C5  UNL d   1      -0.598   0.744   2.882  0.00  0.00     0.003 A 
ATOM      7  C6  UNL d   1      -1.532  -0.001   2.161  0.00  0.00    -0.001 A 
ENDROOT
TORSDOF 0
ENDMDL
