MODEL 1
REMARK minimizedAffinity -4.31410313
REMARK minimizedRMSD -1
REMARK  0 active torsions:
REMARK  status: ('A' for Active; 'I' for Inactive)
ROOT
ATOM      1  C   UNL d   1       2.323   1.104   0.746  0.00  0.00     0.078 C 
ATOM      2  C1  UNL d   1       0.951   0.808   1.276  0.00  0.00    -0.077 A 
ATOM      3  C2  UNL d   1       0.493   1.398   2.460  0.00  0.00    -0.001 A 
ATOM      4  C3  UNL d   1      -0.782   1.107   2.946  0.00  0.00     0.003 A 
ATOM      5  C4  UNL d   1      -1.609   0.222   2.256  0.00  0.00    -0.005 A 
ATOM      6  C5  UNL d   1      -1.161  -0.372   1.078  0.00  0.00     0.003 A 
ATOM      7  C6  UNL d   1       0.114  -0.081   0.590  0.00  0.00    -0.001 A 
ENDROOT
TORSDOF 0
ENDMDL
