MODEL 1
REMARK minimizedAffinity -4.91064405
REMARK minimizedRMSD -1
REMARK  0 active torsions:
REMARK  status: ('A' for Active; 'I' for Inactive)
ROOT
ATOM      1  C   UNL d   1       2.415   1.677   0.529  0.00  0.00     0.078 C 
ATOM      2  C1  UNL d   1       1.112   1.281   1.155  0.00  0.00    -0.077 A 
ATOM      3  C2  UNL d   1       0.597   1.979   2.254  0.00  0.00    -0.001 A 
ATOM      4  C3  UNL d   1      -0.613   1.593   2.832  0.00  0.00     0.003 A 
ATOM      5  C4  UNL d   1      -1.319   0.507   2.319  0.00  0.00    -0.005 A 
ATOM      6  C5  UNL d   1      -0.814  -0.196   1.227  0.00  0.00     0.003 A 
ATOM      7  C6  UNL d   1       0.396   0.189   0.647  0.00  0.00    -0.001 A 
ENDROOT
TORSDOF 0
ENDMDL
