MODEL 1
REMARK minimizedAffinity -1.24593079
REMARK minimizedRMSD -1
REMARK  0 active torsions:
REMARK  status: ('A' for Active; 'I' for Inactive)
ROOT
ATOM      1  C   UNL d   1       0.393   2.268   2.609  0.00  0.00     0.078 C 
ATOM      2  C1  UNL d   1      -0.493   1.270   1.926  0.00  0.00    -0.077 A 
ATOM      3  C2  UNL d   1      -0.438   1.085   0.540  0.00  0.00    -0.001 A 
ATOM      4  C3  UNL d   1      -1.276   0.159  -0.084  0.00  0.00     0.003 A 
ATOM      5  C4  UNL d   1      -2.176  -0.589   0.672  0.00  0.00    -0.005 A 
ATOM      6  C5  UNL d   1      -2.240  -0.411   2.052  0.00  0.00     0.003 A 
ATOM      7  C6  UNL d   1      -1.403   0.515   2.677  0.00  0.00    -0.001 A 
ENDROOT
TORSDOF 0
ENDMDL
