MODEL 1
REMARK minimizedAffinity -1.96009552
REMARK minimizedRMSD -1
REMARK  0 active torsions:
REMARK  status: ('A' for Active; 'I' for Inactive)
ROOT
ATOM      1  C   UNL d   1       2.248   1.420   0.742  0.00  0.00     0.078 C 
ATOM      2  C1  UNL d   1       0.886   1.024   1.228  0.00  0.00    -0.077 A 
ATOM      3  C2  UNL d   1       0.450   1.369   2.513  0.00  0.00    -0.001 A 
ATOM      4  C3  UNL d   1      -0.817   0.986   2.956  0.00  0.00     0.003 A 
ATOM      5  C4  UNL d   1      -1.658   0.254   2.120  0.00  0.00    -0.005 A 
ATOM      6  C5  UNL d   1      -1.232  -0.095   0.840  0.00  0.00     0.003 A 
ATOM      7  C6  UNL d   1       0.034   0.287   0.396  0.00  0.00    -0.001 A 
ENDROOT
TORSDOF 0
ENDMDL
