MODEL 1
REMARK minimizedAffinity -3.75447607
REMARK minimizedRMSD -1
REMARK  0 active torsions:
REMARK  status: ('A' for Active; 'I' for Inactive)
ROOT
ATOM      1  C   UNL d   1      -1.948   0.347   1.915  0.00  0.00     0.078 C 
ATOM      2  C1  UNL d   1      -0.483   0.615   1.738  0.00  0.00    -0.077 A 
ATOM      3  C2  UNL d   1       0.390  -0.399   1.324  0.00  0.00    -0.001 A 
ATOM      4  C3  UNL d   1       1.753  -0.138   1.172  0.00  0.00     0.003 A 
ATOM      5  C4  UNL d   1       2.255   1.135   1.434  0.00  0.00    -0.005 A 
ATOM      6  C5  UNL d   1       1.394   2.149   1.849  0.00  0.00     0.003 A 
ATOM      7  C6  UNL d   1       0.031   1.890   2.001  0.00  0.00    -0.001 A 
ENDROOT
TORSDOF 0
ENDMDL
