MODEL 1
REMARK minimizedAffinity -4.80257082
REMARK minimizedRMSD -1
REMARK  1 active torsions:
REMARK  status: ('A' for Active; 'I' for Inactive)
REMARK    1  A    between atoms: C3_4  and  O_7 
ROOT
ATOM      1  C   UNL d   1      -1.048   0.622  -0.784  0.00  0.00    -0.033 A 
ATOM      2  C1  UNL d   1      -2.286   0.430  -0.169  0.00  0.00     0.039 A 
ATOM      3  C2  UNL d   1      -2.350  -0.062   1.136  0.00  0.00    -0.080 A 
ATOM      4  C3  UNL d   1      -1.171  -0.356   1.814  0.00  0.00     0.150 A 
ATOM      5  C4  UNL d   1       0.067  -0.163   1.209  0.00  0.00    -0.007 A 
ATOM      6  C5  UNL d   1       0.129   0.327  -0.095  0.00  0.00     0.039 A 
ENDROOT
BRANCH   4   7
ATOM      7  O   UNL d   1      -1.183  -0.843   3.088  0.00  0.00    -0.526 OA
ATOM      8  H5  UNL d   1      -2.108  -0.951   3.366  0.00  0.00     0.418 HD
ENDBRANCH   4   7
TORSDOF 1
ENDMDL
