MODEL 1
REMARK minimizedAffinity -4.08656311
REMARK minimizedRMSD -1
REMARK  1 active torsions:
REMARK  status: ('A' for Active; 'I' for Inactive)
REMARK    1  A    between atoms: C3_4  and  O_7 
ROOT
ATOM      1  C   UNL d   1      -0.012   1.031  -0.158  0.00  0.00    -0.033 A 
ATOM      2  C1  UNL d   1       0.520   1.012   1.133  0.00  0.00     0.039 A 
ATOM      3  C2  UNL d   1       0.063   0.078   2.064  0.00  0.00    -0.080 A 
ATOM      4  C3  UNL d   1      -0.922  -0.832   1.692  0.00  0.00     0.150 A 
ATOM      5  C4  UNL d   1      -1.453  -0.822   0.406  0.00  0.00    -0.007 A 
ATOM      6  C5  UNL d   1      -0.997   0.113  -0.522  0.00  0.00     0.039 A 
ENDROOT
BRANCH   4   7
ATOM      7  O   UNL d   1      -1.403  -1.760   2.567  0.00  0.00    -0.526 OA
ATOM      8  H5  UNL d   1      -0.965  -1.630   3.425  0.00  0.00     0.418 HD
ENDBRANCH   4   7
TORSDOF 1
ENDMDL
