MODEL 1
REMARK minimizedAffinity -5.44463062
REMARK minimizedRMSD -1
REMARK  1 active torsions:
REMARK  status: ('A' for Active; 'I' for Inactive)
REMARK    1  A    between atoms: C3_4  and  O_7 
ROOT
ATOM      1  C   UNL d   1      -0.788  -0.599   2.690  0.00  0.00    -0.033 A 
ATOM      2  C1  UNL d   1      -2.032  -0.013   2.930  0.00  0.00     0.039 A 
ATOM      3  C2  UNL d   1      -2.765   0.531   1.874  0.00  0.00    -0.080 A 
ATOM      4  C3  UNL d   1      -2.244   0.482   0.583  0.00  0.00     0.150 A 
ATOM      5  C4  UNL d   1      -1.007  -0.105   0.336  0.00  0.00    -0.007 A 
ATOM      6  C5  UNL d   1      -0.276  -0.647   1.393  0.00  0.00     0.039 A 
ENDROOT
BRANCH   4   7
ATOM      7  O   UNL d   1      -2.921   1.004  -0.479  0.00  0.00    -0.526 OA
ATOM      8  H5  UNL d   1      -3.745   1.401  -0.153  0.00  0.00     0.418 HD
ENDBRANCH   4   7
TORSDOF 1
ENDMDL
