MODEL 1
REMARK minimizedAffinity 0.69240731
REMARK minimizedRMSD -1
REMARK  1 active torsions:
REMARK  status: ('A' for Active; 'I' for Inactive)
REMARK    1  A    between atoms: C3_4  and  O_7 
ROOT
ATOM      1  C   UNL d   1       0.966   0.653   1.116  0.00  0.00    -0.033 A 
ATOM      2  C1  UNL d   1       0.213   0.907   2.264  0.00  0.00     0.039 A 
ATOM      3  C2  UNL d   1      -1.171   1.063   2.173  0.00  0.00    -0.080 A 
ATOM      4  C3  UNL d   1      -1.790   0.961   0.931  0.00  0.00     0.150 A 
ATOM      5  C4  UNL d   1      -1.047   0.704  -0.217  0.00  0.00    -0.007 A 
ATOM      6  C5  UNL d   1       0.336   0.550  -0.124  0.00  0.00     0.039 A 
ENDROOT
BRANCH   4   7
ATOM      7  O   UNL d   1      -3.138   1.110   0.791  0.00  0.00    -0.526 OA
ATOM      8  H5  UNL d   1      -3.517   1.312   1.663  0.00  0.00     0.418 HD
ENDBRANCH   4   7
TORSDOF 1
ENDMDL
