MODEL 1
REMARK minimizedAffinity -4.47523928
REMARK minimizedRMSD -1
REMARK  1 active torsions:
REMARK  status: ('A' for Active; 'I' for Inactive)
REMARK    1  A    between atoms: C3_4  and  O_7 
ROOT
ATOM      1  C   UNL d   1       0.149   0.317   1.927  0.00  0.00    -0.033 A 
ATOM      2  C1  UNL d   1      -1.112   0.744   2.349  0.00  0.00     0.039 A 
ATOM      3  C2  UNL d   1      -2.111   1.009   1.410  0.00  0.00    -0.080 A 
ATOM      4  C3  UNL d   1      -1.837   0.842   0.055  0.00  0.00     0.150 A 
ATOM      5  C4  UNL d   1      -0.585   0.413  -0.371  0.00  0.00    -0.007 A 
ATOM      6  C5  UNL d   1       0.412   0.150   0.567  0.00  0.00     0.039 A 
ENDROOT
BRANCH   4   7
ATOM      7  O   UNL d   1      -2.779   1.093  -0.898  0.00  0.00    -0.526 OA
ATOM      8  H5  UNL d   1      -3.586   1.409  -0.458  0.00  0.00     0.418 HD
ENDBRANCH   4   7
TORSDOF 1
ENDMDL
