MODEL 1
REMARK minimizedAffinity -5.0682869
REMARK minimizedRMSD -1
REMARK  1 active torsions:
REMARK  status: ('A' for Active; 'I' for Inactive)
REMARK    1  A    between atoms: C3_4  and  O_7 
ROOT
ATOM      1  C   UNL d   1      -2.172  -0.562   2.687  0.00  0.00    -0.033 A 
ATOM      2  C1  UNL d   1      -2.618   0.087   1.535  0.00  0.00     0.039 A 
ATOM      3  C2  UNL d   1      -1.697   0.598   0.619  0.00  0.00    -0.080 A 
ATOM      4  C3  UNL d   1      -0.334   0.453   0.866  0.00  0.00     0.150 A 
ATOM      5  C4  UNL d   1       0.117  -0.197   2.010  0.00  0.00    -0.007 A 
ATOM      6  C5  UNL d   1      -0.804  -0.706   2.924  0.00  0.00     0.039 A 
ENDROOT
BRANCH   4   7
ATOM      7  O   UNL d   1       0.602   0.939   0.003  0.00  0.00    -0.526 OA
ATOM      8  H5  UNL d   1       0.145   1.388  -0.727  0.00  0.00     0.418 HD
ENDBRANCH   4   7
TORSDOF 1
ENDMDL
