MODEL 1
REMARK minimizedAffinity -2.7293117
REMARK minimizedRMSD -1
REMARK  1 active torsions:
REMARK  status: ('A' for Active; 'I' for Inactive)
REMARK    1  A    between atoms: C3_4  and  O_7 
ROOT
ATOM      1  C   UNL d   1      -0.279   0.339   3.025  0.00  0.00    -0.033 A 
ATOM      2  C1  UNL d   1      -1.643   0.606   3.158  0.00  0.00     0.039 A 
ATOM      3  C2  UNL d   1      -2.442   0.749   2.022  0.00  0.00    -0.080 A 
ATOM      4  C3  UNL d   1      -1.866   0.622   0.761  0.00  0.00     0.150 A 
ATOM      5  C4  UNL d   1      -0.508   0.351   0.621  0.00  0.00    -0.007 A 
ATOM      6  C5  UNL d   1       0.288   0.210   1.757  0.00  0.00     0.039 A 
ENDROOT
BRANCH   4   7
ATOM      7  O   UNL d   1      -2.604   0.758  -0.377  0.00  0.00    -0.526 OA
ATOM      8  H5  UNL d   1      -3.518   0.971  -0.126  0.00  0.00     0.418 HD
ENDBRANCH   4   7
TORSDOF 1
ENDMDL
