MODEL 1
REMARK minimizedAffinity -2.96106505
REMARK minimizedRMSD -1
REMARK  1 active torsions:
REMARK  status: ('A' for Active; 'I' for Inactive)
REMARK    1  A    between atoms: C3_4  and  O_7 
ROOT
ATOM      1  C   UNL d   1      -0.840   1.054  -1.218  0.00  0.00    -0.033 A 
ATOM      2  C1  UNL d   1       0.395   0.917  -0.581  0.00  0.00     0.039 A 
ATOM      3  C2  UNL d   1       0.452   0.547   0.764  0.00  0.00    -0.080 A 
ATOM      4  C3  UNL d   1      -0.731   0.315   1.460  0.00  0.00     0.150 A 
ATOM      5  C4  UNL d   1      -1.965   0.446   0.831  0.00  0.00    -0.007 A 
ATOM      6  C5  UNL d   1      -2.020   0.817  -0.512  0.00  0.00     0.039 A 
ENDROOT
BRANCH   4   7
ATOM      7  O   UNL d   1      -0.726  -0.043   2.775  0.00  0.00    -0.526 OA
ATOM      8  H5  UNL d   1       0.195  -0.067   3.084  0.00  0.00     0.418 HD
ENDBRANCH   4   7
TORSDOF 1
ENDMDL
