MODEL 1
REMARK minimizedAffinity -3.61048651
REMARK minimizedRMSD -1
REMARK  1 active torsions:
REMARK  status: ('A' for Active; 'I' for Inactive)
REMARK    1  A    between atoms: C3_4  and  O_7 
ROOT
ATOM      1  C   UNL d   1       0.145   0.823   0.111  0.00  0.00    -0.033 A 
ATOM      2  C1  UNL d   1       0.859   0.985   1.299  0.00  0.00     0.039 A 
ATOM      3  C2  UNL d   1       0.502   0.256   2.435  0.00  0.00    -0.080 A 
ATOM      4  C3  UNL d   1      -0.570  -0.630   2.370  0.00  0.00     0.150 A 
ATOM      5  C4  UNL d   1      -1.284  -0.799   1.188  0.00  0.00    -0.007 A 
ATOM      6  C5  UNL d   1      -0.926  -0.070   0.055  0.00  0.00     0.039 A 
ENDROOT
BRANCH   4   7
ATOM      7  O   UNL d   1      -0.959  -1.359   3.454  0.00  0.00    -0.526 OA
ATOM      8  H5  UNL d   1      -0.393  -1.118   4.206  0.00  0.00     0.418 HD
ENDBRANCH   4   7
TORSDOF 1
ENDMDL
