MODEL 1
REMARK minimizedAffinity -2.76487899
REMARK minimizedRMSD -1
REMARK  1 active torsions:
REMARK  status: ('A' for Active; 'I' for Inactive)
REMARK    1  A    between atoms: C3_4  and  O_7 
ROOT
ATOM      1  C   UNL d   1       1.026   0.475   1.503  0.00  0.00    -0.033 A 
ATOM      2  C1  UNL d   1       0.682   0.546   0.152  0.00  0.00     0.039 A 
ATOM      3  C2  UNL d   1      -0.655   0.691  -0.224  0.00  0.00    -0.080 A 
ATOM      4  C3  UNL d   1      -1.636   0.764   0.761  0.00  0.00     0.150 A 
ATOM      5  C4  UNL d   1      -1.301   0.697   2.109  0.00  0.00    -0.007 A 
ATOM      6  C5  UNL d   1       0.035   0.551   2.482  0.00  0.00     0.039 A 
ENDROOT
BRANCH   4   7
ATOM      7  O   UNL d   1      -2.955   0.901   0.443  0.00  0.00    -0.526 OA
ATOM      8  H5  UNL d   1      -3.040   0.904  -0.525  0.00  0.00     0.418 HD
ENDBRANCH   4   7
TORSDOF 1
ENDMDL
