MODEL 1
REMARK minimizedAffinity -5.07066727
REMARK minimizedRMSD -1
REMARK  1 active torsions:
REMARK  status: ('A' for Active; 'I' for Inactive)
REMARK    1  A    between atoms: C3_4  and  O_7 
ROOT
ATOM      1  C   UNL d   1      -0.915  -0.127   3.316  0.00  0.00    -0.033 A 
ATOM      2  C1  UNL d   1       0.392   0.186   2.939  0.00  0.00     0.039 A 
ATOM      3  C2  UNL d   1       0.733   0.253   1.587  0.00  0.00    -0.080 A 
ATOM      4  C3  UNL d   1      -0.241   0.007   0.623  0.00  0.00     0.150 A 
ATOM      5  C4  UNL d   1      -1.547  -0.302   0.992  0.00  0.00    -0.007 A 
ATOM      6  C5  UNL d   1      -1.885  -0.369   2.343  0.00  0.00     0.039 A 
ENDROOT
BRANCH   4   7
ATOM      7  O   UNL d   1       0.045   0.056  -0.709  0.00  0.00    -0.526 OA
ATOM      8  H5  UNL d   1       0.991   0.252  -0.813  0.00  0.00     0.418 HD
ENDBRANCH   4   7
TORSDOF 1
ENDMDL
