MODEL 1
REMARK minimizedAffinity -3.25497937
REMARK minimizedRMSD -1
REMARK  1 active torsions:
REMARK  status: ('A' for Active; 'I' for Inactive)
REMARK    1  A    between atoms: C3_4  and  O_7 
ROOT
ATOM      1  C   UNL d   1       0.155   0.429  -0.170  0.00  0.00    -0.033 A 
ATOM      2  C1  UNL d   1      -1.088  -0.177   0.027  0.00  0.00     0.039 A 
ATOM      3  C2  UNL d   1      -1.444  -0.647   1.293  0.00  0.00    -0.080 A 
ATOM      4  C3  UNL d   1      -0.551  -0.505   2.351  0.00  0.00     0.150 A 
ATOM      5  C4  UNL d   1       0.687   0.101   2.162  0.00  0.00    -0.007 A 
ATOM      6  C5  UNL d   1       1.041   0.569   0.898  0.00  0.00     0.039 A 
ENDROOT
BRANCH   4   7
ATOM      7  O   UNL d   1      -0.853  -0.953   3.603  0.00  0.00    -0.526 OA
ATOM      8  H5  UNL d   1      -1.728  -1.374   3.576  0.00  0.00     0.418 HD
ENDBRANCH   4   7
TORSDOF 1
ENDMDL
