MODEL 1
REMARK minimizedAffinity -4.31241703
REMARK minimizedRMSD -1
REMARK  1 active torsions:
REMARK  status: ('A' for Active; 'I' for Inactive)
REMARK    1  A    between atoms: C3_4  and  O_7 
ROOT
ATOM      1  C   UNL d   1      -1.082   0.194   3.085  0.00  0.00    -0.033 A 
ATOM      2  C1  UNL d   1       0.208   0.611   2.749  0.00  0.00     0.039 A 
ATOM      3  C2  UNL d   1       0.627   0.586   1.417  0.00  0.00    -0.080 A 
ATOM      4  C3  UNL d   1      -0.253   0.144   0.433  0.00  0.00     0.150 A 
ATOM      5  C4  UNL d   1      -1.540  -0.268   0.760  0.00  0.00    -0.007 A 
ATOM      6  C5  UNL d   1      -1.956  -0.244   2.090  0.00  0.00     0.039 A 
ENDROOT
BRANCH   4   7
ATOM      7  O   UNL d   1       0.113   0.098  -0.880  0.00  0.00    -0.526 OA
ATOM      8  H5  UNL d   1       1.038   0.385  -0.952  0.00  0.00     0.418 HD
ENDBRANCH   4   7
TORSDOF 1
ENDMDL
