MODEL 1
REMARK minimizedAffinity -5.01104116
REMARK minimizedRMSD -1
REMARK  1 active torsions:
REMARK  status: ('A' for Active; 'I' for Inactive)
REMARK    1  A    between atoms: C3_4  and  O_7 
ROOT
ATOM      1  C   UNL d   1      -0.921  -0.510   3.021  0.00  0.00    -0.033 A 
ATOM      2  C1  UNL d   1      -1.476  -1.263   1.985  0.00  0.00     0.039 A 
ATOM      3  C2  UNL d   1      -0.973  -1.147   0.687  0.00  0.00    -0.080 A 
ATOM      4  C3  UNL d   1       0.084  -0.275   0.440  0.00  0.00     0.150 A 
ATOM      5  C4  UNL d   1       0.645   0.476   1.469  0.00  0.00    -0.007 A 
ATOM      6  C5  UNL d   1       0.140   0.358   2.763  0.00  0.00     0.039 A 
ENDROOT
BRANCH   4   7
ATOM      7  O   UNL d   1       0.606  -0.124  -0.810  0.00  0.00    -0.526 OA
ATOM      8  H5  UNL d   1       0.101  -0.683  -1.424  0.00  0.00     0.418 HD
ENDBRANCH   4   7
TORSDOF 1
ENDMDL
