MODEL 1
REMARK minimizedAffinity -5.25021696
REMARK minimizedRMSD -1
REMARK  1 active torsions:
REMARK  status: ('A' for Active; 'I' for Inactive)
REMARK    1  A    between atoms: C3_4  and  O_7 
ROOT
ATOM      1  C   UNL d   1      -1.447  -0.451   3.126  0.00  0.00    -0.033 A 
ATOM      2  C1  UNL d   1      -0.083  -0.430   2.829  0.00  0.00     0.039 A 
ATOM      3  C2  UNL d   1       0.344  -0.303   1.506  0.00  0.00    -0.080 A 
ATOM      4  C3  UNL d   1      -0.602  -0.196   0.490  0.00  0.00     0.150 A 
ATOM      5  C4  UNL d   1      -1.962  -0.211   0.779  0.00  0.00    -0.007 A 
ATOM      6  C5  UNL d   1      -2.387  -0.340   2.100  0.00  0.00     0.039 A 
ENDROOT
BRANCH   4   7
ATOM      7  O   UNL d   1      -0.233  -0.074  -0.817  0.00  0.00    -0.526 OA
ATOM      8  H5  UNL d   1       0.737  -0.107  -0.867  0.00  0.00     0.418 HD
ENDBRANCH   4   7
TORSDOF 1
ENDMDL
