MODEL 1
REMARK minimizedAffinity -2.16010046
REMARK minimizedRMSD -1
REMARK  1 active torsions:
REMARK  status: ('A' for Active; 'I' for Inactive)
REMARK    1  A    between atoms: C3_4  and  O_7 
ROOT
ATOM      1  C   UNL d   1      -0.778  -0.171   2.820  0.00  0.00    -0.033 A 
ATOM      2  C1  UNL d   1       0.436   0.511   2.722  0.00  0.00     0.039 A 
ATOM      3  C2  UNL d   1       1.051   0.672   1.479  0.00  0.00    -0.080 A 
ATOM      4  C3  UNL d   1       0.441   0.147   0.343  0.00  0.00     0.150 A 
ATOM      5  C4  UNL d   1      -0.770  -0.531   0.432  0.00  0.00    -0.007 A 
ATOM      6  C5  UNL d   1      -1.382  -0.691   1.675  0.00  0.00     0.039 A 
ENDROOT
BRANCH   4   7
ATOM      7  O   UNL d   1       1.006   0.274  -0.892  0.00  0.00    -0.526 OA
ATOM      8  H5  UNL d   1       1.854   0.739  -0.796  0.00  0.00     0.418 HD
ENDBRANCH   4   7
TORSDOF 1
ENDMDL
