MODEL 1
REMARK minimizedAffinity -3.53109717
REMARK minimizedRMSD -1
REMARK  1 active torsions:
REMARK  status: ('A' for Active; 'I' for Inactive)
REMARK    1  A    between atoms: C3_4  and  O_7 
ROOT
ATOM      1  C   UNL d   1       0.154   0.446  -0.117  0.00  0.00    -0.033 A 
ATOM      2  C1  UNL d   1       1.104   0.389   0.904  0.00  0.00     0.039 A 
ATOM      3  C2  UNL d   1       0.726  -0.000   2.191  0.00  0.00    -0.080 A 
ATOM      4  C3  UNL d   1      -0.603  -0.330   2.442  0.00  0.00     0.150 A 
ATOM      5  C4  UNL d   1      -1.554  -0.279   1.428  0.00  0.00    -0.007 A 
ATOM      6  C5  UNL d   1      -1.174   0.111   0.144  0.00  0.00     0.039 A 
ENDROOT
BRANCH   4   7
ATOM      7  O   UNL d   1      -1.021  -0.710   3.682  0.00  0.00    -0.526 OA
ATOM      8  H5  UNL d   1      -0.262  -0.672   4.288  0.00  0.00     0.418 HD
ENDBRANCH   4   7
TORSDOF 1
ENDMDL
