MODEL 1
REMARK minimizedAffinity -2.72470188
REMARK minimizedRMSD -1
REMARK  1 active torsions:
REMARK  status: ('A' for Active; 'I' for Inactive)
REMARK    1  A    between atoms: C3_4  and  O_7 
ROOT
ATOM      1  C   UNL d   1       0.668  -0.927  -2.744  0.00  0.00    -0.033 A 
ATOM      2  C1  UNL d   1       1.199  -1.861  -3.635  0.00  0.00     0.039 A 
ATOM      3  C2  UNL d   1       2.541  -1.784  -4.013  0.00  0.00    -0.080 A 
ATOM      4  C3  UNL d   1       3.340  -0.770  -3.493  0.00  0.00     0.150 A 
ATOM      5  C4  UNL d   1       2.818   0.163  -2.602  0.00  0.00    -0.007 A 
ATOM      6  C5  UNL d   1       1.478   0.084  -2.226  0.00  0.00     0.039 A 
ENDROOT
BRANCH   4   7
ATOM      7  O   UNL d   1       4.654  -0.651  -3.836  0.00  0.00    -0.526 OA
ATOM      8  H5  UNL d   1       4.868  -1.346  -4.480  0.00  0.00     0.418 HD
ENDBRANCH   4   7
TORSDOF 1
ENDMDL
