MODEL 1
REMARK minimizedAffinity -3.46638918
REMARK minimizedRMSD -1
REMARK  1 active torsions:
REMARK  status: ('A' for Active; 'I' for Inactive)
REMARK    1  A    between atoms: C3_4  and  O_7 
ROOT
ATOM      1  C   UNL d   1      -0.075   0.422  -0.624  0.00  0.00    -0.033 A 
ATOM      2  C1  UNL d   1       1.107   0.429   0.119  0.00  0.00     0.039 A 
ATOM      3  C2  UNL d   1       1.071   0.180   1.493  0.00  0.00    -0.080 A 
ATOM      4  C3  UNL d   1      -0.151  -0.076   2.109  0.00  0.00     0.150 A 
ATOM      5  C4  UNL d   1      -1.332  -0.088   1.374  0.00  0.00    -0.007 A 
ATOM      6  C5  UNL d   1      -1.294   0.162   0.002  0.00  0.00     0.039 A 
ENDROOT
BRANCH   4   7
ATOM      7  O   UNL d   1      -0.237  -0.320   3.447  0.00  0.00    -0.526 OA
ATOM      8  H5  UNL d   1       0.654  -0.250   3.830  0.00  0.00     0.418 HD
ENDBRANCH   4   7
TORSDOF 1
ENDMDL
