MODEL 1
REMARK minimizedAffinity -4.69601727
REMARK minimizedRMSD -1
REMARK  1 active torsions:
REMARK  status: ('A' for Active; 'I' for Inactive)
REMARK    1  A    between atoms: C3_4  and  O_7 
ROOT
ATOM      1  C   UNL d   1      -1.208  -0.249   2.757  0.00  0.00    -0.033 A 
ATOM      2  C1  UNL d   1       0.162  -0.229   2.488  0.00  0.00     0.039 A 
ATOM      3  C2  UNL d   1       0.616  -0.067   1.177  0.00  0.00    -0.080 A 
ATOM      4  C3  UNL d   1      -0.309   0.075   0.147  0.00  0.00     0.150 A 
ATOM      5  C4  UNL d   1      -1.675   0.059   0.408  0.00  0.00    -0.007 A 
ATOM      6  C5  UNL d   1      -2.126  -0.104   1.717  0.00  0.00     0.039 A 
ENDROOT
BRANCH   4   7
ATOM      7  O   UNL d   1       0.085   0.231  -1.149  0.00  0.00    -0.526 OA
ATOM      8  H5  UNL d   1       1.056   0.194  -1.181  0.00  0.00     0.418 HD
ENDBRANCH   4   7
TORSDOF 1
ENDMDL
