MODEL 1
REMARK minimizedAffinity 0.535231888
REMARK minimizedRMSD -1
REMARK  1 active torsions:
REMARK  status: ('A' for Active; 'I' for Inactive)
REMARK    1  A    between atoms: C1_2  and  C2_3 
ROOT
ATOM      1  C2  UNL d   1      -2.240   3.858  -5.977  0.00  0.00    -0.073 A 
ATOM      2  C3  UNL d   1      -2.194   5.256  -5.920  0.00  0.00    -0.002 A 
ATOM      3  C4  UNL d   1      -3.375   5.999  -5.895  0.00  0.00     0.004 A 
ATOM      4  C5  UNL d   1      -4.611   5.354  -5.921  0.00  0.00    -0.004 A 
ATOM      5  C6  UNL d   1      -4.677   3.957  -5.967  0.00  0.00    -0.075 A 
ATOM      6  C7  UNL d   1      -5.999   3.248  -5.997  0.00  0.00     0.076 C 
ATOM      7  C8  UNL d   1      -3.487   3.218  -5.994  0.00  0.00     0.001 A 
ENDROOT
BRANCH   1   8
ATOM      8  C1  UNL d   1      -0.967   3.051  -5.998  0.00  0.00     0.053 C 
ATOM      9  C   UNL d   1      -1.241   1.555  -5.999  0.00  0.00     0.018 C 
ENDBRANCH   1   8
TORSDOF 1
ENDMDL
