MODEL 1
REMARK minimizedAffinity -1.86360216
REMARK minimizedRMSD -1
REMARK  1 active torsions:
REMARK  status: ('A' for Active; 'I' for Inactive)
REMARK    1  A    between atoms: C1_2  and  C2_3 
ROOT
ATOM      1  C2  UNL d   1      -4.004   4.428  -5.641  0.00  0.00    -0.073 A 
ATOM      2  C3  UNL d   1      -3.302   5.453  -4.997  0.00  0.00    -0.002 A 
ATOM      3  C4  UNL d   1      -1.955   5.289  -4.672  0.00  0.00     0.004 A 
ATOM      4  C5  UNL d   1      -1.295   4.102  -4.992  0.00  0.00    -0.004 A 
ATOM      5  C6  UNL d   1      -1.976   3.071  -5.646  0.00  0.00    -0.075 A 
ATOM      6  C7  UNL d   1      -1.281   1.788  -5.997  0.00  0.00     0.076 C 
ATOM      7  C8  UNL d   1      -3.329   3.242  -5.967  0.00  0.00     0.001 A 
ENDROOT
BRANCH   1   8
ATOM      8  C1  UNL d   1      -5.457   4.603  -6.000  0.00  0.00     0.053 C 
ATOM      9  C   UNL d   1      -5.964   5.995  -5.659  0.00  0.00     0.018 C 
ENDBRANCH   1   8
TORSDOF 1
ENDMDL
