MODEL 1
REMARK minimizedAffinity 7.6444397
REMARK minimizedRMSD -1
REMARK  1 active torsions:
REMARK  status: ('A' for Active; 'I' for Inactive)
REMARK    1  A    between atoms: C1_2  and  C2_3 
ROOT
ATOM      1  C2  UNL d   1      -0.926   2.737   1.713  0.00  0.00    -0.073 A 
ATOM      2  C3  UNL d   1      -1.619   3.052   2.887  0.00  0.00    -0.002 A 
ATOM      3  C4  UNL d   1      -0.922   3.428   4.037  0.00  0.00     0.004 A 
ATOM      4  C5  UNL d   1       0.471   3.500   4.022  0.00  0.00    -0.004 A 
ATOM      5  C6  UNL d   1       1.180   3.200   2.854  0.00  0.00    -0.075 A 
ATOM      6  C7  UNL d   1       2.678   3.270   2.822  0.00  0.00     0.076 C 
ATOM      7  C8  UNL d   1       0.474   2.821   1.705  0.00  0.00     0.001 A 
ENDROOT
BRANCH   1   8
ATOM      8  C1  UNL d   1      -1.674   2.337   0.467  0.00  0.00     0.053 C 
ATOM      9  C   UNL d   1      -2.063   0.867   0.483  0.00  0.00     0.018 C 
ENDBRANCH   1   8
TORSDOF 1
ENDMDL
