MODEL 1
REMARK minimizedAffinity 7.95388269
REMARK minimizedRMSD -1
REMARK  1 active torsions:
REMARK  status: ('A' for Active; 'I' for Inactive)
REMARK    1  A    between atoms: C1_2  and  C2_3 
ROOT
ATOM      1  C2  UNL d   1       1.616   3.327   3.149  0.00  0.00    -0.073 A 
ATOM      2  C3  UNL d   1       0.661   3.740   4.085  0.00  0.00    -0.002 A 
ATOM      3  C4  UNL d   1      -0.696   3.508   3.858  0.00  0.00     0.004 A 
ATOM      4  C5  UNL d   1      -1.111   2.856   2.697  0.00  0.00    -0.004 A 
ATOM      5  C6  UNL d   1      -0.172   2.425   1.755  0.00  0.00    -0.075 A 
ATOM      6  C7  UNL d   1      -0.603   1.724   0.500  0.00  0.00     0.076 C 
ATOM      7  C8  UNL d   1       1.189   2.664   1.989  0.00  0.00     0.001 A 
ENDROOT
BRANCH   1   8
ATOM      8  C1  UNL d   1       3.083   3.569   3.393  0.00  0.00     0.053 C 
ATOM      9  C   UNL d   1       3.952   2.945   2.313  0.00  0.00     0.018 C 
ENDBRANCH   1   8
TORSDOF 1
ENDMDL
