MODEL 1
REMARK minimizedAffinity 2.40461922
REMARK minimizedRMSD -1
REMARK  1 active torsions:
REMARK  status: ('A' for Active; 'I' for Inactive)
REMARK    1  A    between atoms: C1_2  and  C2_3 
ROOT
ATOM      1  C2  UNL d   1      -0.608  -0.516   0.157  0.00  0.00    -0.073 A 
ATOM      2  C3  UNL d   1       0.730  -0.259  -0.164  0.00  0.00    -0.002 A 
ATOM      3  C4  UNL d   1       1.372  -0.999  -1.158  0.00  0.00     0.004 A 
ATOM      4  C5  UNL d   1       0.682  -1.998  -1.845  0.00  0.00    -0.004 A 
ATOM      5  C6  UNL d   1      -0.659  -2.262  -1.547  0.00  0.00    -0.075 A 
ATOM      6  C7  UNL d   1      -1.415  -3.334  -2.275  0.00  0.00     0.076 C 
ATOM      7  C8  UNL d   1      -1.296  -1.516  -0.545  0.00  0.00     0.001 A 
ENDROOT
BRANCH   1   8
ATOM      8  C1  UNL d   1      -1.306   0.285   1.225  0.00  0.00     0.053 C 
ATOM      9  C   UNL d   1      -1.330   1.770   0.899  0.00  0.00     0.018 C 
ENDBRANCH   1   8
TORSDOF 1
ENDMDL
