MODEL 1
REMARK minimizedAffinity 4.05056906
REMARK minimizedRMSD -1
REMARK  1 active torsions:
REMARK  status: ('A' for Active; 'I' for Inactive)
REMARK    1  A    between atoms: C1_2  and  C2_3 
ROOT
ATOM      1  C2  UNL d   1      -0.188   2.322   1.553  0.00  0.00    -0.073 A 
ATOM      2  C3  UNL d   1       0.566   1.337   0.903  0.00  0.00    -0.002 A 
ATOM      3  C4  UNL d   1      -0.070   0.279   0.252  0.00  0.00     0.004 A 
ATOM      4  C5  UNL d   1      -1.462   0.198   0.238  0.00  0.00    -0.004 A 
ATOM      5  C6  UNL d   1      -2.232   1.179   0.871  0.00  0.00    -0.075 A 
ATOM      6  C7  UNL d   1      -3.731   1.105   0.866  0.00  0.00     0.076 C 
ATOM      7  C8  UNL d   1      -1.587   2.237   1.525  0.00  0.00     0.001 A 
ENDROOT
BRANCH   1   8
ATOM      8  C1  UNL d   1       0.494   3.470   2.252  0.00  0.00     0.053 C 
ATOM      9  C   UNL d   1       0.519   3.284   3.761  0.00  0.00     0.018 C 
ENDBRANCH   1   8
TORSDOF 1
ENDMDL
