MODEL 1
REMARK minimizedAffinity 2.75451946
REMARK minimizedRMSD -1
REMARK  1 active torsions:
REMARK  status: ('A' for Active; 'I' for Inactive)
REMARK    1  A    between atoms: C1_2  and  C2_3 
ROOT
ATOM      1  C2  UNL d   1      -0.168   2.035   1.243  0.00  0.00    -0.073 A 
ATOM      2  C3  UNL d   1       0.503   0.906   0.760  0.00  0.00    -0.002 A 
ATOM      3  C4  UNL d   1      -0.201  -0.264   0.474  0.00  0.00     0.004 A 
ATOM      4  C5  UNL d   1      -1.582  -0.316   0.661  0.00  0.00    -0.004 A 
ATOM      5  C6  UNL d   1      -2.273   0.805   1.131  0.00  0.00    -0.075 A 
ATOM      6  C7  UNL d   1      -3.758   0.765   1.340  0.00  0.00     0.076 C 
ATOM      7  C8  UNL d   1      -1.558   1.976   1.419  0.00  0.00     0.001 A 
ENDROOT
BRANCH   1   8
ATOM      8  C1  UNL d   1       0.587   3.303   1.547  0.00  0.00     0.053 C 
ATOM      9  C   UNL d   1       1.865   3.033   2.325  0.00  0.00     0.018 C 
ENDBRANCH   1   8
TORSDOF 1
ENDMDL
