MODEL 1
REMARK minimizedAffinity 5.28314495
REMARK minimizedRMSD -1
REMARK  1 active torsions:
REMARK  status: ('A' for Active; 'I' for Inactive)
REMARK    1  A    between atoms: C1_2  and  C2_3 
ROOT
ATOM      1  C2  UNL d   1       3.247   1.960  -3.999  0.00  0.00    -0.073 A 
ATOM      2  C3  UNL d   1       2.784   2.006  -5.319  0.00  0.00    -0.002 A 
ATOM      3  C4  UNL d   1       2.079   0.928  -5.857  0.00  0.00     0.004 A 
ATOM      4  C5  UNL d   1       1.824  -0.201  -5.079  0.00  0.00    -0.004 A 
ATOM      5  C6  UNL d   1       2.268  -0.261  -3.755  0.00  0.00    -0.075 A 
ATOM      6  C7  UNL d   1       2.004  -1.470  -2.906  0.00  0.00     0.076 C 
ATOM      7  C8  UNL d   1       2.978   0.824  -3.223  0.00  0.00     0.001 A 
ENDROOT
BRANCH   1   8
ATOM      8  C1  UNL d   1       4.003   3.124  -3.412  0.00  0.00     0.053 C 
ATOM      9  C   UNL d   1       5.217   2.672  -2.615  0.00  0.00     0.018 C 
ENDBRANCH   1   8
TORSDOF 1
ENDMDL
