MODEL 1
REMARK minimizedAffinity 4.18187857
REMARK minimizedRMSD -1
REMARK  1 active torsions:
REMARK  status: ('A' for Active; 'I' for Inactive)
REMARK    1  A    between atoms: C1_2  and  C2_3 
ROOT
ATOM      1  C2  UNL d   1       1.211   1.412   0.462  0.00  0.00    -0.073 A 
ATOM      2  C3  UNL d   1       1.260   2.720   0.957  0.00  0.00    -0.002 A 
ATOM      3  C4  UNL d   1       0.101   3.340   1.426  0.00  0.00     0.004 A 
ATOM      4  C5  UNL d   1      -1.115   2.657   1.413  0.00  0.00    -0.004 A 
ATOM      5  C6  UNL d   1      -1.182   1.345   0.934  0.00  0.00    -0.075 A 
ATOM      6  C7  UNL d   1      -2.483   0.597   0.911  0.00  0.00     0.076 C 
ATOM      7  C8  UNL d   1      -0.014   0.730   0.461  0.00  0.00     0.001 A 
ENDROOT
BRANCH   1   8
ATOM      8  C1  UNL d   1       2.461   0.736  -0.040  0.00  0.00     0.053 C 
ATOM      9  C   UNL d   1       2.748   1.076  -1.494  0.00  0.00     0.018 C 
ENDBRANCH   1   8
TORSDOF 1
ENDMDL
