MODEL 1
REMARK minimizedAffinity 6.44698286
REMARK minimizedRMSD -1
REMARK  1 active torsions:
REMARK  status: ('A' for Active; 'I' for Inactive)
REMARK    1  A    between atoms: C1_2  and  C2_3 
ROOT
ATOM      1  C2  UNL d   1      -3.523   5.073  -5.254  0.00  0.00    -0.073 A 
ATOM      2  C3  UNL d   1      -2.970   5.427  -4.019  0.00  0.00    -0.002 A 
ATOM      3  C4  UNL d   1      -2.049   4.586  -3.392  0.00  0.00     0.004 A 
ATOM      4  C5  UNL d   1      -1.668   3.389  -3.996  0.00  0.00    -0.004 A 
ATOM      5  C6  UNL d   1      -2.200   3.023  -5.236  0.00  0.00    -0.075 A 
ATOM      6  C7  UNL d   1      -1.802   1.737  -5.898  0.00  0.00     0.076 C 
ATOM      7  C8  UNL d   1      -3.126   3.872  -5.858  0.00  0.00     0.001 A 
ENDROOT
BRANCH   1   8
ATOM      8  C1  UNL d   1      -4.512   5.981  -5.938  0.00  0.00     0.053 C 
ATOM      9  C   UNL d   1      -5.907   5.377  -5.978  0.00  0.00     0.018 C 
ENDBRANCH   1   8
TORSDOF 1
ENDMDL
