MODEL 1
REMARK minimizedAffinity 0.545612216
REMARK minimizedRMSD -1
REMARK  1 active torsions:
REMARK  status: ('A' for Active; 'I' for Inactive)
REMARK    1  A    between atoms: C1_2  and  C2_3 
ROOT
ATOM      1  C2  UNL d   1      -1.974   3.385  -5.962  0.00  0.00    -0.073 A 
ATOM      2  C3  UNL d   1      -1.351   4.638  -5.949  0.00  0.00    -0.002 A 
ATOM      3  C4  UNL d   1      -2.115   5.805  -5.960  0.00  0.00     0.004 A 
ATOM      4  C5  UNL d   1      -3.508   5.732  -5.978  0.00  0.00    -0.004 A 
ATOM      5  C6  UNL d   1      -4.149   4.489  -5.979  0.00  0.00    -0.075 A 
ATOM      6  C7  UNL d   1      -5.646   4.393  -6.000  0.00  0.00     0.076 C 
ATOM      7  C8  UNL d   1      -3.374   3.321  -5.970  0.00  0.00     0.001 A 
ENDROOT
BRANCH   1   8
ATOM      8  C1  UNL d   1      -1.152   2.121  -5.943  0.00  0.00     0.053 C 
ATOM      9  C   UNL d   1       0.340   2.412  -5.945  0.00  0.00     0.018 C 
ENDBRANCH   1   8
TORSDOF 1
ENDMDL
