MODEL 1
REMARK minimizedAffinity 6.25319719
REMARK minimizedRMSD -1
REMARK  1 active torsions:
REMARK  status: ('A' for Active; 'I' for Inactive)
REMARK    1  A    between atoms: C1_2  and  C2_3 
ROOT
ATOM      1  C2  UNL d   1       1.326   2.760   2.082  0.00  0.00    -0.073 A 
ATOM      2  C3  UNL d   1       0.067   3.372   2.083  0.00  0.00    -0.002 A 
ATOM      3  C4  UNL d   1      -0.991   2.810   1.368  0.00  0.00     0.004 A 
ATOM      4  C5  UNL d   1      -0.803   1.628   0.650  0.00  0.00    -0.004 A 
ATOM      5  C6  UNL d   1       0.444   0.995   0.647  0.00  0.00    -0.075 A 
ATOM      6  C7  UNL d   1       0.662  -0.275  -0.122  0.00  0.00     0.076 C 
ATOM      7  C8  UNL d   1       1.502   1.568   1.366  0.00  0.00     0.001 A 
ENDROOT
BRANCH   1   8
ATOM      8  C1  UNL d   1       2.469   3.360   2.859  0.00  0.00     0.053 C 
ATOM      9  C   UNL d   1       3.809   3.108   2.187  0.00  0.00     0.018 C 
ENDBRANCH   1   8
TORSDOF 1
ENDMDL
