MODEL 1
REMARK minimizedAffinity 2.83603287
REMARK minimizedRMSD -1
REMARK  1 active torsions:
REMARK  status: ('A' for Active; 'I' for Inactive)
REMARK    1  A    between atoms: C1_2  and  C2_3 
ROOT
ATOM      1  C2  UNL d   1       1.419  -1.219  -1.477  0.00  0.00    -0.073 A 
ATOM      2  C3  UNL d   1       1.179  -0.657  -0.217  0.00  0.00    -0.002 A 
ATOM      3  C4  UNL d   1       0.085  -1.073   0.543  0.00  0.00     0.004 A 
ATOM      4  C5  UNL d   1      -0.774  -2.058   0.056  0.00  0.00    -0.004 A 
ATOM      5  C6  UNL d   1      -0.544  -2.640  -1.194  0.00  0.00    -0.075 A 
ATOM      6  C7  UNL d   1      -1.460  -3.699  -1.733  0.00  0.00     0.076 C 
ATOM      7  C8  UNL d   1       0.555  -2.215  -1.953  0.00  0.00     0.001 A 
ENDROOT
BRANCH   1   8
ATOM      8  C1  UNL d   1       2.602  -0.777  -2.299  0.00  0.00     0.053 C 
ATOM      9  C   UNL d   1       2.846   0.720  -2.188  0.00  0.00     0.018 C 
ENDBRANCH   1   8
TORSDOF 1
ENDMDL
