MODEL 1
REMARK minimizedAffinity 9.02164364
REMARK minimizedRMSD -1
REMARK  1 active torsions:
REMARK  status: ('A' for Active; 'I' for Inactive)
REMARK    1  A    between atoms: C1_2  and  C2_3 
ROOT
ATOM      1  C2  UNL d   1       4.618  -2.809   4.421  0.00  0.00    -0.081 A 
ATOM      2  C3  UNL d   1       3.936  -3.302   3.302  0.00  0.00     0.006 A 
ATOM      3  C4  UNL d   1       4.280  -2.872   2.018  0.00  0.00     0.002 A 
ATOM      4  C5  UNL d   1       5.316  -1.951   1.831  0.00  0.00    -0.080 A 
ATOM      5  C6  UNL d   1       5.715  -1.505   0.456  0.00  0.00     0.076 C 
ATOM      6  C7  UNL d   1       5.985  -1.445   2.951  0.00  0.00     0.002 A 
ATOM      7  C8  UNL d   1       5.642  -1.874   4.235  0.00  0.00     0.006 A 
ENDROOT
BRANCH   1   8
ATOM      8  C1  UNL d   1       4.293  -3.319   5.802  0.00  0.00     0.054 C 
ATOM      9  C   UNL d   1       4.778  -4.749   5.993  0.00  0.00     0.018 C 
ENDBRANCH   1   8
TORSDOF 1
ENDMDL
