MODEL 1
REMARK minimizedAffinity 4.26864958
REMARK minimizedRMSD -1
REMARK  1 active torsions:
REMARK  status: ('A' for Active; 'I' for Inactive)
REMARK    1  A    between atoms: C1_2  and  C2_3 
ROOT
ATOM      1  C2  UNL d   1       2.316  -1.246   0.316  0.00  0.00    -0.081 A 
ATOM      2  C3  UNL d   1       1.526  -1.581   1.423  0.00  0.00     0.006 A 
ATOM      3  C4  UNL d   1       0.994  -2.866   1.551  0.00  0.00     0.002 A 
ATOM      4  C5  UNL d   1       1.248  -3.839   0.578  0.00  0.00    -0.080 A 
ATOM      5  C6  UNL d   1       0.707  -5.231   0.718  0.00  0.00     0.076 C 
ATOM      6  C7  UNL d   1       2.022  -3.500  -0.536  0.00  0.00     0.002 A 
ATOM      7  C8  UNL d   1       2.554  -2.215  -0.664  0.00  0.00     0.006 A 
ENDROOT
BRANCH   1   8
ATOM      8  C1  UNL d   1       2.945   0.119   0.209  0.00  0.00     0.054 C 
ATOM      9  C   UNL d   1       4.430   0.021  -0.108  0.00  0.00     0.018 C 
ENDBRANCH   1   8
TORSDOF 1
ENDMDL
