MODEL 1
REMARK minimizedAffinity 10.5627403
REMARK minimizedRMSD -1
REMARK  1 active torsions:
REMARK  status: ('A' for Active; 'I' for Inactive)
REMARK    1  A    between atoms: C1_2  and  C2_3 
ROOT
ATOM      1  C2  UNL d   1       1.536  -3.373   0.559  0.00  0.00    -0.081 A 
ATOM      2  C3  UNL d   1       2.645  -2.553   0.800  0.00  0.00     0.006 A 
ATOM      3  C4  UNL d   1       2.516  -1.394   1.569  0.00  0.00     0.002 A 
ATOM      4  C5  UNL d   1       1.278  -1.040   2.117  0.00  0.00    -0.080 A 
ATOM      5  C6  UNL d   1       1.131   0.184   2.970  0.00  0.00     0.076 C 
ATOM      6  C7  UNL d   1       0.166  -1.850   1.862  0.00  0.00     0.002 A 
ATOM      7  C8  UNL d   1       0.295  -3.008   1.092  0.00  0.00     0.006 A 
ENDROOT
BRANCH   1   8
ATOM      8  C1  UNL d   1       1.686  -4.656  -0.217  0.00  0.00     0.054 C 
ATOM      9  C   UNL d   1       1.086  -5.833   0.540  0.00  0.00     0.018 C 
ENDBRANCH   1   8
TORSDOF 1
ENDMDL
