MODEL 1
REMARK minimizedAffinity 9.41894341
REMARK minimizedRMSD -1
REMARK  1 active torsions:
REMARK  status: ('A' for Active; 'I' for Inactive)
REMARK    1  A    between atoms: C1_2  and  C2_3 
ROOT
ATOM      1  C2  UNL d   1      -0.393  -2.895   1.168  0.00  0.00    -0.081 A 
ATOM      2  C3  UNL d   1       0.703  -2.203   0.639  0.00  0.00     0.006 A 
ATOM      3  C4  UNL d   1       1.763  -2.899   0.052  0.00  0.00     0.002 A 
ATOM      4  C5  UNL d   1       1.740  -4.296  -0.023  0.00  0.00    -0.080 A 
ATOM      5  C6  UNL d   1       2.857  -5.053  -0.678  0.00  0.00     0.076 C 
ATOM      6  C7  UNL d   1       0.652  -4.988   0.521  0.00  0.00     0.002 A 
ATOM      7  C8  UNL d   1      -0.407  -4.293   1.109  0.00  0.00     0.006 A 
ENDROOT
BRANCH   1   8
ATOM      8  C1  UNL d   1      -1.567  -2.145   1.744  0.00  0.00     0.054 C 
ATOM      9  C   UNL d   1      -1.216  -1.511   3.082  0.00  0.00     0.018 C 
ENDBRANCH   1   8
TORSDOF 1
ENDMDL
