MODEL 1
REMARK minimizedAffinity -4.11467934
REMARK minimizedRMSD -1
REMARK  0 active torsions:
REMARK  status: ('A' for Active; 'I' for Inactive)
ROOT
ATOM      1  N1  IND d   1      -0.190   1.306  -0.299  0.00  0.00    -0.196 N 
ATOM      2  C2  IND d   1      -1.328   0.866   0.318  0.00  0.00     0.054 A 
ATOM      3  C3  IND d   1      -1.301  -0.479   0.449  0.00  0.00    -0.031 A 
ATOM      4  C4  IND d   1       0.553  -2.148  -0.184  0.00  0.00     0.051 A 
ATOM      5  C5  IND d   1       1.767  -2.224  -0.808  0.00  0.00    -0.031 A 
ATOM      6  C6  IND d   1       2.405  -1.104  -1.301  0.00  0.00     0.015 A 
ATOM      7  C7  IND d   1       1.855   0.140  -1.179  0.00  0.00    -0.016 A 
ATOM      8  C8  IND d   1       0.619   0.220  -0.552  0.00  0.00    -0.047 A 
ATOM      9  C9  IND d   1      -0.052  -0.918  -0.087  0.00  0.00    -0.096 A 
ATOM     10  HN1 IND d   1      -0.010   2.124  -0.495  0.00  0.00     0.298 HD
ENDROOT
TORSDOF 0
ENDMDL
