MODEL 1
REMARK minimizedAffinity -4.33700657
REMARK minimizedRMSD -1
REMARK  0 active torsions:
REMARK  status: ('A' for Active; 'I' for Inactive)
ROOT
ATOM      1  N1  IND d   1       1.224  -2.596  -0.743  0.00  0.00    -0.196 N 
ATOM      2  C2  IND d   1       0.024  -2.570  -0.089  0.00  0.00     0.054 A 
ATOM      3  C3  IND d   1      -0.289  -1.304   0.269  0.00  0.00    -0.031 A 
ATOM      4  C4  IND d   1       0.972   0.889  -0.206  0.00  0.00     0.051 A 
ATOM      5  C5  IND d   1       2.135   1.369  -0.740  0.00  0.00    -0.031 A 
ATOM      6  C6  IND d   1       3.072   0.535  -1.316  0.00  0.00     0.015 A 
ATOM      7  C7  IND d   1       2.874  -0.814  -1.391  0.00  0.00    -0.016 A 
ATOM      8  C8  IND d   1       1.697  -1.306  -0.843  0.00  0.00    -0.047 A 
ATOM      9  C9  IND d   1       0.763  -0.470  -0.219  0.00  0.00    -0.096 A 
ATOM     10  HN1 IND d   1       1.618  -3.300  -1.042  0.00  0.00     0.298 HD
ENDROOT
TORSDOF 0
ENDMDL
