MODEL 1
REMARK minimizedAffinity -2.17305946
REMARK minimizedRMSD -1
REMARK  0 active torsions:
REMARK  status: ('A' for Active; 'I' for Inactive)
ROOT
ATOM      1  N1  IND d   1       5.864   2.302   5.999  0.00  0.00    -0.196 N 
ATOM      2  C2  IND d   1       5.857   3.246   5.011  0.00  0.00     0.054 A 
ATOM      3  C3  IND d   1       5.660   2.665   3.807  0.00  0.00    -0.031 A 
ATOM      4  C4  IND d   1       5.225   0.193   3.235  0.00  0.00     0.051 A 
ATOM      5  C5  IND d   1       5.176  -1.051   3.799  0.00  0.00    -0.031 A 
ATOM      6  C6  IND d   1       5.355  -1.244   5.154  0.00  0.00     0.015 A 
ATOM      7  C7  IND d   1       5.579  -0.195   6.000  0.00  0.00    -0.016 A 
ATOM      8  C8  IND d   1       5.637   1.069   5.429  0.00  0.00    -0.047 A 
ATOM      9  C9  IND d   1       5.498   1.267   4.049  0.00  0.00    -0.096 A 
ATOM     10  HN1 IND d   1       5.991   2.453   6.837  0.00  0.00     0.298 HD
ENDROOT
TORSDOF 0
ENDMDL
