MODEL 1
REMARK minimizedAffinity -0.787249684
REMARK minimizedRMSD -1
REMARK  0 active torsions:
REMARK  status: ('A' for Active; 'I' for Inactive)
ROOT
ATOM      1  N1  IND d   1      -1.087   1.410   0.958  0.00  0.00    -0.196 N 
ATOM      2  C2  IND d   1      -2.382   1.060   1.221  0.00  0.00     0.054 A 
ATOM      3  C3  IND d   1      -2.614  -0.213   0.830  0.00  0.00    -0.031 A 
ATOM      4  C4  IND d   1      -0.987  -1.939  -0.171  0.00  0.00     0.051 A 
ATOM      5  C5  IND d   1       0.294  -2.072  -0.630  0.00  0.00    -0.031 A 
ATOM      6  C6  IND d   1       1.199  -1.032  -0.579  0.00  0.00     0.015 A 
ATOM      7  C7  IND d   1       0.858   0.183  -0.055  0.00  0.00    -0.016 A 
ATOM      8  C8  IND d   1      -0.443   0.325   0.405  0.00  0.00    -0.047 A 
ATOM      9  C9  IND d   1      -1.379  -0.714   0.317  0.00  0.00    -0.096 A 
ATOM     10  HN1 IND d   1      -0.734   2.179   1.112  0.00  0.00     0.298 HD
ENDROOT
TORSDOF 0
ENDMDL
