MODEL 1
REMARK minimizedAffinity -5.07522345
REMARK minimizedRMSD -1
REMARK  0 active torsions:
REMARK  status: ('A' for Active; 'I' for Inactive)
ROOT
ATOM      1  N1  IND d   1      -0.935  -0.224  -0.406  0.00  0.00    -0.196 N 
ATOM      2  C2  IND d   1      -1.027   1.041  -0.914  0.00  0.00     0.054 A 
ATOM      3  C3  IND d   1       0.166   1.436  -1.413  0.00  0.00    -0.031 A 
ATOM      4  C4  IND d   1       2.377   0.130  -1.591  0.00  0.00     0.051 A 
ATOM      5  C5  IND d   1       2.963  -1.051  -1.230  0.00  0.00    -0.031 A 
ATOM      6  C6  IND d   1       2.264  -2.038  -0.565  0.00  0.00     0.015 A 
ATOM      7  C7  IND d   1       0.945  -1.884  -0.245  0.00  0.00    -0.016 A 
ATOM      8  C8  IND d   1       0.349  -0.683  -0.603  0.00  0.00    -0.047 A 
ATOM      9  C9  IND d   1       1.064   0.339  -1.240  0.00  0.00    -0.096 A 
ATOM     10  HN1 IND d   1      -1.571  -0.660  -0.026  0.00  0.00     0.298 HD
ENDROOT
TORSDOF 0
ENDMDL
