MODEL 1
REMARK minimizedAffinity -4.02655602
REMARK minimizedRMSD -1
REMARK  0 active torsions:
REMARK  status: ('A' for Active; 'I' for Inactive)
ROOT
ATOM      1  N1  IND d   1       2.390   0.171  -1.341  0.00  0.00    -0.196 N 
ATOM      2  C2  IND d   1       2.773  -1.133  -1.492  0.00  0.00     0.054 A 
ATOM      3  C3  IND d   1       1.854  -1.959  -0.944  0.00  0.00    -0.031 A 
ATOM      4  C4  IND d   1      -0.400  -1.394   0.163  0.00  0.00     0.051 A 
ATOM      5  C5  IND d   1      -1.168  -0.337   0.565  0.00  0.00    -0.031 A 
ATOM      6  C6  IND d   1      -0.782   0.969   0.345  0.00  0.00     0.015 A 
ATOM      7  C7  IND d   1       0.385   1.269  -0.298  0.00  0.00    -0.016 A 
ATOM      8  C8  IND d   1       1.171   0.198  -0.701  0.00  0.00    -0.047 A 
ATOM      9  C9  IND d   1       0.805  -1.129  -0.443  0.00  0.00    -0.096 A 
ATOM     10  HN1 IND d   1       2.837   0.858  -1.602  0.00  0.00     0.298 HD
ENDROOT
TORSDOF 0
ENDMDL
