MODEL 1
REMARK minimizedAffinity 0.0410764776
REMARK minimizedRMSD -1
REMARK  0 active torsions:
REMARK  status: ('A' for Active; 'I' for Inactive)
ROOT
ATOM      1  N1  IND d   1       0.075   1.426   1.084  0.00  0.00    -0.196 N 
ATOM      2  C2  IND d   1      -0.187   0.519   0.095  0.00  0.00     0.054 A 
ATOM      3  C3  IND d   1      -1.265  -0.230   0.418  0.00  0.00    -0.031 A 
ATOM      4  C4  IND d   1      -2.812  -0.071   2.470  0.00  0.00     0.051 A 
ATOM      5  C5  IND d   1      -2.954   0.580   3.664  0.00  0.00    -0.031 A 
ATOM      6  C6  IND d   1      -2.078   1.567   4.065  0.00  0.00     0.015 A 
ATOM      7  C7  IND d   1      -1.029   1.951   3.279  0.00  0.00    -0.016 A 
ATOM      8  C8  IND d   1      -0.877   1.288   2.070  0.00  0.00    -0.047 A 
ATOM      9  C9  IND d   1      -1.738   0.255   1.676  0.00  0.00    -0.096 A 
ATOM     10  HN1 IND d   1       0.725   1.989   1.088  0.00  0.00     0.298 HD
ENDROOT
TORSDOF 0
ENDMDL
