MODEL 1
REMARK minimizedAffinity -2.67137241
REMARK minimizedRMSD -1
REMARK  0 active torsions:
REMARK  status: ('A' for Active; 'I' for Inactive)
ROOT
ATOM      1  N1  IND d   1      -2.235   1.622   3.755  0.00  0.00    -0.196 N 
ATOM      2  C2  IND d   1      -2.764   0.371   3.608  0.00  0.00     0.054 A 
ATOM      3  C3  IND d   1      -2.581  -0.072   2.344  0.00  0.00    -0.031 A 
ATOM      4  C4  IND d   1      -1.351   1.049   0.380  0.00  0.00     0.051 A 
ATOM      5  C5  IND d   1      -0.732   2.213   0.021  0.00  0.00    -0.031 A 
ATOM      6  C6  IND d   1      -0.577   3.260   0.906  0.00  0.00     0.015 A 
ATOM      7  C7  IND d   1      -1.027   3.177   2.193  0.00  0.00    -0.016 A 
ATOM      8  C8  IND d   1      -1.662   1.999   2.560  0.00  0.00    -0.047 A 
ATOM      9  C9  IND d   1      -1.860   0.949   1.653  0.00  0.00    -0.096 A 
ATOM     10  HN1 IND d   1      -2.256   2.095   4.473  0.00  0.00     0.298 HD
ENDROOT
TORSDOF 0
ENDMDL
