MODEL 1
REMARK minimizedAffinity -6.60589647
REMARK minimizedRMSD -1
REMARK  0 active torsions:
REMARK  status: ('A' for Active; 'I' for Inactive)
ROOT
ATOM      1  N1  IND d   1      -0.271   0.380  -0.152  0.00  0.00    -0.196 N 
ATOM      2  C2  IND d   1      -0.649  -0.856   0.293  0.00  0.00     0.054 A 
ATOM      3  C3  IND d   1       0.283  -1.779  -0.034  0.00  0.00    -0.031 A 
ATOM      4  C4  IND d   1       2.552  -1.467  -1.210  0.00  0.00     0.051 A 
ATOM      5  C5  IND d   1       3.320  -0.525  -1.836  0.00  0.00    -0.031 A 
ATOM      6  C6  IND d   1       2.924   0.793  -1.932  0.00  0.00     0.015 A 
ATOM      7  C7  IND d   1       1.745   1.223  -1.393  0.00  0.00    -0.016 A 
ATOM      8  C8  IND d   1       0.959   0.269  -0.763  0.00  0.00    -0.047 A 
ATOM      9  C9  IND d   1       1.336  -1.079  -0.700  0.00  0.00    -0.096 A 
ATOM     10  HN1 IND d   1      -0.725   1.105  -0.065  0.00  0.00     0.298 HD
ENDROOT
TORSDOF 0
ENDMDL
