MODEL 1
REMARK minimizedAffinity -3.99858856
REMARK minimizedRMSD -1
REMARK  0 active torsions:
REMARK  status: ('A' for Active; 'I' for Inactive)
ROOT
ATOM      1  N1  IND d   1      -3.413   1.358   4.162  0.00  0.00    -0.196 N 
ATOM      2  C2  IND d   1      -4.271   0.295   4.207  0.00  0.00     0.054 A 
ATOM      3  C3  IND d   1      -4.150  -0.456   3.090  0.00  0.00    -0.031 A 
ATOM      4  C4  IND d   1      -2.534  -0.182   1.104  0.00  0.00     0.051 A 
ATOM      5  C5  IND d   1      -1.586   0.660   0.595  0.00  0.00    -0.031 A 
ATOM      6  C6  IND d   1      -1.188   1.800   1.263  0.00  0.00     0.015 A 
ATOM      7  C7  IND d   1      -1.718   2.135   2.477  0.00  0.00    -0.016 A 
ATOM      8  C8  IND d   1      -2.687   1.286   2.994  0.00  0.00    -0.047 A 
ATOM      9  C9  IND d   1      -3.125   0.150   2.300  0.00  0.00    -0.096 A 
ATOM     10  HN1 IND d   1      -3.340   1.970   4.762  0.00  0.00     0.298 HD
ENDROOT
TORSDOF 0
ENDMDL
