MODEL 1
REMARK minimizedAffinity -2.86521578
REMARK minimizedRMSD -1
REMARK  0 active torsions:
REMARK  status: ('A' for Active; 'I' for Inactive)
ROOT
ATOM      1  N1  IND d   1       2.511   0.061  -1.699  0.00  0.00    -0.196 N 
ATOM      2  C2  IND d   1       2.871  -1.204  -1.325  0.00  0.00     0.054 A 
ATOM      3  C3  IND d   1       1.928  -1.742  -0.520  0.00  0.00    -0.031 A 
ATOM      4  C4  IND d   1      -0.332  -0.765   0.232  0.00  0.00     0.051 A 
ATOM      5  C5  IND d   1      -1.086   0.374   0.177  0.00  0.00    -0.031 A 
ATOM      6  C6  IND d   1      -0.671   1.488  -0.523  0.00  0.00     0.015 A 
ATOM      7  C7  IND d   1       0.512   1.501  -1.206  0.00  0.00    -0.016 A 
ATOM      8  C8  IND d   1       1.283   0.349  -1.146  0.00  0.00    -0.047 A 
ATOM      9  C9  IND d   1       0.887  -0.770  -0.402  0.00  0.00    -0.096 A 
ATOM     10  HN1 IND d   1       2.975   0.588  -2.195  0.00  0.00     0.298 HD
ENDROOT
TORSDOF 0
ENDMDL
