MODEL 1
REMARK minimizedAffinity -3.81797171
REMARK minimizedRMSD -1
REMARK  0 active torsions:
REMARK  status: ('A' for Active; 'I' for Inactive)
ROOT
ATOM      1  N1  IND d   1      -0.205   1.343   0.483  0.00  0.00    -0.196 N 
ATOM      2  C2  IND d   1      -1.269   0.735   1.088  0.00  0.00     0.054 A 
ATOM      3  C3  IND d   1      -1.182  -0.608   0.955  0.00  0.00    -0.031 A 
ATOM      4  C4  IND d   1       0.673  -2.027  -0.127  0.00  0.00     0.051 A 
ATOM      5  C5  IND d   1       1.831  -1.920  -0.844  0.00  0.00    -0.031 A 
ATOM      6  C6  IND d   1       2.383  -0.695  -1.160  0.00  0.00     0.015 A 
ATOM      7  C7  IND d   1       1.800   0.473  -0.759  0.00  0.00    -0.016 A 
ATOM      8  C8  IND d   1       0.620   0.369  -0.036  0.00  0.00    -0.047 A 
ATOM      9  C9  IND d   1       0.033  -0.870   0.251  0.00  0.00    -0.096 A 
ATOM     10  HN1 IND d   1      -0.072   2.191   0.434  0.00  0.00     0.298 HD
ENDROOT
TORSDOF 0
ENDMDL
