MODEL 1
REMARK minimizedAffinity 2.67987657
REMARK minimizedRMSD -1
REMARK  0 active torsions:
REMARK  status: ('A' for Active; 'I' for Inactive)
ROOT
ATOM      1  N1  IND d   1      -0.049   0.637   1.760  0.00  0.00    -0.196 N 
ATOM      2  C2  IND d   1       0.071   1.594   0.791  0.00  0.00     0.054 A 
ATOM      3  C3  IND d   1       1.184   1.382   0.055  0.00  0.00    -0.031 A 
ATOM      4  C4  IND d   1       2.899  -0.532   0.199  0.00  0.00     0.051 A 
ATOM      5  C5  IND d   1       3.233  -1.626   0.948  0.00  0.00    -0.031 A 
ATOM      6  C6  IND d   1       2.473  -2.030   2.026  0.00  0.00     0.015 A 
ATOM      7  C7  IND d   1       1.340  -1.360   2.390  0.00  0.00    -0.016 A 
ATOM      8  C8  IND d   1       1.002  -0.245   1.636  0.00  0.00    -0.047 A 
ATOM      9  C9  IND d   1       1.792   0.195   0.567  0.00  0.00    -0.096 A 
ATOM     10  HN1 IND d   1      -0.675   0.594   2.348  0.00  0.00     0.298 HD
ENDROOT
TORSDOF 0
ENDMDL
