MODEL 1
REMARK minimizedAffinity 3.01874447
REMARK minimizedRMSD -1
REMARK  0 active torsions:
REMARK  status: ('A' for Active; 'I' for Inactive)
ROOT
ATOM      1  N1  IND d   1      -0.795   0.342   0.839  0.00  0.00    -0.196 N 
ATOM      2  C2  IND d   1       0.431   0.342   0.235  0.00  0.00     0.054 A 
ATOM      3  C3  IND d   1       0.303   0.563  -1.092  0.00  0.00    -0.031 A 
ATOM      4  C4  IND d   1      -1.816   1.052  -2.471  0.00  0.00     0.051 A 
ATOM      5  C5  IND d   1      -3.177   1.120  -2.367  0.00  0.00    -0.031 A 
ATOM      6  C6  IND d   1      -3.827   0.931  -1.164  0.00  0.00     0.015 A 
ATOM      7  C7  IND d   1      -3.135   0.677  -0.013  0.00  0.00    -0.016 A 
ATOM      8  C8  IND d   1      -1.754   0.601  -0.116  0.00  0.00    -0.047 A 
ATOM      9  C9  IND d   1      -1.092   0.749  -1.342  0.00  0.00    -0.096 A 
ATOM     10  HN1 IND d   1      -0.943   0.205   1.675  0.00  0.00     0.298 HD
ENDROOT
TORSDOF 0
ENDMDL
