MODEL 1
REMARK minimizedAffinity -3.69538617
REMARK minimizedRMSD -1
REMARK  0 active torsions:
REMARK  status: ('A' for Active; 'I' for Inactive)
ROOT
ATOM      1  N1  IND d   1       0.202  -5.324  -3.838  0.00  0.00    -0.196 N 
ATOM      2  C2  IND d   1       0.644  -5.369  -5.131  0.00  0.00     0.054 A 
ATOM      3  C3  IND d   1      -0.384  -5.631  -5.970  0.00  0.00    -0.031 A 
ATOM      4  C4  IND d   1      -2.888  -5.920  -5.448  0.00  0.00     0.051 A 
ATOM      5  C5  IND d   1      -3.769  -6.000  -4.407  0.00  0.00    -0.031 A 
ATOM      6  C6  IND d   1      -3.364  -5.852  -3.096  0.00  0.00     0.015 A 
ATOM      7  C7  IND d   1      -2.058  -5.607  -2.777  0.00  0.00    -0.016 A 
ATOM      8  C8  IND d   1      -1.159  -5.533  -3.832  0.00  0.00    -0.047 A 
ATOM      9  C9  IND d   1      -1.558  -5.724  -5.162  0.00  0.00    -0.096 A 
ATOM     10  HN1 IND d   1       0.693  -5.188  -3.145  0.00  0.00     0.298 HD
ENDROOT
TORSDOF 0
ENDMDL
