MODEL 1
REMARK minimizedAffinity 0.433031708
REMARK minimizedRMSD -1
REMARK  0 active torsions:
REMARK  status: ('A' for Active; 'I' for Inactive)
ROOT
ATOM      1  N1  IND d   1      -1.071  -5.521  -3.706  0.00  0.00    -0.196 N 
ATOM      2  C2  IND d   1      -1.795  -5.797  -4.832  0.00  0.00     0.054 A 
ATOM      3  C3  IND d   1      -0.971  -5.973  -5.890  0.00  0.00    -0.031 A 
ATOM      4  C4  IND d   1       1.602  -5.954  -5.980  0.00  0.00     0.051 A 
ATOM      5  C5  IND d   1       2.705  -5.709  -5.211  0.00  0.00    -0.031 A 
ATOM      6  C6  IND d   1       2.604  -5.385  -3.873  0.00  0.00     0.015 A 
ATOM      7  C7  IND d   1       1.391  -5.305  -3.249  0.00  0.00    -0.016 A 
ATOM      8  C8  IND d   1       0.268  -5.546  -4.029  0.00  0.00    -0.047 A 
ATOM      9  C9  IND d   1       0.362  -5.833  -5.397  0.00  0.00    -0.096 A 
ATOM     10  HN1 IND d   1      -1.397  -5.359  -2.927  0.00  0.00     0.298 HD
ENDROOT
TORSDOF 0
ENDMDL
