MODEL 1
REMARK minimizedAffinity 1.67377806
REMARK minimizedRMSD -1
REMARK  0 active torsions:
REMARK  status: ('A' for Active; 'I' for Inactive)
ROOT
ATOM      1  N1  IND d   1      -1.020  -5.821  -3.779  0.00  0.00    -0.196 N 
ATOM      2  C2  IND d   1      -1.697  -5.994  -4.953  0.00  0.00     0.054 A 
ATOM      3  C3  IND d   1      -0.837  -5.995  -5.996  0.00  0.00    -0.031 A 
ATOM      4  C4  IND d   1       1.732  -5.830  -5.998  0.00  0.00     0.051 A 
ATOM      5  C5  IND d   1       2.799  -5.624  -5.169  0.00  0.00    -0.031 A 
ATOM      6  C6  IND d   1       2.644  -5.473  -3.806  0.00  0.00     0.015 A 
ATOM      7  C7  IND d   1       1.413  -5.533  -3.218  0.00  0.00    -0.016 A 
ATOM      8  C8  IND d   1       0.326  -5.736  -4.057  0.00  0.00    -0.047 A 
ATOM      9  C9  IND d   1       0.473  -5.847  -5.446  0.00  0.00    -0.096 A 
ATOM     10  HN1 IND d   1      -1.375  -5.773  -2.997  0.00  0.00     0.298 HD
ENDROOT
TORSDOF 0
ENDMDL
