MODEL 1
REMARK minimizedAffinity -0.878318191
REMARK minimizedRMSD -1
REMARK  0 active torsions:
REMARK  status: ('A' for Active; 'I' for Inactive)
ROOT
ATOM      1  N1  IND d   1       0.163  -0.299   1.102  0.00  0.00    -0.196 N 
ATOM      2  C2  IND d   1       0.389   0.075  -0.193  0.00  0.00     0.054 A 
ATOM      3  C3  IND d   1       1.709   0.014  -0.477  0.00  0.00    -0.031 A 
ATOM      4  C4  IND d   1       3.666  -0.768   1.001  0.00  0.00     0.051 A 
ATOM      5  C5  IND d   1       3.961  -1.169   2.274  0.00  0.00    -0.031 A 
ATOM      6  C6  IND d   1       2.985  -1.307   3.240  0.00  0.00     0.015 A 
ATOM      7  C7  IND d   1       1.670  -1.057   2.965  0.00  0.00    -0.016 A 
ATOM      8  C8  IND d   1       1.368  -0.643   1.675  0.00  0.00    -0.047 A 
ATOM      9  C9  IND d   1       2.360  -0.460   0.703  0.00  0.00    -0.096 A 
ATOM     10  HN1 IND d   1      -0.602  -0.316   1.494  0.00  0.00     0.298 HD
ENDROOT
TORSDOF 0
ENDMDL
