MODEL 1
REMARK minimizedAffinity 0.602021277
REMARK minimizedRMSD -1
REMARK  0 active torsions:
REMARK  status: ('A' for Active; 'I' for Inactive)
ROOT
ATOM      1  N1  IND d   1      -0.870  -5.810  -3.783  0.00  0.00    -0.196 N 
ATOM      2  C2  IND d   1      -1.553  -5.963  -4.958  0.00  0.00     0.054 A 
ATOM      3  C3  IND d   1      -0.693  -6.000  -6.000  0.00  0.00    -0.031 A 
ATOM      4  C4  IND d   1       1.881  -5.931  -6.000  0.00  0.00     0.051 A 
ATOM      5  C5  IND d   1       2.954  -5.762  -5.171  0.00  0.00    -0.031 A 
ATOM      6  C6  IND d   1       2.804  -5.600  -3.808  0.00  0.00     0.015 A 
ATOM      7  C7  IND d   1       1.571  -5.612  -3.221  0.00  0.00    -0.016 A 
ATOM      8  C8  IND d   1       0.478  -5.777  -4.061  0.00  0.00    -0.047 A 
ATOM      9  C9  IND d   1       0.622  -5.899  -5.449  0.00  0.00    -0.096 A 
ATOM     10  HN1 IND d   1      -1.224  -5.746  -3.002  0.00  0.00     0.298 HD
ENDROOT
TORSDOF 0
ENDMDL
