MODEL 1
REMARK minimizedAffinity 5.6301012
REMARK minimizedRMSD -1
REMARK  0 active torsions:
REMARK  status: ('A' for Active; 'I' for Inactive)
ROOT
ATOM      1  N1  IND d   1      -0.021  -0.108   1.300  0.00  0.00    -0.196 N 
ATOM      2  C2  IND d   1      -0.087   0.471   0.063  0.00  0.00     0.054 A 
ATOM      3  C3  IND d   1       1.128   0.457  -0.529  0.00  0.00    -0.031 A 
ATOM      4  C4  IND d   1       3.342  -0.558   0.307  0.00  0.00     0.051 A 
ATOM      5  C5  IND d   1       3.907  -1.161   1.396  0.00  0.00    -0.031 A 
ATOM      6  C6  IND d   1       3.177  -1.453   2.529  0.00  0.00     0.015 A 
ATOM      7  C7  IND d   1       1.845  -1.160   2.613  0.00  0.00    -0.016 A 
ATOM      8  C8  IND d   1       1.269  -0.541   1.513  0.00  0.00    -0.047 A 
ATOM      9  C9  IND d   1       2.015  -0.204   0.376  0.00  0.00    -0.096 A 
ATOM     10  HN1 IND d   1      -0.676  -0.187   1.852  0.00  0.00     0.298 HD
ENDROOT
TORSDOF 0
ENDMDL
