MODEL 1
REMARK minimizedAffinity 5.80916357
REMARK minimizedRMSD -1
REMARK  0 active torsions:
REMARK  status: ('A' for Active; 'I' for Inactive)
ROOT
ATOM      1  N1  IND d   1       1.140  -0.763   1.866  0.00  0.00    -0.196 N 
ATOM      2  C2  IND d   1       1.132  -0.676   0.502  0.00  0.00     0.054 A 
ATOM      3  C3  IND d   1       2.396  -0.704   0.022  0.00  0.00    -0.031 A 
ATOM      4  C4  IND d   1       4.620  -0.989   1.287  0.00  0.00     0.051 A 
ATOM      5  C5  IND d   1       5.138  -1.071   2.549  0.00  0.00    -0.031 A 
ATOM      6  C6  IND d   1       4.334  -1.056   3.670  0.00  0.00     0.015 A 
ATOM      7  C7  IND d   1       2.974  -0.971   3.571  0.00  0.00    -0.016 A 
ATOM      8  C8  IND d   1       2.445  -0.881   2.291  0.00  0.00    -0.047 A 
ATOM      9  C9  IND d   1       3.259  -0.852   1.151  0.00  0.00    -0.096 A 
ATOM     10  HN1 IND d   1       0.446  -0.746   2.374  0.00  0.00     0.298 HD
ENDROOT
TORSDOF 0
ENDMDL
