MODEL 1
REMARK minimizedAffinity 9.97335052
REMARK minimizedRMSD -1
REMARK  0 active torsions:
REMARK  status: ('A' for Active; 'I' for Inactive)
ROOT
ATOM      1  N1  IND d   1       0.902  -4.764  -3.937  0.00  0.00    -0.196 N 
ATOM      2  C2  IND d   1       1.652  -5.147  -5.014  0.00  0.00     0.054 A 
ATOM      3  C3  IND d   1       0.864  -5.703  -5.962  0.00  0.00    -0.031 A 
ATOM      4  C4  IND d   1      -1.693  -5.994  -5.999  0.00  0.00     0.051 A 
ATOM      5  C5  IND d   1      -2.807  -5.830  -5.225  0.00  0.00    -0.031 A 
ATOM      6  C6  IND d   1      -2.741  -5.289  -3.957  0.00  0.00     0.015 A 
ATOM      7  C7  IND d   1      -1.554  -4.880  -3.419  0.00  0.00    -0.016 A 
ATOM      8  C8  IND d   1      -0.420  -5.051  -4.200  0.00  0.00    -0.047 A 
ATOM      9  C9  IND d   1      -0.475  -5.638  -5.470  0.00  0.00    -0.096 A 
ATOM     10  HN1 IND d   1       1.205  -4.405  -3.218  0.00  0.00     0.298 HD
ENDROOT
TORSDOF 0
ENDMDL
