MODEL 1
REMARK minimizedAffinity 3.14855933
REMARK minimizedRMSD -1
REMARK  0 active torsions:
REMARK  status: ('A' for Active; 'I' for Inactive)
ROOT
ATOM      1  N1  IND d   1      -1.356  -4.572  -4.214  0.00  0.00    -0.196 N 
ATOM      2  C2  IND d   1      -2.068  -5.350  -5.084  0.00  0.00     0.054 A 
ATOM      3  C3  IND d   1      -1.234  -5.995  -5.929  0.00  0.00    -0.031 A 
ATOM      4  C4  IND d   1       1.340  -6.000  -6.000  0.00  0.00     0.051 A 
ATOM      5  C5  IND d   1       2.434  -5.414  -5.428  0.00  0.00    -0.031 A 
ATOM      6  C6  IND d   1       2.319  -4.501  -4.400  0.00  0.00     0.015 A 
ATOM      7  C7  IND d   1       1.100  -4.147  -3.895  0.00  0.00    -0.016 A 
ATOM      8  C8  IND d   1      -0.014  -4.735  -4.478  0.00  0.00    -0.047 A 
ATOM      9  C9  IND d   1       0.094  -5.630  -5.550  0.00  0.00    -0.096 A 
ATOM     10  HN1 IND d   1      -1.691  -4.066  -3.605  0.00  0.00     0.298 HD
ENDROOT
TORSDOF 0
ENDMDL
