MODEL 1
REMARK minimizedAffinity 8.1317234
REMARK minimizedRMSD -1
REMARK  0 active torsions:
REMARK  status: ('A' for Active; 'I' for Inactive)
ROOT
ATOM      1  N1  IND d   1       0.485  -0.935   1.498  0.00  0.00    -0.196 N 
ATOM      2  C2  IND d   1       0.291  -0.458   0.231  0.00  0.00     0.054 A 
ATOM      3  C3  IND d   1       1.477  -0.172  -0.351  0.00  0.00    -0.031 A 
ATOM      4  C4  IND d   1       3.865  -0.504   0.553  0.00  0.00     0.051 A 
ATOM      5  C5  IND d   1       4.550  -0.876   1.675  0.00  0.00    -0.031 A 
ATOM      6  C6  IND d   1       3.902  -1.297   2.818  0.00  0.00     0.015 A 
ATOM      7  C7  IND d   1       2.539  -1.374   2.878  0.00  0.00    -0.016 A 
ATOM      8  C8  IND d   1       1.840  -0.991   1.742  0.00  0.00    -0.047 A 
ATOM      9  C9  IND d   1       2.491  -0.522   0.593  0.00  0.00    -0.096 A 
ATOM     10  HN1 IND d   1      -0.134  -1.161   2.049  0.00  0.00     0.298 HD
ENDROOT
TORSDOF 0
ENDMDL
