MODEL 1
REMARK minimizedAffinity -1.09465635
REMARK minimizedRMSD -1
REMARK  0 active torsions:
REMARK  status: ('A' for Active; 'I' for Inactive)
ROOT
ATOM      1  N1  IND d   1       1.016  -5.932  -4.510  0.00  0.00    -0.196 N 
ATOM      2  C2  IND d   1       0.634  -5.942  -5.822  0.00  0.00     0.054 A 
ATOM      3  C3  IND d   1      -0.713  -5.991  -5.920  0.00  0.00    -0.031 A 
ATOM      4  C4  IND d   1      -2.490  -5.958  -4.058  0.00  0.00     0.051 A 
ATOM      5  C5  IND d   1      -2.626  -5.989  -2.698  0.00  0.00    -0.031 A 
ATOM      6  C6  IND d   1      -1.533  -6.000  -1.856  0.00  0.00     0.015 A 
ATOM      7  C7  IND d   1      -0.257  -5.969  -2.344  0.00  0.00    -0.016 A 
ATOM      8  C8  IND d   1      -0.115  -5.944  -3.724  0.00  0.00    -0.047 A 
ATOM      9  C9  IND d   1      -1.220  -5.976  -4.585  0.00  0.00    -0.096 A 
ATOM     10  HN1 IND d   1       1.827  -5.920  -4.223  0.00  0.00     0.298 HD
ENDROOT
TORSDOF 0
ENDMDL
