MODEL 1
REMARK minimizedAffinity 2.19493127
REMARK minimizedRMSD -1
REMARK  0 active torsions:
REMARK  status: ('A' for Active; 'I' for Inactive)
ROOT
ATOM      1  N1  IND d   1      -1.201  -5.373  -3.870  0.00  0.00    -0.196 N 
ATOM      2  C2  IND d   1      -1.849  -5.809  -4.992  0.00  0.00     0.054 A 
ATOM      3  C3  IND d   1      -0.967  -5.998  -6.000  0.00  0.00    -0.031 A 
ATOM      4  C4  IND d   1       1.595  -5.751  -6.000  0.00  0.00     0.051 A 
ATOM      5  C5  IND d   1       2.638  -5.341  -5.217  0.00  0.00    -0.031 A 
ATOM      6  C6  IND d   1       2.451  -4.915  -3.918  0.00  0.00     0.015 A 
ATOM      7  C7  IND d   1       1.210  -4.893  -3.347  0.00  0.00    -0.016 A 
ATOM      8  C8  IND d   1       0.148  -5.302  -4.141  0.00  0.00    -0.047 A 
ATOM      9  C9  IND d   1       0.326  -5.695  -5.474  0.00  0.00    -0.096 A 
ATOM     10  HN1 IND d   1      -1.574  -5.175  -3.120  0.00  0.00     0.298 HD
ENDROOT
TORSDOF 0
ENDMDL
