MODEL 1
REMARK minimizedAffinity -3.42429209
REMARK minimizedRMSD -1
REMARK  0 active torsions:
REMARK  status: ('A' for Active; 'I' for Inactive)
ROOT
ATOM      1  N1  IND d   1      -0.894  -5.971  -2.592  0.00  0.00    -0.196 N 
ATOM      2  C2  IND d   1      -1.188  -5.974  -3.927  0.00  0.00     0.054 A 
ATOM      3  C3  IND d   1      -2.527  -6.000  -4.114  0.00  0.00    -0.031 A 
ATOM      4  C4  IND d   1      -4.423  -5.937  -2.374  0.00  0.00     0.051 A 
ATOM      5  C5  IND d   1      -4.650  -5.966  -1.026  0.00  0.00    -0.031 A 
ATOM      6  C6  IND d   1      -3.616  -5.996  -0.113  0.00  0.00     0.015 A 
ATOM      7  C7  IND d   1      -2.310  -5.987  -0.515  0.00  0.00    -0.016 A 
ATOM      8  C8  IND d   1      -2.076  -5.964  -1.883  0.00  0.00    -0.047 A 
ATOM      9  C9  IND d   1      -3.121  -5.977  -2.815  0.00  0.00    -0.096 A 
ATOM     10  HN1 IND d   1      -0.105  -5.973  -2.251  0.00  0.00     0.298 HD
ENDROOT
TORSDOF 0
ENDMDL
