MODEL 1
REMARK minimizedAffinity 7.20258093
REMARK minimizedRMSD -1
REMARK  0 active torsions:
REMARK  status: ('A' for Active; 'I' for Inactive)
ROOT
ATOM      1  C1  DEN d   1       3.929  -3.559   2.023  0.00  0.00     0.130 A 
ATOM      2  C2  DEN d   1       3.796  -4.197   0.716  0.00  0.00    -0.031 A 
ATOM      3  C3  DEN d   1       2.632  -3.597   0.032  0.00  0.00     0.027 A 
ATOM      4  C4  DEN d   1       1.036  -1.750   0.865  0.00  0.00     0.027 A 
ATOM      5  C5  DEN d   1       0.742  -0.911   1.917  0.00  0.00    -0.003 A 
ATOM      6  C6  DEN d   1       1.463  -0.919   3.082  0.00  0.00     0.001 A 
ATOM      7  C7  DEN d   1       2.543  -1.753   3.205  0.00  0.00     0.017 A 
ATOM      8  C8  DEN d   1       2.841  -2.607   2.152  0.00  0.00    -0.094 A 
ATOM      9  C9  DEN d   1       2.107  -2.575   0.978  0.00  0.00    -0.072 A 
ENDROOT
TORSDOF 0
ENDMDL
