MODEL 1
REMARK minimizedAffinity 7.01860762
REMARK minimizedRMSD -1
REMARK  0 active torsions:
REMARK  status: ('A' for Active; 'I' for Inactive)
ROOT
ATOM      1  C1  DEN d   1       0.124   0.164   2.981  0.00  0.00     0.130 A 
ATOM      2  C2  DEN d   1      -1.301  -0.138   2.886  0.00  0.00    -0.031 A 
ATOM      3  C3  DEN d   1      -1.990   1.066   2.380  0.00  0.00     0.027 A 
ATOM      4  C4  DEN d   1      -0.993   3.355   1.733  0.00  0.00     0.027 A 
ATOM      5  C5  DEN d   1       0.168   4.091   1.654  0.00  0.00    -0.003 A 
ATOM      6  C6  DEN d   1       1.381   3.586   2.041  0.00  0.00     0.001 A 
ATOM      7  C7  DEN d   1       1.468   2.292   2.483  0.00  0.00     0.017 A 
ATOM      8  C8  DEN d   1       0.300   1.545   2.571  0.00  0.00    -0.094 A 
ATOM      9  C9  DEN d   1      -0.914   2.070   2.164  0.00  0.00    -0.072 A 
ENDROOT
TORSDOF 0
ENDMDL
