MODEL 1
REMARK minimizedAffinity 13.9855566
REMARK minimizedRMSD -1
REMARK  0 active torsions:
REMARK  status: ('A' for Active; 'I' for Inactive)
ROOT
ATOM      1  C1  DEN d   1       0.374  -2.193   1.835  0.00  0.00     0.130 A 
ATOM      2  C2  DEN d   1       0.736  -1.053   2.672  0.00  0.00    -0.031 A 
ATOM      3  C3  DEN d   1       2.209  -0.947   2.686  0.00  0.00     0.027 A 
ATOM      4  C4  DEN d   1       3.954  -2.426   1.496  0.00  0.00     0.027 A 
ATOM      5  C5  DEN d   1       4.127  -3.524   0.681  0.00  0.00    -0.003 A 
ATOM      6  C6  DEN d   1       3.072  -4.268   0.225  0.00  0.00     0.001 A 
ATOM      7  C7  DEN d   1       1.792  -3.899   0.545  0.00  0.00     0.017 A 
ATOM      8  C8  DEN d   1       1.610  -2.798   1.372  0.00  0.00    -0.094 A 
ATOM      9  C9  DEN d   1       2.689  -2.051   1.812  0.00  0.00    -0.072 A 
ENDROOT
TORSDOF 0
ENDMDL
