MODEL 1
REMARK minimizedAffinity 13.6815042
REMARK minimizedRMSD -1
REMARK  0 active torsions:
REMARK  status: ('A' for Active; 'I' for Inactive)
ROOT
ATOM      1  C1  DEN d   1       3.959  -2.993   0.725  0.00  0.00     0.130 A 
ATOM      2  C2  DEN d   1       4.462  -3.369   2.043  0.00  0.00    -0.031 A 
ATOM      3  C3  DEN d   1       3.487  -2.911   3.052  0.00  0.00     0.027 A 
ATOM      4  C4  DEN d   1       1.255  -1.665   2.703  0.00  0.00     0.027 A 
ATOM      5  C5  DEN d   1       0.411  -1.117   1.763  0.00  0.00    -0.003 A 
ATOM      6  C6  DEN d   1       0.703  -1.126   0.425  0.00  0.00     0.001 A 
ATOM      7  C7  DEN d   1       1.849  -1.734  -0.015  0.00  0.00     0.017 A 
ATOM      8  C8  DEN d   1       2.709  -2.282   0.927  0.00  0.00    -0.094 A 
ATOM      9  C9  DEN d   1       2.390  -2.274   2.274  0.00  0.00    -0.072 A 
ENDROOT
TORSDOF 0
ENDMDL
