MODEL 1
REMARK minimizedAffinity 7.98518181
REMARK minimizedRMSD -1
REMARK  0 active torsions:
REMARK  status: ('A' for Active; 'I' for Inactive)
ROOT
ATOM      1  C1  DEN d   1       5.399  -3.281   2.250  0.00  0.00     0.130 A 
ATOM      2  C2  DEN d   1       5.239  -4.480   1.432  0.00  0.00    -0.031 A 
ATOM      3  C3  DEN d   1       5.337  -5.656   2.320  0.00  0.00     0.027 A 
ATOM      4  C4  DEN d   1       5.716  -5.735   4.871  0.00  0.00     0.027 A 
ATOM      5  C5  DEN d   1       5.921  -4.973   5.999  0.00  0.00    -0.003 A 
ATOM      6  C6  DEN d   1       5.999  -3.606   5.953  0.00  0.00     0.001 A 
ATOM      7  C7  DEN d   1       5.827  -2.956   4.759  0.00  0.00     0.017 A 
ATOM      8  C8  DEN d   1       5.628  -3.719   3.616  0.00  0.00    -0.094 A 
ATOM      9  C9  DEN d   1       5.539  -5.098   3.685  0.00  0.00    -0.072 A 
ENDROOT
TORSDOF 0
ENDMDL
