MODEL 1
REMARK minimizedAffinity 3.94112086
REMARK minimizedRMSD -1
REMARK  0 active torsions:
REMARK  status: ('A' for Active; 'I' for Inactive)
ROOT
ATOM      1  C1  DEN d   1       4.734  -1.835   4.293  0.00  0.00     0.130 A 
ATOM      2  C2  DEN d   1       5.004  -2.589   5.514  0.00  0.00    -0.031 A 
ATOM      3  C3  DEN d   1       4.853  -4.026   5.207  0.00  0.00     0.027 A 
ATOM      4  C4  DEN d   1       4.236  -5.150   2.969  0.00  0.00     0.027 A 
ATOM      5  C5  DEN d   1       3.904  -4.921   1.652  0.00  0.00    -0.003 A 
ATOM      6  C6  DEN d   1       3.792  -3.657   1.136  0.00  0.00     0.001 A 
ATOM      7  C7  DEN d   1       4.060  -2.574   1.930  0.00  0.00     0.017 A 
ATOM      8  C8  DEN d   1       4.388  -2.796   3.261  0.00  0.00    -0.094 A 
ATOM      9  C9  DEN d   1       4.508  -4.082   3.761  0.00  0.00    -0.072 A 
ENDROOT
TORSDOF 0
ENDMDL
