MODEL 1
REMARK minimizedAffinity 6.46972752
REMARK minimizedRMSD -1
REMARK  0 active torsions:
REMARK  status: ('A' for Active; 'I' for Inactive)
ROOT
ATOM      1  C1  DEN d   1       1.566  -2.009   2.053  0.00  0.00     0.130 A 
ATOM      2  C2  DEN d   1       1.105  -1.628   0.721  0.00  0.00    -0.031 A 
ATOM      3  C3  DEN d   1       2.084  -2.133  -0.263  0.00  0.00     0.027 A 
ATOM      4  C4  DEN d   1       4.256  -3.463   0.146  0.00  0.00     0.027 A 
ATOM      5  C5  DEN d   1       5.072  -4.011   1.111  0.00  0.00    -0.003 A 
ATOM      6  C6  DEN d   1       4.796  -3.903   2.448  0.00  0.00     0.001 A 
ATOM      7  C7  DEN d   1       3.652  -3.268   2.856  0.00  0.00     0.017 A 
ATOM      8  C8  DEN d   1       2.829  -2.706   1.889  0.00  0.00    -0.094 A 
ATOM      9  C9  DEN d   1       3.119  -2.837   0.542  0.00  0.00    -0.072 A 
ENDROOT
TORSDOF 0
ENDMDL
