MODEL 1
REMARK minimizedAffinity 4.79128742
REMARK minimizedRMSD -1
REMARK  0 active torsions:
REMARK  status: ('A' for Active; 'I' for Inactive)
ROOT
ATOM      1  C1  DEN d   1      -3.712   2.227  -4.133  0.00  0.00     0.130 A 
ATOM      2  C2  DEN d   1      -2.512   2.693  -3.445  0.00  0.00    -0.031 A 
ATOM      3  C3  DEN d   1      -2.020   1.595  -2.589  0.00  0.00     0.027 A 
ATOM      4  C4  DEN d   1      -2.993  -0.773  -2.269  0.00  0.00     0.027 A 
ATOM      5  C5  DEN d   1      -4.010  -1.627  -2.634  0.00  0.00    -0.003 A 
ATOM      6  C6  DEN d   1      -5.010  -1.249  -3.491  0.00  0.00     0.001 A 
ATOM      7  C7  DEN d   1      -4.989   0.003  -4.047  0.00  0.00     0.017 A 
ATOM      8  C8  DEN d   1      -3.971   0.872  -3.678  0.00  0.00    -0.094 A 
ATOM      9  C9  DEN d   1      -2.963   0.467  -2.820  0.00  0.00    -0.072 A 
ENDROOT
TORSDOF 0
ENDMDL
