MODEL 1
REMARK minimizedAffinity -0.363606066
REMARK minimizedRMSD -1
REMARK  0 active torsions:
REMARK  status: ('A' for Active; 'I' for Inactive)
ROOT
ATOM      1  C1  DEN d   1       4.392   2.246  -5.956  0.00  0.00     0.130 A 
ATOM      2  C2  DEN d   1       5.805   2.613  -5.979  0.00  0.00    -0.031 A 
ATOM      3  C3  DEN d   1       5.895   4.086  -5.996  0.00  0.00     0.027 A 
ATOM      4  C4  DEN d   1       3.992   5.828  -5.985  0.00  0.00     0.027 A 
ATOM      5  C5  DEN d   1       2.625   5.997  -5.979  0.00  0.00    -0.003 A 
ATOM      6  C6  DEN d   1       1.758   4.937  -6.000  0.00  0.00     0.001 A 
ATOM      7  C7  DEN d   1       2.249   3.658  -5.981  0.00  0.00     0.017 A 
ATOM      8  C8  DEN d   1       3.626   3.480  -5.994  0.00  0.00    -0.094 A 
ATOM      9  C9  DEN d   1       4.486   4.564  -5.961  0.00  0.00    -0.072 A 
ENDROOT
TORSDOF 0
ENDMDL
