MODEL 1
REMARK minimizedAffinity 19.3141708
REMARK minimizedRMSD -1
REMARK  0 active torsions:
REMARK  status: ('A' for Active; 'I' for Inactive)
ROOT
ATOM      1  C1  DEN d   1      -2.967  -1.522  -1.498  0.00  0.00     0.130 A 
ATOM      2  C2  DEN d   1      -2.612  -0.178  -1.050  0.00  0.00    -0.031 A 
ATOM      3  C3  DEN d   1      -3.482   0.784  -1.757  0.00  0.00     0.027 A 
ATOM      4  C4  DEN d   1      -5.337   0.324  -3.488  0.00  0.00     0.027 A 
ATOM      5  C5  DEN d   1      -5.995  -0.658  -4.195  0.00  0.00    -0.003 A 
ATOM      6  C6  DEN d   1      -5.670  -1.983  -4.078  0.00  0.00     0.001 A 
ATOM      7  C7  DEN d   1      -4.689  -2.367  -3.202  0.00  0.00     0.017 A 
ATOM      8  C8  DEN d   1      -4.017  -1.382  -2.492  0.00  0.00    -0.094 A 
ATOM      9  C9  DEN d   1      -4.369  -0.048  -2.614  0.00  0.00    -0.072 A 
ENDROOT
TORSDOF 0
ENDMDL
