MODEL 1
REMARK minimizedAffinity -3.32691145
REMARK minimizedRMSD -1
REMARK  2 active torsions:
REMARK  status: ('A' for Active; 'I' for Inactive)
REMARK    1  A    between atoms: C2'_3  and  C1'_4 
REMARK    2  A    between atoms: C1'_4  and  C1_5 
ROOT
ATOM      1  C1  I4B d   1      -0.104  -0.320  -0.591  0.00  0.00    -0.075 A 
ATOM      2  C2  I4B d   1       0.345  -0.331   0.706  0.00  0.00     0.003 A 
ATOM      3  C3  I4B d   1       0.030   0.740   1.577  0.00  0.00     0.002 A 
ATOM      4  C4  I4B d   1      -0.688   1.817   1.100  0.00  0.00    -0.004 A 
ATOM      5  C5  I4B d   1      -1.162   1.815  -0.209  0.00  0.00     0.002 A 
ATOM      6  C6  I4B d   1      -0.879   0.734  -1.057  0.00  0.00     0.003 A 
ENDROOT
BRANCH   1   7
ATOM      7  C1' I4B d   1       0.274  -1.451  -1.494  0.00  0.00     0.060 C 
BRANCH   7   8
ATOM      8  C2' I4B d   1      -0.666  -2.606  -1.215  0.00  0.00    -0.013 C 
ATOM      9  C4' I4B d   1      -1.718  -2.724  -2.287  0.00  0.00     0.013 C 
ATOM     10  C3' I4B d   1       0.154  -3.858  -1.121  0.00  0.00     0.013 C 
ENDBRANCH   7   8
ENDBRANCH   1   7
TORSDOF 2
ENDMDL
