MODEL 1
REMARK minimizedAffinity -5.3836751
REMARK minimizedRMSD -1
REMARK  2 active torsions:
REMARK  status: ('A' for Active; 'I' for Inactive)
REMARK    1  A    between atoms: C2'_3  and  C1'_4 
REMARK    2  A    between atoms: C1'_4  and  C1_5 
ROOT
ATOM      1  C1  I4B d   1       0.244  -0.518  -0.168  0.00  0.00    -0.075 A 
ATOM      2  C2  I4B d   1      -0.805   0.303  -0.498  0.00  0.00     0.003 A 
ATOM      3  C3  I4B d   1      -1.235   1.308   0.401  0.00  0.00     0.002 A 
ATOM      4  C4  I4B d   1      -0.623   1.424   1.633  0.00  0.00    -0.004 A 
ATOM      5  C5  I4B d   1       0.455   0.606   1.957  0.00  0.00     0.002 A 
ATOM      6  C6  I4B d   1       0.900  -0.363   1.046  0.00  0.00     0.003 A 
ENDROOT
BRANCH   1   7
ATOM      7  C1' I4B d   1       0.650  -1.591  -1.128  0.00  0.00     0.060 C 
BRANCH   7   8
ATOM      8  C2' I4B d   1      -0.534  -2.516  -1.322  0.00  0.00    -0.013 C 
ATOM      9  C4' I4B d   1      -0.645  -2.967  -2.755  0.00  0.00     0.013 C 
ATOM     10  C3' I4B d   1      -0.364  -3.686  -0.398  0.00  0.00     0.013 C 
ENDBRANCH   7   8
ENDBRANCH   1   7
TORSDOF 2
ENDMDL
