MODEL 1
REMARK minimizedAffinity -3.76245737
REMARK minimizedRMSD -1
REMARK  2 active torsions:
REMARK  status: ('A' for Active; 'I' for Inactive)
REMARK    1  A    between atoms: C2'_3  and  C1'_4 
REMARK    2  A    between atoms: C1'_4  and  C1_5 
ROOT
ATOM      1  C1  I4B d   1      -0.101  -0.185  -0.539  0.00  0.00    -0.075 A 
ATOM      2  C2  I4B d   1       0.563  -0.229   0.661  0.00  0.00     0.003 A 
ATOM      3  C3  I4B d   1       0.236   0.686   1.691  0.00  0.00     0.002 A 
ATOM      4  C4  I4B d   1      -0.719   1.655   1.461  0.00  0.00    -0.004 A 
ATOM      5  C5  I4B d   1      -1.407   1.684   0.251  0.00  0.00     0.002 A 
ATOM      6  C6  I4B d   1      -1.105   0.751  -0.751  0.00  0.00     0.003 A 
ENDROOT
BRANCH   1   7
ATOM      7  C1' I4B d   1       0.293  -1.145  -1.616  0.00  0.00     0.060 C 
BRANCH   7   8
ATOM      8  C2' I4B d   1      -0.271  -2.505  -1.258  0.00  0.00    -0.013 C 
ATOM      9  C4' I4B d   1      -1.323  -2.936  -2.246  0.00  0.00     0.013 C 
ATOM     10  C3' I4B d   1       0.866  -3.482  -1.217  0.00  0.00     0.013 C 
ENDBRANCH   7   8
ENDBRANCH   1   7
TORSDOF 2
ENDMDL
