MODEL 1
REMARK minimizedAffinity -4.66960573
REMARK minimizedRMSD -1
REMARK  2 active torsions:
REMARK  status: ('A' for Active; 'I' for Inactive)
REMARK    1  A    between atoms: C2'_3  and  C1'_4 
REMARK    2  A    between atoms: C1'_4  and  C1_5 
ROOT
ATOM      1  C1  I4B d   1      -0.739   0.379   0.215  0.00  0.00    -0.075 A 
ATOM      2  C2  I4B d   1      -0.235   0.356   1.491  0.00  0.00     0.003 A 
ATOM      3  C3  I4B d   1      -0.272   1.522   2.293  0.00  0.00     0.002 A 
ATOM      4  C4  I4B d   1      -0.773   2.695   1.766  0.00  0.00    -0.004 A 
ATOM      5  C5  I4B d   1      -1.305   2.710   0.479  0.00  0.00     0.002 A 
ATOM      6  C6  I4B d   1      -1.299   1.542  -0.297  0.00  0.00     0.003 A 
ENDROOT
BRANCH   1   7
ATOM      7  C1' I4B d   1      -0.654  -0.862  -0.616  0.00  0.00     0.060 C 
BRANCH   7   8
ATOM      8  C2' I4B d   1       0.812  -1.180  -0.831  0.00  0.00    -0.013 C 
ATOM      9  C4' I4B d   1       1.010  -2.632  -1.178  0.00  0.00     0.013 C 
ATOM     10  C3' I4B d   1       1.324  -0.288  -1.923  0.00  0.00     0.013 C 
ENDBRANCH   7   8
ENDBRANCH   1   7
TORSDOF 2
ENDMDL
