MODEL 1
REMARK minimizedAffinity -2.50024176
REMARK minimizedRMSD -1
REMARK  2 active torsions:
REMARK  status: ('A' for Active; 'I' for Inactive)
REMARK    1  A    between atoms: C2'_3  and  C1'_4 
REMARK    2  A    between atoms: C1'_4  and  C1_5 
ROOT
ATOM      1  C1  I4B d   1      -0.279   0.415   0.516  0.00  0.00    -0.075 A 
ATOM      2  C2  I4B d   1      -1.429  -0.256   0.182  0.00  0.00     0.003 A 
ATOM      3  C3  I4B d   1      -1.358  -1.513  -0.466  0.00  0.00     0.002 A 
ATOM      4  C4  I4B d   1      -0.126  -2.034  -0.805  0.00  0.00    -0.004 A 
ATOM      5  C5  I4B d   1       1.040  -1.363  -0.445  0.00  0.00     0.002 A 
ATOM      6  C6  I4B d   1       0.963  -0.137   0.230  0.00  0.00     0.003 A 
ENDROOT
BRANCH   1   7
ATOM      7  C1' I4B d   1      -0.391   1.755   1.171  0.00  0.00     0.060 C 
BRANCH   7   8
ATOM      8  C2' I4B d   1      -1.537   2.500   0.517  0.00  0.00    -0.013 C 
ATOM      9  C4' I4B d   1      -1.870   3.759   1.273  0.00  0.00     0.013 C 
ATOM     10  C3' I4B d   1      -1.145   2.804  -0.898  0.00  0.00     0.013 C 
ENDBRANCH   7   8
ENDBRANCH   1   7
TORSDOF 2
ENDMDL
