MODEL 1
REMARK minimizedAffinity -4.72040701
REMARK minimizedRMSD -1
REMARK  2 active torsions:
REMARK  status: ('A' for Active; 'I' for Inactive)
REMARK    1  A    between atoms: C2'_3  and  C1'_4 
REMARK    2  A    between atoms: C1'_4  and  C1_5 
ROOT
ATOM      1  C1  I4B d   1      -0.160  -0.144   0.013  0.00  0.00    -0.075 A 
ATOM      2  C2  I4B d   1       0.501   0.299   1.132  0.00  0.00     0.003 A 
ATOM      3  C3  I4B d   1      -0.026   1.369   1.894  0.00  0.00     0.002 A 
ATOM      4  C4  I4B d   1      -1.182   1.996   1.477  0.00  0.00    -0.004 A 
ATOM      5  C5  I4B d   1      -1.864   1.531   0.356  0.00  0.00     0.002 A 
ATOM      6  C6  I4B d   1      -1.357   0.446  -0.373  0.00  0.00     0.003 A 
ENDROOT
BRANCH   1   7
ATOM      7  C1' I4B d   1       0.442  -1.255  -0.787  0.00  0.00     0.060 C 
BRANCH   7   8
ATOM      8  C2' I4B d   1      -0.480  -2.453  -0.690  0.00  0.00    -0.013 C 
ATOM      9  C4' I4B d   1      -1.358  -2.567  -1.908  0.00  0.00     0.013 C 
ATOM     10  C3' I4B d   1       0.368  -3.678  -0.518  0.00  0.00     0.013 C 
ENDBRANCH   7   8
ENDBRANCH   1   7
TORSDOF 2
ENDMDL
