MODEL 1
REMARK minimizedAffinity 2.99971366
REMARK minimizedRMSD -1
REMARK  0 active torsions:
REMARK  status: ('A' for Active; 'I' for Inactive)
ROOT
ATOM      1  C1  DEN d   1      -3.805   2.571   2.129  0.00  0.00     0.130 A 
ATOM      2  C2  DEN d   1      -2.938   1.413   1.928  0.00  0.00    -0.031 A 
ATOM      3  C3  DEN d   1      -3.113   0.507   3.081  0.00  0.00     0.027 A 
ATOM      4  C4  DEN d   1      -4.638   0.779   5.143  0.00  0.00     0.027 A 
ATOM      5  C5  DEN d   1      -5.552   1.603   5.762  0.00  0.00    -0.003 A 
ATOM      6  C6  DEN d   1      -5.919   2.813   5.235  0.00  0.00     0.001 A 
ATOM      7  C7  DEN d   1      -5.403   3.213   4.031  0.00  0.00     0.017 A 
ATOM      8  C8  DEN d   1      -4.476   2.391   3.404  0.00  0.00    -0.094 A 
ATOM      9  C9  DEN d   1      -4.127   1.166   3.947  0.00  0.00    -0.072 A 
ENDROOT
TORSDOF 0
ENDMDL
