MODEL 1
REMARK minimizedAffinity 9.17410183
REMARK minimizedRMSD -1
REMARK  0 active torsions:
REMARK  status: ('A' for Active; 'I' for Inactive)
ROOT
ATOM      1  C1  DEN d   1      -1.190  -2.157  -6.000  0.00  0.00     0.130 A 
ATOM      2  C2  DEN d   1      -1.154  -0.739  -5.651  0.00  0.00    -0.031 A 
ATOM      3  C3  DEN d   1      -2.507  -0.342  -5.212  0.00  0.00     0.027 A 
ATOM      4  C4  DEN d   1      -4.642  -1.779  -5.035  0.00  0.00     0.027 A 
ATOM      5  C5  DEN d   1      -5.168  -3.037  -5.233  0.00  0.00    -0.003 A 
ATOM      6  C6  DEN d   1      -4.420  -4.072  -5.728  0.00  0.00     0.001 A 
ATOM      7  C7  DEN d   1      -3.091  -3.880  -6.000  0.00  0.00     0.017 A 
ATOM      8  C8  DEN d   1      -2.555  -2.613  -5.810  0.00  0.00    -0.094 A 
ATOM      9  C9  DEN d   1      -3.325  -1.582  -5.298  0.00  0.00    -0.072 A 
ENDROOT
TORSDOF 0
ENDMDL
