MODEL 1
REMARK minimizedAffinity -1.77080321
REMARK minimizedRMSD -1
REMARK  0 active torsions:
REMARK  status: ('A' for Active; 'I' for Inactive)
ROOT
ATOM      1  C1  DEN d   1      -4.681  -4.007  -6.000  0.00  0.00     0.130 A 
ATOM      2  C2  DEN d   1      -5.987  -3.354  -5.961  0.00  0.00    -0.031 A 
ATOM      3  C3  DEN d   1      -5.767  -1.894  -5.943  0.00  0.00     0.027 A 
ATOM      4  C4  DEN d   1      -3.544  -0.588  -5.977  0.00  0.00     0.027 A 
ATOM      5  C5  DEN d   1      -2.172  -0.707  -5.998  0.00  0.00    -0.003 A 
ATOM      6  C6  DEN d   1      -1.545  -1.925  -5.987  0.00  0.00     0.001 A 
ATOM      7  C7  DEN d   1      -2.292  -3.073  -6.000  0.00  0.00     0.017 A 
ATOM      8  C8  DEN d   1      -3.675  -2.961  -5.971  0.00  0.00    -0.094 A 
ATOM      9  C9  DEN d   1      -4.291  -1.720  -5.995  0.00  0.00    -0.072 A 
ENDROOT
TORSDOF 0
ENDMDL
