MODEL 1
REMARK minimizedAffinity 6.96360874
REMARK minimizedRMSD -1
REMARK  0 active torsions:
REMARK  status: ('A' for Active; 'I' for Inactive)
ROOT
ATOM      1  C1  DEN d   1      -4.479  -3.266  -5.835  0.00  0.00     0.130 A 
ATOM      2  C2  DEN d   1      -3.748  -4.519  -5.997  0.00  0.00    -0.031 A 
ATOM      3  C3  DEN d   1      -2.304  -4.208  -6.000  0.00  0.00     0.027 A 
ATOM      4  C4  DEN d   1      -1.137  -1.920  -5.768  0.00  0.00     0.027 A 
ATOM      5  C5  DEN d   1      -1.340  -0.566  -5.621  0.00  0.00    -0.003 A 
ATOM      6  C6  DEN d   1      -2.594  -0.017  -5.569  0.00  0.00     0.001 A 
ATOM      7  C7  DEN d   1      -3.694  -0.832  -5.620  0.00  0.00     0.017 A 
ATOM      8  C8  DEN d   1      -3.497  -2.198  -5.776  0.00  0.00    -0.094 A 
ATOM      9  C9  DEN d   1      -2.221  -2.735  -5.814  0.00  0.00    -0.072 A 
ENDROOT
TORSDOF 0
ENDMDL
