MODEL 1
REMARK minimizedAffinity 7.56770802
REMARK minimizedRMSD -1
REMARK  0 active torsions:
REMARK  status: ('A' for Active; 'I' for Inactive)
ROOT
ATOM      1  C1  DEN d   1      -3.532  -3.360  -5.979  0.00  0.00     0.130 A 
ATOM      2  C2  DEN d   1      -4.881  -2.803  -5.958  0.00  0.00    -0.031 A 
ATOM      3  C3  DEN d   1      -4.767  -1.330  -5.957  0.00  0.00     0.027 A 
ATOM      4  C4  DEN d   1      -2.644   0.133  -5.990  0.00  0.00     0.027 A 
ATOM      5  C5  DEN d   1      -1.266   0.112  -6.000  0.00  0.00    -0.003 A 
ATOM      6  C6  DEN d   1      -0.553  -1.057  -5.969  0.00  0.00     0.001 A 
ATOM      7  C7  DEN d   1      -1.215  -2.256  -5.973  0.00  0.00     0.017 A 
ATOM      8  C8  DEN d   1      -2.604  -2.243  -5.955  0.00  0.00    -0.094 A 
ATOM      9  C9  DEN d   1      -3.307  -1.051  -5.999  0.00  0.00    -0.072 A 
ENDROOT
TORSDOF 0
ENDMDL
