MODEL 1
REMARK minimizedAffinity 0.770484507
REMARK minimizedRMSD -1
REMARK  0 active torsions:
REMARK  status: ('A' for Active; 'I' for Inactive)
ROOT
ATOM      1  C1  DEN d   1      -5.511   3.325   4.119  0.00  0.00     0.130 A 
ATOM      2  C2  DEN d   1      -6.000   2.516   5.232  0.00  0.00    -0.031 A 
ATOM      3  C3  DEN d   1      -5.607   1.115   4.985  0.00  0.00     0.027 A 
ATOM      4  C4  DEN d   1      -4.291   0.125   2.999  0.00  0.00     0.027 A 
ATOM      5  C5  DEN d   1      -3.675   0.418   1.803  0.00  0.00    -0.003 A 
ATOM      6  C6  DEN d   1      -3.657   1.685   1.283  0.00  0.00     0.001 A 
ATOM      7  C7  DEN d   1      -4.228   2.715   1.983  0.00  0.00     0.017 A 
ATOM      8  C8  DEN d   1      -4.858   2.425   3.186  0.00  0.00    -0.094 A 
ATOM      9  C9  DEN d   1      -4.855   1.140   3.701  0.00  0.00    -0.072 A 
ENDROOT
TORSDOF 0
ENDMDL
