MODEL 1
REMARK minimizedAffinity 17.1184635
REMARK minimizedRMSD -1
REMARK  0 active torsions:
REMARK  status: ('A' for Active; 'I' for Inactive)
ROOT
ATOM      1  C1  DEN d   1      -3.276  -3.493  -6.000  0.00  0.00     0.130 A 
ATOM      2  C2  DEN d   1      -4.539  -2.761  -5.964  0.00  0.00    -0.031 A 
ATOM      3  C3  DEN d   1      -4.230  -1.317  -5.943  0.00  0.00     0.027 A 
ATOM      4  C4  DEN d   1      -1.930  -0.150  -5.968  0.00  0.00     0.027 A 
ATOM      5  C5  DEN d   1      -0.568  -0.354  -5.984  0.00  0.00    -0.003 A 
ATOM      6  C6  DEN d   1      -0.017  -1.608  -5.973  0.00  0.00     0.001 A 
ATOM      7  C7  DEN d   1      -0.833  -2.708  -5.990  0.00  0.00     0.017 A 
ATOM      8  C8  DEN d   1      -2.207  -2.510  -5.966  0.00  0.00    -0.094 A 
ATOM      9  C9  DEN d   1      -2.745  -1.235  -5.990  0.00  0.00    -0.072 A 
ENDROOT
TORSDOF 0
ENDMDL
