MODEL 1
REMARK minimizedAffinity 2.39358616
REMARK minimizedRMSD -1
REMARK  0 active torsions:
REMARK  status: ('A' for Active; 'I' for Inactive)
ROOT
ATOM      1  C1  DEN d   1      -4.464   2.099   1.952  0.00  0.00     0.130 A 
ATOM      2  C2  DEN d   1      -3.700   1.096   1.216  0.00  0.00    -0.031 A 
ATOM      3  C3  DEN d   1      -3.566  -0.097   2.076  0.00  0.00     0.027 A 
ATOM      4  C4  DEN d   1      -4.467  -0.488   4.461  0.00  0.00     0.027 A 
ATOM      5  C5  DEN d   1      -5.166   0.079   5.504  0.00  0.00    -0.003 A 
ATOM      6  C6  DEN d   1      -5.646   1.360   5.450  0.00  0.00     0.001 A 
ATOM      7  C7  DEN d   1      -5.473   2.102   4.311  0.00  0.00     0.017 A 
ATOM      8  C8  DEN d   1      -4.763   1.540   3.258  0.00  0.00    -0.094 A 
ATOM      9  C9  DEN d   1      -4.296   0.239   3.328  0.00  0.00    -0.072 A 
ENDROOT
TORSDOF 0
ENDMDL
