MODEL 1
REMARK minimizedAffinity 0.576126516
REMARK minimizedRMSD -1
REMARK  0 active torsions:
REMARK  status: ('A' for Active; 'I' for Inactive)
ROOT
ATOM      1  C1  DEN d   1      -5.157  -0.614  -5.942  0.00  0.00     0.130 A 
ATOM      2  C2  DEN d   1      -5.832  -1.909  -5.970  0.00  0.00    -0.031 A 
ATOM      3  C3  DEN d   1      -4.798  -2.963  -5.997  0.00  0.00     0.027 A 
ATOM      4  C4  DEN d   1      -2.230  -2.716  -5.994  0.00  0.00     0.027 A 
ATOM      5  C5  DEN d   1      -1.189  -1.814  -5.987  0.00  0.00    -0.003 A 
ATOM      6  C6  DEN d   1      -1.396  -0.460  -5.999  0.00  0.00     0.001 A 
ATOM      7  C7  DEN d   1      -2.674   0.031  -5.973  0.00  0.00     0.017 A 
ATOM      8  C8  DEN d   1      -3.729  -0.872  -5.987  0.00  0.00    -0.094 A 
ATOM      9  C9  DEN d   1      -3.499  -2.237  -5.963  0.00  0.00    -0.072 A 
ENDROOT
TORSDOF 0
ENDMDL
