MODEL 1
REMARK minimizedAffinity 3.48661518
REMARK minimizedRMSD -1
REMARK  0 active torsions:
REMARK  status: ('A' for Active; 'I' for Inactive)
ROOT
ATOM      1  C1  DEN d   1       5.038  -0.621   3.289  0.00  0.00     0.130 A 
ATOM      2  C2  DEN d   1       4.872  -1.090   1.916  0.00  0.00    -0.031 A 
ATOM      3  C3  DEN d   1       5.120  -2.546   1.898  0.00  0.00     0.027 A 
ATOM      4  C4  DEN d   1       5.736  -4.112   3.854  0.00  0.00     0.027 A 
ATOM      5  C5  DEN d   1       6.000  -4.170   5.204  0.00  0.00    -0.003 A 
ATOM      6  C6  DEN d   1       5.995  -3.055   5.998  0.00  0.00     0.001 A 
ATOM      7  C7  DEN d   1       5.676  -1.837   5.457  0.00  0.00     0.017 A 
ATOM      8  C8  DEN d   1       5.416  -1.769   4.094  0.00  0.00    -0.094 A 
ATOM      9  C9  DEN d   1       5.414  -2.910   3.311  0.00  0.00    -0.072 A 
ENDROOT
TORSDOF 0
ENDMDL
