MODEL 1
REMARK minimizedAffinity 8.34811687
REMARK minimizedRMSD -1
REMARK  0 active torsions:
REMARK  status: ('A' for Active; 'I' for Inactive)
ROOT
ATOM      1  C1  DEN d   1      -1.420  -2.656  -5.974  0.00  0.00     0.130 A 
ATOM      2  C2  DEN d   1      -0.817  -1.325  -5.971  0.00  0.00    -0.031 A 
ATOM      3  C3  DEN d   1      -1.908  -0.330  -5.958  0.00  0.00     0.027 A 
ATOM      4  C4  DEN d   1      -4.458  -0.718  -5.938  0.00  0.00     0.027 A 
ATOM      5  C5  DEN d   1      -5.448  -1.676  -5.947  0.00  0.00    -0.003 A 
ATOM      6  C6  DEN d   1      -5.167  -3.016  -6.000  0.00  0.00     0.001 A 
ATOM      7  C7  DEN d   1      -3.864  -3.437  -6.000  0.00  0.00     0.017 A 
ATOM      8  C8  DEN d   1      -2.860  -2.477  -5.998  0.00  0.00    -0.094 A 
ATOM      9  C9  DEN d   1      -3.164  -1.127  -5.932  0.00  0.00    -0.072 A 
ENDROOT
TORSDOF 0
ENDMDL
