MODEL 1
REMARK minimizedAffinity 10.2648811
REMARK minimizedRMSD -1
REMARK  0 active torsions:
REMARK  status: ('A' for Active; 'I' for Inactive)
ROOT
ATOM      1  C1  DEN d   1      -5.998   4.716   5.963  0.00  0.00     0.130 A 
ATOM      2  C2  DEN d   1      -5.696   5.988   5.312  0.00  0.00    -0.031 A 
ATOM      3  C3  DEN d   1      -5.339   5.708   3.907  0.00  0.00     0.027 A 
ATOM      4  C4  DEN d   1      -5.230   3.442   2.680  0.00  0.00     0.027 A 
ATOM      5  C5  DEN d   1      -5.390   2.081   2.820  0.00  0.00    -0.003 A 
ATOM      6  C6  DEN d   1      -5.728   1.505   4.015  0.00  0.00     0.001 A 
ATOM      7  C7  DEN d   1      -5.961   2.296   5.109  0.00  0.00     0.017 A 
ATOM      8  C8  DEN d   1      -5.795   3.669   4.978  0.00  0.00    -0.094 A 
ATOM      9  C9  DEN d   1      -5.464   4.234   3.757  0.00  0.00    -0.072 A 
ENDROOT
TORSDOF 0
ENDMDL
