MODEL 1
REMARK minimizedAffinity 4.38045692
REMARK minimizedRMSD -1
REMARK  0 active torsions:
REMARK  status: ('A' for Active; 'I' for Inactive)
ROOT
ATOM      1  C1  DEN d   1      -2.375  -4.377  -5.995  0.00  0.00     0.130 A 
ATOM      2  C2  DEN d   1      -3.782  -4.765  -5.961  0.00  0.00    -0.031 A 
ATOM      3  C3  DEN d   1      -4.595  -3.533  -5.947  0.00  0.00     0.027 A 
ATOM      4  C4  DEN d   1      -3.816  -1.074  -5.981  0.00  0.00     0.027 A 
ATOM      5  C5  DEN d   1      -2.716  -0.246  -5.999  0.00  0.00    -0.003 A 
ATOM      6  C6  DEN d   1      -1.435  -0.732  -5.983  0.00  0.00     0.001 A 
ATOM      7  C7  DEN d   1      -1.223  -2.085  -5.993  0.00  0.00     0.017 A 
ATOM      8  C8  DEN d   1      -2.327  -2.927  -5.968  0.00  0.00    -0.094 A 
ATOM      9  C9  DEN d   1      -3.613  -2.416  -5.996  0.00  0.00    -0.072 A 
ENDROOT
TORSDOF 0
ENDMDL
