MODEL 1
REMARK minimizedAffinity 3.99013543
REMARK minimizedRMSD -1
REMARK  0 active torsions:
REMARK  status: ('A' for Active; 'I' for Inactive)
ROOT
ATOM      1  C1  DEN d   1      -1.525  -0.335  -4.843  0.00  0.00     0.130 A 
ATOM      2  C2  DEN d   1      -0.430  -1.214  -5.241  0.00  0.00    -0.031 A 
ATOM      3  C3  DEN d   1      -1.015  -2.465  -5.765  0.00  0.00     0.027 A 
ATOM      4  C4  DEN d   1      -3.499  -3.119  -6.000  0.00  0.00     0.027 A 
ATOM      5  C5  DEN d   1      -4.794  -2.704  -5.784  0.00  0.00    -0.003 A 
ATOM      6  C6  DEN d   1      -5.088  -1.494  -5.213  0.00  0.00     0.001 A 
ATOM      7  C7  DEN d   1      -4.073  -0.637  -4.879  0.00  0.00     0.017 A 
ATOM      8  C8  DEN d   1      -2.764  -1.052  -5.087  0.00  0.00    -0.094 A 
ATOM      9  C9  DEN d   1      -2.488  -2.273  -5.677  0.00  0.00    -0.072 A 
ENDROOT
TORSDOF 0
ENDMDL
