MODEL 1
REMARK minimizedAffinity 11.8651886
REMARK minimizedRMSD -1
REMARK  0 active torsions:
REMARK  status: ('A' for Active; 'I' for Inactive)
ROOT
ATOM      1  C1  DEN d   1      -5.612  -0.908   0.175  0.00  0.00     0.130 A 
ATOM      2  C2  DEN d   1      -5.403  -2.322   0.475  0.00  0.00    -0.031 A 
ATOM      3  C3  DEN d   1      -4.117  -2.452   1.190  0.00  0.00     0.027 A 
ATOM      4  C4  DEN d   1      -2.441  -0.610   1.862  0.00  0.00     0.027 A 
ATOM      5  C5  DEN d   1      -2.179   0.741   1.814  0.00  0.00    -0.003 A 
ATOM      6  C6  DEN d   1      -3.019   1.626   1.191  0.00  0.00     0.001 A 
ATOM      7  C7  DEN d   1      -4.185   1.175   0.631  0.00  0.00     0.017 A 
ATOM      8  C8  DEN d   1      -4.453  -0.187   0.669  0.00  0.00    -0.094 A 
ATOM      9  C9  DEN d   1      -3.597  -1.064   1.314  0.00  0.00    -0.072 A 
ENDROOT
TORSDOF 0
ENDMDL
