MODEL 1
REMARK minimizedAffinity 6.77167559
REMARK minimizedRMSD -1
REMARK  0 active torsions:
REMARK  status: ('A' for Active; 'I' for Inactive)
ROOT
ATOM      1  C   UNL d   1       0.301  -1.862  -1.113  0.00  0.00     0.020 A 
ATOM      2  C1  UNL d   1       1.075  -2.952  -0.717  0.00  0.00     0.020 A 
ATOM      3  C2  UNL d   1       2.265  -2.745  -0.015  0.00  0.00     0.034 A 
ATOM      4  C3  UNL d   1       2.684  -1.446   0.293  0.00  0.00     0.017 A 
ATOM      5  C4  UNL d   1       1.906  -0.352  -0.105  0.00  0.00     0.017 A 
ATOM      6  C5  UNL d   1       0.716  -0.565  -0.808  0.00  0.00     0.034 A 
ATOM      7 Cl   UNL d   1       2.357   1.280   0.238  0.00  0.00    -0.070 Cl
ATOM      8 Cl1  UNL d   1       4.165  -1.264   1.163  0.00  0.00    -0.070 Cl
ENDROOT
TORSDOF 0
ENDMDL
