MODEL 1
REMARK minimizedAffinity -1.1329726
REMARK minimizedRMSD -1
REMARK  0 active torsions:
REMARK  status: ('A' for Active; 'I' for Inactive)
ROOT
ATOM      1  C   UNL d   1      -3.828   1.593   1.626  0.00  0.00     0.020 A 
ATOM      2  C1  UNL d   1      -3.407   2.187   0.437  0.00  0.00     0.020 A 
ATOM      3  C2  UNL d   1      -2.046   2.394   0.203  0.00  0.00     0.034 A 
ATOM      4  C3  UNL d   1      -1.101   2.008   1.160  0.00  0.00     0.017 A 
ATOM      5  C4  UNL d   1      -1.524   1.412   2.354  0.00  0.00     0.017 A 
ATOM      6  C5  UNL d   1      -2.888   1.207   2.583  0.00  0.00     0.034 A 
ATOM      7 Cl   UNL d   1      -0.417   0.909   3.582  0.00  0.00    -0.070 Cl
ATOM      8 Cl1  UNL d   1       0.566   2.294   0.805  0.00  0.00    -0.070 Cl
ENDROOT
TORSDOF 0
ENDMDL
