MODEL 1
REMARK minimizedAffinity 7.90839767
REMARK minimizedRMSD -1
REMARK  0 active torsions:
REMARK  status: ('A' for Active; 'I' for Inactive)
ROOT
ATOM      1  C   UNL d   1       2.774  -1.909   0.130  0.00  0.00     0.020 A 
ATOM      2  C1  UNL d   1       3.457  -1.858   1.345  0.00  0.00     0.020 A 
ATOM      3  C2  UNL d   1       3.614  -0.639   2.007  0.00  0.00     0.034 A 
ATOM      4  C3  UNL d   1       3.088   0.535   1.455  0.00  0.00     0.017 A 
ATOM      5  C4  UNL d   1       2.403   0.483   0.236  0.00  0.00     0.017 A 
ATOM      6  C5  UNL d   1       2.248  -0.741  -0.423  0.00  0.00     0.034 A 
ATOM      7 Cl   UNL d   1       1.726   1.889  -0.507  0.00  0.00    -0.070 Cl
ATOM      8 Cl1  UNL d   1       3.320   2.007   2.329  0.00  0.00    -0.070 Cl
ENDROOT
TORSDOF 0
ENDMDL
