MODEL 1
REMARK minimizedAffinity 7.47450352
REMARK minimizedRMSD -1
REMARK  0 active torsions:
REMARK  status: ('A' for Active; 'I' for Inactive)
ROOT
ATOM      1  C   UNL d   1      -4.129   0.357  -5.380  0.00  0.00     0.020 A 
ATOM      2  C1  UNL d   1      -4.301  -0.283  -4.154  0.00  0.00     0.020 A 
ATOM      3  C2  UNL d   1      -4.830   0.418  -3.068  0.00  0.00     0.034 A 
ATOM      4  C3  UNL d   1      -5.189   1.764  -3.207  0.00  0.00     0.017 A 
ATOM      5  C4  UNL d   1      -5.016   2.406  -4.438  0.00  0.00     0.017 A 
ATOM      6  C5  UNL d   1      -4.486   1.699  -5.522  0.00  0.00     0.034 A 
ATOM      7 Cl   UNL d   1      -5.436   4.064  -4.686  0.00  0.00    -0.070 Cl
ATOM      8 Cl1  UNL d   1      -5.838   2.569  -1.822  0.00  0.00    -0.070 Cl
ENDROOT
TORSDOF 0
ENDMDL
