MODEL 1
REMARK minimizedAffinity 2.81329012
REMARK minimizedRMSD -1
REMARK  0 active torsions:
REMARK  status: ('A' for Active; 'I' for Inactive)
ROOT
ATOM      1  C   UNL d   1       2.585  -1.842   0.030  0.00  0.00     0.020 A 
ATOM      2  C1  UNL d   1       2.038  -2.953   0.670  0.00  0.00     0.020 A 
ATOM      3  C2  UNL d   1       0.865  -3.533   0.183  0.00  0.00     0.034 A 
ATOM      4  C3  UNL d   1       0.235  -3.003  -0.949  0.00  0.00     0.017 A 
ATOM      5  C4  UNL d   1       0.785  -1.887  -1.591  0.00  0.00     0.017 A 
ATOM      6  C5  UNL d   1       1.959  -1.310  -1.099  0.00  0.00     0.034 A 
ATOM      7 Cl   UNL d   1       0.064  -1.177  -2.993  0.00  0.00    -0.070 Cl
ATOM      8 Cl1  UNL d   1      -1.212  -3.771  -1.497  0.00  0.00    -0.070 Cl
ENDROOT
TORSDOF 0
ENDMDL
