MODEL 1
REMARK minimizedAffinity 15.7079954
REMARK minimizedRMSD -1
REMARK  0 active torsions:
REMARK  status: ('A' for Active; 'I' for Inactive)
ROOT
ATOM      1  C   UNL d   1       0.376   3.417   0.321  0.00  0.00     0.020 A 
ATOM      2  C1  UNL d   1       1.453   2.619   0.706  0.00  0.00     0.020 A 
ATOM      3  C2  UNL d   1       1.306   1.705   1.751  0.00  0.00     0.034 A 
ATOM      4  C3  UNL d   1       0.080   1.586   2.415  0.00  0.00     0.017 A 
ATOM      5  C4  UNL d   1      -1.000   2.387   2.028  0.00  0.00     0.017 A 
ATOM      6  C5  UNL d   1      -0.848   3.301   0.981  0.00  0.00     0.034 A 
ATOM      7 Cl   UNL d   1      -2.544   2.297   2.800  0.00  0.00    -0.070 Cl
ATOM      8 Cl1  UNL d   1      -0.030   0.434   3.698  0.00  0.00    -0.070 Cl
ENDROOT
TORSDOF 0
ENDMDL
