MODEL 1
REMARK minimizedAffinity 0.511190712
REMARK minimizedRMSD -1
REMARK  3 active torsions:
REMARK  status: ('A' for Active; 'I' for Inactive)
REMARK    1  A    between atoms: C3'_2  and  C2'_3 
REMARK    2  A    between atoms: C2'_3  and  C1'_4 
REMARK    3  A    between atoms: C1'_4  and  C1_5 
ROOT
ATOM      1  C1  N4B d   1      -2.583  -0.826  -0.413  0.00  0.00    -0.075 A 
ATOM      2  C2  N4B d   1      -3.010   0.516  -0.311  0.00  0.00     0.002 A 
ATOM      3  C3  N4B d   1      -2.104   1.504  -0.013  0.00  0.00     0.002 A 
ATOM      4  C4  N4B d   1      -0.775   1.173   0.205  0.00  0.00    -0.004 A 
ATOM      5  C5  N4B d   1      -0.366  -0.122   0.079  0.00  0.00     0.002 A 
ATOM      6  C6  N4B d   1      -1.265  -1.125  -0.224  0.00  0.00     0.002 A 
ENDROOT
BRANCH   1   7
ATOM      7  C1' N4B d   1      -3.552  -1.951  -0.653  0.00  0.00     0.057 C 
BRANCH   7   8
ATOM      8  C2' N4B d   1      -4.720  -1.437  -1.489  0.00  0.00     0.009 C 
BRANCH   8   9
ATOM      9  C3' N4B d   1      -5.586  -2.570  -2.012  0.00  0.00     0.004 C 
ATOM     10  C4' N4B d   1      -5.541  -2.694  -3.506  0.00  0.00     0.003 C 
ENDBRANCH   8   9
ENDBRANCH   7   8
ENDBRANCH   1   7
TORSDOF 3
ENDMDL
