MODEL 1
REMARK minimizedAffinity -6.5453105
REMARK minimizedRMSD -1
REMARK  3 active torsions:
REMARK  status: ('A' for Active; 'I' for Inactive)
REMARK    1  A    between atoms: C3'_2  and  C2'_3 
REMARK    2  A    between atoms: C2'_3  and  C1'_4 
REMARK    3  A    between atoms: C1'_4  and  C1_5 
ROOT
ATOM      1  C1  N4B d   1      -0.130   0.134   0.825  0.00  0.00    -0.075 A 
ATOM      2  C2  N4B d   1      -0.990   0.847   1.688  0.00  0.00     0.002 A 
ATOM      3  C3  N4B d   1      -0.631   1.058   2.997  0.00  0.00     0.002 A 
ATOM      4  C4  N4B d   1       0.571   0.550   3.468  0.00  0.00    -0.004 A 
ATOM      5  C5  N4B d   1       1.408  -0.116   2.622  0.00  0.00     0.002 A 
ATOM      6  C6  N4B d   1       1.061  -0.332   1.303  0.00  0.00     0.002 A 
ENDROOT
BRANCH   1   7
ATOM      7  C1' N4B d   1      -0.518  -0.196  -0.590  0.00  0.00     0.057 C 
BRANCH   7   8
ATOM      8  C2' N4B d   1       0.572  -1.057  -1.221  0.00  0.00     0.009 C 
BRANCH   8   9
ATOM      9  C3' N4B d   1       0.641  -0.873  -2.727  0.00  0.00     0.004 C 
ATOM     10  C4' N4B d   1       1.194   0.463  -3.124  0.00  0.00     0.003 C 
ENDBRANCH   8   9
ENDBRANCH   7   8
ENDBRANCH   1   7
TORSDOF 3
ENDMDL
