MODEL 1
REMARK minimizedAffinity -3.27654171
REMARK minimizedRMSD -1
REMARK  3 active torsions:
REMARK  status: ('A' for Active; 'I' for Inactive)
REMARK    1  A    between atoms: C3'_2  and  C2'_3 
REMARK    2  A    between atoms: C2'_3  and  C1'_4 
REMARK    3  A    between atoms: C1'_4  and  C1_5 
ROOT
ATOM      1  C1  N4B d   1      -0.328  -0.298   0.298  0.00  0.00    -0.075 A 
ATOM      2  C2  N4B d   1       0.878   0.014   0.963  0.00  0.00     0.002 A 
ATOM      3  C3  N4B d   1       0.848   0.476   2.256  0.00  0.00     0.002 A 
ATOM      4  C4  N4B d   1      -0.370   0.651   2.895  0.00  0.00    -0.004 A 
ATOM      5  C5  N4B d   1      -1.529   0.323   2.254  0.00  0.00     0.002 A 
ATOM      6  C6  N4B d   1      -1.514  -0.146   0.955  0.00  0.00     0.002 A 
ENDROOT
BRANCH   1   7
ATOM      7  C1' N4B d   1      -0.351  -0.724  -1.145  0.00  0.00     0.057 C 
BRANCH   7   8
ATOM      8  C2' N4B d   1       0.392   0.310  -1.985  0.00  0.00     0.009 C 
BRANCH   8   9
ATOM      9  C3' N4B d   1       0.456  -0.087  -3.449  0.00  0.00     0.004 C 
ATOM     10  C4' N4B d   1       1.518   0.654  -4.206  0.00  0.00     0.003 C 
ENDBRANCH   8   9
ENDBRANCH   7   8
ENDBRANCH   1   7
TORSDOF 3
ENDMDL
