MODEL 1
REMARK minimizedAffinity -5.48360157
REMARK minimizedRMSD -1
REMARK  3 active torsions:
REMARK  status: ('A' for Active; 'I' for Inactive)
REMARK    1  A    between atoms: C3'_2  and  C2'_3 
REMARK    2  A    between atoms: C2'_3  and  C1'_4 
REMARK    3  A    between atoms: C1'_4  and  C1_5 
ROOT
ATOM      1  C1  N4B d   1       0.460   0.122   0.173  0.00  0.00    -0.075 A 
ATOM      2  C2  N4B d   1      -0.947   0.085   0.297  0.00  0.00     0.002 A 
ATOM      3  C3  N4B d   1      -1.554   0.646   1.393  0.00  0.00     0.002 A 
ATOM      4  C4  N4B d   1      -0.779   1.231   2.383  0.00  0.00    -0.004 A 
ATOM      5  C5  N4B d   1       0.577   1.285   2.243  0.00  0.00     0.002 A 
ATOM      6  C6  N4B d   1       1.201   0.729   1.145  0.00  0.00     0.002 A 
ENDROOT
BRANCH   1   7
ATOM      7  C1' N4B d   1       1.174  -0.553  -0.965  0.00  0.00     0.057 C 
BRANCH   7   8
ATOM      8  C2' N4B d   1       1.858   0.505  -1.826  0.00  0.00     0.009 C 
BRANCH   8   9
ATOM      9  C3' N4B d   1       1.667   0.241  -3.310  0.00  0.00     0.004 C 
ATOM     10  C4' N4B d   1       0.250  -0.102  -3.661  0.00  0.00     0.003 C 
ENDBRANCH   8   9
ENDBRANCH   7   8
ENDBRANCH   1   7
TORSDOF 3
ENDMDL
