MODEL 1
REMARK minimizedAffinity -5.10744286
REMARK minimizedRMSD -1
REMARK  3 active torsions:
REMARK  status: ('A' for Active; 'I' for Inactive)
REMARK    1  A    between atoms: C3'_2  and  C2'_3 
REMARK    2  A    between atoms: C2'_3  and  C1'_4 
REMARK    3  A    between atoms: C1'_4  and  C1_5 
ROOT
ATOM      1  C1  N4B d   1       0.497  -0.356   0.138  0.00  0.00    -0.075 A 
ATOM      2  C2  N4B d   1       1.774  -0.771   0.578  0.00  0.00     0.002 A 
ATOM      3  C3  N4B d   1       2.214  -0.424   1.832  0.00  0.00     0.002 A 
ATOM      4  C4  N4B d   1       1.407   0.349   2.653  0.00  0.00    -0.004 A 
ATOM      5  C5  N4B d   1       0.165   0.724   2.230  0.00  0.00     0.002 A 
ATOM      6  C6  N4B d   1      -0.292   0.379   0.974  0.00  0.00     0.002 A 
ENDROOT
BRANCH   1   7
ATOM      7  C1' N4B d   1       0.007  -0.638  -1.256  0.00  0.00     0.057 C 
BRANCH   7   8
ATOM      8  C2' N4B d   1       1.034  -0.124  -2.261  0.00  0.00     0.009 C 
BRANCH   8   9
ATOM      9  C3' N4B d   1       0.611  -0.395  -3.694  0.00  0.00     0.004 C 
ATOM     10  C4' N4B d   1       0.991   0.713  -4.631  0.00  0.00     0.003 C 
ENDBRANCH   8   9
ENDBRANCH   7   8
ENDBRANCH   1   7
TORSDOF 3
ENDMDL
