MODEL 1
REMARK minimizedAffinity -1.63781011
REMARK minimizedRMSD -1
REMARK  1 active torsions:
REMARK  status: ('A' for Active; 'I' for Inactive)
REMARK    1  A    between atoms: N_2  and  C1_3 
ROOT
ATOM      1  C1  UNL d   1       1.321   1.155   0.441  0.00  0.00     0.143 A 
ATOM      2  C2  UNL d   1       1.281   1.546   1.784  0.00  0.00    -0.057 A 
ATOM      3  C3  UNL d   1       1.980   2.672   2.233  0.00  0.00     0.033 A 
ATOM      4  C4  UNL d   1       2.758   3.414   1.350  0.00  0.00    -0.042 A 
ATOM      5  C5  UNL d   1       2.832   3.030   0.016  0.00  0.00     0.033 A 
ATOM      6  C6  UNL d   1       2.126   1.908  -0.428  0.00  0.00    -0.057 A 
ENDROOT
BRANCH   1   7
ATOM      7  N   UNL d   1       0.727  -0.011  -0.048  0.00  0.00    -0.732 N 
ATOM      8  C   UNL d   1      -0.496  -0.517   0.537  0.00  0.00     0.284 C 
ATOM      9  H3  UNL d   1       0.756  -0.065  -1.064  0.00  0.00     0.395 HD
ENDBRANCH   1   7
TORSDOF 1
ENDMDL
