MODEL 1
REMARK minimizedAffinity -3.38558602
REMARK minimizedRMSD -1
REMARK  1 active torsions:
REMARK  status: ('A' for Active; 'I' for Inactive)
REMARK    1  A    between atoms: N_2  and  C1_3 
ROOT
ATOM      1  C1  UNL d   1       1.819   0.957   1.272  0.00  0.00     0.143 A 
ATOM      2  C2  UNL d   1       1.083   2.086   0.899  0.00  0.00    -0.057 A 
ATOM      3  C3  UNL d   1       1.260   3.315   1.547  0.00  0.00     0.033 A 
ATOM      4  C4  UNL d   1       2.158   3.429   2.602  0.00  0.00    -0.042 A 
ATOM      5  C5  UNL d   1       2.883   2.313   3.007  0.00  0.00     0.033 A 
ATOM      6  C6  UNL d   1       2.707   1.090   2.352  0.00  0.00    -0.057 A 
ENDROOT
BRANCH   1   7
ATOM      7  N   UNL d   1       1.618  -0.316   0.733  0.00  0.00    -0.732 N 
ATOM      8  C   UNL d   1       0.295  -0.900   0.694  0.00  0.00     0.284 C 
ATOM      9  H3  UNL d   1       2.166  -0.472  -0.110  0.00  0.00     0.395 HD
ENDBRANCH   1   7
TORSDOF 1
ENDMDL
