MODEL 1
REMARK minimizedAffinity -0.860103965
REMARK minimizedRMSD -1
REMARK  1 active torsions:
REMARK  status: ('A' for Active; 'I' for Inactive)
REMARK    1  A    between atoms: N_2  and  C1_3 
ROOT
ATOM      1  C1  UNL d   1       0.093   0.155   0.431  0.00  0.00     0.143 A 
ATOM      2  C2  UNL d   1      -1.045   0.449  -0.327  0.00  0.00    -0.057 A 
ATOM      3  C3  UNL d   1      -2.236  -0.267  -0.158  0.00  0.00     0.033 A 
ATOM      4  C4  UNL d   1      -2.300  -1.314   0.756  0.00  0.00    -0.042 A 
ATOM      5  C5  UNL d   1      -1.174  -1.641   1.502  0.00  0.00     0.033 A 
ATOM      6  C6  UNL d   1       0.010  -0.917   1.333  0.00  0.00    -0.057 A 
ENDROOT
BRANCH   1   7
ATOM      7  N   UNL d   1       1.335   0.766   0.239  0.00  0.00    -0.732 N 
ATOM      8  C   UNL d   1       1.700   1.945   0.993  0.00  0.00     0.284 C 
ATOM      9  H3  UNL d   1       2.088   0.090   0.133  0.00  0.00     0.395 HD
ENDBRANCH   1   7
TORSDOF 1
ENDMDL
