MODEL 1
REMARK minimizedAffinity -1.65913379
REMARK minimizedRMSD -1
REMARK  1 active torsions:
REMARK  status: ('A' for Active; 'I' for Inactive)
REMARK    1  A    between atoms: N_2  and  C1_3 
ROOT
ATOM      1  C1  UNL d   1      -0.466   0.644   0.856  0.00  0.00     0.143 A 
ATOM      2  C2  UNL d   1       0.671  -0.116   0.559  0.00  0.00    -0.057 A 
ATOM      3  C3  UNL d   1       0.779  -1.451   0.969  0.00  0.00     0.033 A 
ATOM      4  C4  UNL d   1      -0.239  -2.041   1.710  0.00  0.00    -0.042 A 
ATOM      5  C5  UNL d   1      -1.367  -1.297   2.038  0.00  0.00     0.033 A 
ATOM      6  C6  UNL d   1      -1.472   0.033   1.621  0.00  0.00    -0.057 A 
ENDROOT
BRANCH   1   7
ATOM      7  N   UNL d   1      -0.590   2.004   0.562  0.00  0.00    -0.732 N 
ATOM      8  C   UNL d   1       0.349   2.964   1.101  0.00  0.00     0.284 C 
ATOM      9  H3  UNL d   1      -0.841   2.170  -0.410  0.00  0.00     0.395 HD
ENDBRANCH   1   7
TORSDOF 1
ENDMDL
