MODEL 1
REMARK minimizedAffinity -2.96773219
REMARK minimizedRMSD -1
REMARK  1 active torsions:
REMARK  status: ('A' for Active; 'I' for Inactive)
REMARK    1  A    between atoms: N_2  and  C1_3 
ROOT
ATOM      1  C1  UNL d   1      -0.512  -0.245   0.242  0.00  0.00     0.143 A 
ATOM      2  C2  UNL d   1      -0.874  -0.303  -1.108  0.00  0.00    -0.057 A 
ATOM      3  C3  UNL d   1      -2.147  -0.733  -1.501  0.00  0.00     0.033 A 
ATOM      4  C4  UNL d   1      -3.074  -1.142  -0.549  0.00  0.00    -0.042 A 
ATOM      5  C5  UNL d   1      -2.728  -1.117   0.798  0.00  0.00     0.033 A 
ATOM      6  C6  UNL d   1      -1.458  -0.680   1.184  0.00  0.00    -0.057 A 
ENDROOT
BRANCH   1   7
ATOM      7  N   UNL d   1       0.770   0.080   0.691  0.00  0.00    -0.732 N 
ATOM      8  C   UNL d   1       1.886   0.117  -0.230  0.00  0.00     0.284 C 
ATOM      9  H3  UNL d   1       0.764   0.841   1.367  0.00  0.00     0.395 HD
ENDBRANCH   1   7
TORSDOF 1
ENDMDL
