MODEL 1
REMARK minimizedAffinity -2.99079251
REMARK minimizedRMSD -1
REMARK  1 active torsions:
REMARK  status: ('A' for Active; 'I' for Inactive)
REMARK    1  A    between atoms: N_2  and  C1_3 
ROOT
ATOM      1  C1  UNL d   1      -1.147  -1.228   0.993  0.00  0.00     0.143 A 
ATOM      2  C2  UNL d   1      -0.407  -0.480   0.071  0.00  0.00    -0.057 A 
ATOM      3  C3  UNL d   1      -0.967  -0.063  -1.142  0.00  0.00     0.033 A 
ATOM      4  C4  UNL d   1      -2.273  -0.413  -1.469  0.00  0.00    -0.042 A 
ATOM      5  C5  UNL d   1      -3.019  -1.177  -0.579  0.00  0.00     0.033 A 
ATOM      6  C6  UNL d   1      -2.456  -1.584   0.635  0.00  0.00    -0.057 A 
ENDROOT
BRANCH   1   7
ATOM      7  N   UNL d   1      -0.615  -1.756   2.172  0.00  0.00    -0.732 N 
ATOM      8  C   UNL d   1       0.621  -2.507   2.151  0.00  0.00     0.284 C 
ATOM      9  H3  UNL d   1      -0.698  -1.114   2.957  0.00  0.00     0.395 HD
ENDBRANCH   1   7
TORSDOF 1
ENDMDL
