MODEL 1
REMARK minimizedAffinity -4.64124441
REMARK minimizedRMSD -1
REMARK  1 active torsions:
REMARK  status: ('A' for Active; 'I' for Inactive)
REMARK    1  A    between atoms: N_2  and  C1_3 
ROOT
ATOM      1  C1  UNL d   1      -0.021   0.051  -0.233  0.00  0.00     0.143 A 
ATOM      2  C2  UNL d   1       1.336  -0.172   0.024  0.00  0.00    -0.057 A 
ATOM      3  C3  UNL d   1       2.275  -0.213  -1.013  0.00  0.00     0.033 A 
ATOM      4  C4  UNL d   1       1.868  -0.059  -2.334  0.00  0.00    -0.042 A 
ATOM      5  C5  UNL d   1       0.521   0.139  -2.616  0.00  0.00     0.033 A 
ATOM      6  C6  UNL d   1      -0.412   0.185  -1.575  0.00  0.00    -0.057 A 
ENDROOT
BRANCH   1   7
ATOM      7  N   UNL d   1      -1.017   0.004   0.745  0.00  0.00    -0.732 N 
ATOM      8  C   UNL d   1      -2.385  -0.305   0.391  0.00  0.00     0.284 C 
ATOM      9  H3  UNL d   1      -0.698  -0.442   1.602  0.00  0.00     0.395 HD
ENDBRANCH   1   7
TORSDOF 1
ENDMDL
