MODEL 1
REMARK minimizedAffinity -5.12892485
REMARK minimizedRMSD -1
REMARK  1 active torsions:
REMARK  status: ('A' for Active; 'I' for Inactive)
REMARK    1  A    between atoms: N_2  and  C1_3 
ROOT
ATOM      1  C1  UNL d   1       0.880  -0.002  -2.276  0.00  0.00     0.143 A 
ATOM      2  C2  UNL d   1      -0.007   0.725  -3.077  0.00  0.00    -0.057 A 
ATOM      3  C3  UNL d   1       0.088   0.700  -4.474  0.00  0.00     0.033 A 
ATOM      4  C4  UNL d   1       1.094  -0.033  -5.095  0.00  0.00    -0.042 A 
ATOM      5  C5  UNL d   1       2.002  -0.743  -4.318  0.00  0.00     0.033 A 
ATOM      6  C6  UNL d   1       1.898  -0.719  -2.924  0.00  0.00    -0.057 A 
ENDROOT
BRANCH   1   7
ATOM      7  N   UNL d   1       0.898   0.061  -0.881  0.00  0.00    -0.732 N 
ATOM      8  C   UNL d   1      -0.336   0.027  -0.125  0.00  0.00     0.284 C 
ATOM      9  H3  UNL d   1       1.649  -0.495  -0.477  0.00  0.00     0.395 HD
ENDBRANCH   1   7
TORSDOF 1
ENDMDL
