MODEL 1
REMARK minimizedAffinity -1.95540679
REMARK minimizedRMSD -1
REMARK  1 active torsions:
REMARK  status: ('A' for Active; 'I' for Inactive)
REMARK    1  A    between atoms: N_2  and  C1_3 
ROOT
ATOM      1  C1  UNL d   1       1.045  -0.238  -0.659  0.00  0.00     0.143 A 
ATOM      2  C2  UNL d   1      -0.274  -0.006  -1.065  0.00  0.00    -0.057 A 
ATOM      3  C3  UNL d   1      -1.356  -0.354  -0.247  0.00  0.00     0.033 A 
ATOM      4  C4  UNL d   1      -1.139  -0.968   0.981  0.00  0.00    -0.042 A 
ATOM      5  C5  UNL d   1       0.163  -1.231   1.393  0.00  0.00     0.033 A 
ATOM      6  C6  UNL d   1       1.240  -0.876   0.576  0.00  0.00    -0.057 A 
ENDROOT
BRANCH   1   7
ATOM      7  N   UNL d   1       2.160  -0.005  -1.469  0.00  0.00    -0.732 N 
ATOM      8  C   UNL d   1       2.344  -0.743  -2.700  0.00  0.00     0.284 C 
ATOM      9  H3  UNL d   1       2.389   0.984  -1.539  0.00  0.00     0.395 HD
ENDBRANCH   1   7
TORSDOF 1
ENDMDL
