MODEL 1
REMARK minimizedAffinity -3.05917025
REMARK minimizedRMSD -1
REMARK  1 active torsions:
REMARK  status: ('A' for Active; 'I' for Inactive)
REMARK    1  A    between atoms: N_2  and  C1_3 
ROOT
ATOM      1  C1  UNL d   1      -1.561  -0.391  -0.281  0.00  0.00     0.143 A 
ATOM      2  C2  UNL d   1      -0.928   0.151  -1.405  0.00  0.00    -0.057 A 
ATOM      3  C3  UNL d   1       0.460   0.327  -1.442  0.00  0.00     0.033 A 
ATOM      4  C4  UNL d   1       1.240  -0.011  -0.341  0.00  0.00    -0.042 A 
ATOM      5  C5  UNL d   1       0.630  -0.528   0.796  0.00  0.00     0.033 A 
ATOM      6  C6  UNL d   1      -0.756  -0.707   0.825  0.00  0.00    -0.057 A 
ENDROOT
BRANCH   1   7
ATOM      7  N   UNL d   1      -2.947  -0.499  -0.145  0.00  0.00    -0.732 N 
ATOM      8  C   UNL d   1      -3.737  -1.166  -1.158  0.00  0.00     0.284 C 
ATOM      9  H3  UNL d   1      -3.228  -0.713   0.809  0.00  0.00     0.395 HD
ENDBRANCH   1   7
TORSDOF 1
ENDMDL
