MODEL 1
REMARK minimizedAffinity -0.729114234
REMARK minimizedRMSD -1
REMARK  1 active torsions:
REMARK  status: ('A' for Active; 'I' for Inactive)
REMARK    1  A    between atoms: N_2  and  C1_3 
ROOT
ATOM      1  C1  UNL d   1       1.329   1.519   1.058  0.00  0.00     0.143 A 
ATOM      2  C2  UNL d   1       1.698   1.662   2.401  0.00  0.00    -0.057 A 
ATOM      3  C3  UNL d   1       2.433   2.770   2.838  0.00  0.00     0.033 A 
ATOM      4  C4  UNL d   1       2.840   3.743   1.931  0.00  0.00    -0.042 A 
ATOM      5  C5  UNL d   1       2.507   3.609   0.588  0.00  0.00     0.033 A 
ATOM      6  C6  UNL d   1       1.766   2.504   0.159  0.00  0.00    -0.057 A 
ENDROOT
BRANCH   1   7
ATOM      7  N   UNL d   1       0.683   0.392   0.545  0.00  0.00    -0.732 N 
ATOM      8  C   UNL d   1       0.745  -0.875   1.242  0.00  0.00     0.284 C 
ATOM      9  H3  UNL d   1      -0.233   0.610   0.160  0.00  0.00     0.395 HD
ENDBRANCH   1   7
TORSDOF 1
ENDMDL
