MODEL 1
REMARK minimizedAffinity -3.71258521
REMARK minimizedRMSD -1
REMARK  1 active torsions:
REMARK  status: ('A' for Active; 'I' for Inactive)
REMARK    1  A    between atoms: N_2  and  C1_3 
ROOT
ATOM      1  C1  UNL d   1      -0.126  -0.306   0.600  0.00  0.00     0.143 A 
ATOM      2  C2  UNL d   1      -1.311  -0.106  -0.116  0.00  0.00    -0.057 A 
ATOM      3  C3  UNL d   1      -2.428  -0.926   0.085  0.00  0.00     0.033 A 
ATOM      4  C4  UNL d   1      -2.369  -1.982   0.988  0.00  0.00    -0.042 A 
ATOM      5  C5  UNL d   1      -1.193  -2.215   1.693  0.00  0.00     0.033 A 
ATOM      6  C6  UNL d   1      -0.084  -1.388   1.493  0.00  0.00    -0.057 A 
ENDROOT
BRANCH   1   7
ATOM      7  N   UNL d   1       1.051   0.413   0.374  0.00  0.00    -0.732 N 
ATOM      8  C   UNL d   1       1.402   1.535   1.217  0.00  0.00     0.284 C 
ATOM      9  H3  UNL d   1       1.835  -0.190   0.136  0.00  0.00     0.395 HD
ENDBRANCH   1   7
TORSDOF 1
ENDMDL
