MODEL 1
REMARK minimizedAffinity -0.237690091
REMARK minimizedRMSD -1
REMARK  1 active torsions:
REMARK  status: ('A' for Active; 'I' for Inactive)
REMARK    1  A    between atoms: N_2  and  C1_3 
ROOT
ATOM      1  C1  UNL d   1       0.606  -0.233   0.642  0.00  0.00     0.143 A 
ATOM      2  C2  UNL d   1       0.418  -1.141   1.689  0.00  0.00    -0.057 A 
ATOM      3  C3  UNL d   1      -0.836  -1.711   1.941  0.00  0.00     0.033 A 
ATOM      4  C4  UNL d   1      -1.935  -1.358   1.165  0.00  0.00    -0.042 A 
ATOM      5  C5  UNL d   1      -1.777  -0.439   0.134  0.00  0.00     0.033 A 
ATOM      6  C6  UNL d   1      -0.521   0.122  -0.117  0.00  0.00    -0.057 A 
ENDROOT
BRANCH   1   7
ATOM      7  N   UNL d   1       1.805   0.442   0.403  0.00  0.00    -0.732 N 
ATOM      8  C   UNL d   1       2.166   1.604   1.186  0.00  0.00     0.284 C 
ATOM      9  H3  UNL d   1       2.579  -0.193   0.221  0.00  0.00     0.395 HD
ENDBRANCH   1   7
TORSDOF 1
ENDMDL
