MODEL 1
REMARK minimizedAffinity -3.3460443
REMARK minimizedRMSD -1
REMARK  1 active torsions:
REMARK  status: ('A' for Active; 'I' for Inactive)
REMARK    1  A    between atoms: N_2  and  C1_3 
ROOT
ATOM      1  C1  UNL d   1      -0.165  -0.236  -0.860  0.00  0.00     0.143 A 
ATOM      2  C2  UNL d   1      -1.284  -0.930  -1.331  0.00  0.00    -0.057 A 
ATOM      3  C3  UNL d   1      -2.531  -0.806  -0.707  0.00  0.00     0.033 A 
ATOM      4  C4  UNL d   1      -2.674  -0.005   0.422  0.00  0.00    -0.042 A 
ATOM      5  C5  UNL d   1      -1.570   0.675   0.922  0.00  0.00     0.033 A 
ATOM      6  C6  UNL d   1      -0.329   0.552   0.290  0.00  0.00    -0.057 A 
ENDROOT
BRANCH   1   7
ATOM      7  N   UNL d   1       1.123  -0.394  -1.378  0.00  0.00    -0.732 N 
ATOM      8  C   UNL d   1       1.339  -0.475  -2.806  0.00  0.00     0.284 C 
ATOM      9  H3  UNL d   1       1.812   0.170  -0.885  0.00  0.00     0.395 HD
ENDBRANCH   1   7
TORSDOF 1
ENDMDL
