MODEL 1
REMARK minimizedAffinity -4.7642355
REMARK minimizedRMSD -1
REMARK  0 active torsions:
REMARK  status: ('A' for Active; 'I' for Inactive)
ROOT
ATOM      1  C2' OXE d   1      -3.762  -0.191   0.946  0.00  0.00     0.078 C 
ATOM      2  C1' OXE d   1      -3.482   2.602   0.918  0.00  0.00     0.078 C 
ATOM      3  C1  OXE d   1      -2.252   1.769   0.656  0.00  0.00    -0.078 A 
ATOM      4  C2  OXE d   1      -2.389   0.404   0.717  0.00  0.00    -0.078 A 
ATOM      5  C3  OXE d   1      -1.298  -0.412   0.429  0.00  0.00     0.003 A 
ATOM      6  C4  OXE d   1      -0.029   0.146   0.228  0.00  0.00    -0.002 A 
ATOM      7  C5  OXE d   1       0.140   1.534   0.201  0.00  0.00    -0.002 A 
ATOM      8  C6  OXE d   1      -0.967   2.359   0.370  0.00  0.00     0.003 A 
ENDROOT
TORSDOF 0
ENDMDL
