MODEL 1
REMARK minimizedAffinity 7.64151001
REMARK minimizedRMSD -1
REMARK  0 active torsions:
REMARK  status: ('A' for Active; 'I' for Inactive)
ROOT
ATOM      1  C2' OXE d   1      -2.566  -1.719  -3.332  0.00  0.00     0.078 C 
ATOM      2  C1' OXE d   1      -1.378  -4.239  -3.673  0.00  0.00     0.078 C 
ATOM      3  C1  OXE d   1      -2.296  -4.048  -2.491  0.00  0.00    -0.078 A 
ATOM      4  C2  OXE d   1      -2.836  -2.798  -2.306  0.00  0.00    -0.078 A 
ATOM      5  C3  OXE d   1      -3.732  -2.582  -1.262  0.00  0.00     0.003 A 
ATOM      6  C4  OXE d   1      -3.968  -3.583  -0.312  0.00  0.00    -0.002 A 
ATOM      7  C5  OXE d   1      -3.396  -4.851  -0.460  0.00  0.00    -0.002 A 
ATOM      8  C6  OXE d   1      -2.594  -5.113  -1.565  0.00  0.00     0.003 A 
ENDROOT
TORSDOF 0
ENDMDL
