MODEL 1
REMARK minimizedAffinity 0.901101708
REMARK minimizedRMSD -1
REMARK  0 active torsions:
REMARK  status: ('A' for Active; 'I' for Inactive)
ROOT
ATOM      1  C2' OXE d   1      -5.292   2.577   0.775  0.00  0.00     0.078 C 
ATOM      2  C1' OXE d   1      -4.716  -0.052   1.573  0.00  0.00     0.078 C 
ATOM      3  C1  OXE d   1      -3.599   0.759   0.965  0.00  0.00    -0.078 A 
ATOM      4  C2  OXE d   1      -3.902   2.029   0.534  0.00  0.00    -0.078 A 
ATOM      5  C3  OXE d   1      -2.896   2.839   0.016  0.00  0.00     0.003 A 
ATOM      6  C4  OXE d   1      -1.615   2.321  -0.212  0.00  0.00    -0.002 A 
ATOM      7  C5  OXE d   1      -1.296   1.017   0.182  0.00  0.00    -0.002 A 
ATOM      8  C6  OXE d   1      -2.263   0.239   0.810  0.00  0.00     0.003 A 
ENDROOT
TORSDOF 0
ENDMDL
