MODEL 1
REMARK minimizedAffinity -2.2253139
REMARK minimizedRMSD -1
REMARK  0 active torsions:
REMARK  status: ('A' for Active; 'I' for Inactive)
ROOT
ATOM      1  C2' OXE d   1       3.011   0.756   1.925  0.00  0.00     0.078 C 
ATOM      2  C1' OXE d   1       2.871   1.946  -0.613  0.00  0.00     0.078 C 
ATOM      3  C1  OXE d   1       1.574   1.577   0.063  0.00  0.00    -0.078 A 
ATOM      4  C2  OXE d   1       1.654   0.952   1.284  0.00  0.00    -0.078 A 
ATOM      5  C3  OXE d   1       0.487   0.640   1.976  0.00  0.00     0.003 A 
ATOM      6  C4  OXE d   1      -0.764   0.816   1.372  0.00  0.00    -0.002 A 
ATOM      7  C5  OXE d   1      -0.866   1.414   0.111  0.00  0.00    -0.002 A 
ATOM      8  C6  OXE d   1       0.289   1.838  -0.537  0.00  0.00     0.003 A 
ENDROOT
TORSDOF 0
ENDMDL
