MODEL 1
REMARK minimizedAffinity 1.5000037
REMARK minimizedRMSD -1
REMARK  0 active torsions:
REMARK  status: ('A' for Active; 'I' for Inactive)
ROOT
ATOM      1  C2' OXE d   1      -5.071   1.491   0.339  0.00  0.00     0.078 C 
ATOM      2  C1' OXE d   1      -3.616  -0.136   2.104  0.00  0.00     0.078 C 
ATOM      3  C1  OXE d   1      -2.860   0.916   1.333  0.00  0.00    -0.078 A 
ATOM      4  C2  OXE d   1      -3.572   1.677   0.436  0.00  0.00    -0.078 A 
ATOM      5  C3  OXE d   1      -2.933   2.698  -0.261  0.00  0.00     0.003 A 
ATOM      6  C4  OXE d   1      -1.545   2.857  -0.173  0.00  0.00    -0.002 A 
ATOM      7  C5  OXE d   1      -0.795   2.066   0.704  0.00  0.00    -0.002 A 
ATOM      8  C6  OXE d   1      -1.442   1.122   1.494  0.00  0.00     0.003 A 
ENDROOT
TORSDOF 0
ENDMDL
