MODEL 1
REMARK minimizedAffinity -4.42265463
REMARK minimizedRMSD -1
REMARK  0 active torsions:
REMARK  status: ('A' for Active; 'I' for Inactive)
ROOT
ATOM      1  C2' OXE d   1      -1.196  -1.279   1.304  0.00  0.00     0.078 C 
ATOM      2  C1' OXE d   1       0.304   0.933   0.445  0.00  0.00     0.078 C 
ATOM      3  C1  OXE d   1      -1.196   1.076   0.491  0.00  0.00    -0.078 A 
ATOM      4  C2  OXE d   1      -1.925  -0.026   0.868  0.00  0.00    -0.078 A 
ATOM      5  C3  OXE d   1      -3.310   0.068   0.979  0.00  0.00     0.003 A 
ATOM      6  C4  OXE d   1      -3.977   1.227   0.564  0.00  0.00    -0.002 A 
ATOM      7  C5  OXE d   1      -3.256   2.348   0.139  0.00  0.00    -0.002 A 
ATOM      8  C6  OXE d   1      -1.866   2.303   0.138  0.00  0.00     0.003 A 
ENDROOT
TORSDOF 0
ENDMDL
