MODEL 1
REMARK minimizedAffinity -2.69779348
REMARK minimizedRMSD -1
REMARK  0 active torsions:
REMARK  status: ('A' for Active; 'I' for Inactive)
ROOT
ATOM      1  C2' OXE d   1       1.016   1.518   1.391  0.00  0.00     0.078 C 
ATOM      2  C1' OXE d   1      -0.251   3.199  -0.467  0.00  0.00     0.078 C 
ATOM      3  C1  OXE d   1      -1.099   2.180   0.252  0.00  0.00    -0.078 A 
ATOM      4  C2  OXE d   1      -0.462   1.330   1.125  0.00  0.00    -0.078 A 
ATOM      5  C3  OXE d   1      -1.206   0.408   1.856  0.00  0.00     0.003 A 
ATOM      6  C4  OXE d   1      -2.571   0.234   1.597  0.00  0.00    -0.002 A 
ATOM      7  C5  OXE d   1      -3.231   1.062   0.683  0.00  0.00    -0.002 A 
ATOM      8  C6  OXE d   1      -2.520   2.066   0.035  0.00  0.00     0.003 A 
ENDROOT
TORSDOF 0
ENDMDL
