MODEL 1
REMARK minimizedAffinity -0.96988225
REMARK minimizedRMSD -1
REMARK  0 active torsions:
REMARK  status: ('A' for Active; 'I' for Inactive)
ROOT
ATOM      1  C2' OXE d   1      -2.537  -1.120   0.081  0.00  0.00     0.078 C 
ATOM      2  C1' OXE d   1      -4.294   1.006   0.602  0.00  0.00     0.078 C 
ATOM      3  C1  OXE d   1      -2.814   1.270   0.727  0.00  0.00    -0.078 A 
ATOM      4  C2  OXE d   1      -1.963   0.211   0.516  0.00  0.00    -0.078 A 
ATOM      5  C3  OXE d   1      -0.587   0.412   0.566  0.00  0.00     0.003 A 
ATOM      6  C4  OXE d   1      -0.065   1.644   0.978  0.00  0.00    -0.002 A 
ATOM      7  C5  OXE d   1      -0.915   2.725   1.237  0.00  0.00    -0.002 A 
ATOM      8  C6  OXE d   1      -2.287   2.566   1.075  0.00  0.00     0.003 A 
ENDROOT
TORSDOF 0
ENDMDL
