MODEL 1
REMARK minimizedAffinity 3.65184331
REMARK minimizedRMSD -1
REMARK  0 active torsions:
REMARK  status: ('A' for Active; 'I' for Inactive)
ROOT
ATOM      1  C2' OXE d   1      -3.433   2.876   1.076  0.00  0.00     0.078 C 
ATOM      2  C1' OXE d   1      -1.613   3.560  -0.949  0.00  0.00     0.078 C 
ATOM      3  C1  OXE d   1      -1.235   2.440  -0.013  0.00  0.00    -0.078 A 
ATOM      4  C2  OXE d   1      -2.111   2.143   1.003  0.00  0.00    -0.078 A 
ATOM      5  C3  OXE d   1      -1.836   1.082   1.862  0.00  0.00     0.003 A 
ATOM      6  C4  OXE d   1      -0.607   0.415   1.794  0.00  0.00    -0.002 A 
ATOM      7  C5  OXE d   1       0.316   0.729   0.791  0.00  0.00    -0.002 A 
ATOM      8  C6  OXE d   1      -0.000   1.707  -0.145  0.00  0.00     0.003 A 
ENDROOT
TORSDOF 0
ENDMDL
