MODEL 1
REMARK minimizedAffinity 5.92568588
REMARK minimizedRMSD -1
REMARK  0 active torsions:
REMARK  status: ('A' for Active; 'I' for Inactive)
ROOT
ATOM      1  C2' OXE d   1       4.466  -1.127  -0.996  0.00  0.00     0.078 C 
ATOM      2  C1' OXE d   1       2.829  -0.679   1.240  0.00  0.00     0.078 C 
ATOM      3  C1  OXE d   1       2.871  -2.073   0.666  0.00  0.00    -0.078 A 
ATOM      4  C2  OXE d   1       3.638  -2.273  -0.456  0.00  0.00    -0.078 A 
ATOM      5  C3  OXE d   1       3.754  -3.551  -0.993  0.00  0.00     0.003 A 
ATOM      6  C4  OXE d   1       2.977  -4.604  -0.493  0.00  0.00    -0.002 A 
ATOM      7  C5  OXE d   1       2.159  -4.413   0.625  0.00  0.00    -0.002 A 
ATOM      8  C6  OXE d   1       2.127  -3.166   1.241  0.00  0.00     0.003 A 
ENDROOT
TORSDOF 0
ENDMDL
