MODEL 1
REMARK minimizedAffinity -4.16986656
REMARK minimizedRMSD -1
REMARK  0 active torsions:
REMARK  status: ('A' for Active; 'I' for Inactive)
ROOT
ATOM      1  C2' OXE d   1      -0.248   1.481  -0.031  0.00  0.00     0.078 C 
ATOM      2  C1' OXE d   1      -1.546  -0.474   1.510  0.00  0.00     0.078 C 
ATOM      3  C1  OXE d   1      -2.393   0.608   0.888  0.00  0.00    -0.078 A 
ATOM      4  C2  OXE d   1      -1.744   1.587   0.175  0.00  0.00    -0.078 A 
ATOM      5  C3  OXE d   1      -2.482   2.578  -0.466  0.00  0.00     0.003 A 
ATOM      6  C4  OXE d   1      -3.864   2.675  -0.262  0.00  0.00    -0.002 A 
ATOM      7  C5  OXE d   1      -4.540   1.711   0.493  0.00  0.00    -0.002 A 
ATOM      8  C6  OXE d   1      -3.826   0.650   1.039  0.00  0.00     0.003 A 
ENDROOT
TORSDOF 0
ENDMDL
