MODEL 1
REMARK minimizedAffinity -1.97210562
REMARK minimizedRMSD -1
REMARK  0 active torsions:
REMARK  status: ('A' for Active; 'I' for Inactive)
ROOT
ATOM      1  C2' OXE d   1      -0.924   2.184   0.744  0.00  0.00     0.078 C 
ATOM      2  C1' OXE d   1      -0.172   2.074   3.446  0.00  0.00     0.078 C 
ATOM      3  C1  OXE d   1       0.835   1.624   2.417  0.00  0.00    -0.078 A 
ATOM      4  C2  OXE d   1       0.442   1.638   1.100  0.00  0.00    -0.078 A 
ATOM      5  C3  OXE d   1       1.350   1.285   0.106  0.00  0.00     0.003 A 
ATOM      6  C4  OXE d   1       2.608   0.771   0.444  0.00  0.00    -0.002 A 
ATOM      7  C5  OXE d   1       3.014   0.712   1.782  0.00  0.00    -0.002 A 
ATOM      8  C6  OXE d   1       2.157   1.173   2.775  0.00  0.00     0.003 A 
ENDROOT
TORSDOF 0
ENDMDL
