MODEL 1
REMARK minimizedAffinity -0.873457551
REMARK minimizedRMSD -1
REMARK  0 active torsions:
REMARK  status: ('A' for Active; 'I' for Inactive)
ROOT
ATOM      1  C2' OXE d   1      -4.354   2.370   0.438  0.00  0.00     0.078 C 
ATOM      2  C1' OXE d   1      -3.280  -0.140   1.094  0.00  0.00     0.078 C 
ATOM      3  C1  OXE d   1      -2.317   0.972   0.761  0.00  0.00    -0.078 A 
ATOM      4  C2  OXE d   1      -2.852   2.184   0.395  0.00  0.00    -0.078 A 
ATOM      5  C3  OXE d   1      -2.008   3.259   0.131  0.00  0.00     0.003 A 
ATOM      6  C4  OXE d   1      -0.621   3.076   0.084  0.00  0.00    -0.002 A 
ATOM      7  C5  OXE d   1      -0.057   1.839   0.414  0.00  0.00    -0.002 A 
ATOM      8  C6  OXE d   1      -0.887   0.791   0.795  0.00  0.00     0.003 A 
ENDROOT
TORSDOF 0
ENDMDL
