MODEL 1
REMARK minimizedAffinity -2.78034353
REMARK minimizedRMSD -1
REMARK  0 active torsions:
REMARK  status: ('A' for Active; 'I' for Inactive)
ROOT
ATOM      1  C2' OXE d   1       0.443   1.161   0.363  0.00  0.00     0.078 C 
ATOM      2  C1' OXE d   1      -0.769  -0.908   1.823  0.00  0.00     0.078 C 
ATOM      3  C1  OXE d   1      -1.667   0.119   1.180  0.00  0.00    -0.078 A 
ATOM      4  C2  OXE d   1      -1.064   1.154   0.507  0.00  0.00    -0.078 A 
ATOM      5  C3  OXE d   1      -1.847   2.099  -0.151  0.00  0.00     0.003 A 
ATOM      6  C4  OXE d   1      -3.239   2.091  -0.004  0.00  0.00    -0.002 A 
ATOM      7  C5  OXE d   1      -3.872   1.069   0.711  0.00  0.00    -0.002 A 
ATOM      8  C6  OXE d   1      -3.105   0.054   1.272  0.00  0.00     0.003 A 
ENDROOT
TORSDOF 0
ENDMDL
