MODEL 1
REMARK minimizedAffinity -3.36984038
REMARK minimizedRMSD -1
REMARK  0 active torsions:
REMARK  status: ('A' for Active; 'I' for Inactive)
ROOT
ATOM      1  C2' OXE d   1       0.416   1.820  -0.153  0.00  0.00     0.078 C 
ATOM      2  C1' OXE d   1      -0.434   0.101   1.897  0.00  0.00     0.078 C 
ATOM      3  C1  OXE d   1      -1.492   0.766   1.052  0.00  0.00    -0.078 A 
ATOM      4  C2  OXE d   1      -1.068   1.642   0.082  0.00  0.00    -0.078 A 
ATOM      5  C3  OXE d   1      -2.000   2.240  -0.761  0.00  0.00     0.003 A 
ATOM      6  C4  OXE d   1      -3.372   2.077  -0.531  0.00  0.00    -0.002 A 
ATOM      7  C5  OXE d   1      -3.825   1.220   0.477  0.00  0.00    -0.002 A 
ATOM      8  C6  OXE d   1      -2.900   0.525   1.249  0.00  0.00     0.003 A 
ENDROOT
TORSDOF 0
ENDMDL
