MODEL 1
REMARK minimizedAffinity 3.21198058
REMARK minimizedRMSD -1
REMARK  0 active torsions:
REMARK  status: ('A' for Active; 'I' for Inactive)
ROOT
ATOM      1  C2' OXE d   1       0.058   1.010  -0.794  0.00  0.00     0.078 C 
ATOM      2  C1' OXE d   1      -1.921   2.845  -0.022  0.00  0.00     0.078 C 
ATOM      3  C1  OXE d   1      -1.112   2.184   1.066  0.00  0.00    -0.078 A 
ATOM      4  C2  OXE d   1      -0.178   1.253   0.681  0.00  0.00    -0.078 A 
ATOM      5  C3  OXE d   1       0.633   0.654   1.640  0.00  0.00     0.003 A 
ATOM      6  C4  OXE d   1       0.402   0.876   3.003  0.00  0.00    -0.002 A 
ATOM      7  C5  OXE d   1      -0.571   1.791   3.418  0.00  0.00    -0.002 A 
ATOM      8  C6  OXE d   1      -1.306   2.484   2.463  0.00  0.00     0.003 A 
ENDROOT
TORSDOF 0
ENDMDL
