MODEL 1
REMARK minimizedAffinity -1.62015593
REMARK minimizedRMSD -1
REMARK  0 active torsions:
REMARK  status: ('A' for Active; 'I' for Inactive)
ROOT
ATOM      1  C2' OXE d   1      -4.066   1.923  -0.229  0.00  0.00     0.078 C 
ATOM      2  C1' OXE d   1      -3.403  -0.588   0.835  0.00  0.00     0.078 C 
ATOM      3  C1  OXE d   1      -2.300   0.432   0.701  0.00  0.00    -0.078 A 
ATOM      4  C2  OXE d   1      -2.624   1.642   0.136  0.00  0.00    -0.078 A 
ATOM      5  C3  OXE d   1      -1.657   2.638   0.038  0.00  0.00     0.003 A 
ATOM      6  C4  OXE d   1      -0.323   2.366   0.369  0.00  0.00    -0.002 A 
ATOM      7  C5  OXE d   1       0.036   1.127   0.909  0.00  0.00    -0.002 A 
ATOM      8  C6  OXE d   1      -0.947   0.166   1.121  0.00  0.00     0.003 A 
ENDROOT
TORSDOF 0
ENDMDL
