MODEL 1
REMARK minimizedAffinity -1.75653458
REMARK minimizedRMSD -1
REMARK  0 active torsions:
REMARK  status: ('A' for Active; 'I' for Inactive)
ROOT
ATOM      1  C2' OXE d   1      -1.798   0.088   2.134  0.00  0.00     0.078 C 
ATOM      2  C1' OXE d   1      -2.078   2.746   1.276  0.00  0.00     0.078 C 
ATOM      3  C1  OXE d   1      -0.808   2.020   0.912  0.00  0.00    -0.078 A 
ATOM      4  C2  OXE d   1      -0.659   0.735   1.375  0.00  0.00    -0.078 A 
ATOM      5  C3  OXE d   1       0.470   0.001   1.023  0.00  0.00     0.003 A 
ATOM      6  C4  OXE d   1       1.523   0.610   0.329  0.00  0.00    -0.002 A 
ATOM      7  C5  OXE d   1       1.409   1.931  -0.118  0.00  0.00    -0.002 A 
ATOM      8  C6  OXE d   1       0.235   2.634   0.127  0.00  0.00     0.003 A 
ENDROOT
TORSDOF 0
ENDMDL
