MODEL 1
REMARK minimizedAffinity -1.25683224
REMARK minimizedRMSD -1
REMARK  0 active torsions:
REMARK  status: ('A' for Active; 'I' for Inactive)
ROOT
ATOM      1  C2' OXE d   1      -4.580   2.297   1.078  0.00  0.00     0.078 C 
ATOM      2  C1' OXE d   1      -3.734  -0.249   1.905  0.00  0.00     0.078 C 
ATOM      3  C1  OXE d   1      -2.682   0.724   1.436  0.00  0.00    -0.078 A 
ATOM      4  C2  OXE d   1      -3.109   1.951   0.989  0.00  0.00    -0.078 A 
ATOM      5  C3  OXE d   1      -2.175   2.905   0.596  0.00  0.00     0.003 A 
ATOM      6  C4  OXE d   1      -0.817   2.573   0.507  0.00  0.00    -0.002 A 
ATOM      7  C5  OXE d   1      -0.365   1.316   0.920  0.00  0.00    -0.002 A 
ATOM      8  C6  OXE d   1      -1.277   0.396   1.426  0.00  0.00     0.003 A 
ENDROOT
TORSDOF 0
ENDMDL
