MODEL 1
REMARK minimizedAffinity 2.68610907
REMARK minimizedRMSD -1
REMARK  1 active torsions:
REMARK  status: ('A' for Active; 'I' for Inactive)
REMARK    1  A    between atoms: C1_2  and  C2_3 
ROOT
ATOM      1  C2  UNL d   1       2.707   4.318   4.042  0.00  0.00    -0.077 A 
ATOM      2  C3  UNL d   1       3.465   4.910   5.062  0.00  0.00     0.002 A 
ATOM      3  C4  UNL d   1       2.856   5.746   6.000  0.00  0.00     0.002 A 
ATOM      4  C5  UNL d   1       1.487   5.994   5.930  0.00  0.00    -0.004 A 
ATOM      5  C6  UNL d   1       0.725   5.411   4.918  0.00  0.00     0.002 A 
ATOM      6  C7  UNL d   1       1.332   4.576   3.979  0.00  0.00     0.002 A 
ENDROOT
BRANCH   1   7
ATOM      7  C1  UNL d   1       3.354   3.377   3.059  0.00  0.00     0.055 C 
ATOM      8  C   UNL d   1       2.703   3.477   1.687  0.00  0.00     0.019 C 
ENDBRANCH   1   7
TORSDOF 1
ENDMDL
