MODEL 1
REMARK minimizedAffinity -0.0581666492
REMARK minimizedRMSD -1
REMARK  1 active torsions:
REMARK  status: ('A' for Active; 'I' for Inactive)
REMARK    1  A    between atoms: C1_2  and  C2_3 
ROOT
ATOM      1  C2  UNL d   1       1.987   4.880   3.204  0.00  0.00    -0.077 A 
ATOM      2  C3  UNL d   1       0.703   5.274   3.603  0.00  0.00     0.002 A 
ATOM      3  C4  UNL d   1       0.495   5.830   4.867  0.00  0.00     0.002 A 
ATOM      4  C5  UNL d   1       1.568   5.999   5.740  0.00  0.00    -0.004 A 
ATOM      5  C6  UNL d   1       2.849   5.609   5.353  0.00  0.00     0.002 A 
ATOM      6  C7  UNL d   1       3.058   5.052   4.090  0.00  0.00     0.002 A 
ENDROOT
BRANCH   1   7
ATOM      7  C1  UNL d   1       2.221   4.327   1.822  0.00  0.00     0.055 C 
ATOM      8  C   UNL d   1       3.307   3.261   1.830  0.00  0.00     0.019 C 
ENDBRANCH   1   7
TORSDOF 1
ENDMDL
