MODEL 1
REMARK minimizedAffinity 3.18906236
REMARK minimizedRMSD -1
REMARK  1 active torsions:
REMARK  status: ('A' for Active; 'I' for Inactive)
REMARK    1  A    between atoms: C1_2  and  C2_3 
ROOT
ATOM      1  C2  UNL d   1       3.112   4.941   3.421  0.00  0.00    -0.077 A 
ATOM      2  C3  UNL d   1       1.711   4.898   3.440  0.00  0.00     0.002 A 
ATOM      3  C4  UNL d   1       1.003   5.399   4.535  0.00  0.00     0.002 A 
ATOM      4  C5  UNL d   1       1.688   5.951   5.615  0.00  0.00    -0.004 A 
ATOM      5  C6  UNL d   1       3.082   5.997   5.607  0.00  0.00     0.002 A 
ATOM      6  C7  UNL d   1       3.790   5.495   4.514  0.00  0.00     0.002 A 
ENDROOT
BRANCH   1   7
ATOM      7  C1  UNL d   1       3.874   4.446   2.220  0.00  0.00     0.055 C 
ATOM      8  C   UNL d   1       3.294   3.141   1.696  0.00  0.00     0.019 C 
ENDBRANCH   1   7
TORSDOF 1
ENDMDL
