MODEL 1
REMARK minimizedAffinity 0.984552026
REMARK minimizedRMSD -1
REMARK  1 active torsions:
REMARK  status: ('A' for Active; 'I' for Inactive)
REMARK    1  A    between atoms: C1_2  and  C2_3 
ROOT
ATOM      1  C2  UNL d   1       2.572   4.089   3.707  0.00  0.00    -0.077 A 
ATOM      2  C3  UNL d   1       3.212   4.885   4.668  0.00  0.00     0.002 A 
ATOM      3  C4  UNL d   1       2.491   5.836   5.391  0.00  0.00     0.002 A 
ATOM      4  C5  UNL d   1       1.126   5.998   5.165  0.00  0.00    -0.004 A 
ATOM      5  C6  UNL d   1       0.480   5.213   4.210  0.00  0.00     0.002 A 
ATOM      6  C7  UNL d   1       1.200   4.263   3.485  0.00  0.00     0.002 A 
ENDROOT
BRANCH   1   7
ATOM      7  C1  UNL d   1       3.338   3.029   2.961  0.00  0.00     0.055 C 
ATOM      8  C   UNL d   1       2.705   2.737   1.608  0.00  0.00     0.019 C 
ENDBRANCH   1   7
TORSDOF 1
ENDMDL
