MODEL 1
REMARK minimizedAffinity 1.53535593
REMARK minimizedRMSD -1
REMARK  1 active torsions:
REMARK  status: ('A' for Active; 'I' for Inactive)
REMARK    1  A    between atoms: C1_2  and  C2_3 
ROOT
ATOM      1  C2  UNL d   1       2.663   4.046  -5.966  0.00  0.00    -0.077 A 
ATOM      2  C3  UNL d   1       4.026   3.716  -5.984  0.00  0.00     0.002 A 
ATOM      3  C4  UNL d   1       4.429   2.380  -5.999  0.00  0.00     0.002 A 
ATOM      4  C5  UNL d   1       3.476   1.363  -6.000  0.00  0.00    -0.004 A 
ATOM      5  C6  UNL d   1       2.118   1.681  -5.980  0.00  0.00     0.002 A 
ATOM      6  C7  UNL d   1       1.714   3.016  -5.964  0.00  0.00     0.002 A 
ENDROOT
BRANCH   1   7
ATOM      7  C1  UNL d   1       2.226   5.487  -6.000  0.00  0.00     0.055 C 
ATOM      8  C   UNL d   1       0.714   5.610  -5.882  0.00  0.00     0.019 C 
ENDBRANCH   1   7
TORSDOF 1
ENDMDL
