MODEL 1
REMARK minimizedAffinity 4.82622671
REMARK minimizedRMSD -1
REMARK  1 active torsions:
REMARK  status: ('A' for Active; 'I' for Inactive)
REMARK    1  A    between atoms: C1_2  and  C2_3 
ROOT
ATOM      1  C2  UNL d   1       4.566  -0.354  -0.077  0.00  0.00    -0.077 A 
ATOM      2  C3  UNL d   1       5.805  -1.000   0.048  0.00  0.00     0.002 A 
ATOM      3  C4  UNL d   1       5.884  -2.393  -0.009  0.00  0.00     0.002 A 
ATOM      4  C5  UNL d   1       4.730  -3.151  -0.195  0.00  0.00    -0.004 A 
ATOM      5  C6  UNL d   1       3.493  -2.518  -0.318  0.00  0.00     0.002 A 
ATOM      6  C7  UNL d   1       3.412  -1.126  -0.261  0.00  0.00     0.002 A 
ENDROOT
BRANCH   1   7
ATOM      7  C1  UNL d   1       4.485   1.150  -0.066  0.00  0.00     0.055 C 
ATOM      8  C   UNL d   1       3.456   1.641   0.942  0.00  0.00     0.019 C 
ENDBRANCH   1   7
TORSDOF 1
ENDMDL
