MODEL 1
REMARK minimizedAffinity 11.3370504
REMARK minimizedRMSD -1
REMARK  1 active torsions:
REMARK  status: ('A' for Active; 'I' for Inactive)
REMARK    1  A    between atoms: C1_2  and  C2_3 
ROOT
ATOM      1  C2  UNL d   1       3.818   4.971   5.107  0.00  0.00    -0.077 A 
ATOM      2  C3  UNL d   1       4.569   4.312   4.125  0.00  0.00     0.002 A 
ATOM      3  C4  UNL d   1       3.961   3.392   3.268  0.00  0.00     0.002 A 
ATOM      4  C5  UNL d   1       2.597   3.128   3.383  0.00  0.00    -0.004 A 
ATOM      5  C6  UNL d   1       1.842   3.777   4.358  0.00  0.00     0.002 A 
ATOM      6  C7  UNL d   1       2.449   4.696   5.216  0.00  0.00     0.002 A 
ENDROOT
BRANCH   1   7
ATOM      7  C1  UNL d   1       4.462   6.000   6.000  0.00  0.00     0.055 C 
ATOM      8  C   UNL d   1       5.976   5.997   5.843  0.00  0.00     0.019 C 
ENDBRANCH   1   7
TORSDOF 1
ENDMDL
