MODEL 1
REMARK minimizedAffinity -2.46995401
REMARK minimizedRMSD -1
REMARK  1 active torsions:
REMARK  status: ('A' for Active; 'I' for Inactive)
REMARK    1  A    between atoms: C1_2  and  C2_3 
ROOT
ATOM      1  C2  UNL d   1       2.333   3.811   3.765  0.00  0.00    -0.077 A 
ATOM      2  C3  UNL d   1       1.140   4.530   3.604  0.00  0.00     0.002 A 
ATOM      3  C4  UNL d   1       0.851   5.614   4.436  0.00  0.00     0.002 A 
ATOM      4  C5  UNL d   1       1.752   5.991   5.429  0.00  0.00    -0.004 A 
ATOM      5  C6  UNL d   1       2.940   5.282   5.598  0.00  0.00     0.002 A 
ATOM      6  C7  UNL d   1       3.230   4.197   4.769  0.00  0.00     0.002 A 
ENDROOT
BRANCH   1   7
ATOM      7  C1  UNL d   1       2.670   2.673   2.838  0.00  0.00     0.055 C 
ATOM      8  C   UNL d   1       3.910   2.980   2.011  0.00  0.00     0.019 C 
ENDBRANCH   1   7
TORSDOF 1
ENDMDL
