MODEL 1
REMARK minimizedAffinity -1.96187389
REMARK minimizedRMSD -1
REMARK  0 active torsions:
REMARK  status: ('A' for Active; 'I' for Inactive)
ROOT
ATOM      1  C   UNL d   1       2.278  -0.550   0.405  0.00  0.00     0.124 A 
ATOM      2  C1  UNL d   1       1.498  -1.644   0.056  0.00  0.00     0.062 A 
ATOM      3  C2  UNL d   1       0.161  -1.470  -0.290  0.00  0.00     0.162 A 
ATOM      4  C3  UNL d   1      -0.405  -0.195  -0.290  0.00  0.00    -0.034 A 
ATOM      5  C4  UNL d   1       0.385   0.900   0.063  0.00  0.00     0.162 A 
ATOM      6  C5  UNL d   1       1.720   0.721   0.408  0.00  0.00     0.062 A 
ATOM      7  F   UNL d   1       2.472   1.779   0.745  0.00  0.00    -0.097 F 
ATOM      8  F1  UNL d   1      -0.128   2.140   0.074  0.00  0.00    -0.096 F 
ATOM      9  I   UNL d   1      -2.404   0.070  -0.806  0.00  0.00    -0.060 I 
ATOM     10  F2  UNL d   1      -0.568  -2.545  -0.623  0.00  0.00    -0.096 F 
ATOM     11  F3  UNL d   1       2.034  -2.873   0.052  0.00  0.00    -0.097 F 
ATOM     12  F4  UNL d   1       3.563  -0.721   0.738  0.00  0.00    -0.092 F 
ENDROOT
TORSDOF 0
ENDMDL
