MODEL 1
REMARK minimizedAffinity 3.99518228
REMARK minimizedRMSD -1
REMARK  0 active torsions:
REMARK  status: ('A' for Active; 'I' for Inactive)
ROOT
ATOM      1  C   UNL d   1       2.328  -1.313   0.341  0.00  0.00     0.124 A 
ATOM      2  C1  UNL d   1       1.892  -0.333   1.222  0.00  0.00     0.062 A 
ATOM      3  C2  UNL d   1       0.581   0.130   1.161  0.00  0.00     0.162 A 
ATOM      4  C3  UNL d   1      -0.305  -0.388   0.216  0.00  0.00    -0.034 A 
ATOM      5  C4  UNL d   1       0.141  -1.373  -0.667  0.00  0.00     0.162 A 
ATOM      6  C5  UNL d   1       1.452  -1.832  -0.602  0.00  0.00     0.062 A 
ATOM      7  F   UNL d   1       1.872  -2.779  -1.454  0.00  0.00    -0.097 F 
ATOM      8  F1  UNL d   1      -0.684  -1.893  -1.588  0.00  0.00    -0.096 F 
ATOM      9  I   UNL d   1      -2.267   0.301   0.121  0.00  0.00    -0.060 I 
ATOM     10  F2  UNL d   1       0.186   1.078   2.024  0.00  0.00    -0.096 F 
ATOM     11  F3  UNL d   1       2.736   0.171   2.133  0.00  0.00    -0.097 F 
ATOM     12  F4  UNL d   1       3.590  -1.756   0.401  0.00  0.00    -0.092 F 
ENDROOT
TORSDOF 0
ENDMDL
