MODEL 1
REMARK minimizedAffinity -4.08450127
REMARK minimizedRMSD -1
REMARK  0 active torsions:
REMARK  status: ('A' for Active; 'I' for Inactive)
ROOT
ATOM      1  C   UNL d   1       2.353   0.011  -0.179  0.00  0.00     0.124 A 
ATOM      2  C1  UNL d   1       1.911   1.323  -0.286  0.00  0.00     0.062 A 
ATOM      3  C2  UNL d   1       0.548   1.605  -0.284  0.00  0.00     0.162 A 
ATOM      4  C3  UNL d   1      -0.384   0.573  -0.172  0.00  0.00    -0.034 A 
ATOM      5  C4  UNL d   1       0.068  -0.744  -0.066  0.00  0.00     0.162 A 
ATOM      6  C5  UNL d   1       1.431  -1.020  -0.069  0.00  0.00     0.062 A 
ATOM      7  F   UNL d   1       1.856  -2.288   0.035  0.00  0.00    -0.097 F 
ATOM      8  F1  UNL d   1      -0.801  -1.760   0.042  0.00  0.00    -0.096 F 
ATOM      9  I   UNL d   1      -2.423   0.990  -0.169  0.00  0.00    -0.060 I 
ATOM     10  F2  UNL d   1       0.149   2.881  -0.389  0.00  0.00    -0.096 F 
ATOM     11  F3  UNL d   1       2.799   2.321  -0.393  0.00  0.00    -0.097 F 
ATOM     12  F4  UNL d   1       3.665  -0.257  -0.182  0.00  0.00    -0.092 F 
ENDROOT
TORSDOF 0
ENDMDL
