MODEL 1
REMARK minimizedAffinity -3.11908054
REMARK minimizedRMSD -1
REMARK  0 active torsions:
REMARK  status: ('A' for Active; 'I' for Inactive)
ROOT
ATOM      1  C   UNL d   1       3.085  -0.457  -0.246  0.00  0.00     0.124 A 
ATOM      2  C1  UNL d   1       2.738   0.851   0.062  0.00  0.00     0.062 A 
ATOM      3  C2  UNL d   1       1.409   1.259  -0.011  0.00  0.00     0.162 A 
ATOM      4  C3  UNL d   1       0.416   0.357  -0.394  0.00  0.00    -0.034 A 
ATOM      5  C4  UNL d   1       0.773  -0.956  -0.704  0.00  0.00     0.162 A 
ATOM      6  C5  UNL d   1       2.102  -1.359  -0.629  0.00  0.00     0.062 A 
ATOM      7  F   UNL d   1       2.436  -2.623  -0.928  0.00  0.00    -0.097 F 
ATOM      8  F1  UNL d   1      -0.156  -1.849  -1.075  0.00  0.00    -0.096 F 
ATOM      9  I   UNL d   1      -1.572   0.963  -0.504  0.00  0.00    -0.060 I 
ATOM     10  F2  UNL d   1       1.103   2.529   0.293  0.00  0.00    -0.096 F 
ATOM     11  F3  UNL d   1       3.685   1.726   0.431  0.00  0.00    -0.097 F 
ATOM     12  F4  UNL d   1       4.364  -0.846  -0.176  0.00  0.00    -0.092 F 
ENDROOT
TORSDOF 0
ENDMDL
