MODEL 1
REMARK minimizedAffinity -1.33293927
REMARK minimizedRMSD -1
REMARK  0 active torsions:
REMARK  status: ('A' for Active; 'I' for Inactive)
ROOT
ATOM      1  C   UNL d   1      -4.362   0.207  -0.100  0.00  0.00     0.124 A 
ATOM      2  C1  UNL d   1      -3.485  -0.225  -1.085  0.00  0.00     0.062 A 
ATOM      3  C2  UNL d   1      -2.129   0.077  -0.997  0.00  0.00     0.162 A 
ATOM      4  C3  UNL d   1      -1.641   0.814   0.082  0.00  0.00    -0.034 A 
ATOM      5  C4  UNL d   1      -2.529   1.246   1.069  0.00  0.00     0.162 A 
ATOM      6  C5  UNL d   1      -3.884   0.942   0.976  0.00  0.00     0.062 A 
ATOM      7  F   UNL d   1      -4.729   1.361   1.928  0.00  0.00    -0.097 F 
ATOM      8  F1  UNL d   1      -2.094   1.957   2.119  0.00  0.00    -0.096 F 
ATOM      9  I   UNL d   1       0.386   1.267   0.218  0.00  0.00    -0.060 I 
ATOM     10  F2  UNL d   1      -1.305  -0.354  -1.963  0.00  0.00    -0.096 F 
ATOM     11  F3  UNL d   1      -3.945  -0.935  -2.126  0.00  0.00    -0.097 F 
ATOM     12  F4  UNL d   1      -5.666  -0.083  -0.188  0.00  0.00    -0.092 F 
ENDROOT
TORSDOF 0
ENDMDL
