MODEL 1
REMARK minimizedAffinity -0.777935505
REMARK minimizedRMSD -1
REMARK  0 active torsions:
REMARK  status: ('A' for Active; 'I' for Inactive)
ROOT
ATOM      1  C   UNL d   1       2.082   0.769   0.656  0.00  0.00     0.124 A 
ATOM      2  C1  UNL d   1       1.075   1.350  -0.103  0.00  0.00     0.062 A 
ATOM      3  C2  UNL d   1       0.242   0.557  -0.886  0.00  0.00     0.162 A 
ATOM      4  C3  UNL d   1       0.411  -0.828  -0.914  0.00  0.00    -0.034 A 
ATOM      5  C4  UNL d   1       1.427  -1.405  -0.150  0.00  0.00     0.162 A 
ATOM      6  C5  UNL d   1       2.257  -0.607   0.632  0.00  0.00     0.062 A 
ATOM      7  F   UNL d   1       3.229  -1.170   1.363  0.00  0.00    -0.097 F 
ATOM      8  F1  UNL d   1       1.618  -2.732  -0.154  0.00  0.00    -0.096 F 
ATOM      9  I   UNL d   1      -0.832  -2.018  -2.084  0.00  0.00    -0.060 I 
ATOM     10  F2  UNL d   1      -0.723   1.145  -1.608  0.00  0.00    -0.096 F 
ATOM     11  F3  UNL d   1       0.904   2.680  -0.082  0.00  0.00    -0.097 F 
ATOM     12  F4  UNL d   1       2.882   1.536   1.408  0.00  0.00    -0.092 F 
ENDROOT
TORSDOF 0
ENDMDL
