MODEL 1
REMARK minimizedAffinity 3.73253751
REMARK minimizedRMSD -1
REMARK  0 active torsions:
REMARK  status: ('A' for Active; 'I' for Inactive)
ROOT
ATOM      1  C   UNL d   1      -0.692   0.701  -1.015  0.00  0.00     0.124 A 
ATOM      2  C1  UNL d   1      -0.323  -0.617  -1.248  0.00  0.00     0.062 A 
ATOM      3  C2  UNL d   1       0.802  -1.149  -0.627  0.00  0.00     0.162 A 
ATOM      4  C3  UNL d   1       1.568  -0.365   0.236  0.00  0.00    -0.034 A 
ATOM      5  C4  UNL d   1       1.191   0.960   0.466  0.00  0.00     0.162 A 
ATOM      6  C5  UNL d   1       0.065   1.488  -0.158  0.00  0.00     0.062 A 
ATOM      7  F   UNL d   1      -0.289   2.761   0.069  0.00  0.00    -0.097 F 
ATOM      8  F1  UNL d   1       1.904   1.742   1.289  0.00  0.00    -0.096 F 
ATOM      9  I   UNL d   1       3.251  -1.157   1.167  0.00  0.00    -0.060 I 
ATOM     10  F2  UNL d   1       1.135  -2.425  -0.871  0.00  0.00    -0.096 F 
ATOM     11  F3  UNL d   1      -1.052  -1.379  -2.076  0.00  0.00    -0.097 F 
ATOM     12  F4  UNL d   1      -1.775   1.211  -1.615  0.00  0.00    -0.092 F 
ENDROOT
TORSDOF 0
ENDMDL
