MODEL 1
REMARK minimizedAffinity -0.760327518
REMARK minimizedRMSD -1
REMARK  0 active torsions:
REMARK  status: ('A' for Active; 'I' for Inactive)
ROOT
ATOM      1  C   UNL d   1       3.261  -0.230   0.566  0.00  0.00     0.124 A 
ATOM      2  C1  UNL d   1       2.226  -1.115   0.298  0.00  0.00     0.062 A 
ATOM      3  C2  UNL d   1       0.957  -0.636  -0.013  0.00  0.00     0.162 A 
ATOM      4  C3  UNL d   1       0.716   0.737  -0.060  0.00  0.00    -0.034 A 
ATOM      5  C4  UNL d   1       1.762   1.622   0.211  0.00  0.00     0.162 A 
ATOM      6  C5  UNL d   1       3.028   1.137   0.522  0.00  0.00     0.062 A 
ATOM      7  F   UNL d   1       4.026   1.994   0.780  0.00  0.00    -0.097 F 
ATOM      8  F1  UNL d   1       1.564   2.948   0.175  0.00  0.00    -0.096 F 
ATOM      9  I   UNL d   1      -1.180   1.459  -0.525  0.00  0.00    -0.060 I 
ATOM     10  F2  UNL d   1      -0.024  -1.514  -0.268  0.00  0.00    -0.096 F 
ATOM     11  F3  UNL d   1       2.449  -2.437   0.341  0.00  0.00    -0.097 F 
ATOM     12  F4  UNL d   1       4.481  -0.694   0.866  0.00  0.00    -0.092 F 
ENDROOT
TORSDOF 0
ENDMDL
