MODEL 1
REMARK minimizedAffinity -2.7980845
REMARK minimizedRMSD -1
REMARK  1 active torsions:
REMARK  status: ('A' for Active; 'I' for Inactive)
REMARK    1  A    between atoms: C3_4  and  O_7 
ROOT
ATOM      1  C   UNL d   1       0.289  -0.630  -0.555  0.00  0.00    -0.033 A 
ATOM      2  C1  UNL d   1      -1.078  -0.467  -0.786  0.00  0.00     0.039 A 
ATOM      3  C2  UNL d   1      -1.865   0.230   0.132  0.00  0.00    -0.080 A 
ATOM      4  C3  UNL d   1      -1.273   0.760   1.276  0.00  0.00     0.150 A 
ATOM      5  C4  UNL d   1       0.089   0.605   1.511  0.00  0.00    -0.007 A 
ATOM      6  C5  UNL d   1       0.873  -0.093   0.593  0.00  0.00     0.039 A 
ENDROOT
BRANCH   4   7
ATOM      7  O   UNL d   1      -2.002   1.444   2.203  0.00  0.00    -0.526 OA
ATOM      8  H5  UNL d   1      -2.932   1.447   1.922  0.00  0.00     0.418 HD
ENDBRANCH   4   7
TORSDOF 1
ENDMDL
