MODEL 1
REMARK minimizedAffinity -2.82603478
REMARK minimizedRMSD -1
REMARK  1 active torsions:
REMARK  status: ('A' for Active; 'I' for Inactive)
REMARK    1  A    between atoms: C3_4  and  O_7 
ROOT
ATOM      1  C   UNL d   1      -0.904   0.611   2.322  0.00  0.00    -0.033 A 
ATOM      2  C1  UNL d   1       0.367   1.035   1.926  0.00  0.00     0.039 A 
ATOM      3  C2  UNL d   1       0.832   0.748   0.642  0.00  0.00    -0.080 A 
ATOM      4  C3  UNL d   1       0.019   0.038  -0.237  0.00  0.00     0.150 A 
ATOM      5  C4  UNL d   1      -1.248  -0.385   0.149  0.00  0.00    -0.007 A 
ATOM      6  C5  UNL d   1      -1.712  -0.098   1.432  0.00  0.00     0.039 A 
ENDROOT
BRANCH   4   7
ATOM      7  O   UNL d   1       0.433  -0.270  -1.499  0.00  0.00    -0.526 OA
ATOM      8  H5  UNL d   1       1.339   0.061  -1.615  0.00  0.00     0.418 HD
ENDBRANCH   4   7
TORSDOF 1
ENDMDL
