MODEL 1
REMARK minimizedAffinity -4.62627888
REMARK minimizedRMSD -1
REMARK  1 active torsions:
REMARK  status: ('A' for Active; 'I' for Inactive)
REMARK    1  A    between atoms: C3_4  and  O_7 
ROOT
ATOM      1  C   UNL d   1      -1.441   1.432   1.961  0.00  0.00    -0.033 A 
ATOM      2  C1  UNL d   1      -0.087   1.233   2.238  0.00  0.00     0.039 A 
ATOM      3  C2  UNL d   1       0.734   0.607   1.299  0.00  0.00    -0.080 A 
ATOM      4  C3  UNL d   1       0.191   0.186   0.088  0.00  0.00     0.150 A 
ATOM      5  C4  UNL d   1      -1.156   0.384  -0.195  0.00  0.00    -0.007 A 
ATOM      6  C5  UNL d   1      -1.976   1.009   0.744  0.00  0.00     0.039 A 
ENDROOT
BRANCH   4   7
ATOM      7  O   UNL d   1       0.952  -0.434  -0.857  0.00  0.00    -0.526 OA
ATOM      8  H5  UNL d   1       1.856  -0.529  -0.512  0.00  0.00     0.418 HD
ENDBRANCH   4   7
TORSDOF 1
ENDMDL
