MODEL 1
REMARK minimizedAffinity -5.02044392
REMARK minimizedRMSD -1
REMARK  1 active torsions:
REMARK  status: ('A' for Active; 'I' for Inactive)
REMARK    1  A    between atoms: C3_4  and  O_7 
ROOT
ATOM      1  C   UNL d   1      -0.383  -0.636  -0.418  0.00  0.00    -0.033 A 
ATOM      2  C1  UNL d   1       0.731   0.065   0.047  0.00  0.00     0.039 A 
ATOM      3  C2  UNL d   1       0.596   0.979   1.094  0.00  0.00    -0.080 A 
ATOM      4  C3  UNL d   1      -0.656   1.182   1.667  0.00  0.00     0.150 A 
ATOM      5  C4  UNL d   1      -1.770   0.484   1.211  0.00  0.00    -0.007 A 
ATOM      6  C5  UNL d   1      -1.634  -0.427   0.165  0.00  0.00     0.039 A 
ENDROOT
BRANCH   4   7
ATOM      7  O   UNL d   1      -0.838   2.067   2.688  0.00  0.00    -0.526 OA
ATOM      8  H5  UNL d   1       0.013   2.496   2.878  0.00  0.00     0.418 HD
ENDBRANCH   4   7
TORSDOF 1
ENDMDL
