MODEL 1
REMARK minimizedAffinity -3.64918923
REMARK minimizedRMSD -1
REMARK  1 active torsions:
REMARK  status: ('A' for Active; 'I' for Inactive)
REMARK    1  A    between atoms: C3_4  and  O_7 
ROOT
ATOM      1  C   UNL d   1      -0.692  -0.341  -0.133  0.00  0.00    -0.033 A 
ATOM      2  C1  UNL d   1      -1.954  -0.081   0.404  0.00  0.00     0.039 A 
ATOM      3  C2  UNL d   1      -2.082   0.746   1.521  0.00  0.00    -0.080 A 
ATOM      4  C3  UNL d   1      -0.942   1.307   2.091  0.00  0.00     0.150 A 
ATOM      5  C4  UNL d   1       0.318   1.055   1.558  0.00  0.00    -0.007 A 
ATOM      6  C5  UNL d   1       0.444   0.228   0.443  0.00  0.00     0.039 A 
ENDROOT
BRANCH   4   7
ATOM      7  O   UNL d   1      -1.017   2.117   3.185  0.00  0.00    -0.526 OA
ATOM      8  H5  UNL d   1      -1.947   2.178   3.460  0.00  0.00     0.418 HD
ENDBRANCH   4   7
TORSDOF 1
ENDMDL
