MODEL 1
REMARK minimizedAffinity -4.81081629
REMARK minimizedRMSD -1
REMARK  1 active torsions:
REMARK  status: ('A' for Active; 'I' for Inactive)
REMARK    1  A    between atoms: C3_4  and  O_7 
ROOT
ATOM      1  C   UNL d   1       1.572   0.549   2.236  0.00  0.00    -0.033 A 
ATOM      2  C1  UNL d   1       0.817   0.989   3.325  0.00  0.00     0.039 A 
ATOM      3  C2  UNL d   1      -0.578   0.958   3.267  0.00  0.00    -0.080 A 
ATOM      4  C3  UNL d   1      -1.204   0.485   2.117  0.00  0.00     0.150 A 
ATOM      5  C4  UNL d   1      -0.457   0.042   1.030  0.00  0.00    -0.007 A 
ATOM      6  C5  UNL d   1       0.935   0.074   1.089  0.00  0.00     0.039 A 
ENDROOT
BRANCH   4   7
ATOM      7  O   UNL d   1      -2.562   0.440   2.012  0.00  0.00    -0.526 OA
ATOM      8  H5  UNL d   1      -2.946   0.804   2.828  0.00  0.00     0.418 HD
ENDBRANCH   4   7
TORSDOF 1
ENDMDL
