MODEL 1
REMARK minimizedAffinity 4.00740671
REMARK minimizedRMSD -1
REMARK  2 active torsions:
REMARK  status: ('A' for Active; 'I' for Inactive)
REMARK    1  A    between atoms: C2'_3  and  C1'_4 
REMARK    2  A    between atoms: C1'_4  and  C1_5 
ROOT
ATOM      1  C1  I4B d   1      -0.291   0.688   1.785  0.00  0.00    -0.075 A 
ATOM      2  C2  I4B d   1      -0.386   0.537   0.424  0.00  0.00     0.003 A 
ATOM      3  C3  I4B d   1      -1.543  -0.044  -0.149  0.00  0.00     0.002 A 
ATOM      4  C4  I4B d   1      -2.552  -0.503   0.673  0.00  0.00    -0.004 A 
ATOM      5  C5  I4B d   1      -2.464  -0.328   2.051  0.00  0.00     0.002 A 
ATOM      6  C6  I4B d   1      -1.332   0.283   2.610  0.00  0.00     0.003 A 
ENDROOT
BRANCH   1   7
ATOM      7  C1' I4B d   1       0.959   1.276   2.360  0.00  0.00     0.060 C 
BRANCH   7   8
ATOM      8  C2' I4B d   1       2.141   0.632   1.663  0.00  0.00    -0.013 C 
ATOM      9  C4' I4B d   1       2.783   1.584   0.688  0.00  0.00     0.013 C 
ATOM     10  C3' I4B d   1       3.116   0.194   2.714  0.00  0.00     0.013 C 
ENDBRANCH   7   8
ENDBRANCH   1   7
TORSDOF 2
ENDMDL
