MODEL 1
REMARK minimizedAffinity 3.6755259
REMARK minimizedRMSD -1
REMARK  2 active torsions:
REMARK  status: ('A' for Active; 'I' for Inactive)
REMARK    1  A    between atoms: C2'_3  and  C1'_4 
REMARK    2  A    between atoms: C1'_4  and  C1_5 
ROOT
ATOM      1  C1  I4B d   1      -0.251  -0.159   1.058  0.00  0.00    -0.075 A 
ATOM      2  C2  I4B d   1      -0.522  -0.709  -0.169  0.00  0.00     0.003 A 
ATOM      3  C3  I4B d   1      -1.832  -0.650  -0.704  0.00  0.00     0.002 A 
ATOM      4  C4  I4B d   1      -2.844  -0.079   0.040  0.00  0.00    -0.004 A 
ATOM      5  C5  I4B d   1      -2.563   0.498   1.275  0.00  0.00     0.002 A 
ATOM      6  C6  I4B d   1      -1.256   0.469   1.782  0.00  0.00     0.003 A 
ENDROOT
BRANCH   1   7
ATOM      7  C1' I4B d   1       1.136  -0.269   1.608  0.00  0.00     0.060 C 
BRANCH   7   8
ATOM      8  C2' I4B d   1       2.103  -0.237   0.442  0.00  0.00    -0.013 C 
ATOM      9  C4' I4B d   1       2.399   1.177   0.017  0.00  0.00     0.013 C 
ATOM     10  C3' I4B d   1       3.355  -0.950   0.859  0.00  0.00     0.013 C 
ENDBRANCH   7   8
ENDBRANCH   1   7
TORSDOF 2
ENDMDL
