MODEL 1
REMARK minimizedAffinity -5.61585569
REMARK minimizedRMSD -1
REMARK  2 active torsions:
REMARK  status: ('A' for Active; 'I' for Inactive)
REMARK    1  A    between atoms: C2'_3  and  C1'_4 
REMARK    2  A    between atoms: C1'_4  and  C1_5 
ROOT
ATOM      1  C1  I4B d   1       0.687  -0.348   0.198  0.00  0.00    -0.075 A 
ATOM      2  C2  I4B d   1      -0.536   0.168   0.547  0.00  0.00     0.003 A 
ATOM      3  C3  I4B d   1      -0.716   0.780   1.812  0.00  0.00     0.002 A 
ATOM      4  C4  I4B d   1       0.333   0.809   2.708  0.00  0.00    -0.004 A 
ATOM      5  C5  I4B d   1       1.578   0.305   2.343  0.00  0.00     0.002 A 
ATOM      6  C6  I4B d   1       1.760  -0.266   1.075  0.00  0.00     0.003 A 
ENDROOT
BRANCH   1   7
ATOM      7  C1' I4B d   1       0.832  -1.017  -1.132  0.00  0.00     0.060 C 
BRANCH   7   8
ATOM      8  C2' I4B d   1       1.022   0.061  -2.179  0.00  0.00    -0.013 C 
ATOM      9  C4' I4B d   1       2.458   0.512  -2.244  0.00  0.00     0.013 C 
ATOM     10  C3' I4B d   1       0.567  -0.488  -3.498  0.00  0.00     0.013 C 
ENDBRANCH   7   8
ENDBRANCH   1   7
TORSDOF 2
ENDMDL
