MODEL 1
REMARK minimizedAffinity -1.37451208
REMARK minimizedRMSD -1
REMARK  2 active torsions:
REMARK  status: ('A' for Active; 'I' for Inactive)
REMARK    1  A    between atoms: C2'_3  and  C1'_4 
REMARK    2  A    between atoms: C1'_4  and  C1_5 
ROOT
ATOM      1  C1  I4B d   1      -0.504  -0.542   3.028  0.00  0.00    -0.075 A 
ATOM      2  C2  I4B d   1       0.329  -0.770   1.961  0.00  0.00     0.003 A 
ATOM      3  C3  I4B d   1      -0.141  -0.584   0.638  0.00  0.00     0.002 A 
ATOM      4  C4  I4B d   1      -1.456  -0.222   0.429  0.00  0.00    -0.004 A 
ATOM      5  C5  I4B d   1      -2.292   0.030   1.512  0.00  0.00     0.002 A 
ATOM      6  C6  I4B d   1      -1.810  -0.118   2.821  0.00  0.00     0.003 A 
ENDROOT
BRANCH   1   7
ATOM      7  C1' I4B d   1       0.016  -0.779   4.411  0.00  0.00     0.060 C 
BRANCH   7   8
ATOM      8  C2' I4B d   1       0.442  -2.229   4.507  0.00  0.00    -0.013 C 
ATOM      9  C4' I4B d   1       1.465  -2.426   5.595  0.00  0.00     0.013 C 
ATOM     10  C3' I4B d   1      -0.783  -3.057   4.760  0.00  0.00     0.013 C 
ENDBRANCH   7   8
ENDBRANCH   1   7
TORSDOF 2
ENDMDL
