MODEL 1
REMARK minimizedAffinity 1.96299922
REMARK minimizedRMSD -1
REMARK  2 active torsions:
REMARK  status: ('A' for Active; 'I' for Inactive)
REMARK    1  A    between atoms: C2'_3  and  C1'_4 
REMARK    2  A    between atoms: C1'_4  and  C1_5 
ROOT
ATOM      1  C1  I4B d   1      -0.176   0.444   2.099  0.00  0.00    -0.075 A 
ATOM      2  C2  I4B d   1       1.175   0.223   1.996  0.00  0.00     0.003 A 
ATOM      3  C3  I4B d   1       1.719  -0.315   0.804  0.00  0.00     0.002 A 
ATOM      4  C4  I4B d   1       0.877  -0.662  -0.232  0.00  0.00    -0.004 A 
ATOM      5  C5  I4B d   1      -0.489  -0.416  -0.134  0.00  0.00     0.002 A 
ATOM      6  C6  I4B d   1      -1.018   0.152   1.034  0.00  0.00     0.003 A 
ENDROOT
BRANCH   1   7
ATOM      7  C1' I4B d   1      -0.722   0.982   3.384  0.00  0.00     0.060 C 
BRANCH   7   8
ATOM      8  C2' I4B d   1      -1.353  -0.168   4.141  0.00  0.00    -0.013 C 
ATOM      9  C4' I4B d   1      -2.585  -0.674   3.437  0.00  0.00     0.013 C 
ATOM     10  C3' I4B d   1      -0.326  -1.251   4.280  0.00  0.00     0.013 C 
ENDBRANCH   7   8
ENDBRANCH   1   7
TORSDOF 2
ENDMDL
