MODEL 1
REMARK minimizedAffinity 8.36168194
REMARK minimizedRMSD -1
REMARK  1 active torsions:
REMARK  status: ('A' for Active; 'I' for Inactive)
REMARK    1  A    between atoms: C1_2  and  C2_3 
ROOT
ATOM      1  C2  UNL d   1       0.017   0.512   0.395  0.00  0.00    -0.076 A 
ATOM      2  C3  UNL d   1       0.492   0.323   1.705  0.00  0.00     0.004 A 
ATOM      3  C4  UNL d   1       1.439  -0.660   1.990  0.00  0.00    -0.003 A 
ATOM      4  C5  UNL d   1       1.927  -1.469   0.970  0.00  0.00     0.000 A 
ATOM      5  C6  UNL d   1       1.480  -1.284  -0.338  0.00  0.00     0.000 A 
ATOM      6  C7  UNL d   1       0.538  -0.287  -0.645  0.00  0.00    -0.073 A 
ATOM      7  C8  UNL d   1       0.088  -0.135  -2.072  0.00  0.00     0.078 C 
ENDROOT
BRANCH   1   8
ATOM      8  C1  UNL d   1      -1.030   1.575   0.151  0.00  0.00     0.053 C 
ATOM      9  C   UNL d   1      -2.446   1.025   0.223  0.00  0.00     0.018 C 
ENDBRANCH   1   8
TORSDOF 1
ENDMDL
