MODEL 1
REMARK minimizedAffinity 3.95987344
REMARK minimizedRMSD -1
REMARK  1 active torsions:
REMARK  status: ('A' for Active; 'I' for Inactive)
REMARK    1  A    between atoms: C1_2  and  C2_3 
ROOT
ATOM      1  C2  UNL d   1      -5.247   3.958  -2.228  0.00  0.00    -0.076 A 
ATOM      2  C3  UNL d   1      -5.999   2.812  -1.920  0.00  0.00     0.004 A 
ATOM      3  C4  UNL d   1      -5.414   1.719  -1.283  0.00  0.00    -0.003 A 
ATOM      4  C5  UNL d   1      -4.066   1.755  -0.943  0.00  0.00     0.000 A 
ATOM      5  C6  UNL d   1      -3.309   2.891  -1.225  0.00  0.00     0.000 A 
ATOM      6  C7  UNL d   1      -3.887   4.008  -1.852  0.00  0.00    -0.073 A 
ATOM      7  C8  UNL d   1      -3.022   5.205  -2.138  0.00  0.00     0.078 C 
ENDROOT
BRANCH   1   8
ATOM      8  C1  UNL d   1      -5.929   5.102  -2.943  0.00  0.00     0.053 C 
ATOM      9  C   UNL d   1      -5.902   4.942  -4.456  0.00  0.00     0.018 C 
ENDBRANCH   1   8
TORSDOF 1
ENDMDL
