MODEL 1
REMARK minimizedAffinity 14.3502731
REMARK minimizedRMSD -1
REMARK  1 active torsions:
REMARK  status: ('A' for Active; 'I' for Inactive)
REMARK    1  A    between atoms: C1_2  and  C2_3 
ROOT
ATOM      1  C2  UNL d   1       0.292   1.433   1.818  0.00  0.00    -0.076 A 
ATOM      2  C3  UNL d   1      -0.163   1.820   0.546  0.00  0.00     0.004 A 
ATOM      3  C4  UNL d   1      -0.107   0.940  -0.534  0.00  0.00    -0.003 A 
ATOM      4  C5  UNL d   1       0.404  -0.341  -0.359  0.00  0.00     0.000 A 
ATOM      5  C6  UNL d   1       0.844  -0.748   0.900  0.00  0.00     0.000 A 
ATOM      6  C7  UNL d   1       0.780   0.121   2.003  0.00  0.00    -0.073 A 
ATOM      7  C8  UNL d   1       1.274  -0.368   3.337  0.00  0.00     0.078 C 
ENDROOT
BRANCH   1   8
ATOM      8  C1  UNL d   1       0.232   2.438   2.946  0.00  0.00     0.053 C 
ATOM      9  C   UNL d   1       1.192   3.601   2.742  0.00  0.00     0.018 C 
ENDBRANCH   1   8
TORSDOF 1
ENDMDL
