MODEL 1
REMARK minimizedAffinity -2.85743737
REMARK minimizedRMSD -1
REMARK  1 active torsions:
REMARK  status: ('A' for Active; 'I' for Inactive)
REMARK    1  A    between atoms: C1_2  and  C2_3 
ROOT
ATOM      1  C2  UNL d   1       0.372  -0.699  -0.226  0.00  0.00    -0.076 A 
ATOM      2  C3  UNL d   1       0.055  -0.008  -1.408  0.00  0.00     0.004 A 
ATOM      3  C4  UNL d   1      -0.230   1.356  -1.387  0.00  0.00    -0.003 A 
ATOM      4  C5  UNL d   1      -0.203   2.051  -0.183  0.00  0.00     0.000 A 
ATOM      5  C6  UNL d   1       0.127   1.385   0.997  0.00  0.00     0.000 A 
ATOM      6  C7  UNL d   1       0.433   0.013   0.991  0.00  0.00    -0.073 A 
ATOM      7  C8  UNL d   1       0.775  -0.656   2.293  0.00  0.00     0.078 C 
ENDROOT
BRANCH   1   8
ATOM      8  C1  UNL d   1       0.645  -2.184  -0.307  0.00  0.00     0.053 C 
ATOM      9  C   UNL d   1      -0.487  -2.950  -0.975  0.00  0.00     0.018 C 
ENDBRANCH   1   8
TORSDOF 1
ENDMDL
