MODEL 1
REMARK minimizedAffinity 4.21448755
REMARK minimizedRMSD -1
REMARK  1 active torsions:
REMARK  status: ('A' for Active; 'I' for Inactive)
REMARK    1  A    between atoms: C1_2  and  C2_3 
ROOT
ATOM      1  C2  UNL d   1       0.618   1.765   2.091  0.00  0.00    -0.076 A 
ATOM      2  C3  UNL d   1      -0.070   1.341   0.941  0.00  0.00     0.004 A 
ATOM      3  C4  UNL d   1      -0.193   2.176  -0.169  0.00  0.00    -0.003 A 
ATOM      4  C5  UNL d   1       0.369   3.447  -0.146  0.00  0.00     0.000 A 
ATOM      5  C6  UNL d   1       1.070   3.877   0.980  0.00  0.00     0.000 A 
ATOM      6  C7  UNL d   1       1.218   3.042   2.101  0.00  0.00    -0.073 A 
ATOM      7  C8  UNL d   1       1.979   3.559   3.291  0.00  0.00     0.078 C 
ENDROOT
BRANCH   1   8
ATOM      8  C1  UNL d   1       0.697   0.827   3.274  0.00  0.00     0.053 C 
ATOM      9  C   UNL d   1       0.360  -0.609   2.903  0.00  0.00     0.018 C 
ENDBRANCH   1   8
TORSDOF 1
ENDMDL
