MODEL 1
REMARK minimizedAffinity 17.1757221
REMARK minimizedRMSD -1
REMARK  1 active torsions:
REMARK  status: ('A' for Active; 'I' for Inactive)
REMARK    1  A    between atoms: C1_2  and  C2_3 
ROOT
ATOM      1  C2  UNL d   1      -5.435  -1.943   4.340  0.00  0.00    -0.076 A 
ATOM      2  C3  UNL d   1      -5.422  -2.381   5.676  0.00  0.00     0.004 A 
ATOM      3  C4  UNL d   1      -5.703  -3.707   6.000  0.00  0.00    -0.003 A 
ATOM      4  C5  UNL d   1      -6.000  -4.618   4.992  0.00  0.00     0.000 A 
ATOM      5  C6  UNL d   1      -5.999  -4.206   3.660  0.00  0.00     0.000 A 
ATOM      6  C7  UNL d   1      -5.703  -2.876   3.316  0.00  0.00    -0.073 A 
ATOM      7  C8  UNL d   1      -5.722  -2.484   1.863  0.00  0.00     0.078 C 
ENDROOT
BRANCH   1   8
ATOM      8  C1  UNL d   1      -5.149  -0.487   4.053  0.00  0.00     0.053 C 
ATOM      9  C   UNL d   1      -5.881   0.449   5.002  0.00  0.00     0.018 C 
ENDBRANCH   1   8
TORSDOF 1
ENDMDL
