MODEL 1
REMARK minimizedAffinity 8.45938015
REMARK minimizedRMSD -1
REMARK  1 active torsions:
REMARK  status: ('A' for Active; 'I' for Inactive)
REMARK    1  A    between atoms: C1_2  and  C2_3 
ROOT
ATOM      1  C2  UNL d   1       0.607   2.696   1.978  0.00  0.00    -0.076 A 
ATOM      2  C3  UNL d   1       0.528   3.858   1.192  0.00  0.00     0.004 A 
ATOM      3  C4  UNL d   1       0.016   3.815  -0.104  0.00  0.00    -0.003 A 
ATOM      4  C5  UNL d   1      -0.425   2.608  -0.635  0.00  0.00     0.000 A 
ATOM      5  C6  UNL d   1      -0.371   1.448   0.137  0.00  0.00     0.000 A 
ATOM      6  C7  UNL d   1       0.127   1.477   1.451  0.00  0.00    -0.073 A 
ATOM      7  C8  UNL d   1       0.168   0.195   2.236  0.00  0.00     0.078 C 
ENDROOT
BRANCH   1   8
ATOM      8  C1  UNL d   1       1.196   2.799   3.366  0.00  0.00     0.053 C 
ATOM      9  C   UNL d   1       2.553   3.485   3.374  0.00  0.00     0.018 C 
ENDBRANCH   1   8
TORSDOF 1
ENDMDL
