MODEL 1
REMARK minimizedAffinity 5.56036472
REMARK minimizedRMSD -1
REMARK  1 active torsions:
REMARK  status: ('A' for Active; 'I' for Inactive)
REMARK    1  A    between atoms: C1_2  and  C2_3 
ROOT
ATOM      1  C2  UNL d   1      -5.945  -1.494   3.562  0.00  0.00    -0.076 A 
ATOM      2  C3  UNL d   1      -5.936  -0.814   4.793  0.00  0.00     0.004 A 
ATOM      3  C4  UNL d   1      -5.963  -1.514   5.998  0.00  0.00    -0.003 A 
ATOM      4  C5  UNL d   1      -5.998  -2.904   5.993  0.00  0.00     0.000 A 
ATOM      5  C6  UNL d   1      -5.990  -3.594   4.781  0.00  0.00     0.000 A 
ATOM      6  C7  UNL d   1      -5.946  -2.905   3.557  0.00  0.00    -0.073 A 
ATOM      7  C8  UNL d   1      -5.945  -3.701   2.281  0.00  0.00     0.078 C 
ENDROOT
BRANCH   1   8
ATOM      8  C1  UNL d   1      -5.942  -0.682   2.287  0.00  0.00     0.053 C 
ATOM      9  C   UNL d   1      -4.652   0.102   2.098  0.00  0.00     0.018 C 
ENDBRANCH   1   8
TORSDOF 1
ENDMDL
