MODEL 1
REMARK minimizedAffinity -1.37592125
REMARK minimizedRMSD -1
REMARK  1 active torsions:
REMARK  status: ('A' for Active; 'I' for Inactive)
REMARK    1  A    between atoms: C1_2  and  C2_3 
ROOT
ATOM      1  C2  UNL d   1       0.388   2.081   0.445  0.00  0.00    -0.076 A 
ATOM      2  C3  UNL d   1       0.453   1.232  -0.673  0.00  0.00     0.004 A 
ATOM      3  C4  UNL d   1       0.636  -0.142  -0.521  0.00  0.00    -0.003 A 
ATOM      4  C5  UNL d   1       0.756  -0.688   0.753  0.00  0.00     0.000 A 
ATOM      5  C6  UNL d   1       0.676   0.138   1.873  0.00  0.00     0.000 A 
ATOM      6  C7  UNL d   1       0.475   1.522   1.738  0.00  0.00    -0.073 A 
ATOM      7  C8  UNL d   1       0.402   2.367   2.981  0.00  0.00     0.078 C 
ENDROOT
BRANCH   1   8
ATOM      8  C1  UNL d   1       0.215   3.566   0.217  0.00  0.00     0.053 C 
ATOM      9  C   UNL d   1       0.266   3.939  -1.257  0.00  0.00     0.018 C 
ENDBRANCH   1   8
TORSDOF 1
ENDMDL
