MODEL 1
REMARK minimizedAffinity -0.775680363
REMARK minimizedRMSD -1
REMARK  1 active torsions:
REMARK  status: ('A' for Active; 'I' for Inactive)
REMARK    1  A    between atoms: C1_2  and  C2_3 
ROOT
ATOM      1  C2  UNL d   1      -1.155   0.130  -0.957  0.00  0.00    -0.076 A 
ATOM      2  C3  UNL d   1      -1.549  -0.276   0.330  0.00  0.00     0.004 A 
ATOM      3  C4  UNL d   1      -0.603  -0.575   1.309  0.00  0.00    -0.003 A 
ATOM      4  C5  UNL d   1       0.753  -0.472   1.017  0.00  0.00     0.000 A 
ATOM      5  C6  UNL d   1       1.161  -0.054  -0.249  0.00  0.00     0.000 A 
ATOM      6  C7  UNL d   1       0.220   0.267  -1.242  0.00  0.00    -0.073 A 
ATOM      7  C8  UNL d   1       0.717   0.707  -2.592  0.00  0.00     0.078 C 
ENDROOT
BRANCH   1   8
ATOM      8  C1  UNL d   1      -2.226   0.415  -1.985  0.00  0.00     0.053 C 
ATOM      9  C   UNL d   1      -2.385  -0.716  -2.990  0.00  0.00     0.018 C 
ENDBRANCH   1   8
TORSDOF 1
ENDMDL
