MODEL 1
REMARK minimizedAffinity 3.46441579
REMARK minimizedRMSD -1
REMARK  0 active torsions:
REMARK  status: ('A' for Active; 'I' for Inactive)
ROOT
ATOM      1  C   UNL d   1      -0.788   3.034  -2.853  0.00  0.00     0.078 C 
ATOM      2  C1  UNL d   1       0.472   3.089  -2.043  0.00  0.00    -0.077 A 
ATOM      3  C2  UNL d   1       1.019   4.314  -1.640  0.00  0.00    -0.001 A 
ATOM      4  C3  UNL d   1       2.197   4.350  -0.894  0.00  0.00     0.003 A 
ATOM      5  C4  UNL d   1       2.841   3.165  -0.545  0.00  0.00    -0.005 A 
ATOM      6  C5  UNL d   1       2.307   1.941  -0.943  0.00  0.00     0.003 A 
ATOM      7  C6  UNL d   1       1.128   1.903  -1.689  0.00  0.00    -0.001 A 
ENDROOT
TORSDOF 0
ENDMDL
