MODEL 1
REMARK minimizedAffinity -3.31372905
REMARK minimizedRMSD -1
REMARK  0 active torsions:
REMARK  status: ('A' for Active; 'I' for Inactive)
ROOT
ATOM      1  C   UNL d   1       5.284  -0.726  -3.719  0.00  0.00     0.078 C 
ATOM      2  C1  UNL d   1       5.243  -2.099  -4.320  0.00  0.00    -0.077 A 
ATOM      3  C2  UNL d   1       4.445  -2.373  -5.438  0.00  0.00    -0.001 A 
ATOM      4  C3  UNL d   1       4.408  -3.659  -5.981  0.00  0.00     0.003 A 
ATOM      5  C4  UNL d   1       5.167  -4.680  -5.412  0.00  0.00    -0.005 A 
ATOM      6  C5  UNL d   1       5.962  -4.417  -4.299  0.00  0.00     0.003 A 
ATOM      7  C6  UNL d   1       6.000  -3.133  -3.754  0.00  0.00    -0.001 A 
ENDROOT
TORSDOF 0
ENDMDL
