MODEL 1
REMARK minimizedAffinity -4.22885132
REMARK minimizedRMSD -1
REMARK  0 active torsions:
REMARK  status: ('A' for Active; 'I' for Inactive)
ROOT
ATOM      1  C   UNL d   1      -2.696  -3.073  -0.123  0.00  0.00     0.078 C 
ATOM      2  C1  UNL d   1      -1.585  -2.381   0.608  0.00  0.00    -0.077 A 
ATOM      3  C2  UNL d   1      -1.577  -2.307   2.007  0.00  0.00    -0.001 A 
ATOM      4  C3  UNL d   1      -0.542  -1.651   2.674  0.00  0.00     0.003 A 
ATOM      5  C4  UNL d   1       0.494  -1.062   1.950  0.00  0.00    -0.005 A 
ATOM      6  C5  UNL d   1       0.494  -1.128   0.559  0.00  0.00     0.003 A 
ATOM      7  C6  UNL d   1      -0.541  -1.784  -0.110  0.00  0.00    -0.001 A 
ENDROOT
TORSDOF 0
ENDMDL
