MODEL 1
REMARK minimizedAffinity 2.45594406
REMARK minimizedRMSD -1
REMARK  0 active torsions:
REMARK  status: ('A' for Active; 'I' for Inactive)
ROOT
ATOM      1  C   UNL d   1      -5.955  -5.993   0.031  0.00  0.00     0.078 C 
ATOM      2  C1  UNL d   1      -5.354  -5.436  -1.224  0.00  0.00    -0.077 A 
ATOM      3  C2  UNL d   1      -4.475  -4.347  -1.182  0.00  0.00    -0.001 A 
ATOM      4  C3  UNL d   1      -3.931  -3.832  -2.360  0.00  0.00     0.003 A 
ATOM      5  C4  UNL d   1      -4.260  -4.400  -3.589  0.00  0.00    -0.005 A 
ATOM      6  C5  UNL d   1      -5.136  -5.483  -3.641  0.00  0.00     0.003 A 
ATOM      7  C6  UNL d   1      -5.681  -5.998  -2.465  0.00  0.00    -0.001 A 
ENDROOT
TORSDOF 0
ENDMDL
