MODEL 1
REMARK minimizedAffinity 6.31265736
REMARK minimizedRMSD -1
REMARK  0 active torsions:
REMARK  status: ('A' for Active; 'I' for Inactive)
ROOT
ATOM      1  C   UNL d   1      -5.390   0.671   0.313  0.00  0.00     0.078 C 
ATOM      2  C1  UNL d   1      -4.114   1.431   0.106  0.00  0.00    -0.077 A 
ATOM      3  C2  UNL d   1      -4.069   2.547  -0.739  0.00  0.00    -0.001 A 
ATOM      4  C3  UNL d   1      -2.872   3.239  -0.930  0.00  0.00     0.003 A 
ATOM      5  C4  UNL d   1      -1.711   2.822  -0.282  0.00  0.00    -0.005 A 
ATOM      6  C5  UNL d   1      -1.746   1.711   0.558  0.00  0.00     0.003 A 
ATOM      7  C6  UNL d   1      -2.942   1.018   0.751  0.00  0.00    -0.001 A 
ENDROOT
TORSDOF 0
ENDMDL
