MODEL 1
REMARK minimizedAffinity 0.52425462
REMARK minimizedRMSD -1
REMARK  0 active torsions:
REMARK  status: ('A' for Active; 'I' for Inactive)
ROOT
ATOM      1  C   UNL d   1       2.232  -5.993  -5.024  0.00  0.00     0.078 C 
ATOM      2  C1  UNL d   1       3.540  -5.290  -4.817  0.00  0.00    -0.077 A 
ATOM      3  C2  UNL d   1       3.584  -3.930  -4.489  0.00  0.00    -0.001 A 
ATOM      4  C3  UNL d   1       4.809  -3.286  -4.309  0.00  0.00     0.003 A 
ATOM      5  C4  UNL d   1       6.000  -3.995  -4.455  0.00  0.00    -0.005 A 
ATOM      6  C5  UNL d   1       5.966  -5.348  -4.784  0.00  0.00     0.003 A 
ATOM      7  C6  UNL d   1       4.742  -5.994  -4.965  0.00  0.00    -0.001 A 
ENDROOT
TORSDOF 0
ENDMDL
