MODEL 1
REMARK minimizedAffinity 2.28481102
REMARK minimizedRMSD -1
REMARK  0 active torsions:
REMARK  status: ('A' for Active; 'I' for Inactive)
ROOT
ATOM      1  C   UNL d   1      -4.598  -4.892   3.420  0.00  0.00     0.078 C 
ATOM      2  C1  UNL d   1      -4.823  -4.900   1.937  0.00  0.00    -0.077 A 
ATOM      3  C2  UNL d   1      -5.423  -5.997   1.306  0.00  0.00    -0.001 A 
ATOM      4  C3  UNL d   1      -5.617  -5.995  -0.077  0.00  0.00     0.003 A 
ATOM      5  C4  UNL d   1      -5.214  -4.901  -0.839  0.00  0.00    -0.005 A 
ATOM      6  C5  UNL d   1      -4.614  -3.806  -0.219  0.00  0.00     0.003 A 
ATOM      7  C6  UNL d   1      -4.419  -3.806   1.163  0.00  0.00    -0.001 A 
ENDROOT
TORSDOF 0
ENDMDL
