MODEL 1
REMARK minimizedAffinity -1.50559616
REMARK minimizedRMSD -1
REMARK  0 active torsions:
REMARK  status: ('A' for Active; 'I' for Inactive)
ROOT
ATOM      1  C   UNL d   1       0.764  -2.234   0.938  0.00  0.00     0.078 C 
ATOM      2  C1  UNL d   1       0.355  -1.091   0.059  0.00  0.00    -0.077 A 
ATOM      3  C2  UNL d   1       0.837  -0.980  -1.251  0.00  0.00    -0.001 A 
ATOM      4  C3  UNL d   1       0.455   0.095  -2.055  0.00  0.00     0.003 A 
ATOM      5  C4  UNL d   1      -0.409   1.069  -1.558  0.00  0.00    -0.005 A 
ATOM      6  C5  UNL d   1      -0.892   0.968  -0.255  0.00  0.00     0.003 A 
ATOM      7  C6  UNL d   1      -0.511  -0.106   0.550  0.00  0.00    -0.001 A 
ENDROOT
TORSDOF 0
ENDMDL
