MODEL 1
REMARK minimizedAffinity 2.47618914
REMARK minimizedRMSD -1
REMARK  0 active torsions:
REMARK  status: ('A' for Active; 'I' for Inactive)
ROOT
ATOM      1  C   UNL d   1       5.975  -2.262  -4.251  0.00  0.00     0.078 C 
ATOM      2  C1  UNL d   1       5.267  -3.559  -4.505  0.00  0.00    -0.077 A 
ATOM      3  C2  UNL d   1       3.874  -3.605  -4.642  0.00  0.00    -0.001 A 
ATOM      4  C3  UNL d   1       3.227  -4.821  -4.868  0.00  0.00     0.003 A 
ATOM      5  C4  UNL d   1       3.965  -6.000  -4.959  0.00  0.00    -0.005 A 
ATOM      6  C5  UNL d   1       5.351  -5.964  -4.823  0.00  0.00     0.003 A 
ATOM      7  C6  UNL d   1       6.000  -4.749  -4.596  0.00  0.00    -0.001 A 
ENDROOT
TORSDOF 0
ENDMDL
