MODEL 1
REMARK minimizedAffinity -0.0772947297
REMARK minimizedRMSD -1
REMARK  0 active torsions:
REMARK  status: ('A' for Active; 'I' for Inactive)
ROOT
ATOM      1  C   UNL d   1       2.800   2.307  -1.034  0.00  0.00     0.078 C 
ATOM      2  C1  UNL d   1       1.718   1.379  -0.569  0.00  0.00    -0.077 A 
ATOM      3  C2  UNL d   1       0.403   1.831  -0.403  0.00  0.00    -0.001 A 
ATOM      4  C3  UNL d   1      -0.593   0.959   0.040  0.00  0.00     0.003 A 
ATOM      5  C4  UNL d   1      -0.284  -0.371   0.321  0.00  0.00    -0.005 A 
ATOM      6  C5  UNL d   1       1.022  -0.829   0.161  0.00  0.00     0.003 A 
ATOM      7  C6  UNL d   1       2.019   0.042  -0.282  0.00  0.00    -0.001 A 
ENDROOT
TORSDOF 0
ENDMDL
