MODEL 1
REMARK minimizedAffinity 0.486068308
REMARK minimizedRMSD -1
REMARK  0 active torsions:
REMARK  status: ('A' for Active; 'I' for Inactive)
ROOT
ATOM      1  C   UNL d   1       3.350   1.884  -1.397  0.00  0.00     0.078 C 
ATOM      2  C1  UNL d   1       2.084   1.336  -0.809  0.00  0.00    -0.077 A 
ATOM      3  C2  UNL d   1       0.964   2.155  -0.619  0.00  0.00    -0.001 A 
ATOM      4  C3  UNL d   1      -0.205   1.634  -0.061  0.00  0.00     0.003 A 
ATOM      5  C4  UNL d   1      -0.264   0.292   0.311  0.00  0.00    -0.005 A 
ATOM      6  C5  UNL d   1       0.846  -0.530   0.128  0.00  0.00     0.003 A 
ATOM      7  C6  UNL d   1       2.015  -0.010  -0.429  0.00  0.00    -0.001 A 
ENDROOT
TORSDOF 0
ENDMDL
