MODEL 1
REMARK minimizedAffinity 9.41214752
REMARK minimizedRMSD -1
REMARK  0 active torsions:
REMARK  status: ('A' for Active; 'I' for Inactive)
ROOT
ATOM      1  C   UNL d   1       2.587   1.832  -1.035  0.00  0.00     0.078 C 
ATOM      2  C1  UNL d   1       2.984   1.114   0.221  0.00  0.00    -0.077 A 
ATOM      3  C2  UNL d   1       4.285   1.214   0.728  0.00  0.00    -0.001 A 
ATOM      4  C3  UNL d   1       4.642   0.532   1.893  0.00  0.00     0.003 A 
ATOM      5  C4  UNL d   1       3.705  -0.254   2.559  0.00  0.00    -0.005 A 
ATOM      6  C5  UNL d   1       2.408  -0.361   2.061  0.00  0.00     0.003 A 
ATOM      7  C6  UNL d   1       2.049   0.320   0.896  0.00  0.00    -0.001 A 
ENDROOT
TORSDOF 0
ENDMDL
