MODEL 1
REMARK minimizedAffinity 4.47703266
REMARK minimizedRMSD -1
REMARK  0 active torsions:
REMARK  status: ('A' for Active; 'I' for Inactive)
ROOT
ATOM      1  C   UNL d   1       4.627   1.627  -1.852  0.00  0.00     0.078 C 
ATOM      2  C1  UNL d   1       3.643   2.483  -1.112  0.00  0.00    -0.077 A 
ATOM      3  C2  UNL d   1       4.065   3.368  -0.112  0.00  0.00    -0.001 A 
ATOM      4  C3  UNL d   1       3.137   4.152   0.575  0.00  0.00     0.003 A 
ATOM      5  C4  UNL d   1       1.781   4.059   0.270  0.00  0.00    -0.005 A 
ATOM      6  C5  UNL d   1       1.351   3.180  -0.723  0.00  0.00     0.003 A 
ATOM      7  C6  UNL d   1       2.278   2.395  -1.411  0.00  0.00    -0.001 A 
ENDROOT
TORSDOF 0
ENDMDL
