MODEL 1
REMARK minimizedAffinity 7.41435099
REMARK minimizedRMSD -1
REMARK  0 active torsions:
REMARK  status: ('A' for Active; 'I' for Inactive)
ROOT
ATOM      1  C   UNL d   1      -3.300   2.448  -3.582  0.00  0.00     0.078 C 
ATOM      2  C1  UNL d   1      -1.971   3.135  -3.480  0.00  0.00    -0.077 A 
ATOM      3  C2  UNL d   1      -1.335   3.296  -2.242  0.00  0.00    -0.001 A 
ATOM      4  C3  UNL d   1      -0.103   3.946  -2.161  0.00  0.00     0.003 A 
ATOM      5  C4  UNL d   1       0.504   4.442  -3.313  0.00  0.00    -0.005 A 
ATOM      6  C5  UNL d   1      -0.122   4.288  -4.549  0.00  0.00     0.003 A 
ATOM      7  C6  UNL d   1      -1.354   3.638  -4.632  0.00  0.00    -0.001 A 
ENDROOT
TORSDOF 0
ENDMDL
