MODEL 1
REMARK minimizedAffinity 7.93414021
REMARK minimizedRMSD -1
REMARK  0 active torsions:
REMARK  status: ('A' for Active; 'I' for Inactive)
ROOT
ATOM      1  C   UNL d   1       0.902   3.534  -0.730  0.00  0.00     0.078 C 
ATOM      2  C1  UNL d   1       1.820   2.368  -0.942  0.00  0.00    -0.077 A 
ATOM      3  C2  UNL d   1       2.949   2.479  -1.763  0.00  0.00    -0.001 A 
ATOM      4  C3  UNL d   1       3.791   1.383  -1.958  0.00  0.00     0.003 A 
ATOM      5  C4  UNL d   1       3.511   0.167  -1.338  0.00  0.00    -0.005 A 
ATOM      6  C5  UNL d   1       2.389   0.046  -0.521  0.00  0.00     0.003 A 
ATOM      7  C6  UNL d   1       1.547   1.141  -0.324  0.00  0.00    -0.001 A 
ENDROOT
TORSDOF 0
ENDMDL
