MODEL 1
REMARK minimizedAffinity -3.46992111
REMARK minimizedRMSD -1
REMARK  0 active torsions:
REMARK  status: ('A' for Active; 'I' for Inactive)
ROOT
ATOM      1  C   UNL d   1      -1.704  -1.176   0.104  0.00  0.00     0.077 C 
ATOM      2  C1  UNL d   1      -0.670  -0.100  -0.051  0.00  0.00    -0.074 A 
ATOM      3  C2  UNL d   1      -0.991   1.125  -0.643  0.00  0.00    -0.005 A 
ATOM      4  C3  UNL d   1      -0.022   2.120  -0.771  0.00  0.00     0.006 A 
ATOM      5  C4  UNL d   1       1.276   1.899  -0.310  0.00  0.00    -0.005 A 
ATOM      6  C5  UNL d   1       1.616   0.680   0.286  0.00  0.00    -0.074 A 
ATOM      7  C6  UNL d   1       3.004   0.430   0.796  0.00  0.00     0.077 C 
ATOM      8  C7  UNL d   1       0.634  -0.312   0.417  0.00  0.00    -0.001 A 
ENDROOT
TORSDOF 0
ENDMDL
