MODEL 1
REMARK minimizedAffinity -5.02233219
REMARK minimizedRMSD -1
REMARK  0 active torsions:
REMARK  status: ('A' for Active; 'I' for Inactive)
ROOT
ATOM      1  C   UNL d   1       4.468  -1.087   2.434  0.00  0.00     0.077 C 
ATOM      2  C1  UNL d   1       3.083  -1.177   1.864  0.00  0.00    -0.074 A 
ATOM      3  C2  UNL d   1       2.603  -0.199   0.987  0.00  0.00    -0.005 A 
ATOM      4  C3  UNL d   1       1.317  -0.300   0.457  0.00  0.00     0.006 A 
ATOM      5  C4  UNL d   1       0.499  -1.378   0.798  0.00  0.00    -0.005 A 
ATOM      6  C5  UNL d   1       0.963  -2.366   1.672  0.00  0.00    -0.074 A 
ATOM      7  C6  UNL d   1       0.101  -3.537   2.041  0.00  0.00     0.077 C 
ATOM      8  C7  UNL d   1       2.259  -2.261   2.195  0.00  0.00    -0.001 A 
ENDROOT
TORSDOF 0
ENDMDL
