MODEL 1
REMARK minimizedAffinity -2.56492782
REMARK minimizedRMSD -1
REMARK  0 active torsions:
REMARK  status: ('A' for Active; 'I' for Inactive)
ROOT
ATOM      1  C   UNL d   1      -2.178   0.747  -0.960  0.00  0.00     0.077 C 
ATOM      2  C1  UNL d   1      -0.911   0.546  -0.183  0.00  0.00    -0.074 A 
ATOM      3  C2  UNL d   1       0.019   1.581  -0.045  0.00  0.00    -0.005 A 
ATOM      4  C3  UNL d   1       1.188   1.383   0.689  0.00  0.00     0.006 A 
ATOM      5  C4  UNL d   1       1.439   0.149   1.291  0.00  0.00    -0.005 A 
ATOM      6  C5  UNL d   1       0.520  -0.898   1.165  0.00  0.00    -0.074 A 
ATOM      7  C6  UNL d   1       0.769  -2.227   1.814  0.00  0.00     0.077 C 
ATOM      8  C7  UNL d   1      -0.656  -0.688   0.432  0.00  0.00    -0.001 A 
ENDROOT
TORSDOF 0
ENDMDL
