MODEL 1
REMARK minimizedAffinity -4.83433485
REMARK minimizedRMSD -1
REMARK  0 active torsions:
REMARK  status: ('A' for Active; 'I' for Inactive)
ROOT
ATOM      1  C   UNL d   1      -1.584  -0.401  -0.067  0.00  0.00     0.077 C 
ATOM      2  C1  UNL d   1      -0.144  -0.229   0.316  0.00  0.00    -0.074 A 
ATOM      3  C2  UNL d   1       0.493   1.009   0.185  0.00  0.00    -0.005 A 
ATOM      4  C3  UNL d   1       1.830   1.156   0.554  0.00  0.00     0.006 A 
ATOM      5  C4  UNL d   1       2.543   0.067   1.057  0.00  0.00    -0.005 A 
ATOM      6  C5  UNL d   1       1.923  -1.179   1.196  0.00  0.00    -0.074 A 
ATOM      7  C6  UNL d   1       2.673  -2.357   1.744  0.00  0.00     0.077 C 
ATOM      8  C7  UNL d   1       0.578  -1.316   0.829  0.00  0.00    -0.001 A 
ENDROOT
TORSDOF 0
ENDMDL
