MODEL 1
REMARK minimizedAffinity 11.5140142
REMARK minimizedRMSD -1
REMARK  1 active torsions:
REMARK  status: ('A' for Active; 'I' for Inactive)
REMARK    1  A    between atoms: C1_2  and  C2_3 
ROOT
ATOM      1  C2  UNL d   1       2.104  -0.242  -0.214  0.00  0.00    -0.081 A 
ATOM      2  C3  UNL d   1       1.276  -0.141  -1.338  0.00  0.00     0.006 A 
ATOM      3  C4  UNL d   1       0.904  -1.284  -2.049  0.00  0.00     0.002 A 
ATOM      4  C5  UNL d   1       1.348  -2.548  -1.644  0.00  0.00    -0.080 A 
ATOM      5  C6  UNL d   1       0.932  -3.786  -2.381  0.00  0.00     0.076 C 
ATOM      6  C7  UNL d   1       2.190  -2.647  -0.532  0.00  0.00     0.002 A 
ATOM      7  C8  UNL d   1       2.563  -1.504   0.179  0.00  0.00     0.006 A 
ENDROOT
BRANCH   1   8
ATOM      8  C1  UNL d   1       2.454   0.982   0.593  0.00  0.00     0.054 C 
ATOM      9  C   UNL d   1       1.341   1.338   1.568  0.00  0.00     0.018 C 
ENDBRANCH   1   8
TORSDOF 1
ENDMDL
