MODEL 1
REMARK minimizedAffinity 20.4861355
REMARK minimizedRMSD -1
REMARK  1 active torsions:
REMARK  status: ('A' for Active; 'I' for Inactive)
REMARK    1  A    between atoms: C1_2  and  C2_3 
ROOT
ATOM      1  C2  UNL d   1       2.453  -1.828  -0.770  0.00  0.00    -0.081 A 
ATOM      2  C3  UNL d   1       3.707  -2.311  -0.375  0.00  0.00     0.006 A 
ATOM      3  C4  UNL d   1       3.874  -3.658  -0.043  0.00  0.00     0.002 A 
ATOM      4  C5  UNL d   1       2.794  -4.544  -0.108  0.00  0.00    -0.080 A 
ATOM      5  C6  UNL d   1       2.967  -5.998   0.216  0.00  0.00     0.076 C 
ATOM      6  C7  UNL d   1       1.537  -4.058  -0.486  0.00  0.00     0.002 A 
ATOM      7  C8  UNL d   1       1.369  -2.712  -0.817  0.00  0.00     0.006 A 
ENDROOT
BRANCH   1   8
ATOM      8  C1  UNL d   1       2.284  -0.390  -1.191  0.00  0.00     0.054 C 
ATOM      9  C   UNL d   1       1.191  -0.246  -2.241  0.00  0.00     0.018 C 
ENDBRANCH   1   8
TORSDOF 1
ENDMDL
