MODEL 1
REMARK minimizedAffinity 19.100914
REMARK minimizedRMSD -1
REMARK  1 active torsions:
REMARK  status: ('A' for Active; 'I' for Inactive)
REMARK    1  A    between atoms: C1_2  and  C2_3 
ROOT
ATOM      1  C2  UNL d   1      -3.398   1.513   3.027  0.00  0.00    -0.081 A 
ATOM      2  C3  UNL d   1      -2.839   1.442   1.745  0.00  0.00     0.006 A 
ATOM      3  C4  UNL d   1      -1.456   1.328   1.581  0.00  0.00     0.002 A 
ATOM      4  C5  UNL d   1      -0.611   1.277   2.695  0.00  0.00    -0.080 A 
ATOM      5  C6  UNL d   1       0.872   1.124   2.533  0.00  0.00     0.076 C 
ATOM      6  C7  UNL d   1      -1.168   1.366   3.975  0.00  0.00     0.002 A 
ATOM      7  C8  UNL d   1      -2.550   1.480   4.140  0.00  0.00     0.006 A 
ENDROOT
BRANCH   1   8
ATOM      8  C1  UNL d   1      -4.893   1.571   3.208  0.00  0.00     0.054 C 
ATOM      9  C   UNL d   1      -5.323   2.881   3.852  0.00  0.00     0.018 C 
ENDBRANCH   1   8
TORSDOF 1
ENDMDL
