MODEL 1
REMARK minimizedAffinity -0.65457195
REMARK minimizedRMSD -1
REMARK  1 active torsions:
REMARK  status: ('A' for Active; 'I' for Inactive)
REMARK    1  A    between atoms: C1_2  and  C2_3 
ROOT
ATOM      1  C2  UNL d   1       2.855  -2.532  -0.479  0.00  0.00    -0.081 A 
ATOM      2  C3  UNL d   1       2.473  -2.683  -1.818  0.00  0.00     0.006 A 
ATOM      3  C4  UNL d   1       2.050  -1.579  -2.563  0.00  0.00     0.002 A 
ATOM      4  C5  UNL d   1       2.007  -0.307  -1.984  0.00  0.00    -0.080 A 
ATOM      5  C6  UNL d   1       1.583   0.891  -2.780  0.00  0.00     0.076 C 
ATOM      6  C7  UNL d   1       2.371  -0.158  -0.641  0.00  0.00     0.002 A 
ATOM      7  C8  UNL d   1       2.795  -1.261   0.104  0.00  0.00     0.006 A 
ENDROOT
BRANCH   1   8
ATOM      8  C1  UNL d   1       3.374  -3.708   0.307  0.00  0.00     0.054 C 
ATOM      9  C   UNL d   1       4.895  -3.731   0.329  0.00  0.00     0.018 C 
ENDBRANCH   1   8
TORSDOF 1
ENDMDL
