MODEL 1
REMARK minimizedAffinity 24.4010258
REMARK minimizedRMSD -1
REMARK  1 active torsions:
REMARK  status: ('A' for Active; 'I' for Inactive)
REMARK    1  A    between atoms: C1_2  and  C2_3 
ROOT
ATOM      1  C2  UNL d   1       2.615  -1.910  -0.039  0.00  0.00    -0.081 A 
ATOM      2  C3  UNL d   1       3.919  -2.236   0.354  0.00  0.00     0.006 A 
ATOM      3  C4  UNL d   1       4.255  -3.555   0.667  0.00  0.00     0.002 A 
ATOM      4  C5  UNL d   1       3.296  -4.571   0.584  0.00  0.00    -0.080 A 
ATOM      5  C6  UNL d   1       3.652  -5.996   0.888  0.00  0.00     0.076 C 
ATOM      6  C7  UNL d   1       1.989  -4.243   0.208  0.00  0.00     0.002 A 
ATOM      7  C8  UNL d   1       1.652  -2.924  -0.104  0.00  0.00     0.006 A 
ENDROOT
BRANCH   1   8
ATOM      8  C1  UNL d   1       2.265  -0.500  -0.440  0.00  0.00     0.054 C 
ATOM      9  C   UNL d   1       2.109   0.399   0.779  0.00  0.00     0.018 C 
ENDBRANCH   1   8
TORSDOF 1
ENDMDL
