MODEL 1
REMARK minimizedAffinity 17.2960472
REMARK minimizedRMSD -1
REMARK  1 active torsions:
REMARK  status: ('A' for Active; 'I' for Inactive)
REMARK    1  A    between atoms: C1_2  and  C2_3 
ROOT
ATOM      1  C2  UNL d   1       2.400   0.737  -3.042  0.00  0.00    -0.081 A 
ATOM      2  C3  UNL d   1       1.758   1.780  -3.721  0.00  0.00     0.006 A 
ATOM      3  C4  UNL d   1       1.885   3.098  -3.277  0.00  0.00     0.002 A 
ATOM      4  C5  UNL d   1       2.661   3.396  -2.152  0.00  0.00    -0.080 A 
ATOM      5  C6  UNL d   1       2.830   4.810  -1.682  0.00  0.00     0.076 C 
ATOM      6  C7  UNL d   1       3.288   2.352  -1.463  0.00  0.00     0.002 A 
ATOM      7  C8  UNL d   1       3.161   1.034  -1.906  0.00  0.00     0.006 A 
ENDROOT
BRANCH   1   8
ATOM      8  C1  UNL d   1       2.318  -0.678  -3.557  0.00  0.00     0.054 C 
ATOM      9  C   UNL d   1       2.757  -0.764  -5.011  0.00  0.00     0.018 C 
ENDBRANCH   1   8
TORSDOF 1
ENDMDL
