MODEL 1
REMARK minimizedAffinity 18.4507961
REMARK minimizedRMSD -1
REMARK  1 active torsions:
REMARK  status: ('A' for Active; 'I' for Inactive)
REMARK    1  A    between atoms: C1_2  and  C2_3 
ROOT
ATOM      1  C2  UNL d   1       2.112   0.602  -2.825  0.00  0.00    -0.081 A 
ATOM      2  C3  UNL d   1       2.768   0.547  -1.590  0.00  0.00     0.006 A 
ATOM      3  C4  UNL d   1       2.979   1.712  -0.848  0.00  0.00     0.002 A 
ATOM      4  C5  UNL d   1       2.530   2.948  -1.325  0.00  0.00    -0.080 A 
ATOM      5  C6  UNL d   1       2.722   4.202  -0.525  0.00  0.00     0.076 C 
ATOM      6  C7  UNL d   1       1.889   3.005  -2.568  0.00  0.00     0.002 A 
ATOM      7  C8  UNL d   1       1.679   1.841  -3.310  0.00  0.00     0.006 A 
ENDROOT
BRANCH   1   8
ATOM      8  C1  UNL d   1       1.826  -0.661  -3.598  0.00  0.00     0.054 C 
ATOM      9  C   UNL d   1       2.443  -0.611  -4.988  0.00  0.00     0.018 C 
ENDBRANCH   1   8
TORSDOF 1
ENDMDL
