MODEL 1
REMARK minimizedAffinity 24.1429729
REMARK minimizedRMSD -1
REMARK  1 active torsions:
REMARK  status: ('A' for Active; 'I' for Inactive)
REMARK    1  A    between atoms: C1_2  and  C2_3 
ROOT
ATOM      1  C2  UNL d   1       3.304  -0.100  -0.152  0.00  0.00    -0.081 A 
ATOM      2  C3  UNL d   1       2.143  -0.756  -0.579  0.00  0.00     0.006 A 
ATOM      3  C4  UNL d   1       2.064  -2.150  -0.542  0.00  0.00     0.002 A 
ATOM      4  C5  UNL d   1       3.140  -2.910  -0.071  0.00  0.00    -0.080 A 
ATOM      5  C6  UNL d   1       3.056  -4.406   0.002  0.00  0.00     0.076 C 
ATOM      6  C7  UNL d   1       4.306  -2.256   0.339  0.00  0.00     0.002 A 
ATOM      7  C8  UNL d   1       4.386  -0.862   0.302  0.00  0.00     0.006 A 
ENDROOT
BRANCH   1   8
ATOM      8  C1  UNL d   1       3.369   1.406  -0.130  0.00  0.00     0.054 C 
ATOM      9  C   UNL d   1       2.898   1.961   1.207  0.00  0.00     0.018 C 
ENDBRANCH   1   8
TORSDOF 1
ENDMDL
