MODEL 1
REMARK minimizedAffinity 13.9461718
REMARK minimizedRMSD -1
REMARK  1 active torsions:
REMARK  status: ('A' for Active; 'I' for Inactive)
REMARK    1  A    between atoms: C1_2  and  C2_3 
ROOT
ATOM      1  C2  UNL d   1      -1.856   1.489   2.685  0.00  0.00    -0.081 A 
ATOM      2  C3  UNL d   1      -1.329   2.630   2.068  0.00  0.00     0.006 A 
ATOM      3  C4  UNL d   1       0.043   2.736   1.829  0.00  0.00     0.002 A 
ATOM      4  C5  UNL d   1       0.910   1.701   2.196  0.00  0.00    -0.080 A 
ATOM      5  C6  UNL d   1       2.381   1.789   1.917  0.00  0.00     0.076 C 
ATOM      6  C7  UNL d   1       0.386   0.569   2.829  0.00  0.00     0.002 A 
ATOM      7  C8  UNL d   1      -0.986   0.462   3.069  0.00  0.00     0.006 A 
ENDROOT
BRANCH   1   8
ATOM      8  C1  UNL d   1      -3.343   1.344   2.886  0.00  0.00     0.054 C 
ATOM      9  C   UNL d   1      -3.738  -0.116   3.056  0.00  0.00     0.018 C 
ENDBRANCH   1   8
TORSDOF 1
ENDMDL
