MODEL 1
REMARK minimizedAffinity 15.3446331
REMARK minimizedRMSD -1
REMARK  1 active torsions:
REMARK  status: ('A' for Active; 'I' for Inactive)
REMARK    1  A    between atoms: C1_2  and  C2_3 
ROOT
ATOM      1  C2  UNL d   1      -1.370   1.352   3.575  0.00  0.00    -0.081 A 
ATOM      2  C3  UNL d   1      -2.255   1.348   2.489  0.00  0.00     0.006 A 
ATOM      3  C4  UNL d   1      -3.590   1.720   2.663  0.00  0.00     0.002 A 
ATOM      4  C5  UNL d   1      -4.061   2.109   3.921  0.00  0.00    -0.080 A 
ATOM      5  C6  UNL d   1      -5.484   2.539   4.115  0.00  0.00     0.076 C 
ATOM      6  C7  UNL d   1      -3.181   2.096   5.009  0.00  0.00     0.002 A 
ATOM      7  C8  UNL d   1      -1.846   1.723   4.837  0.00  0.00     0.006 A 
ENDROOT
BRANCH   1   8
ATOM      8  C1  UNL d   1       0.085   1.013   3.378  0.00  0.00     0.054 C 
ATOM      9  C   UNL d   1       0.519   1.251   1.939  0.00  0.00     0.018 C 
ENDBRANCH   1   8
TORSDOF 1
ENDMDL
