MODEL 1
REMARK minimizedAffinity 12.0561657
REMARK minimizedRMSD -1
REMARK  1 active torsions:
REMARK  status: ('A' for Active; 'I' for Inactive)
REMARK    1  A    between atoms: C1_2  and  C2_3 
ROOT
ATOM      1  C2  UNL d   1       2.834  -1.859  -0.465  0.00  0.00    -0.081 A 
ATOM      2  C3  UNL d   1       1.768  -2.750  -0.636  0.00  0.00     0.006 A 
ATOM      3  C4  UNL d   1       1.903  -4.094  -0.278  0.00  0.00     0.002 A 
ATOM      4  C5  UNL d   1       3.103  -4.566   0.264  0.00  0.00    -0.080 A 
ATOM      5  C6  UNL d   1       3.252  -5.999   0.682  0.00  0.00     0.076 C 
ATOM      6  C7  UNL d   1       4.174  -3.679   0.419  0.00  0.00     0.002 A 
ATOM      7  C8  UNL d   1       4.039  -2.336   0.060  0.00  0.00     0.006 A 
ENDROOT
BRANCH   1   8
ATOM      8  C1  UNL d   1       2.670  -0.396  -0.791  0.00  0.00     0.054 C 
ATOM      9  C   UNL d   1       1.690  -0.191  -1.937  0.00  0.00     0.018 C 
ENDBRANCH   1   8
TORSDOF 1
ENDMDL
