MODEL 1
REMARK minimizedAffinity 16.9186039
REMARK minimizedRMSD -1
REMARK  1 active torsions:
REMARK  status: ('A' for Active; 'I' for Inactive)
REMARK    1  A    between atoms: C1_2  and  C2_3 
ROOT
ATOM      1  C2  UNL d   1      -2.813   4.444  -5.174  0.00  0.00    -0.081 A 
ATOM      2  C3  UNL d   1      -2.391   4.484  -3.839  0.00  0.00     0.006 A 
ATOM      3  C4  UNL d   1      -1.519   3.512  -3.343  0.00  0.00     0.002 A 
ATOM      4  C5  UNL d   1      -1.047   2.491  -4.174  0.00  0.00    -0.080 A 
ATOM      5  C6  UNL d   1      -0.086   1.460  -3.662  0.00  0.00     0.076 C 
ATOM      6  C7  UNL d   1      -1.481   2.441  -5.503  0.00  0.00     0.002 A 
ATOM      7  C8  UNL d   1      -2.355   3.412  -6.000  0.00  0.00     0.006 A 
ENDROOT
BRANCH   1   8
ATOM      8  C1  UNL d   1      -3.703   5.527  -5.729  0.00  0.00     0.054 C 
ATOM      9  C   UNL d   1      -5.112   5.010  -5.978  0.00  0.00     0.018 C 
ENDBRANCH   1   8
TORSDOF 1
ENDMDL
