MODEL 1
REMARK minimizedAffinity 10.0189819
REMARK minimizedRMSD -1
REMARK  1 active torsions:
REMARK  status: ('A' for Active; 'I' for Inactive)
REMARK    1  A    between atoms: C1_2  and  C2_3 
ROOT
ATOM      1  C2  UNL d   1      -2.950   1.466   3.615  0.00  0.00    -0.081 A 
ATOM      2  C3  UNL d   1      -3.953   2.223   2.998  0.00  0.00     0.006 A 
ATOM      3  C4  UNL d   1      -4.863   2.953   3.766  0.00  0.00     0.002 A 
ATOM      4  C5  UNL d   1      -4.782   2.944   5.162  0.00  0.00    -0.080 A 
ATOM      5  C6  UNL d   1      -5.734   3.747   5.998  0.00  0.00     0.076 C 
ATOM      6  C7  UNL d   1      -3.791   2.173   5.780  0.00  0.00     0.002 A 
ATOM      7  C8  UNL d   1      -2.881   1.443   5.013  0.00  0.00     0.006 A 
ENDROOT
BRANCH   1   8
ATOM      8  C1  UNL d   1      -1.927   0.730   2.789  0.00  0.00     0.054 C 
ATOM      9  C   UNL d   1      -0.541   1.339   2.952  0.00  0.00     0.018 C 
ENDBRANCH   1   8
TORSDOF 1
ENDMDL
