MODEL 1
REMARK minimizedAffinity 17.3010635
REMARK minimizedRMSD -1
REMARK  1 active torsions:
REMARK  status: ('A' for Active; 'I' for Inactive)
REMARK    1  A    between atoms: C1_2  and  C2_3 
ROOT
ATOM      1  C2  UNL d   1       1.894   0.586   0.080  0.00  0.00    -0.081 A 
ATOM      2  C3  UNL d   1       2.573   1.336  -0.888  0.00  0.00     0.006 A 
ATOM      3  C4  UNL d   1       2.529   0.963  -2.233  0.00  0.00     0.002 A 
ATOM      4  C5  UNL d   1       1.800  -0.161  -2.634  0.00  0.00    -0.080 A 
ATOM      5  C6  UNL d   1       1.720  -0.556  -4.079  0.00  0.00     0.076 C 
ATOM      6  C7  UNL d   1       1.135  -0.921  -1.665  0.00  0.00     0.002 A 
ATOM      7  C8  UNL d   1       1.179  -0.549  -0.320  0.00  0.00     0.006 A 
ENDROOT
BRANCH   1   8
ATOM      8  C1  UNL d   1       1.886   1.023   1.523  0.00  0.00     0.054 C 
ATOM      9  C   UNL d   1       0.489   0.933   2.120  0.00  0.00     0.018 C 
ENDBRANCH   1   8
TORSDOF 1
ENDMDL
