MODEL 1
REMARK minimizedAffinity 7.67083359
REMARK minimizedRMSD -1
REMARK  1 active torsions:
REMARK  status: ('A' for Active; 'I' for Inactive)
REMARK    1  A    between atoms: C1_2  and  C2_3 
ROOT
ATOM      1  C2  UNL d   1       2.354   0.785  -0.115  0.00  0.00    -0.073 A 
ATOM      2  C3  UNL d   1       1.869   0.103  -1.236  0.00  0.00    -0.002 A 
ATOM      3  C4  UNL d   1       1.538  -1.250  -1.150  0.00  0.00     0.004 A 
ATOM      4  C5  UNL d   1       1.683  -1.932   0.058  0.00  0.00    -0.004 A 
ATOM      5  C6  UNL d   1       2.154  -1.265   1.193  0.00  0.00    -0.075 A 
ATOM      6  C7  UNL d   1       2.317  -1.985   2.499  0.00  0.00     0.076 C 
ATOM      7  C8  UNL d   1       2.487   0.093   1.097  0.00  0.00     0.001 A 
ENDROOT
BRANCH   1   8
ATOM      8  C1  UNL d   1       2.706   2.248  -0.202  0.00  0.00     0.053 C 
ATOM      9  C   UNL d   1       3.932   2.488  -1.067  0.00  0.00     0.018 C 
ENDBRANCH   1   8
TORSDOF 1
ENDMDL
