MODEL 1
REMARK minimizedAffinity 4.52897024
REMARK minimizedRMSD -1
REMARK  1 active torsions:
REMARK  status: ('A' for Active; 'I' for Inactive)
REMARK    1  A    between atoms: C1_2  and  C2_3 
ROOT
ATOM      1  C2  UNL d   1       3.261   3.832   4.717  0.00  0.00    -0.073 A 
ATOM      2  C3  UNL d   1       3.745   4.285   5.949  0.00  0.00    -0.002 A 
ATOM      3  C4  UNL d   1       4.719   5.283   6.000  0.00  0.00     0.004 A 
ATOM      4  C5  UNL d   1       5.214   5.842   4.821  0.00  0.00    -0.004 A 
ATOM      5  C6  UNL d   1       4.734   5.410   3.580  0.00  0.00    -0.075 A 
ATOM      6  C7  UNL d   1       5.258   5.999   2.304  0.00  0.00     0.076 C 
ATOM      7  C8  UNL d   1       3.758   4.406   3.538  0.00  0.00     0.001 A 
ENDROOT
BRANCH   1   8
ATOM      8  C1  UNL d   1       2.204   2.759   4.657  0.00  0.00     0.053 C 
ATOM      9  C   UNL d   1       1.513   2.565   5.998  0.00  0.00     0.018 C 
ENDBRANCH   1   8
TORSDOF 1
ENDMDL
