MODEL 1
REMARK minimizedAffinity 7.43659401
REMARK minimizedRMSD -1
REMARK  1 active torsions:
REMARK  status: ('A' for Active; 'I' for Inactive)
REMARK    1  A    between atoms: C1_2  and  C2_3 
ROOT
ATOM      1  C2  UNL d   1       2.747  -2.035  -0.483  0.00  0.00    -0.073 A 
ATOM      2  C3  UNL d   1       3.351  -2.473  -1.667  0.00  0.00    -0.002 A 
ATOM      3  C4  UNL d   1       4.244  -1.646  -2.350  0.00  0.00     0.004 A 
ATOM      4  C5  UNL d   1       4.547  -0.379  -1.854  0.00  0.00    -0.004 A 
ATOM      5  C6  UNL d   1       3.963   0.072  -0.666  0.00  0.00    -0.075 A 
ATOM      6  C7  UNL d   1       4.277   1.434  -0.120  0.00  0.00     0.076 C 
ATOM      7  C8  UNL d   1       3.065  -0.762   0.013  0.00  0.00     0.001 A 
ENDROOT
BRANCH   1   8
ATOM      8  C1  UNL d   1       1.787  -2.926   0.261  0.00  0.00     0.053 C 
ATOM      9  C   UNL d   1       0.560  -3.264  -0.571  0.00  0.00     0.018 C 
ENDBRANCH   1   8
TORSDOF 1
ENDMDL
