MODEL 1
REMARK minimizedAffinity 16.9006729
REMARK minimizedRMSD -1
REMARK  1 active torsions:
REMARK  status: ('A' for Active; 'I' for Inactive)
REMARK    1  A    between atoms: C1_2  and  C2_3 
ROOT
ATOM      1  C2  UNL d   1      -5.770   3.436   5.111  0.00  0.00    -0.073 A 
ATOM      2  C3  UNL d   1      -5.771   4.594   5.896  0.00  0.00    -0.002 A 
ATOM      3  C4  UNL d   1      -5.565   5.844   5.309  0.00  0.00     0.004 A 
ATOM      4  C5  UNL d   1      -5.362   5.948   3.933  0.00  0.00    -0.004 A 
ATOM      5  C6  UNL d   1      -5.369   4.803   3.130  0.00  0.00    -0.075 A 
ATOM      6  C7  UNL d   1      -5.151   4.898   1.648  0.00  0.00     0.076 C 
ATOM      7  C8  UNL d   1      -5.575   3.552   3.727  0.00  0.00     0.001 A 
ENDROOT
BRANCH   1   8
ATOM      8  C1  UNL d   1      -5.999   2.085   5.739  0.00  0.00     0.053 C 
ATOM      9  C   UNL d   1      -4.701   1.313   5.919  0.00  0.00     0.018 C 
ENDBRANCH   1   8
TORSDOF 1
ENDMDL
