MODEL 1
REMARK minimizedAffinity 2.22994685
REMARK minimizedRMSD -1
REMARK  1 active torsions:
REMARK  status: ('A' for Active; 'I' for Inactive)
REMARK    1  A    between atoms: C1_2  and  C2_3 
ROOT
ATOM      1  C2  UNL d   1       1.877  -0.737  -0.637  0.00  0.00    -0.073 A 
ATOM      2  C3  UNL d   1       2.576  -1.702   0.098  0.00  0.00    -0.002 A 
ATOM      3  C4  UNL d   1       2.074  -2.999   0.214  0.00  0.00     0.004 A 
ATOM      4  C5  UNL d   1       0.875  -3.346  -0.408  0.00  0.00    -0.004 A 
ATOM      5  C6  UNL d   1       0.169  -2.400  -1.157  0.00  0.00    -0.075 A 
ATOM      6  C7  UNL d   1      -1.124  -2.757  -1.830  0.00  0.00     0.076 C 
ATOM      7  C8  UNL d   1       0.677  -1.098  -1.267  0.00  0.00     0.001 A 
ENDROOT
BRANCH   1   8
ATOM      8  C1  UNL d   1       2.418   0.663  -0.771  0.00  0.00     0.053 C 
ATOM      9  C   UNL d   1       3.939   0.689  -0.774  0.00  0.00     0.018 C 
ENDBRANCH   1   8
TORSDOF 1
ENDMDL
