MODEL 1
REMARK minimizedAffinity 14.8587675
REMARK minimizedRMSD -1
REMARK  1 active torsions:
REMARK  status: ('A' for Active; 'I' for Inactive)
REMARK    1  A    between atoms: C1_2  and  C2_3 
ROOT
ATOM      1  C2  UNL d   1      -3.340   5.540   4.430  0.00  0.00    -0.073 A 
ATOM      2  C3  UNL d   1      -4.032   5.996   5.558  0.00  0.00    -0.002 A 
ATOM      3  C4  UNL d   1      -5.356   5.613   5.775  0.00  0.00     0.004 A 
ATOM      4  C5  UNL d   1      -5.999   4.766   4.872  0.00  0.00    -0.004 A 
ATOM      5  C6  UNL d   1      -5.321   4.291   3.745  0.00  0.00    -0.075 A 
ATOM      6  C7  UNL d   1      -6.000   3.381   2.763  0.00  0.00     0.076 C 
ATOM      7  C8  UNL d   1      -3.992   4.682   3.532  0.00  0.00     0.001 A 
ENDROOT
BRANCH   1   8
ATOM      8  C1  UNL d   1      -1.908   5.946   4.194  0.00  0.00     0.053 C 
ATOM      9  C   UNL d   1      -1.498   5.771   2.740  0.00  0.00     0.018 C 
ENDBRANCH   1   8
TORSDOF 1
ENDMDL
