MODEL 1
REMARK minimizedAffinity 13.8027992
REMARK minimizedRMSD -1
REMARK  1 active torsions:
REMARK  status: ('A' for Active; 'I' for Inactive)
REMARK    1  A    between atoms: C1_2  and  C2_3 
ROOT
ATOM      1  C2  UNL d   1      -5.184   4.092   3.192  0.00  0.00    -0.073 A 
ATOM      2  C3  UNL d   1      -5.998   3.221   3.925  0.00  0.00    -0.002 A 
ATOM      3  C4  UNL d   1      -5.979   3.243   5.320  0.00  0.00     0.004 A 
ATOM      4  C5  UNL d   1      -5.151   4.139   5.996  0.00  0.00    -0.004 A 
ATOM      5  C6  UNL d   1      -4.339   5.026   5.282  0.00  0.00    -0.075 A 
ATOM      6  C7  UNL d   1      -3.441   5.994   5.995  0.00  0.00     0.076 C 
ATOM      7  C8  UNL d   1      -4.362   4.996   3.881  0.00  0.00     0.001 A 
ENDROOT
BRANCH   1   8
ATOM      8  C1  UNL d   1      -5.206   4.077   1.686  0.00  0.00     0.053 C 
ATOM      9  C   UNL d   1      -4.909   2.695   1.126  0.00  0.00     0.018 C 
ENDBRANCH   1   8
TORSDOF 1
ENDMDL
