MODEL 1
REMARK minimizedAffinity 18.9236088
REMARK minimizedRMSD -1
REMARK  1 active torsions:
REMARK  status: ('A' for Active; 'I' for Inactive)
REMARK    1  A    between atoms: C1_2  and  C2_3 
ROOT
ATOM      1  C2  UNL d   1       0.673   0.044   3.348  0.00  0.00    -0.073 A 
ATOM      2  C3  UNL d   1       0.952   1.187   4.105  0.00  0.00    -0.002 A 
ATOM      3  C4  UNL d   1       1.752   2.203   3.580  0.00  0.00     0.004 A 
ATOM      4  C5  UNL d   1       2.274   2.089   2.291  0.00  0.00    -0.004 A 
ATOM      5  C6  UNL d   1       1.996   0.960   1.514  0.00  0.00    -0.075 A 
ATOM      6  C7  UNL d   1       2.552   0.822   0.127  0.00  0.00     0.076 C 
ATOM      7  C8  UNL d   1       1.195  -0.057   2.050  0.00  0.00     0.001 A 
ENDROOT
BRANCH   1   8
ATOM      8  C1  UNL d   1      -0.196  -1.053   3.908  0.00  0.00     0.053 C 
ATOM      9  C   UNL d   1       0.568  -2.358   4.071  0.00  0.00     0.018 C 
ENDBRANCH   1   8
TORSDOF 1
ENDMDL
