MODEL 1
REMARK minimizedAffinity -5.92222595
REMARK minimizedRMSD -1
REMARK  0 active torsions:
REMARK  status: ('A' for Active; 'I' for Inactive)
ROOT
ATOM      1  C   UNL d   1      -0.488   3.855  -0.408  0.00  0.00     0.077 C 
ATOM      2  C1  UNL d   1      -0.661   2.523   0.260  0.00  0.00    -0.074 A 
ATOM      3  C2  UNL d   1      -1.417   2.399   1.430  0.00  0.00    -0.005 A 
ATOM      4  C3  UNL d   1      -1.577   1.152   2.035  0.00  0.00     0.006 A 
ATOM      5  C4  UNL d   1      -0.985   0.019   1.476  0.00  0.00    -0.005 A 
ATOM      6  C5  UNL d   1      -0.227   0.123   0.306  0.00  0.00    -0.074 A 
ATOM      7  C6  UNL d   1       0.408  -1.086  -0.313  0.00  0.00     0.077 C 
ATOM      8  C7  UNL d   1      -0.076   1.378  -0.300  0.00  0.00    -0.001 A 
ENDROOT
TORSDOF 0
ENDMDL
