MODEL 1
REMARK minimizedAffinity -5.74437952
REMARK minimizedRMSD -1
REMARK  0 active torsions:
REMARK  status: ('A' for Active; 'I' for Inactive)
ROOT
ATOM      1  C   UNL d   1      -0.672   4.015  -0.646  0.00  0.00     0.077 C 
ATOM      2  C1  UNL d   1      -0.615   2.690   0.055  0.00  0.00    -0.074 A 
ATOM      3  C2  UNL d   1      -1.156   2.530   1.334  0.00  0.00    -0.005 A 
ATOM      4  C3  UNL d   1      -1.104   1.289   1.969  0.00  0.00     0.006 A 
ATOM      5  C4  UNL d   1      -0.512   0.198   1.332  0.00  0.00    -0.005 A 
ATOM      6  C5  UNL d   1       0.034   0.339   0.052  0.00  0.00    -0.074 A 
ATOM      7  C6  UNL d   1       0.665  -0.826  -0.651  0.00  0.00     0.077 C 
ATOM      8  C7  UNL d   1      -0.029   1.587  -0.582  0.00  0.00    -0.001 A 
ENDROOT
TORSDOF 0
ENDMDL
