MODEL 1
REMARK minimizedAffinity -1.87736595
REMARK minimizedRMSD -1
REMARK  0 active torsions:
REMARK  status: ('A' for Active; 'I' for Inactive)
ROOT
ATOM      1  C   UNL d   1      -0.620   2.558   2.740  0.00  0.00     0.077 C 
ATOM      2  C1  UNL d   1      -0.802   1.863   1.424  0.00  0.00    -0.074 A 
ATOM      3  C2  UNL d   1      -1.632   2.400   0.435  0.00  0.00    -0.005 A 
ATOM      4  C3  UNL d   1      -1.784   1.747  -0.788  0.00  0.00     0.006 A 
ATOM      5  C4  UNL d   1      -1.108   0.551  -1.034  0.00  0.00    -0.005 A 
ATOM      6  C5  UNL d   1      -0.273  -0.001  -0.058  0.00  0.00    -0.074 A 
ATOM      7  C6  UNL d   1       0.468  -1.281  -0.309  0.00  0.00     0.077 C 
ATOM      8  C7  UNL d   1      -0.120   0.665   1.166  0.00  0.00    -0.001 A 
ENDROOT
TORSDOF 0
ENDMDL
