MODEL 1
REMARK minimizedAffinity -3.70258498
REMARK minimizedRMSD -1
REMARK  0 active torsions:
REMARK  status: ('A' for Active; 'I' for Inactive)
ROOT
ATOM      1  C   UNL d   1       0.748   3.023  -1.441  0.00  0.00     0.077 C 
ATOM      2  C1  UNL d   1       0.507   1.768  -0.657  0.00  0.00    -0.074 A 
ATOM      3  C2  UNL d   1      -0.091   1.814   0.607  0.00  0.00    -0.005 A 
ATOM      4  C3  UNL d   1      -0.318   0.637   1.320  0.00  0.00     0.006 A 
ATOM      5  C4  UNL d   1       0.049  -0.595   0.778  0.00  0.00    -0.005 A 
ATOM      6  C5  UNL d   1       0.647  -0.661  -0.484  0.00  0.00    -0.074 A 
ATOM      7  C6  UNL d   1       1.039  -1.978  -1.086  0.00  0.00     0.077 C 
ATOM      8  C7  UNL d   1       0.865   0.526  -1.198  0.00  0.00    -0.001 A 
ENDROOT
TORSDOF 0
ENDMDL
