MODEL 1
REMARK minimizedAffinity -5.13773394
REMARK minimizedRMSD -1
REMARK  0 active torsions:
REMARK  status: ('A' for Active; 'I' for Inactive)
ROOT
ATOM      1  C   UNL d   1      -2.275   1.374   1.328  0.00  0.00     0.077 C 
ATOM      2  C1  UNL d   1      -1.007   1.096   0.576  0.00  0.00    -0.074 A 
ATOM      3  C2  UNL d   1      -0.290  -0.087   0.788  0.00  0.00    -0.005 A 
ATOM      4  C3  UNL d   1       0.881  -0.336   0.074  0.00  0.00     0.006 A 
ATOM      5  C4  UNL d   1       1.348   0.593  -0.857  0.00  0.00    -0.005 A 
ATOM      6  C5  UNL d   1       0.644   1.780  -1.083  0.00  0.00    -0.074 A 
ATOM      7  C6  UNL d   1       1.126   2.784  -2.088  0.00  0.00     0.077 C 
ATOM      8  C7  UNL d   1      -0.536   2.020  -0.367  0.00  0.00    -0.001 A 
ENDROOT
TORSDOF 0
ENDMDL
