MODEL 1
REMARK minimizedAffinity -5.65808201
REMARK minimizedRMSD -1
REMARK  0 active torsions:
REMARK  status: ('A' for Active; 'I' for Inactive)
ROOT
ATOM      1  C   UNL d   1       0.026  -0.952   0.491  0.00  0.00     0.077 C 
ATOM      2  C1  UNL d   1      -0.473   0.459   0.588  0.00  0.00    -0.074 A 
ATOM      3  C2  UNL d   1      -1.416   0.823   1.555  0.00  0.00    -0.005 A 
ATOM      4  C3  UNL d   1      -1.864   2.141   1.639  0.00  0.00     0.006 A 
ATOM      5  C4  UNL d   1      -1.373   3.107   0.759  0.00  0.00    -0.005 A 
ATOM      6  C5  UNL d   1      -0.430   2.762  -0.213  0.00  0.00    -0.074 A 
ATOM      7  C6  UNL d   1       0.115   3.790  -1.160  0.00  0.00     0.077 C 
ATOM      8  C7  UNL d   1       0.021   1.436  -0.287  0.00  0.00    -0.001 A 
ENDROOT
TORSDOF 0
ENDMDL
