MODEL 1
REMARK minimizedAffinity -3.24944019
REMARK minimizedRMSD -1
REMARK  0 active torsions:
REMARK  status: ('A' for Active; 'I' for Inactive)
ROOT
ATOM      1  C   UNL d   1       1.034   2.336  -1.128  0.00  0.00     0.077 C 
ATOM      2  C1  UNL d   1       0.522   1.139  -0.383  0.00  0.00    -0.074 A 
ATOM      3  C2  UNL d   1      -0.211   1.288   0.799  0.00  0.00    -0.005 A 
ATOM      4  C3  UNL d   1      -0.689   0.166   1.476  0.00  0.00     0.006 A 
ATOM      5  C4  UNL d   1      -0.440  -1.114   0.979  0.00  0.00    -0.005 A 
ATOM      6  C5  UNL d   1       0.290  -1.282  -0.202  0.00  0.00    -0.074 A 
ATOM      7  C6  UNL d   1       0.558  -2.650  -0.756  0.00  0.00     0.077 C 
ATOM      8  C7  UNL d   1       0.761  -0.149  -0.880  0.00  0.00    -0.001 A 
ENDROOT
TORSDOF 0
ENDMDL
