MODEL 1
REMARK minimizedAffinity -4.84811163
REMARK minimizedRMSD -1
REMARK  0 active torsions:
REMARK  status: ('A' for Active; 'I' for Inactive)
ROOT
ATOM      1  C   UNL d   1      -1.919   2.554   0.583  0.00  0.00     0.077 C 
ATOM      2  C1  UNL d   1      -0.994   1.375   0.540  0.00  0.00    -0.074 A 
ATOM      3  C2  UNL d   1      -1.097   0.345   1.481  0.00  0.00    -0.005 A 
ATOM      4  C3  UNL d   1      -0.236  -0.750   1.422  0.00  0.00     0.006 A 
ATOM      5  C4  UNL d   1       0.736  -0.828   0.423  0.00  0.00    -0.005 A 
ATOM      6  C5  UNL d   1       0.853   0.191  -0.527  0.00  0.00    -0.074 A 
ATOM      7  C6  UNL d   1       1.884   0.119  -1.613  0.00  0.00     0.077 C 
ATOM      8  C7  UNL d   1      -0.021   1.286  -0.466  0.00  0.00    -0.001 A 
ENDROOT
TORSDOF 0
ENDMDL
