MODEL 1
REMARK minimizedAffinity -4.24413013
REMARK minimizedRMSD -1
REMARK  0 active torsions:
REMARK  status: ('A' for Active; 'I' for Inactive)
ROOT
ATOM      1  C   UNL d   1       0.088   3.375  -1.605  0.00  0.00     0.077 C 
ATOM      2  C1  UNL d   1      -0.453   2.651  -0.408  0.00  0.00    -0.074 A 
ATOM      3  C2  UNL d   1      -1.505   3.187   0.341  0.00  0.00    -0.005 A 
ATOM      4  C3  UNL d   1      -2.005   2.498   1.446  0.00  0.00     0.006 A 
ATOM      5  C4  UNL d   1      -1.458   1.267   1.812  0.00  0.00    -0.005 A 
ATOM      6  C5  UNL d   1      -0.406   0.715   1.074  0.00  0.00    -0.074 A 
ATOM      7  C6  UNL d   1       0.187  -0.611   1.448  0.00  0.00     0.077 C 
ATOM      8  C7  UNL d   1       0.086   1.411  -0.039  0.00  0.00    -0.001 A 
ENDROOT
TORSDOF 0
ENDMDL
