MODEL 1
REMARK minimizedAffinity -4.31886578
REMARK minimizedRMSD -1
REMARK  0 active torsions:
REMARK  status: ('A' for Active; 'I' for Inactive)
ROOT
ATOM      1  C   UNL d   1       0.395  -0.921  -0.367  0.00  0.00     0.077 C 
ATOM      2  C1  UNL d   1      -0.232   0.328   0.175  0.00  0.00    -0.074 A 
ATOM      3  C2  UNL d   1      -1.195   0.268   1.188  0.00  0.00    -0.005 A 
ATOM      4  C3  UNL d   1      -1.762   1.440   1.689  0.00  0.00     0.006 A 
ATOM      5  C4  UNL d   1      -1.374   2.681   1.183  0.00  0.00    -0.005 A 
ATOM      6  C5  UNL d   1      -0.412   2.761   0.171  0.00  0.00    -0.074 A 
ATOM      7  C6  UNL d   1       0.024   4.087  -0.377  0.00  0.00     0.077 C 
ATOM      8  C7  UNL d   1       0.159   1.580  -0.322  0.00  0.00    -0.001 A 
ENDROOT
TORSDOF 0
ENDMDL
