MODEL 1
REMARK minimizedAffinity -3.37422824
REMARK minimizedRMSD -1
REMARK  0 active torsions:
REMARK  status: ('A' for Active; 'I' for Inactive)
ROOT
ATOM      1  C   UNL d   1      -1.993   1.684   2.126  0.00  0.00     0.077 C 
ATOM      2  C1  UNL d   1      -1.099   1.427   0.950  0.00  0.00    -0.074 A 
ATOM      3  C2  UNL d   1      -0.904   2.404  -0.032  0.00  0.00    -0.005 A 
ATOM      4  C3  UNL d   1      -0.062   2.153  -1.115  0.00  0.00     0.006 A 
ATOM      5  C4  UNL d   1       0.592   0.926  -1.228  0.00  0.00    -0.005 A 
ATOM      6  C5  UNL d   1       0.409  -0.063  -0.256  0.00  0.00    -0.074 A 
ATOM      7  C6  UNL d   1       1.112  -1.384  -0.357  0.00  0.00     0.077 C 
ATOM      8  C7  UNL d   1      -0.433   0.199   0.833  0.00  0.00    -0.001 A 
ENDROOT
TORSDOF 0
ENDMDL
