MODEL 1
REMARK minimizedAffinity -4.33839178
REMARK minimizedRMSD -1
REMARK  0 active torsions:
REMARK  status: ('A' for Active; 'I' for Inactive)
ROOT
ATOM      1  C   UNL d   1      -2.420   2.651   1.472  0.00  0.00     0.077 C 
ATOM      2  C1  UNL d   1      -1.430   1.629   0.997  0.00  0.00    -0.074 A 
ATOM      3  C2  UNL d   1      -1.027   1.586  -0.342  0.00  0.00    -0.005 A 
ATOM      4  C3  UNL d   1      -0.099   0.636  -0.767  0.00  0.00     0.006 A 
ATOM      5  C4  UNL d   1       0.435  -0.279   0.141  0.00  0.00    -0.005 A 
ATOM      6  C5  UNL d   1       0.045  -0.251   1.484  0.00  0.00    -0.074 A 
ATOM      7  C6  UNL d   1       0.617  -1.221   2.474  0.00  0.00     0.077 C 
ATOM      8  C7  UNL d   1      -0.883   0.711   1.904  0.00  0.00    -0.001 A 
ENDROOT
TORSDOF 0
ENDMDL
