MODEL 1
REMARK minimizedAffinity -4.27980947
REMARK minimizedRMSD -1
REMARK  0 active torsions:
REMARK  status: ('A' for Active; 'I' for Inactive)
ROOT
ATOM      1  C   UNL d   1      -2.156   3.466   0.956  0.00  0.00     0.077 C 
ATOM      2  C1  UNL d   1      -1.668   2.050   1.040  0.00  0.00    -0.074 A 
ATOM      3  C2  UNL d   1      -2.315   1.114   1.852  0.00  0.00    -0.005 A 
ATOM      4  C3  UNL d   1      -1.855  -0.202   1.912  0.00  0.00     0.006 A 
ATOM      5  C4  UNL d   1      -0.746  -0.593   1.162  0.00  0.00    -0.005 A 
ATOM      6  C5  UNL d   1      -0.086   0.329   0.343  0.00  0.00    -0.074 A 
ATOM      7  C6  UNL d   1       1.102  -0.077  -0.477  0.00  0.00     0.077 C 
ATOM      8  C7  UNL d   1      -0.559   1.647   0.283  0.00  0.00    -0.001 A 
ENDROOT
TORSDOF 0
ENDMDL
