MODEL 1
REMARK minimizedAffinity -5.39927959
REMARK minimizedRMSD -1
REMARK  0 active torsions:
REMARK  status: ('A' for Active; 'I' for Inactive)
ROOT
ATOM      1  C   UNL d   1       1.495   1.879  -1.869  0.00  0.00     0.077 C 
ATOM      2  C1  UNL d   1       0.697   1.372  -0.705  0.00  0.00    -0.074 A 
ATOM      3  C2  UNL d   1       0.981   0.132  -0.125  0.00  0.00    -0.005 A 
ATOM      4  C3  UNL d   1       0.236  -0.323   0.963  0.00  0.00     0.006 A 
ATOM      5  C4  UNL d   1      -0.799   0.457   1.481  0.00  0.00    -0.005 A 
ATOM      6  C5  UNL d   1      -1.097   1.701   0.915  0.00  0.00    -0.074 A 
ATOM      7  C6  UNL d   1      -2.199   2.556   1.466  0.00  0.00     0.077 C 
ATOM      8  C7  UNL d   1      -0.339   2.153  -0.174  0.00  0.00    -0.001 A 
ENDROOT
TORSDOF 0
ENDMDL
