MODEL 1
REMARK minimizedAffinity -4.9239397
REMARK minimizedRMSD -1
REMARK  0 active torsions:
REMARK  status: ('A' for Active; 'I' for Inactive)
ROOT
ATOM      1  C   UNL d   1       0.774  -0.984   2.755  0.00  0.00     0.077 C 
ATOM      2  C1  UNL d   1       0.238  -0.048   1.714  0.00  0.00    -0.074 A 
ATOM      3  C2  UNL d   1       0.705  -0.094   0.397  0.00  0.00    -0.005 A 
ATOM      4  C3  UNL d   1       0.189   0.777  -0.563  0.00  0.00     0.006 A 
ATOM      5  C4  UNL d   1      -0.796   1.702  -0.216  0.00  0.00    -0.005 A 
ATOM      6  C5  UNL d   1      -1.277   1.762   1.096  0.00  0.00    -0.074 A 
ATOM      7  C6  UNL d   1      -2.343   2.743   1.484  0.00  0.00     0.077 C 
ATOM      8  C7  UNL d   1      -0.759   0.879   2.053  0.00  0.00    -0.001 A 
ENDROOT
TORSDOF 0
ENDMDL
