MODEL 1
REMARK minimizedAffinity -3.32472587
REMARK minimizedRMSD -1
REMARK  0 active torsions:
REMARK  status: ('A' for Active; 'I' for Inactive)
ROOT
ATOM      1  C   UNL d   1      -2.489   2.731   1.103  0.00  0.00     0.077 C 
ATOM      2  C1  UNL d   1      -1.479   1.623   1.124  0.00  0.00    -0.074 A 
ATOM      3  C2  UNL d   1      -1.422   0.722   2.192  0.00  0.00    -0.005 A 
ATOM      4  C3  UNL d   1      -0.484  -0.310   2.193  0.00  0.00     0.006 A 
ATOM      5  C4  UNL d   1       0.407  -0.450   1.128  0.00  0.00    -0.005 A 
ATOM      6  C5  UNL d   1       0.365   0.441   0.051  0.00  0.00    -0.074 A 
ATOM      7  C6  UNL d   1       1.308   0.298  -1.107  0.00  0.00     0.077 C 
ATOM      8  C7  UNL d   1      -0.586   1.470   0.054  0.00  0.00    -0.001 A 
ENDROOT
TORSDOF 0
ENDMDL
