MODEL 1
REMARK minimizedAffinity -4.66370583
REMARK minimizedRMSD -1
REMARK  0 active torsions:
REMARK  status: ('A' for Active; 'I' for Inactive)
ROOT
ATOM      1  C   UNL d   1       0.088   3.345  -1.133  0.00  0.00     0.077 C 
ATOM      2  C1  UNL d   1      -0.144   2.107  -0.319  0.00  0.00    -0.074 A 
ATOM      3  C2  UNL d   1      -0.920   2.145   0.843  0.00  0.00    -0.005 A 
ATOM      4  C3  UNL d   1      -1.135   0.983   1.584  0.00  0.00     0.006 A 
ATOM      5  C4  UNL d   1      -0.576  -0.227   1.172  0.00  0.00    -0.005 A 
ATOM      6  C5  UNL d   1       0.203  -0.285   0.012  0.00  0.00    -0.074 A 
ATOM      7  C6  UNL d   1       0.803  -1.579  -0.451  0.00  0.00     0.077 C 
ATOM      8  C7  UNL d   1       0.408   0.886  -0.732  0.00  0.00    -0.001 A 
ENDROOT
TORSDOF 0
ENDMDL
