MODEL 1
REMARK minimizedAffinity -2.9083848
REMARK minimizedRMSD -1
REMARK  0 active torsions:
REMARK  status: ('A' for Active; 'I' for Inactive)
ROOT
ATOM      1  C   UNL d   1       0.340   2.673  -1.376  0.00  0.00     0.077 C 
ATOM      2  C1  UNL d   1       0.214   1.436  -0.538  0.00  0.00    -0.074 A 
ATOM      3  C2  UNL d   1      -0.294   1.498   0.763  0.00  0.00    -0.005 A 
ATOM      4  C3  UNL d   1      -0.415   0.337   1.527  0.00  0.00     0.006 A 
ATOM      5  C4  UNL d   1      -0.029  -0.895   0.999  0.00  0.00    -0.005 A 
ATOM      6  C5  UNL d   1       0.480  -0.977  -0.301  0.00  0.00    -0.074 A 
ATOM      7  C6  UNL d   1       0.890  -2.295  -0.888  0.00  0.00     0.077 C 
ATOM      8  C7  UNL d   1       0.592   0.193  -1.065  0.00  0.00    -0.001 A 
ENDROOT
TORSDOF 0
ENDMDL
