MODEL 1
REMARK minimizedAffinity -3.0155735
REMARK minimizedRMSD -1
REMARK  1 active torsions:
REMARK  status: ('A' for Active; 'I' for Inactive)
REMARK    1  A    between atoms: C1_2  and  C2_3 
ROOT
ATOM      1  C2  UNL d   1      -0.203   0.130  -0.707  0.00  0.00    -0.076 A 
ATOM      2  C3  UNL d   1       0.787  -0.602  -1.386  0.00  0.00     0.004 A 
ATOM      3  C4  UNL d   1       1.583  -1.528  -0.714  0.00  0.00    -0.003 A 
ATOM      4  C5  UNL d   1       1.401  -1.738   0.648  0.00  0.00     0.000 A 
ATOM      5  C6  UNL d   1       0.413  -1.033   1.335  0.00  0.00     0.000 A 
ATOM      6  C7  UNL d   1      -0.409  -0.108   0.669  0.00  0.00    -0.073 A 
ATOM      7  C8  UNL d   1      -1.455   0.629   1.459  0.00  0.00     0.078 C 
ENDROOT
BRANCH   1   8
ATOM      8  C1  UNL d   1      -1.017   1.141  -1.483  0.00  0.00     0.053 C 
ATOM      9  C   UNL d   1      -2.359   0.585  -1.934  0.00  0.00     0.018 C 
ENDBRANCH   1   8
TORSDOF 1
ENDMDL
