MODEL 1
REMARK minimizedAffinity -1.30338299
REMARK minimizedRMSD -1
REMARK  1 active torsions:
REMARK  status: ('A' for Active; 'I' for Inactive)
REMARK    1  A    between atoms: C1_2  and  C2_3 
ROOT
ATOM      1  C2  UNL d   1      -0.892   0.415  -1.293  0.00  0.00    -0.076 A 
ATOM      2  C3  UNL d   1      -0.045  -0.362  -2.102  0.00  0.00     0.004 A 
ATOM      3  C4  UNL d   1       1.170  -0.842  -1.616  0.00  0.00    -0.003 A 
ATOM      4  C5  UNL d   1       1.558  -0.553  -0.312  0.00  0.00     0.000 A 
ATOM      5  C6  UNL d   1       0.722   0.202   0.510  0.00  0.00     0.000 A 
ATOM      6  C7  UNL d   1      -0.514   0.680   0.041  0.00  0.00    -0.073 A 
ATOM      7  C8  UNL d   1      -1.372   1.494   0.969  0.00  0.00     0.078 C 
ENDROOT
BRANCH   1   8
ATOM      8  C1  UNL d   1      -2.185   0.931  -1.883  0.00  0.00     0.053 C 
ATOM      9  C   UNL d   1      -1.970   2.117  -2.811  0.00  0.00     0.018 C 
ENDBRANCH   1   8
TORSDOF 1
ENDMDL
