MODEL 1
REMARK minimizedAffinity -4.85723114
REMARK minimizedRMSD -1
REMARK  1 active torsions:
REMARK  status: ('A' for Active; 'I' for Inactive)
REMARK    1  A    between atoms: C1_2  and  C2_3 
ROOT
ATOM      1  C2  UNL d   1      -0.799   0.130  -1.410  0.00  0.00    -0.076 A 
ATOM      2  C3  UNL d   1       0.105  -0.630  -2.172  0.00  0.00     0.004 A 
ATOM      3  C4  UNL d   1       1.344  -1.004  -1.654  0.00  0.00    -0.003 A 
ATOM      4  C5  UNL d   1       1.699  -0.624  -0.364  0.00  0.00     0.000 A 
ATOM      5  C6  UNL d   1       0.807   0.115   0.413  0.00  0.00     0.000 A 
ATOM      6  C7  UNL d   1      -0.452   0.486  -0.089  0.00  0.00    -0.073 A 
ATOM      7  C8  UNL d   1      -1.372   1.288   0.791  0.00  0.00     0.078 C 
ENDROOT
BRANCH   1   8
ATOM      8  C1  UNL d   1      -2.117   0.529  -2.034  0.00  0.00     0.053 C 
ATOM      9  C   UNL d   1      -1.976   0.907  -3.501  0.00  0.00     0.018 C 
ENDBRANCH   1   8
TORSDOF 1
ENDMDL
