MODEL 1
REMARK minimizedAffinity -3.55991936
REMARK minimizedRMSD -1
REMARK  1 active torsions:
REMARK  status: ('A' for Active; 'I' for Inactive)
REMARK    1  A    between atoms: C1_2  and  C2_3 
ROOT
ATOM      1  C2  UNL d   1      -0.050   0.312  -0.096  0.00  0.00    -0.076 A 
ATOM      2  C3  UNL d   1       1.057   0.149  -0.948  0.00  0.00     0.004 A 
ATOM      3  C4  UNL d   1       2.063  -0.768  -0.650  0.00  0.00    -0.003 A 
ATOM      4  C5  UNL d   1       1.978  -1.539   0.505  0.00  0.00     0.000 A 
ATOM      5  C6  UNL d   1       0.878  -1.404   1.351  0.00  0.00     0.000 A 
ATOM      6  C7  UNL d   1      -0.152  -0.495   1.057  0.00  0.00    -0.073 A 
ATOM      7  C8  UNL d   1      -1.312  -0.386   2.009  0.00  0.00     0.078 C 
ENDROOT
BRANCH   1   8
ATOM      8  C1  UNL d   1      -1.096   1.342  -0.457  0.00  0.00     0.053 C 
ATOM      9  C   UNL d   1      -1.783   1.036  -1.779  0.00  0.00     0.018 C 
ENDBRANCH   1   8
TORSDOF 1
ENDMDL
