MODEL 1
REMARK minimizedAffinity 4.87289429
REMARK minimizedRMSD -1
REMARK  1 active torsions:
REMARK  status: ('A' for Active; 'I' for Inactive)
REMARK    1  A    between atoms: C1_2  and  C2_3 
ROOT
ATOM      1  C2  UNL d   1      -1.044   3.731  -1.779  0.00  0.00    -0.076 A 
ATOM      2  C3  UNL d   1      -1.450   5.039  -2.096  0.00  0.00     0.004 A 
ATOM      3  C4  UNL d   1      -1.618   5.999  -1.100  0.00  0.00    -0.003 A 
ATOM      4  C5  UNL d   1      -1.381   5.667   0.230  0.00  0.00     0.000 A 
ATOM      5  C6  UNL d   1      -0.960   4.380   0.561  0.00  0.00     0.000 A 
ATOM      6  C7  UNL d   1      -0.771   3.404  -0.433  0.00  0.00    -0.073 A 
ATOM      7  C8  UNL d   1      -0.322   2.029  -0.019  0.00  0.00     0.078 C 
ENDROOT
BRANCH   1   8
ATOM      8  C1  UNL d   1      -0.905   2.724  -2.898  0.00  0.00     0.053 C 
ATOM      9  C   UNL d   1      -2.186   1.940  -3.139  0.00  0.00     0.018 C 
ENDBRANCH   1   8
TORSDOF 1
ENDMDL
