MODEL 1
REMARK minimizedAffinity 8.27254581
REMARK minimizedRMSD -1
REMARK  1 active torsions:
REMARK  status: ('A' for Active; 'I' for Inactive)
REMARK    1  A    between atoms: C1_2  and  C2_3 
ROOT
ATOM      1  C2  UNL d   1      -2.807   3.311  -2.586  0.00  0.00    -0.076 A 
ATOM      2  C3  UNL d   1      -3.261   1.986  -2.474  0.00  0.00     0.004 A 
ATOM      3  C4  UNL d   1      -4.399   1.677  -1.730  0.00  0.00    -0.003 A 
ATOM      4  C5  UNL d   1      -5.101   2.690  -1.085  0.00  0.00     0.000 A 
ATOM      5  C6  UNL d   1      -4.675   4.012  -1.199  0.00  0.00     0.000 A 
ATOM      6  C7  UNL d   1      -3.540   4.343  -1.960  0.00  0.00    -0.073 A 
ATOM      7  C8  UNL d   1      -3.122   5.785  -2.044  0.00  0.00     0.078 C 
ENDROOT
BRANCH   1   8
ATOM      8  C1  UNL d   1      -1.552   3.582  -3.384  0.00  0.00     0.053 C 
ATOM      9  C   UNL d   1      -0.353   3.888  -2.500  0.00  0.00     0.018 C 
ENDBRANCH   1   8
TORSDOF 1
ENDMDL
