MODEL 1
REMARK minimizedAffinity 7.43037748
REMARK minimizedRMSD -1
REMARK  1 active torsions:
REMARK  status: ('A' for Active; 'I' for Inactive)
REMARK    1  A    between atoms: C1_2  and  C2_3 
ROOT
ATOM      1  C2  UNL d   1       1.994   0.215  -0.004  0.00  0.00    -0.076 A 
ATOM      2  C3  UNL d   1       0.825   0.941  -0.290  0.00  0.00     0.004 A 
ATOM      3  C4  UNL d   1      -0.347   0.729   0.433  0.00  0.00    -0.003 A 
ATOM      4  C5  UNL d   1      -0.369  -0.214   1.455  0.00  0.00     0.000 A 
ATOM      5  C6  UNL d   1       0.786  -0.931   1.765  0.00  0.00     0.000 A 
ATOM      6  C7  UNL d   1       1.980  -0.717   1.056  0.00  0.00    -0.073 A 
ATOM      7  C8  UNL d   1       3.195  -1.523   1.427  0.00  0.00     0.078 C 
ENDROOT
BRANCH   1   8
ATOM      8  C1  UNL d   1       3.228   0.469  -0.840  0.00  0.00     0.053 C 
ATOM      9  C   UNL d   1       3.713   1.907  -0.741  0.00  0.00     0.018 C 
ENDBRANCH   1   8
TORSDOF 1
ENDMDL
