MODEL 1
REMARK minimizedAffinity -4.98611212
REMARK minimizedRMSD -1
REMARK  1 active torsions:
REMARK  status: ('A' for Active; 'I' for Inactive)
REMARK    1  A    between atoms: C1_2  and  C2_3 
ROOT
ATOM      1  C2  UNL d   1      -0.312   0.454  -1.284  0.00  0.00    -0.076 A 
ATOM      2  C3  UNL d   1      -1.178   1.544  -1.087  0.00  0.00     0.004 A 
ATOM      3  C4  UNL d   1      -1.961   2.035  -2.130  0.00  0.00    -0.003 A 
ATOM      4  C5  UNL d   1      -1.891   1.444  -3.387  0.00  0.00     0.000 A 
ATOM      5  C6  UNL d   1      -1.051   0.351  -3.596  0.00  0.00     0.000 A 
ATOM      6  C7  UNL d   1      -0.267  -0.167  -2.551  0.00  0.00    -0.073 A 
ATOM      7  C8  UNL d   1       0.626  -1.344  -2.833  0.00  0.00     0.078 C 
ENDROOT
BRANCH   1   8
ATOM      8  C1  UNL d   1       0.534  -0.018  -0.123  0.00  0.00     0.053 C 
ATOM      9  C   UNL d   1       1.905   0.639  -0.094  0.00  0.00     0.018 C 
ENDBRANCH   1   8
TORSDOF 1
ENDMDL
