MODEL 1
REMARK minimizedAffinity 0.11871779
REMARK minimizedRMSD -1
REMARK  1 active torsions:
REMARK  status: ('A' for Active; 'I' for Inactive)
REMARK    1  A    between atoms: C1_2  and  C2_3 
ROOT
ATOM      1  C2  UNL d   1       0.319   0.199   0.111  0.00  0.00    -0.076 A 
ATOM      2  C3  UNL d   1       1.422   0.321  -0.753  0.00  0.00     0.004 A 
ATOM      3  C4  UNL d   1       2.525  -0.522  -0.632  0.00  0.00    -0.003 A 
ATOM      4  C5  UNL d   1       2.543  -1.503   0.354  0.00  0.00     0.000 A 
ATOM      5  C6  UNL d   1       1.451  -1.650   1.207  0.00  0.00     0.000 A 
ATOM      6  C7  UNL d   1       0.324  -0.819   1.089  0.00  0.00    -0.073 A 
ATOM      7  C8  UNL d   1      -0.824  -1.018   2.040  0.00  0.00     0.078 C 
ENDROOT
BRANCH   1   8
ATOM      8  C1  UNL d   1      -0.837   1.159  -0.050  0.00  0.00     0.053 C 
ATOM      9  C   UNL d   1      -1.098   1.518  -1.505  0.00  0.00     0.018 C 
ENDBRANCH   1   8
TORSDOF 1
ENDMDL
