MODEL 1
REMARK minimizedAffinity -1.24298561
REMARK minimizedRMSD -1
REMARK  1 active torsions:
REMARK  status: ('A' for Active; 'I' for Inactive)
REMARK    1  A    between atoms: C1_2  and  C2_3 
ROOT
ATOM      1  C2  UNL d   1      -0.130   0.541  -0.942  0.00  0.00    -0.076 A 
ATOM      2  C3  UNL d   1      -0.958   1.651  -0.701  0.00  0.00     0.004 A 
ATOM      3  C4  UNL d   1      -1.676   2.248  -1.736  0.00  0.00    -0.003 A 
ATOM      4  C5  UNL d   1      -1.578   1.745  -3.028  0.00  0.00     0.000 A 
ATOM      5  C6  UNL d   1      -0.775   0.633  -3.282  0.00  0.00     0.000 A 
ATOM      6  C7  UNL d   1      -0.057   0.009  -2.247  0.00  0.00    -0.073 A 
ATOM      7  C8  UNL d   1       0.798  -1.182  -2.579  0.00  0.00     0.078 C 
ENDROOT
BRANCH   1   8
ATOM      8  C1  UNL d   1       0.647  -0.048   0.214  0.00  0.00     0.053 C 
ATOM      9  C   UNL d   1       2.150   0.117   0.051  0.00  0.00     0.018 C 
ENDBRANCH   1   8
TORSDOF 1
ENDMDL
