MODEL 1
REMARK minimizedAffinity 7.95015907
REMARK minimizedRMSD -1
REMARK  1 active torsions:
REMARK  status: ('A' for Active; 'I' for Inactive)
REMARK    1  A    between atoms: C1_2  and  C2_3 
ROOT
ATOM      1  C2  UNL d   1      -2.045  -0.996   0.161  0.00  0.00    -0.076 A 
ATOM      2  C3  UNL d   1      -2.858  -0.363  -0.795  0.00  0.00     0.004 A 
ATOM      3  C4  UNL d   1      -3.047   1.017  -0.775  0.00  0.00    -0.003 A 
ATOM      4  C5  UNL d   1      -2.425   1.788   0.202  0.00  0.00     0.000 A 
ATOM      5  C6  UNL d   1      -1.601   1.179   1.147  0.00  0.00     0.000 A 
ATOM      6  C7  UNL d   1      -1.387  -0.210   1.131  0.00  0.00    -0.073 A 
ATOM      7  C8  UNL d   1      -0.493  -0.814   2.179  0.00  0.00     0.078 C 
ENDROOT
BRANCH   1   8
ATOM      8  C1  UNL d   1      -1.898  -2.500   0.106  0.00  0.00     0.053 C 
ATOM      9  C   UNL d   1      -1.847  -3.029  -1.319  0.00  0.00     0.018 C 
ENDBRANCH   1   8
TORSDOF 1
ENDMDL
