MODEL 1
REMARK minimizedAffinity -2.43942499
REMARK minimizedRMSD -1
REMARK  1 active torsions:
REMARK  status: ('A' for Active; 'I' for Inactive)
REMARK    1  A    between atoms: C1_2  and  C2_3 
ROOT
ATOM      1  C2  UNL d   1      -1.145   0.585   1.336  0.00  0.00    -0.073 A 
ATOM      2  C3  UNL d   1      -0.586   1.596   2.126  0.00  0.00    -0.002 A 
ATOM      3  C4  UNL d   1      -1.097   1.862   3.396  0.00  0.00     0.004 A 
ATOM      4  C5  UNL d   1      -2.167   1.117   3.893  0.00  0.00    -0.004 A 
ATOM      5  C6  UNL d   1      -2.732   0.094   3.123  0.00  0.00    -0.075 A 
ATOM      6  C7  UNL d   1      -3.884  -0.715   3.641  0.00  0.00     0.076 C 
ATOM      7  C8  UNL d   1      -2.214  -0.165   1.847  0.00  0.00     0.001 A 
ENDROOT
BRANCH   1   8
ATOM      8  C1  UNL d   1      -0.591   0.289  -0.034  0.00  0.00     0.053 C 
ATOM      9  C   UNL d   1      -0.588   1.522  -0.925  0.00  0.00     0.018 C 
ENDBRANCH   1   8
TORSDOF 1
ENDMDL
