MODEL 1
REMARK minimizedAffinity -2.35726833
REMARK minimizedRMSD -1
REMARK  1 active torsions:
REMARK  status: ('A' for Active; 'I' for Inactive)
REMARK    1  A    between atoms: C1_2  and  C2_3 
ROOT
ATOM      1  C2  UNL d   1      -0.907   0.630   2.330  0.00  0.00    -0.073 A 
ATOM      2  C3  UNL d   1      -0.804   1.760   3.148  0.00  0.00    -0.002 A 
ATOM      3  C4  UNL d   1      -1.695   1.948   4.206  0.00  0.00     0.004 A 
ATOM      4  C5  UNL d   1      -2.691   1.006   4.460  0.00  0.00    -0.004 A 
ATOM      5  C6  UNL d   1      -2.803  -0.136   3.661  0.00  0.00    -0.075 A 
ATOM      6  C7  UNL d   1      -3.871  -1.158   3.920  0.00  0.00     0.076 C 
ATOM      7  C8  UNL d   1      -1.906  -0.316   2.599  0.00  0.00     0.001 A 
ENDROOT
BRANCH   1   8
ATOM      8  C1  UNL d   1       0.057   0.419   1.190  0.00  0.00     0.053 C 
ATOM      9  C   UNL d   1      -0.372  -0.725   0.286  0.00  0.00     0.018 C 
ENDBRANCH   1   8
TORSDOF 1
ENDMDL
