MODEL 1
REMARK minimizedAffinity -4.33025455
REMARK minimizedRMSD -1
REMARK  1 active torsions:
REMARK  status: ('A' for Active; 'I' for Inactive)
REMARK    1  A    between atoms: C1_2  and  C2_3 
ROOT
ATOM      1  C2  UNL d   1       0.933  -0.872  -0.656  0.00  0.00    -0.073 A 
ATOM      2  C3  UNL d   1       2.120  -1.354  -1.219  0.00  0.00    -0.002 A 
ATOM      3  C4  UNL d   1       2.932  -0.511  -1.979  0.00  0.00     0.004 A 
ATOM      4  C5  UNL d   1       2.570   0.822  -2.177  0.00  0.00    -0.004 A 
ATOM      5  C6  UNL d   1       1.394   1.325  -1.612  0.00  0.00    -0.075 A 
ATOM      6  C7  UNL d   1       0.990   2.755  -1.818  0.00  0.00     0.076 C 
ATOM      7  C8  UNL d   1       0.582   0.472  -0.853  0.00  0.00     0.001 A 
ENDROOT
BRANCH   1   8
ATOM      8  C1  UNL d   1       0.056  -1.776   0.171  0.00  0.00     0.053 C 
ATOM      9  C   UNL d   1      -1.206  -2.183  -0.574  0.00  0.00     0.018 C 
ENDBRANCH   1   8
TORSDOF 1
ENDMDL
