MODEL 1
REMARK minimizedAffinity -5.42037106
REMARK minimizedRMSD -1
REMARK  1 active torsions:
REMARK  status: ('A' for Active; 'I' for Inactive)
REMARK    1  A    between atoms: C1_2  and  C2_3 
ROOT
ATOM      1  C2  UNL d   1      -0.006  -1.302  -0.120  0.00  0.00    -0.073 A 
ATOM      2  C3  UNL d   1      -0.820  -0.210   0.200  0.00  0.00    -0.002 A 
ATOM      3  C4  UNL d   1      -2.200  -0.371   0.324  0.00  0.00     0.004 A 
ATOM      4  C5  UNL d   1      -2.780  -1.625   0.136  0.00  0.00    -0.004 A 
ATOM      5  C6  UNL d   1      -1.983  -2.732  -0.174  0.00  0.00    -0.075 A 
ATOM      6  C7  UNL d   1      -2.592  -4.087  -0.382  0.00  0.00     0.076 C 
ATOM      7  C8  UNL d   1      -0.598  -2.561  -0.299  0.00  0.00     0.001 A 
ENDROOT
BRANCH   1   8
ATOM      8  C1  UNL d   1       1.486  -1.134  -0.249  0.00  0.00     0.053 C 
ATOM      9  C   UNL d   1       2.021  -1.759  -1.527  0.00  0.00     0.018 C 
ENDBRANCH   1   8
TORSDOF 1
ENDMDL
