MODEL 1
REMARK minimizedAffinity -3.15179229
REMARK minimizedRMSD -1
REMARK  1 active torsions:
REMARK  status: ('A' for Active; 'I' for Inactive)
REMARK    1  A    between atoms: C1_2  and  C2_3 
ROOT
ATOM      1  C2  UNL d   1      -1.543  -2.264  -0.491  0.00  0.00    -0.073 A 
ATOM      2  C3  UNL d   1      -1.931  -0.943  -0.237  0.00  0.00    -0.002 A 
ATOM      3  C4  UNL d   1      -0.970   0.042  -0.008  0.00  0.00     0.004 A 
ATOM      4  C5  UNL d   1       0.387  -0.280  -0.037  0.00  0.00    -0.004 A 
ATOM      5  C6  UNL d   1       0.795  -1.591  -0.300  0.00  0.00    -0.075 A 
ATOM      6  C7  UNL d   1       2.250  -1.954  -0.332  0.00  0.00     0.076 C 
ATOM      7  C8  UNL d   1      -0.176  -2.576  -0.527  0.00  0.00     0.001 A 
ENDROOT
BRANCH   1   8
ATOM      8  C1  UNL d   1      -2.576  -3.330  -0.745  0.00  0.00     0.053 C 
ATOM      9  C   UNL d   1      -3.732  -2.814  -1.589  0.00  0.00     0.018 C 
ENDBRANCH   1   8
TORSDOF 1
ENDMDL
