MODEL 1
REMARK minimizedAffinity -2.80667496
REMARK minimizedRMSD -1
REMARK  1 active torsions:
REMARK  status: ('A' for Active; 'I' for Inactive)
REMARK    1  A    between atoms: C1_2  and  C2_3 
ROOT
ATOM      1  C2  UNL d   1       0.182  -1.200  -0.150  0.00  0.00    -0.073 A 
ATOM      2  C3  UNL d   1      -0.466  -0.010   0.201  0.00  0.00    -0.002 A 
ATOM      3  C4  UNL d   1      -1.853   0.021   0.344  0.00  0.00     0.004 A 
ATOM      4  C5  UNL d   1      -2.606  -1.136   0.144  0.00  0.00    -0.004 A 
ATOM      5  C6  UNL d   1      -1.976  -2.337  -0.196  0.00  0.00    -0.075 A 
ATOM      6  C7  UNL d   1      -2.771  -3.591  -0.417  0.00  0.00     0.076 C 
ATOM      7  C8  UNL d   1      -0.582  -2.360  -0.340  0.00  0.00     0.001 A 
ENDROOT
BRANCH   1   8
ATOM      8  C1  UNL d   1       1.681  -1.240  -0.299  0.00  0.00     0.053 C 
ATOM      9  C   UNL d   1       2.108  -1.311  -1.757  0.00  0.00     0.018 C 
ENDBRANCH   1   8
TORSDOF 1
ENDMDL
