MODEL 1
REMARK minimizedAffinity 1.73301172
REMARK minimizedRMSD -1
REMARK  1 active torsions:
REMARK  status: ('A' for Active; 'I' for Inactive)
REMARK    1  A    between atoms: C1_2  and  C2_3 
ROOT
ATOM      1  C2  UNL d   1       2.858   5.960  -4.143  0.00  0.00    -0.073 A 
ATOM      2  C3  UNL d   1       1.843   5.999  -3.180  0.00  0.00    -0.002 A 
ATOM      3  C4  UNL d   1       2.161   5.999  -1.821  0.00  0.00     0.004 A 
ATOM      4  C5  UNL d   1       3.494   5.965  -1.412  0.00  0.00    -0.004 A 
ATOM      5  C6  UNL d   1       4.523   5.937  -2.360  0.00  0.00    -0.075 A 
ATOM      6  C7  UNL d   1       5.962   5.899  -1.936  0.00  0.00     0.076 C 
ATOM      7  C8  UNL d   1       4.195   5.936  -3.722  0.00  0.00     0.001 A 
ENDROOT
BRANCH   1   8
ATOM      8  C1  UNL d   1       2.520   5.967  -5.611  0.00  0.00     0.053 C 
ATOM      9  C   UNL d   1       1.572   4.838  -5.984  0.00  0.00     0.018 C 
ENDBRANCH   1   8
TORSDOF 1
ENDMDL
