MODEL 1
REMARK minimizedAffinity -4.74680328
REMARK minimizedRMSD -1
REMARK  1 active torsions:
REMARK  status: ('A' for Active; 'I' for Inactive)
REMARK    1  A    between atoms: C1_2  and  C2_3 
ROOT
ATOM      1  C2  UNL d   1       5.082   1.313   4.389  0.00  0.00    -0.073 A 
ATOM      2  C3  UNL d   1       4.618   2.089   5.458  0.00  0.00    -0.002 A 
ATOM      3  C4  UNL d   1       4.396   3.456   5.291  0.00  0.00     0.004 A 
ATOM      4  C5  UNL d   1       4.628   4.060   4.056  0.00  0.00    -0.004 A 
ATOM      5  C6  UNL d   1       5.081   3.300   2.973  0.00  0.00    -0.075 A 
ATOM      6  C7  UNL d   1       5.338   3.935   1.638  0.00  0.00     0.076 C 
ATOM      7  C8  UNL d   1       5.304   1.927   3.148  0.00  0.00     0.001 A 
ENDROOT
BRANCH   1   8
ATOM      8  C1  UNL d   1       5.317  -0.165   4.562  0.00  0.00     0.053 C 
ATOM      9  C   UNL d   1       5.040  -0.624   5.985  0.00  0.00     0.018 C 
ENDBRANCH   1   8
TORSDOF 1
ENDMDL
