MODEL 1
REMARK minimizedAffinity 1.5950774
REMARK minimizedRMSD -1
REMARK  1 active torsions:
REMARK  status: ('A' for Active; 'I' for Inactive)
REMARK    1  A    between atoms: C1_2  and  C2_3 
ROOT
ATOM      1  C2  UNL d   1       4.992   2.588   4.764  0.00  0.00    -0.073 A 
ATOM      2  C3  UNL d   1       3.749   2.406   4.147  0.00  0.00    -0.002 A 
ATOM      3  C4  UNL d   1       3.235   3.387   3.297  0.00  0.00     0.004 A 
ATOM      4  C5  UNL d   1       3.960   4.553   3.051  0.00  0.00    -0.004 A 
ATOM      5  C6  UNL d   1       5.209   4.747   3.649  0.00  0.00    -0.075 A 
ATOM      6  C7  UNL d   1       6.000   5.997   3.396  0.00  0.00     0.076 C 
ATOM      7  C8  UNL d   1       5.717   3.759   4.503  0.00  0.00     0.001 A 
ENDROOT
BRANCH   1   8
ATOM      8  C1  UNL d   1       5.555   1.529   5.677  0.00  0.00     0.053 C 
ATOM      9  C   UNL d   1       4.876   0.183   5.476  0.00  0.00     0.018 C 
ENDBRANCH   1   8
TORSDOF 1
ENDMDL
