MODEL 1
REMARK minimizedAffinity -4.74673939
REMARK minimizedRMSD -1
REMARK  1 active torsions:
REMARK  status: ('A' for Active; 'I' for Inactive)
REMARK    1  A    between atoms: C1_2  and  C2_3 
ROOT
ATOM      1  C2  UNL d   1       5.385  -0.343   3.352  0.00  0.00    -0.073 A 
ATOM      2  C3  UNL d   1       5.558  -0.087   4.717  0.00  0.00    -0.002 A 
ATOM      3  C4  UNL d   1       5.865   1.200   5.160  0.00  0.00     0.004 A 
ATOM      4  C5  UNL d   1       5.995   2.245   4.245  0.00  0.00    -0.004 A 
ATOM      5  C6  UNL d   1       5.814   2.011   2.878  0.00  0.00    -0.075 A 
ATOM      6  C7  UNL d   1       5.952   3.124   1.880  0.00  0.00     0.076 C 
ATOM      7  C8  UNL d   1       5.509   0.715   2.441  0.00  0.00     0.001 A 
ENDROOT
BRANCH   1   8
ATOM      8  C1  UNL d   1       5.047  -1.730   2.870  0.00  0.00     0.053 C 
ATOM      9  C   UNL d   1       5.799  -2.802   3.645  0.00  0.00     0.018 C 
ENDBRANCH   1   8
TORSDOF 1
ENDMDL
