MODEL 1
REMARK minimizedAffinity -2.32295179
REMARK minimizedRMSD -1
REMARK  1 active torsions:
REMARK  status: ('A' for Active; 'I' for Inactive)
REMARK    1  A    between atoms: C1_2  and  C2_3 
ROOT
ATOM      1  C2  UNL d   1       5.584   2.239   4.826  0.00  0.00    -0.073 A 
ATOM      2  C3  UNL d   1       4.837   2.221   3.642  0.00  0.00    -0.002 A 
ATOM      3  C4  UNL d   1       4.462   3.417   3.027  0.00  0.00     0.004 A 
ATOM      4  C5  UNL d   1       4.835   4.640   3.584  0.00  0.00    -0.004 A 
ATOM      5  C6  UNL d   1       5.592   4.678   4.760  0.00  0.00    -0.075 A 
ATOM      6  C7  UNL d   1       5.999   5.986   5.373  0.00  0.00     0.076 C 
ATOM      7  C8  UNL d   1       5.962   3.474   5.373  0.00  0.00     0.001 A 
ENDROOT
BRANCH   1   8
ATOM      8  C1  UNL d   1       5.996   0.951   5.490  0.00  0.00     0.053 C 
ATOM      9  C   UNL d   1       5.964  -0.223   4.525  0.00  0.00     0.018 C 
ENDBRANCH   1   8
TORSDOF 1
ENDMDL
