MODEL 1
REMARK minimizedAffinity -1.28223002
REMARK minimizedRMSD -1
REMARK  2 active torsions:
REMARK  status: ('A' for Active; 'I' for Inactive)
REMARK    1  A    between atoms: C2'_3  and  C1'_4 
REMARK    2  A    between atoms: C1'_4  and  C1_5 
ROOT
ATOM      1  C1  I4B d   1      -0.383  -0.446  -0.799  0.00  0.00    -0.075 A 
ATOM      2  C2  I4B d   1      -1.569  -0.152  -0.173  0.00  0.00     0.003 A 
ATOM      3  C3  I4B d   1      -1.576   0.622   1.012  0.00  0.00     0.002 A 
ATOM      4  C4  I4B d   1      -0.380   1.037   1.561  0.00  0.00    -0.004 A 
ATOM      5  C5  I4B d   1       0.819   0.758   0.912  0.00  0.00     0.002 A 
ATOM      6  C6  I4B d   1       0.817   0.023  -0.282  0.00  0.00     0.003 A 
ENDROOT
BRANCH   1   7
ATOM      7  C1' I4B d   1      -0.410  -1.294  -2.031  0.00  0.00     0.060 C 
BRANCH   7   8
ATOM      8  C2' I4B d   1      -0.678  -0.389  -3.216  0.00  0.00    -0.013 C 
ATOM      9  C4' I4B d   1       0.593  -0.075  -3.961  0.00  0.00     0.013 C 
ATOM     10  C3' I4B d   1      -1.672  -1.073  -4.105  0.00  0.00     0.013 C 
ENDBRANCH   7   8
ENDBRANCH   1   7
TORSDOF 2
ENDMDL
