MODEL 1
REMARK minimizedAffinity -5.78714514
REMARK minimizedRMSD -1
REMARK  2 active torsions:
REMARK  status: ('A' for Active; 'I' for Inactive)
REMARK    1  A    between atoms: C2'_3  and  C1'_4 
REMARK    2  A    between atoms: C1'_4  and  C1_5 
ROOT
ATOM      1  C1  I4B d   1       0.446  -0.262  -0.143  0.00  0.00    -0.075 A 
ATOM      2  C2  I4B d   1      -0.794   0.275   0.099  0.00  0.00     0.003 A 
ATOM      3  C3  I4B d   1      -1.071   0.898   1.340  0.00  0.00     0.002 A 
ATOM      4  C4  I4B d   1      -0.101   0.916   2.323  0.00  0.00    -0.004 A 
ATOM      5  C5  I4B d   1       1.162   0.392   2.067  0.00  0.00     0.002 A 
ATOM      6  C6  I4B d   1       1.442  -0.190   0.822  0.00  0.00     0.003 A 
ENDROOT
BRANCH   1   7
ATOM      7  C1' I4B d   1       0.694  -0.941  -1.453  0.00  0.00     0.060 C 
BRANCH   7   8
ATOM      8  C2' I4B d   1       0.551   0.095  -2.550  0.00  0.00    -0.013 C 
ATOM      9  C4' I4B d   1       1.865   0.771  -2.836  0.00  0.00     0.013 C 
ATOM     10  C3' I4B d   1       0.020  -0.595  -3.771  0.00  0.00     0.013 C 
ENDBRANCH   7   8
ENDBRANCH   1   7
TORSDOF 2
ENDMDL
