MODEL 1
REMARK minimizedAffinity -2.7367847
REMARK minimizedRMSD -1
REMARK  2 active torsions:
REMARK  status: ('A' for Active; 'I' for Inactive)
REMARK    1  A    between atoms: C2'_3  and  C1'_4 
REMARK    2  A    between atoms: C1'_4  and  C1_5 
ROOT
ATOM      1  C1  I4B d   1       0.871  -0.531  -1.977  0.00  0.00    -0.075 A 
ATOM      2  C2  I4B d   1      -0.155  -0.697  -2.874  0.00  0.00     0.003 A 
ATOM      3  C3  I4B d   1      -0.025  -0.220  -4.201  0.00  0.00     0.002 A 
ATOM      4  C4  I4B d   1       1.119   0.457  -4.571  0.00  0.00    -0.004 A 
ATOM      5  C5  I4B d   1       2.167   0.605  -3.667  0.00  0.00     0.002 A 
ATOM      6  C6  I4B d   1       2.047   0.097  -2.365  0.00  0.00     0.003 A 
ENDROOT
BRANCH   1   7
ATOM      7  C1' I4B d   1       0.687  -1.017  -0.574  0.00  0.00     0.060 C 
BRANCH   7   8
ATOM      8  C2' I4B d   1       0.418   0.187   0.306  0.00  0.00    -0.013 C 
ATOM      9  C4' I4B d   1      -1.058   0.470   0.406  0.00  0.00     0.013 C 
ATOM     10  C3' I4B d   1       1.010  -0.086   1.656  0.00  0.00     0.013 C 
ENDBRANCH   7   8
ENDBRANCH   1   7
TORSDOF 2
ENDMDL
