MODEL 1
REMARK minimizedAffinity -2.80267811
REMARK minimizedRMSD -1
REMARK  0 active torsions:
REMARK  status: ('A' for Active; 'I' for Inactive)
ROOT
ATOM      1  N1  IND d   1      -1.719   5.928  -5.969  0.00  0.00    -0.196 N 
ATOM      2  C2  IND d   1      -2.889   5.220  -5.969  0.00  0.00     0.054 A 
ATOM      3  C3  IND d   1      -2.636   3.892  -5.995  0.00  0.00    -0.031 A 
ATOM      4  C4  IND d   1      -0.378   2.657  -5.936  0.00  0.00     0.051 A 
ATOM      5  C5  IND d   1       0.971   2.875  -5.968  0.00  0.00    -0.031 A 
ATOM      6  C6  IND d   1       1.502   4.148  -6.000  0.00  0.00     0.015 A 
ATOM      7  C7  IND d   1       0.702   5.255  -5.989  0.00  0.00    -0.016 A 
ATOM      8  C8  IND d   1      -0.668   5.037  -5.964  0.00  0.00    -0.047 A 
ATOM      9  C9  IND d   1      -1.215   3.747  -5.975  0.00  0.00    -0.096 A 
ATOM     10  HN1 IND d   1      -1.651   6.785  -5.971  0.00  0.00     0.298 HD
ENDROOT
TORSDOF 0
ENDMDL
