MODEL 1
REMARK minimizedAffinity -2.01671696
REMARK minimizedRMSD -1
REMARK  0 active torsions:
REMARK  status: ('A' for Active; 'I' for Inactive)
ROOT
ATOM      1  N1  IND d   1      -1.390   5.557  -5.987  0.00  0.00    -0.196 N 
ATOM      2  C2  IND d   1      -2.543   4.823  -5.984  0.00  0.00     0.054 A 
ATOM      3  C3  IND d   1      -2.260   3.501  -6.000  0.00  0.00    -0.031 A 
ATOM      4  C4  IND d   1       0.025   2.317  -5.928  0.00  0.00     0.051 A 
ATOM      5  C5  IND d   1       1.368   2.566  -5.959  0.00  0.00    -0.031 A 
ATOM      6  C6  IND d   1       1.872   3.850  -6.000  0.00  0.00     0.015 A 
ATOM      7  C7  IND d   1       1.046   4.939  -5.998  0.00  0.00    -0.016 A 
ATOM      8  C8  IND d   1      -0.319   4.690  -5.974  0.00  0.00    -0.047 A 
ATOM      9  C9  IND d   1      -0.836   3.388  -5.976  0.00  0.00    -0.096 A 
ATOM     10  HN1 IND d   1      -1.341   6.415  -5.996  0.00  0.00     0.298 HD
ENDROOT
TORSDOF 0
ENDMDL
