MODEL 1
REMARK minimizedAffinity -2.1589911
REMARK minimizedRMSD -1
REMARK  0 active torsions:
REMARK  status: ('A' for Active; 'I' for Inactive)
ROOT
ATOM      1  N1  IND d   1      -2.626   3.559  -5.990  0.00  0.00    -0.196 N 
ATOM      2  C2  IND d   1      -3.366   4.709  -5.967  0.00  0.00     0.054 A 
ATOM      3  C3  IND d   1      -2.555   5.790  -5.928  0.00  0.00    -0.031 A 
ATOM      4  C4  IND d   1       0.015   5.909  -5.998  0.00  0.00     0.051 A 
ATOM      5  C5  IND d   1       1.131   5.120  -5.985  0.00  0.00    -0.031 A 
ATOM      6  C6  IND d   1       1.050   3.742  -5.975  0.00  0.00     0.015 A 
ATOM      7  C7  IND d   1      -0.156   3.100  -5.990  0.00  0.00    -0.016 A 
ATOM      8  C8  IND d   1      -1.291   3.898  -5.996  0.00  0.00    -0.047 A 
ATOM      9  C9  IND d   1      -1.215   5.296  -5.963  0.00  0.00    -0.096 A 
ATOM     10  HN1 IND d   1      -2.942   2.760  -5.999  0.00  0.00     0.298 HD
ENDROOT
TORSDOF 0
ENDMDL
