MODEL 1
REMARK minimizedAffinity -1.78012037
REMARK minimizedRMSD -1
REMARK  0 active torsions:
REMARK  status: ('A' for Active; 'I' for Inactive)
ROOT
ATOM      1  N1  IND d   1      -2.433   4.611  -5.926  0.00  0.00    -0.196 N 
ATOM      2  C2  IND d   1      -3.032   3.382  -5.941  0.00  0.00     0.054 A 
ATOM      3  C3  IND d   1      -2.099   2.405  -5.996  0.00  0.00    -0.031 A 
ATOM      4  C4  IND d   1       0.468   2.591  -5.967  0.00  0.00     0.051 A 
ATOM      5  C5  IND d   1       1.482   3.507  -5.995  0.00  0.00    -0.031 A 
ATOM      6  C6  IND d   1       1.238   4.865  -6.000  0.00  0.00     0.015 A 
ATOM      7  C7  IND d   1      -0.035   5.360  -5.964  0.00  0.00    -0.016 A 
ATOM      8  C8  IND d   1      -1.067   4.433  -5.942  0.00  0.00    -0.047 A 
ATOM      9  C9  IND d   1      -0.826   3.054  -5.981  0.00  0.00    -0.096 A 
ATOM     10  HN1 IND d   1      -2.841   5.368  -5.910  0.00  0.00     0.298 HD
ENDROOT
TORSDOF 0
ENDMDL
