MODEL 1
REMARK minimizedAffinity 5.81992388
REMARK minimizedRMSD -1
REMARK  0 active torsions:
REMARK  status: ('A' for Active; 'I' for Inactive)
ROOT
ATOM      1  N1  IND d   1      -0.556  -0.006   1.654  0.00  0.00    -0.196 N 
ATOM      2  C2  IND d   1      -1.210  -0.864   0.814  0.00  0.00     0.054 A 
ATOM      3  C3  IND d   1      -1.083  -0.455  -0.468  0.00  0.00    -0.031 A 
ATOM      4  C4  IND d   1       0.239   1.536  -1.426  0.00  0.00     0.051 A 
ATOM      5  C5  IND d   1       0.969   2.627  -1.047  0.00  0.00    -0.031 A 
ATOM      6  C6  IND d   1       1.236   2.900   0.279  0.00  0.00     0.015 A 
ATOM      7  C7  IND d   1       0.790   2.083   1.279  0.00  0.00    -0.016 A 
ATOM      8  C8  IND d   1       0.042   0.977   0.897  0.00  0.00    -0.047 A 
ATOM      9  C9  IND d   1      -0.267   0.718  -0.444  0.00  0.00    -0.096 A 
ATOM     10  HN1 IND d   1      -0.524  -0.070   2.511  0.00  0.00     0.298 HD
ENDROOT
TORSDOF 0
ENDMDL
