MODEL 1
REMARK minimizedAffinity -0.10642121
REMARK minimizedRMSD -1
REMARK  0 active torsions:
REMARK  status: ('A' for Active; 'I' for Inactive)
ROOT
ATOM      1  N1  IND d   1       0.707   3.740  -5.999  0.00  0.00    -0.196 N 
ATOM      2  C2  IND d   1       1.408   4.913  -5.995  0.00  0.00     0.054 A 
ATOM      3  C3  IND d   1       0.562   5.967  -6.000  0.00  0.00    -0.031 A 
ATOM      4  C4  IND d   1      -2.011   6.000  -5.914  0.00  0.00     0.051 A 
ATOM      5  C5  IND d   1      -3.100   5.175  -5.944  0.00  0.00    -0.031 A 
ATOM      6  C6  IND d   1      -2.973   3.802  -5.991  0.00  0.00     0.015 A 
ATOM      7  C7  IND d   1      -1.747   3.199  -6.000  0.00  0.00    -0.016 A 
ATOM      8  C8  IND d   1      -0.639   4.034  -5.977  0.00  0.00    -0.047 A 
ATOM      9  C9  IND d   1      -0.761   5.429  -5.972  0.00  0.00    -0.096 A 
ATOM     10  HN1 IND d   1       1.048   2.951  -6.014  0.00  0.00     0.298 HD
ENDROOT
TORSDOF 0
ENDMDL
