MODEL 1
REMARK minimizedAffinity -1.36007404
REMARK minimizedRMSD -1
REMARK  0 active torsions:
REMARK  status: ('A' for Active; 'I' for Inactive)
ROOT
ATOM      1  N1  IND d   1       0.108   5.871  -5.965  0.00  0.00    -0.196 N 
ATOM      2  C2  IND d   1       1.449   5.609  -5.929  0.00  0.00     0.054 A 
ATOM      3  C3  IND d   1       1.666   4.275  -5.896  0.00  0.00    -0.031 A 
ATOM      4  C4  IND d   1      -0.027   2.338  -5.997  0.00  0.00     0.051 A 
ATOM      5  C5  IND d   1      -1.369   2.080  -6.000  0.00  0.00    -0.031 A 
ATOM      6  C6  IND d   1      -2.307   3.093  -5.995  0.00  0.00     0.015 A 
ATOM      7  C7  IND d   1      -1.935   4.408  -5.997  0.00  0.00    -0.016 A 
ATOM      8  C8  IND d   1      -0.573   4.673  -5.986  0.00  0.00    -0.047 A 
ATOM      9  C9  IND d   1       0.383   3.650  -5.949  0.00  0.00    -0.096 A 
ATOM     10  HN1 IND d   1      -0.251   6.653  -5.973  0.00  0.00     0.298 HD
ENDROOT
TORSDOF 0
ENDMDL
