MODEL 1
REMARK minimizedAffinity -3.61078048
REMARK minimizedRMSD -1
REMARK  0 active torsions:
REMARK  status: ('A' for Active; 'I' for Inactive)
ROOT
ATOM      1  N1  IND d   1       0.045   5.251  -5.968  0.00  0.00    -0.196 N 
ATOM      2  C2  IND d   1       0.744   4.077  -5.938  0.00  0.00     0.054 A 
ATOM      3  C3  IND d   1      -0.105   3.025  -5.907  0.00  0.00    -0.031 A 
ATOM      4  C4  IND d   1      -2.677   2.996  -6.000  0.00  0.00     0.051 A 
ATOM      5  C5  IND d   1      -3.765   3.824  -5.997  0.00  0.00    -0.031 A 
ATOM      6  C6  IND d   1      -3.635   5.198  -5.986  0.00  0.00     0.015 A 
ATOM      7  C7  IND d   1      -2.408   5.797  -5.990  0.00  0.00    -0.016 A 
ATOM      8  C8  IND d   1      -1.301   4.960  -5.986  0.00  0.00    -0.047 A 
ATOM      9  C9  IND d   1      -1.427   3.565  -5.954  0.00  0.00    -0.096 A 
ATOM     10  HN1 IND d   1       0.388   6.040  -5.974  0.00  0.00     0.298 HD
ENDROOT
TORSDOF 0
ENDMDL
