MODEL 1
REMARK minimizedAffinity -1.53770101
REMARK minimizedRMSD -1
REMARK  0 active torsions:
REMARK  status: ('A' for Active; 'I' for Inactive)
ROOT
ATOM      1  N1  IND d   1       0.874   2.655  -5.996  0.00  0.00    -0.196 N 
ATOM      2  C2  IND d   1       1.756   3.700  -5.991  0.00  0.00     0.054 A 
ATOM      3  C3  IND d   1       1.090   4.877  -5.996  0.00  0.00    -0.031 A 
ATOM      4  C4  IND d   1      -1.443   5.324  -5.911  0.00  0.00     0.051 A 
ATOM      5  C5  IND d   1      -2.651   4.685  -5.941  0.00  0.00    -0.031 A 
ATOM      6  C6  IND d   1      -2.748   3.309  -5.989  0.00  0.00     0.015 A 
ATOM      7  C7  IND d   1      -1.635   2.517  -5.998  0.00  0.00    -0.016 A 
ATOM      8  C8  IND d   1      -0.406   3.162  -5.975  0.00  0.00    -0.047 A 
ATOM      9  C9  IND d   1      -0.302   4.559  -5.968  0.00  0.00    -0.096 A 
ATOM     10  HN1 IND d   1       1.084   1.822  -6.011  0.00  0.00     0.298 HD
ENDROOT
TORSDOF 0
ENDMDL
