MODEL 1
REMARK minimizedAffinity -0.302084982
REMARK minimizedRMSD -1
REMARK  0 active torsions:
REMARK  status: ('A' for Active; 'I' for Inactive)
ROOT
ATOM      1  N1  IND d   1      -0.078   5.863  -5.992  0.00  0.00    -0.196 N 
ATOM      2  C2  IND d   1       1.128   5.219  -5.961  0.00  0.00     0.054 A 
ATOM      3  C3  IND d   1       0.946   3.880  -5.918  0.00  0.00    -0.031 A 
ATOM      4  C4  IND d   1      -1.241   2.524  -5.993  0.00  0.00     0.051 A 
ATOM      5  C5  IND d   1      -2.600   2.670  -5.987  0.00  0.00    -0.031 A 
ATOM      6  C6  IND d   1      -3.200   3.913  -5.984  0.00  0.00     0.015 A 
ATOM      7  C7  IND d   1      -2.459   5.061  -6.000  0.00  0.00    -0.016 A 
ATOM      8  C8  IND d   1      -1.079   4.917  -5.999  0.00  0.00    -0.047 A 
ATOM      9  C9  IND d   1      -0.465   3.658  -5.959  0.00  0.00    -0.096 A 
ATOM     10  HN1 IND d   1      -0.191   6.715  -6.004  0.00  0.00     0.298 HD
ENDROOT
TORSDOF 0
ENDMDL
