MODEL 1
REMARK minimizedAffinity -2.17812157
REMARK minimizedRMSD -1
REMARK  0 active torsions:
REMARK  status: ('A' for Active; 'I' for Inactive)
ROOT
ATOM      1  N1  IND d   1       0.992   5.215  -5.998  0.00  0.00    -0.196 N 
ATOM      2  C2  IND d   1       1.821   4.128  -5.988  0.00  0.00     0.054 A 
ATOM      3  C3  IND d   1       1.098   2.986  -5.949  0.00  0.00    -0.031 A 
ATOM      4  C4  IND d   1      -1.456   2.665  -5.998  0.00  0.00     0.051 A 
ATOM      5  C5  IND d   1      -2.630   3.363  -5.970  0.00  0.00    -0.031 A 
ATOM      6  C6  IND d   1      -2.657   4.743  -5.953  0.00  0.00     0.015 A 
ATOM      7  C7  IND d   1      -1.507   5.478  -5.974  0.00  0.00    -0.016 A 
ATOM      8  C8  IND d   1      -0.312   4.772  -5.995  0.00  0.00    -0.047 A 
ATOM      9  C9  IND d   1      -0.277   3.372  -5.970  0.00  0.00    -0.096 A 
ATOM     10  HN1 IND d   1       1.244   6.038  -6.005  0.00  0.00     0.298 HD
ENDROOT
TORSDOF 0
ENDMDL
