MODEL 1
REMARK minimizedAffinity 4.37121534
REMARK minimizedRMSD -1
REMARK  0 active torsions:
REMARK  status: ('A' for Active; 'I' for Inactive)
ROOT
ATOM      1  N1  IND d   1       2.229   5.371  -6.000  0.00  0.00    -0.196 N 
ATOM      2  C2  IND d   1       3.463   4.782  -5.985  0.00  0.00     0.054 A 
ATOM      3  C3  IND d   1       3.341   3.436  -5.945  0.00  0.00    -0.031 A 
ATOM      4  C4  IND d   1       1.215   1.985  -6.000  0.00  0.00     0.051 A 
ATOM      5  C5  IND d   1      -0.149   2.070  -5.977  0.00  0.00    -0.031 A 
ATOM      6  C6  IND d   1      -0.803   3.285  -5.964  0.00  0.00     0.015 A 
ATOM      7  C7  IND d   1      -0.114   4.465  -5.984  0.00  0.00    -0.016 A 
ATOM      8  C8  IND d   1       1.271   4.382  -5.999  0.00  0.00    -0.047 A 
ATOM      9  C9  IND d   1       1.941   3.152  -5.970  0.00  0.00    -0.096 A 
ATOM     10  HN1 IND d   1       2.078   6.218  -6.008  0.00  0.00     0.298 HD
ENDROOT
TORSDOF 0
ENDMDL
