MODEL 1
REMARK minimizedAffinity 3.19442511
REMARK minimizedRMSD -1
REMARK  0 active torsions:
REMARK  status: ('A' for Active; 'I' for Inactive)
ROOT
ATOM      1  N1  IND d   1      -0.518   3.574  -5.896  0.00  0.00    -0.196 N 
ATOM      2  C2  IND d   1      -1.289   4.702  -5.865  0.00  0.00     0.054 A 
ATOM      3  C3  IND d   1      -0.509   5.806  -5.857  0.00  0.00    -0.031 A 
ATOM      4  C4  IND d   1       2.055   5.997  -5.992  0.00  0.00     0.051 A 
ATOM      5  C5  IND d   1       3.193   5.239  -5.999  0.00  0.00    -0.031 A 
ATOM      6  C6  IND d   1       3.151   3.860  -5.974  0.00  0.00     0.015 A 
ATOM      7  C7  IND d   1       1.964   3.184  -5.953  0.00  0.00    -0.016 A 
ATOM      8  C8  IND d   1       0.807   3.950  -5.938  0.00  0.00    -0.047 A 
ATOM      9  C9  IND d   1       0.844   5.350  -5.920  0.00  0.00    -0.096 A 
ATOM     10  HN1 IND d   1      -0.811   2.766  -5.889  0.00  0.00     0.298 HD
ENDROOT
TORSDOF 0
ENDMDL
