MODEL 1
REMARK minimizedAffinity 13.4937277
REMARK minimizedRMSD -1
REMARK  0 active torsions:
REMARK  status: ('A' for Active; 'I' for Inactive)
ROOT
ATOM      1  C2' OXE d   1       1.668  -5.755   4.912  0.00  0.00     0.078 C 
ATOM      2  C1' OXE d   1       2.856  -5.707   2.369  0.00  0.00     0.078 C 
ATOM      3  C1  OXE d   1       3.764  -5.819   3.568  0.00  0.00    -0.078 A 
ATOM      4  C2  OXE d   1       3.177  -5.795   4.810  0.00  0.00    -0.078 A 
ATOM      5  C3  OXE d   1       3.964  -5.950   5.948  0.00  0.00     0.003 A 
ATOM      6  C4  OXE d   1       5.361  -5.975   5.846  0.00  0.00    -0.002 A 
ATOM      7  C5  OXE d   1       5.981  -5.961   4.592  0.00  0.00    -0.002 A 
ATOM      8  C6  OXE d   1       5.197  -5.927   3.444  0.00  0.00     0.003 A 
ENDROOT
TORSDOF 0
ENDMDL
