MODEL 1
REMARK minimizedAffinity 0.249423146
REMARK minimizedRMSD -1
REMARK  0 active torsions:
REMARK  status: ('A' for Active; 'I' for Inactive)
ROOT
ATOM      1  C2' OXE d   1       2.707   5.998  -3.393  0.00  0.00     0.078 C 
ATOM      2  C1' OXE d   1       5.355   6.000  -2.462  0.00  0.00     0.078 C 
ATOM      3  C1  OXE d   1       4.266   5.633  -1.485  0.00  0.00    -0.078 A 
ATOM      4  C2  OXE d   1       2.969   5.680  -1.937  0.00  0.00    -0.078 A 
ATOM      5  C3  OXE d   1       1.931   5.298  -1.092  0.00  0.00     0.003 A 
ATOM      6  C4  OXE d   1       2.181   5.016   0.256  0.00  0.00    -0.002 A 
ATOM      7  C5  OXE d   1       3.491   5.001   0.747  0.00  0.00    -0.002 A 
ATOM      8  C6  OXE d   1       4.546   5.265  -0.119  0.00  0.00     0.003 A 
ENDROOT
TORSDOF 0
ENDMDL
