MODEL 1
REMARK minimizedAffinity 3.81239653
REMARK minimizedRMSD -1
REMARK  0 active torsions:
REMARK  status: ('A' for Active; 'I' for Inactive)
ROOT
ATOM      1  C2' OXE d   1       2.910   1.799  -4.844  0.00  0.00     0.078 C 
ATOM      2  C1' OXE d   1       0.825   3.047  -3.439  0.00  0.00     0.078 C 
ATOM      3  C1  OXE d   1       1.323   1.719  -2.926  0.00  0.00    -0.078 A 
ATOM      4  C2  OXE d   1       2.312   1.093  -3.646  0.00  0.00    -0.078 A 
ATOM      5  C3  OXE d   1       2.845  -0.107  -3.186  0.00  0.00     0.003 A 
ATOM      6  C4  OXE d   1       2.280  -0.758  -2.083  0.00  0.00    -0.002 A 
ATOM      7  C5  OXE d   1       1.245  -0.157  -1.358  0.00  0.00    -0.002 A 
ATOM      8  C6  OXE d   1       0.785   1.099  -1.740  0.00  0.00     0.003 A 
ENDROOT
TORSDOF 0
ENDMDL
