MODEL 1
REMARK minimizedAffinity -0.015674714
REMARK minimizedRMSD -1
REMARK  0 active torsions:
REMARK  status: ('A' for Active; 'I' for Inactive)
ROOT
ATOM      1  C2' OXE d   1       3.426   4.123  -3.379  0.00  0.00     0.078 C 
ATOM      2  C1' OXE d   1       2.155   1.621  -3.362  0.00  0.00     0.078 C 
ATOM      3  C1  OXE d   1       3.512   1.716  -4.013  0.00  0.00    -0.078 A 
ATOM      4  C2  OXE d   1       4.106   2.954  -4.058  0.00  0.00    -0.078 A 
ATOM      5  C3  OXE d   1       5.382   3.087  -4.598  0.00  0.00     0.003 A 
ATOM      6  C4  OXE d   1       6.000   2.003  -5.233  0.00  0.00    -0.002 A 
ATOM      7  C5  OXE d   1       5.395   0.742  -5.234  0.00  0.00    -0.002 A 
ATOM      8  C6  OXE d   1       4.173   0.572  -4.592  0.00  0.00     0.003 A 
ENDROOT
TORSDOF 0
ENDMDL
