MODEL 1
REMARK minimizedAffinity 9.93239689
REMARK minimizedRMSD -1
REMARK  0 active torsions:
REMARK  status: ('A' for Active; 'I' for Inactive)
ROOT
ATOM      1  C2' OXE d   1       2.897   0.423  -1.771  0.00  0.00     0.078 C 
ATOM      2  C1' OXE d   1       0.423  -0.816  -2.246  0.00  0.00     0.078 C 
ATOM      3  C1  OXE d   1       0.471   0.287  -1.219  0.00  0.00    -0.078 A 
ATOM      4  C2  OXE d   1       1.695   0.856  -0.959  0.00  0.00    -0.078 A 
ATOM      5  C3  OXE d   1       1.786   1.914  -0.060  0.00  0.00     0.003 A 
ATOM      6  C4  OXE d   1       0.672   2.302   0.694  0.00  0.00    -0.002 A 
ATOM      7  C5  OXE d   1      -0.576   1.709   0.474  0.00  0.00    -0.002 A 
ATOM      8  C6  OXE d   1      -0.702   0.731  -0.507  0.00  0.00     0.003 A 
ENDROOT
TORSDOF 0
ENDMDL
