MODEL 1
REMARK minimizedAffinity 10.267024
REMARK minimizedRMSD -1
REMARK  0 active torsions:
REMARK  status: ('A' for Active; 'I' for Inactive)
ROOT
ATOM      1  C2' OXE d   1      -1.029   0.096  -0.770  0.00  0.00     0.078 C 
ATOM      2  C1' OXE d   1       1.121   1.566  -1.817  0.00  0.00     0.078 C 
ATOM      3  C1  OXE d   1       1.364   0.121  -1.461  0.00  0.00    -0.078 A 
ATOM      4  C2  OXE d   1       0.320  -0.578  -0.906  0.00  0.00    -0.078 A 
ATOM      5  C3  OXE d   1       0.474  -1.929  -0.610  0.00  0.00     0.003 A 
ATOM      6  C4  OXE d   1       1.728  -2.542  -0.728  0.00  0.00    -0.002 A 
ATOM      7  C5  OXE d   1       2.815  -1.837  -1.254  0.00  0.00    -0.002 A 
ATOM      8  C6  OXE d   1       2.640  -0.520  -1.664  0.00  0.00     0.003 A 
ENDROOT
TORSDOF 0
ENDMDL
