MODEL 1
REMARK minimizedAffinity 8.43614864
REMARK minimizedRMSD -1
REMARK  0 active torsions:
REMARK  status: ('A' for Active; 'I' for Inactive)
ROOT
ATOM      1  C2' OXE d   1      -1.632  -0.637  -0.935  0.00  0.00     0.078 C 
ATOM      2  C1' OXE d   1      -0.254   1.781  -1.297  0.00  0.00     0.078 C 
ATOM      3  C1  OXE d   1       0.550   0.506  -1.302  0.00  0.00    -0.078 A 
ATOM      4  C2  OXE d   1      -0.126  -0.669  -1.077  0.00  0.00    -0.078 A 
ATOM      5  C3  OXE d   1       0.560  -1.880  -1.125  0.00  0.00     0.003 A 
ATOM      6  C4  OXE d   1       1.955  -1.900  -1.247  0.00  0.00    -0.002 A 
ATOM      7  C5  OXE d   1       2.668  -0.711  -1.437  0.00  0.00    -0.002 A 
ATOM      8  C6  OXE d   1       1.977   0.494  -1.509  0.00  0.00     0.003 A 
ENDROOT
TORSDOF 0
ENDMDL
