MODEL 1
REMARK minimizedAffinity -1.23978078
REMARK minimizedRMSD -1
REMARK  0 active torsions:
REMARK  status: ('A' for Active; 'I' for Inactive)
ROOT
ATOM      1  C2' OXE d   1       3.273  -2.269  -1.452  0.00  0.00     0.078 C 
ATOM      2  C1' OXE d   1       1.222  -2.776   0.396  0.00  0.00     0.078 C 
ATOM      3  C1  OXE d   1       1.126  -1.521  -0.435  0.00  0.00    -0.078 A 
ATOM      4  C2  OXE d   1       2.157  -1.257  -1.304  0.00  0.00    -0.078 A 
ATOM      5  C3  OXE d   1       2.092  -0.142  -2.134  0.00  0.00     0.003 A 
ATOM      6  C4  OXE d   1       1.061   0.794  -1.983  0.00  0.00    -0.002 A 
ATOM      7  C5  OXE d   1       0.021   0.565  -1.076  0.00  0.00    -0.002 A 
ATOM      8  C6  OXE d   1       0.016  -0.606  -0.327  0.00  0.00     0.003 A 
ENDROOT
TORSDOF 0
ENDMDL
