MODEL 1
REMARK minimizedAffinity 8.31068516
REMARK minimizedRMSD -1
REMARK  0 active torsions:
REMARK  status: ('A' for Active; 'I' for Inactive)
ROOT
ATOM      1  C2' OXE d   1       1.480  -1.146  -1.445  0.00  0.00     0.078 C 
ATOM      2  C1' OXE d   1       1.428   1.583  -2.099  0.00  0.00     0.078 C 
ATOM      3  C1  OXE d   1       1.351   0.587  -3.229  0.00  0.00    -0.078 A 
ATOM      4  C2  OXE d   1       1.424  -0.746  -2.903  0.00  0.00    -0.078 A 
ATOM      5  C3  OXE d   1       1.303  -1.707  -3.902  0.00  0.00     0.003 A 
ATOM      6  C4  OXE d   1       1.261  -1.328  -5.249  0.00  0.00    -0.002 A 
ATOM      7  C5  OXE d   1       1.226   0.024  -5.606  0.00  0.00    -0.002 A 
ATOM      8  C6  OXE d   1       1.227   0.992  -4.607  0.00  0.00     0.003 A 
ENDROOT
TORSDOF 0
ENDMDL
