MODEL 1
REMARK minimizedAffinity 2.17678595
REMARK minimizedRMSD -1
REMARK  0 active torsions:
REMARK  status: ('A' for Active; 'I' for Inactive)
ROOT
ATOM      1  C2' OXE d   1      -0.657   2.678   0.514  0.00  0.00     0.078 C 
ATOM      2  C1' OXE d   1       1.478   1.299   1.705  0.00  0.00     0.078 C 
ATOM      3  C1  OXE d   1       1.376   1.273   0.200  0.00  0.00    -0.078 A 
ATOM      4  C2  OXE d   1       0.302   1.911  -0.372  0.00  0.00    -0.078 A 
ATOM      5  C3  OXE d   1       0.190   1.965  -1.758  0.00  0.00     0.003 A 
ATOM      6  C4  OXE d   1       1.075   1.244  -2.569  0.00  0.00    -0.002 A 
ATOM      7  C5  OXE d   1       2.153   0.554  -2.005  0.00  0.00    -0.002 A 
ATOM      8  C6  OXE d   1       2.342   0.594  -0.628  0.00  0.00     0.003 A 
ENDROOT
TORSDOF 0
ENDMDL
