MODEL 1
REMARK minimizedAffinity 9.33113575
REMARK minimizedRMSD -1
REMARK  0 active torsions:
REMARK  status: ('A' for Active; 'I' for Inactive)
ROOT
ATOM      1  C2' OXE d   1       1.708  -0.832   0.501  0.00  0.00     0.078 C 
ATOM      2  C1' OXE d   1      -0.896  -0.871  -0.547  0.00  0.00     0.078 C 
ATOM      3  C1  OXE d   1       0.216  -1.415  -1.407  0.00  0.00    -0.078 A 
ATOM      4  C2  OXE d   1       1.494  -1.349  -0.905  0.00  0.00    -0.078 A 
ATOM      5  C3  OXE d   1       2.550  -1.887  -1.635  0.00  0.00     0.003 A 
ATOM      6  C4  OXE d   1       2.345  -2.354  -2.939  0.00  0.00    -0.002 A 
ATOM      7  C5  OXE d   1       1.058  -2.393  -3.485  0.00  0.00    -0.002 A 
ATOM      8  C6  OXE d   1      -0.021  -1.968  -2.718  0.00  0.00     0.003 A 
ENDROOT
TORSDOF 0
ENDMDL
