MODEL 1
REMARK minimizedAffinity 6.7991209
REMARK minimizedRMSD -1
REMARK  0 active torsions:
REMARK  status: ('A' for Active; 'I' for Inactive)
ROOT
ATOM      1  C2' OXE d   1       0.388   1.009  -1.113  0.00  0.00     0.078 C 
ATOM      2  C1' OXE d   1       1.533  -0.352  -3.284  0.00  0.00     0.078 C 
ATOM      3  C1  OXE d   1       1.625  -0.996  -1.923  0.00  0.00    -0.078 A 
ATOM      4  C2  OXE d   1       1.103  -0.300  -0.859  0.00  0.00    -0.078 A 
ATOM      5  C3  OXE d   1       1.113  -0.873   0.410  0.00  0.00     0.003 A 
ATOM      6  C4  OXE d   1       1.785  -2.080   0.638  0.00  0.00    -0.002 A 
ATOM      7  C5  OXE d   1       2.358  -2.785  -0.426  0.00  0.00    -0.002 A 
ATOM      8  C6  OXE d   1       2.250  -2.279  -1.716  0.00  0.00     0.003 A 
ENDROOT
TORSDOF 0
ENDMDL
