MODEL 1
REMARK minimizedAffinity 4.2871294
REMARK minimizedRMSD -1
REMARK  0 active torsions:
REMARK  status: ('A' for Active; 'I' for Inactive)
ROOT
ATOM      1  C2' OXE d   1       1.491  -4.209   1.995  0.00  0.00     0.078 C 
ATOM      2  C1' OXE d   1       3.268  -5.594   0.320  0.00  0.00     0.078 C 
ATOM      3  C1  OXE d   1       2.623  -4.342  -0.221  0.00  0.00    -0.078 A 
ATOM      4  C2  OXE d   1       1.719  -3.697   0.589  0.00  0.00    -0.078 A 
ATOM      5  C3  OXE d   1       1.137  -2.507   0.161  0.00  0.00     0.003 A 
ATOM      6  C4  OXE d   1       1.345  -2.046  -1.145  0.00  0.00    -0.002 A 
ATOM      7  C5  OXE d   1       2.231  -2.710  -2.000  0.00  0.00    -0.002 A 
ATOM      8  C6  OXE d   1       2.909  -3.833  -1.539  0.00  0.00     0.003 A 
ENDROOT
TORSDOF 0
ENDMDL
