MODEL 1
REMARK minimizedAffinity 7.42334414
REMARK minimizedRMSD -1
REMARK  0 active torsions:
REMARK  status: ('A' for Active; 'I' for Inactive)
ROOT
ATOM      1  C2' OXE d   1       1.771  -4.096   0.309  0.00  0.00     0.078 C 
ATOM      2  C1' OXE d   1       4.047  -2.503  -0.094  0.00  0.00     0.078 C 
ATOM      3  C1  OXE d   1       2.823  -2.203  -0.922  0.00  0.00    -0.078 A 
ATOM      4  C2  OXE d   1       1.729  -3.017  -0.752  0.00  0.00    -0.078 A 
ATOM      5  C3  OXE d   1       0.556  -2.751  -1.452  0.00  0.00     0.003 A 
ATOM      6  C4  OXE d   1       0.529  -1.758  -2.438  0.00  0.00    -0.002 A 
ATOM      7  C5  OXE d   1       1.645  -0.943  -2.656  0.00  0.00    -0.002 A 
ATOM      8  C6  OXE d   1       2.783  -1.124  -1.878  0.00  0.00     0.003 A 
ENDROOT
TORSDOF 0
ENDMDL
