MODEL 1
REMARK minimizedAffinity 1.28107405
REMARK minimizedRMSD -1
REMARK  0 active torsions:
REMARK  status: ('A' for Active; 'I' for Inactive)
ROOT
ATOM      1  C2' OXE d   1       1.046   1.476  -2.696  0.00  0.00     0.078 C 
ATOM      2  C1' OXE d   1       3.652   2.448  -2.313  0.00  0.00     0.078 C 
ATOM      3  C1  OXE d   1       3.390   0.996  -2.001  0.00  0.00    -0.078 A 
ATOM      4  C2  OXE d   1       2.102   0.540  -2.147  0.00  0.00    -0.078 A 
ATOM      5  C3  OXE d   1       1.817  -0.804  -1.925  0.00  0.00     0.003 A 
ATOM      6  C4  OXE d   1       2.797  -1.660  -1.407  0.00  0.00    -0.002 A 
ATOM      7  C5  OXE d   1       4.106  -1.206  -1.214  0.00  0.00    -0.002 A 
ATOM      8  C6  OXE d   1       4.428   0.105  -1.546  0.00  0.00     0.003 A 
ENDROOT
TORSDOF 0
ENDMDL
