MODEL 1
REMARK minimizedAffinity -1.15594387
REMARK minimizedRMSD -1
REMARK  0 active torsions:
REMARK  status: ('A' for Active; 'I' for Inactive)
ROOT
ATOM      1  C2' OXE d   1       0.316   0.229  -1.550  0.00  0.00     0.078 C 
ATOM      2  C1' OXE d   1       3.050   0.161  -2.180  0.00  0.00     0.078 C 
ATOM      3  C1  OXE d   1       2.475  -1.006  -1.418  0.00  0.00    -0.078 A 
ATOM      4  C2  OXE d   1       1.146  -0.943  -1.073  0.00  0.00    -0.078 A 
ATOM      5  C3  OXE d   1       0.552  -2.017  -0.416  0.00  0.00     0.003 A 
ATOM      6  C4  OXE d   1       1.330  -3.093   0.030  0.00  0.00    -0.002 A 
ATOM      7  C5  OXE d   1       2.693  -3.158  -0.276  0.00  0.00    -0.002 A 
ATOM      8  C6  OXE d   1       3.271  -2.146  -1.034  0.00  0.00     0.003 A 
ENDROOT
TORSDOF 0
ENDMDL
