MODEL 1
REMARK minimizedAffinity 8.66447067
REMARK minimizedRMSD -1
REMARK  0 active torsions:
REMARK  status: ('A' for Active; 'I' for Inactive)
ROOT
ATOM      1  C2' OXE d   1      -5.638  -1.982   2.176  0.00  0.00     0.078 C 
ATOM      2  C1' OXE d   1      -5.998  -1.135  -0.477  0.00  0.00     0.078 C 
ATOM      3  C1  OXE d   1      -4.600  -1.104   0.088  0.00  0.00    -0.078 A 
ATOM      4  C2  OXE d   1      -4.440  -1.475   1.402  0.00  0.00    -0.078 A 
ATOM      5  C3  OXE d   1      -3.164  -1.517   1.956  0.00  0.00     0.003 A 
ATOM      6  C4  OXE d   1      -2.063  -1.037   1.236  0.00  0.00    -0.002 A 
ATOM      7  C5  OXE d   1      -2.210  -0.617  -0.090  0.00  0.00    -0.002 A 
ATOM      8  C6  OXE d   1      -3.462  -0.684  -0.691  0.00  0.00     0.003 A 
ENDROOT
TORSDOF 0
ENDMDL
