MODEL 1
REMARK minimizedAffinity -1.70028114
REMARK minimizedRMSD -1
REMARK  0 active torsions:
REMARK  status: ('A' for Active; 'I' for Inactive)
ROOT
ATOM      1  C2' OXE d   1      -0.046   1.310  -1.508  0.00  0.00     0.078 C 
ATOM      2  C1' OXE d   1      -1.256  -0.972  -0.409  0.00  0.00     0.078 C 
ATOM      3  C1  OXE d   1       0.163  -1.098  -0.904  0.00  0.00    -0.078 A 
ATOM      4  C2  OXE d   1       0.731   0.012  -1.483  0.00  0.00    -0.078 A 
ATOM      5  C3  OXE d   1       2.057  -0.034  -1.906  0.00  0.00     0.003 A 
ATOM      6  C4  OXE d   1       2.765  -1.242  -1.889  0.00  0.00    -0.002 A 
ATOM      7  C5  OXE d   1       2.191  -2.393  -1.340  0.00  0.00    -0.002 A 
ATOM      8  C6  OXE d   1       0.909  -2.328  -0.806  0.00  0.00     0.003 A 
ENDROOT
TORSDOF 0
ENDMDL
