MODEL 1
REMARK minimizedAffinity 6.10184813
REMARK minimizedRMSD -1
REMARK  0 active torsions:
REMARK  status: ('A' for Active; 'I' for Inactive)
ROOT
ATOM      1  C2' OXE d   1       3.759   0.577  -3.240  0.00  0.00     0.078 C 
ATOM      2  C1' OXE d   1       1.406   1.582  -2.085  0.00  0.00     0.078 C 
ATOM      3  C1  OXE d   1       1.787   0.156  -1.777  0.00  0.00    -0.078 A 
ATOM      4  C2  OXE d   1       2.915  -0.343  -2.384  0.00  0.00    -0.078 A 
ATOM      5  C3  OXE d   1       3.341  -1.635  -2.091  0.00  0.00     0.003 A 
ATOM      6  C4  OXE d   1       2.549  -2.482  -1.306  0.00  0.00    -0.002 A 
ATOM      7  C5  OXE d   1       1.376  -2.007  -0.711  0.00  0.00    -0.002 A 
ATOM      8  C6  OXE d   1       1.004  -0.681  -0.901  0.00  0.00     0.003 A 
ENDROOT
TORSDOF 0
ENDMDL
