MODEL 1
REMARK minimizedAffinity -2.25466633
REMARK minimizedRMSD -1
REMARK  3 active torsions:
REMARK  status: ('A' for Active; 'I' for Inactive)
REMARK    1  A    between atoms: C3'_2  and  C2'_3 
REMARK    2  A    between atoms: C2'_3  and  C1'_4 
REMARK    3  A    between atoms: C1'_4  and  C1_5 
ROOT
ATOM      1  C1  N4B d   1       4.322  -3.148  -1.959  0.00  0.00    -0.075 A 
ATOM      2  C2  N4B d   1       5.353  -3.659  -1.140  0.00  0.00     0.002 A 
ATOM      3  C3  N4B d   1       5.999  -4.819  -1.493  0.00  0.00     0.002 A 
ATOM      4  C4  N4B d   1       5.620  -5.491  -2.645  0.00  0.00    -0.004 A 
ATOM      5  C5  N4B d   1       4.641  -4.977  -3.443  0.00  0.00     0.002 A 
ATOM      6  C6  N4B d   1       3.986  -3.811  -3.103  0.00  0.00     0.002 A 
ENDROOT
BRANCH   1   7
ATOM      7  C1' N4B d   1       3.529  -1.930  -1.570  0.00  0.00     0.057 C 
BRANCH   7   8
ATOM      8  C2' N4B d   1       2.049  -2.296  -1.505  0.00  0.00     0.009 C 
BRANCH   8   9
ATOM      9  C3' N4B d   1       1.812  -3.566  -0.707  0.00  0.00     0.004 C 
ATOM     10  C4' N4B d   1       1.024  -4.591  -1.467  0.00  0.00     0.003 C 
ENDBRANCH   8   9
ENDBRANCH   7   8
ENDBRANCH   1   7
TORSDOF 3
ENDMDL
