MODEL 1
REMARK minimizedAffinity -3.52808094
REMARK minimizedRMSD -1
REMARK  3 active torsions:
REMARK  status: ('A' for Active; 'I' for Inactive)
REMARK    1  A    between atoms: C3'_2  and  C2'_3 
REMARK    2  A    between atoms: C2'_3  and  C1'_4 
REMARK    3  A    between atoms: C1'_4  and  C1_5 
ROOT
ATOM      1  C1  N4B d   1       0.176   2.255  -0.004  0.00  0.00    -0.075 A 
ATOM      2  C2  N4B d   1      -0.089   2.538   1.354  0.00  0.00     0.002 A 
ATOM      3  C3  N4B d   1      -0.117   1.519   2.274  0.00  0.00     0.002 A 
ATOM      4  C4  N4B d   1       0.097   0.213   1.859  0.00  0.00    -0.004 A 
ATOM      5  C5  N4B d   1       0.378  -0.048   0.549  0.00  0.00     0.002 A 
ATOM      6  C6  N4B d   1       0.413   0.967  -0.386  0.00  0.00     0.002 A 
ENDROOT
BRANCH   1   7
ATOM      7  C1' N4B d   1       0.132   3.325  -1.061  0.00  0.00     0.057 C 
BRANCH   7   8
ATOM      8  C2' N4B d   1       1.005   4.498  -0.624  0.00  0.00     0.009 C 
BRANCH   8   9
ATOM      9  C3' N4B d   1       0.247   5.814  -0.660  0.00  0.00     0.004 C 
ATOM     10  C4' N4B d   1      -0.582   5.973  -1.899  0.00  0.00     0.003 C 
ENDBRANCH   8   9
ENDBRANCH   7   8
ENDBRANCH   1   7
TORSDOF 3
ENDMDL
