MODEL 1
REMARK minimizedAffinity 11.4488363
REMARK minimizedRMSD -1
REMARK  3 active torsions:
REMARK  status: ('A' for Active; 'I' for Inactive)
REMARK    1  A    between atoms: C3'_2  and  C2'_3 
REMARK    2  A    between atoms: C2'_3  and  C1'_4 
REMARK    3  A    between atoms: C1'_4  and  C1_5 
ROOT
ATOM      1  C1  N4B d   1      -1.508   3.895  -1.186  0.00  0.00    -0.075 A 
ATOM      2  C2  N4B d   1      -1.395   3.008  -0.094  0.00  0.00     0.002 A 
ATOM      3  C3  N4B d   1      -0.154   2.614   0.345  0.00  0.00     0.002 A 
ATOM      4  C4  N4B d   1       0.981   3.079  -0.302  0.00  0.00    -0.004 A 
ATOM      5  C5  N4B d   1       0.863   3.956  -1.340  0.00  0.00     0.002 A 
ATOM      6  C6  N4B d   1      -0.377   4.363  -1.789  0.00  0.00     0.002 A 
ENDROOT
BRANCH   1   7
ATOM      7  C1' N4B d   1      -2.845   4.286  -1.756  0.00  0.00     0.057 C 
BRANCH   7   8
ATOM      8  C2' N4B d   1      -3.379   3.141  -2.610  0.00  0.00     0.009 C 
BRANCH   8   9
ATOM      9  C3' N4B d   1      -4.366   2.275  -1.845  0.00  0.00     0.004 C 
ATOM     10  C4' N4B d   1      -5.200   1.412  -2.745  0.00  0.00     0.003 C 
ENDBRANCH   8   9
ENDBRANCH   7   8
ENDBRANCH   1   7
TORSDOF 3
ENDMDL
