MODEL 1
REMARK minimizedAffinity 7.1942091
REMARK minimizedRMSD -1
REMARK  1 active torsions:
REMARK  status: ('A' for Active; 'I' for Inactive)
REMARK    1  A    between atoms: C1_2  and  C2_3 
ROOT
ATOM      1  C2  UNL d   1      -2.184  -0.053   3.218  0.00  0.00    -0.077 A 
ATOM      2  C3  UNL d   1      -3.003  -1.005   2.596  0.00  0.00     0.002 A 
ATOM      3  C4  UNL d   1      -2.508  -1.786   1.549  0.00  0.00     0.002 A 
ATOM      4  C5  UNL d   1      -1.192  -1.626   1.120  0.00  0.00    -0.004 A 
ATOM      5  C6  UNL d   1      -0.371  -0.680   1.732  0.00  0.00     0.002 A 
ATOM      6  C7  UNL d   1      -0.864   0.103   2.777  0.00  0.00     0.002 A 
ENDROOT
BRANCH   1   7
ATOM      7  C1  UNL d   1      -2.701   0.756   4.379  0.00  0.00     0.055 C 
ATOM      8  C   UNL d   1      -2.029   0.347   5.682  0.00  0.00     0.019 C 
ENDBRANCH   1   7
TORSDOF 1
ENDMDL
