MODEL 1
REMARK minimizedAffinity -1.53385282
REMARK minimizedRMSD -1
REMARK  1 active torsions:
REMARK  status: ('A' for Active; 'I' for Inactive)
REMARK    1  A    between atoms: C1_2  and  C2_3 
ROOT
ATOM      1  C2  UNL d   1      -3.576   0.195   5.231  0.00  0.00    -0.077 A 
ATOM      2  C3  UNL d   1      -4.471  -0.646   5.908  0.00  0.00     0.002 A 
ATOM      3  C4  UNL d   1      -5.272  -1.542   5.199  0.00  0.00     0.002 A 
ATOM      4  C5  UNL d   1      -5.184  -1.610   3.810  0.00  0.00    -0.004 A 
ATOM      5  C6  UNL d   1      -4.298  -0.778   3.127  0.00  0.00     0.002 A 
ATOM      6  C7  UNL d   1      -3.497   0.120   3.835  0.00  0.00     0.002 A 
ENDROOT
BRANCH   1   7
ATOM      7  C1  UNL d   1      -2.676   1.128   5.998  0.00  0.00     0.055 C 
ATOM      8  C   UNL d   1      -1.209   0.793   5.770  0.00  0.00     0.019 C 
ENDBRANCH   1   7
TORSDOF 1
ENDMDL
