MODEL 1
REMARK minimizedAffinity 3.93356037
REMARK minimizedRMSD -1
REMARK  1 active torsions:
REMARK  status: ('A' for Active; 'I' for Inactive)
REMARK    1  A    between atoms: C1_2  and  C2_3 
ROOT
ATOM      1  C2  UNL d   1      -2.598   3.045   0.241  0.00  0.00    -0.077 A 
ATOM      2  C3  UNL d   1      -2.285   4.270  -0.364  0.00  0.00     0.002 A 
ATOM      3  C4  UNL d   1      -1.059   4.889  -0.112  0.00  0.00     0.002 A 
ATOM      4  C5  UNL d   1      -0.136   4.289   0.741  0.00  0.00    -0.004 A 
ATOM      5  C6  UNL d   1      -0.438   3.071   1.349  0.00  0.00     0.002 A 
ATOM      6  C7  UNL d   1      -1.664   2.452   1.100  0.00  0.00     0.002 A 
ENDROOT
BRANCH   1   7
ATOM      7  C1  UNL d   1      -3.899   2.351  -0.067  0.00  0.00     0.055 C 
ATOM      8  C   UNL d   1      -3.705   1.239  -1.088  0.00  0.00     0.019 C 
ENDBRANCH   1   7
TORSDOF 1
ENDMDL
