MODEL 1
REMARK minimizedAffinity 2.2743907
REMARK minimizedRMSD -1
REMARK  1 active torsions:
REMARK  status: ('A' for Active; 'I' for Inactive)
REMARK    1  A    between atoms: C1_2  and  C2_3 
ROOT
ATOM      1  C2  UNL d   1       3.366  -4.017  -0.018  0.00  0.00    -0.077 A 
ATOM      2  C3  UNL d   1       3.503  -5.411   0.034  0.00  0.00     0.002 A 
ATOM      3  C4  UNL d   1       4.771  -5.997   0.015  0.00  0.00     0.002 A 
ATOM      4  C5  UNL d   1       5.909  -5.196  -0.053  0.00  0.00    -0.004 A 
ATOM      5  C6  UNL d   1       5.782  -3.809  -0.107  0.00  0.00     0.002 A 
ATOM      6  C7  UNL d   1       4.516  -3.222  -0.089  0.00  0.00     0.002 A 
ENDROOT
BRANCH   1   7
ATOM      7  C1  UNL d   1       2.002  -3.382   0.052  0.00  0.00     0.055 C 
ATOM      8  C   UNL d   1       1.129  -3.813  -1.118  0.00  0.00     0.019 C 
ENDBRANCH   1   7
TORSDOF 1
ENDMDL
