MODEL 1
REMARK minimizedAffinity 2.89783502
REMARK minimizedRMSD -1
REMARK  1 active torsions:
REMARK  status: ('A' for Active; 'I' for Inactive)
REMARK    1  A    between atoms: C1_2  and  C2_3 
ROOT
ATOM      1  C2  UNL d   1       3.579  -4.674   0.017  0.00  0.00    -0.077 A 
ATOM      2  C3  UNL d   1       4.195  -3.418   0.096  0.00  0.00     0.002 A 
ATOM      3  C4  UNL d   1       3.429  -2.265   0.280  0.00  0.00     0.002 A 
ATOM      4  C5  UNL d   1       2.043  -2.359   0.392  0.00  0.00    -0.004 A 
ATOM      5  C6  UNL d   1       1.421  -3.604   0.312  0.00  0.00     0.002 A 
ATOM      6  C7  UNL d   1       2.185  -4.757   0.127  0.00  0.00     0.002 A 
ENDROOT
BRANCH   1   7
ATOM      7  C1  UNL d   1       4.408  -5.923  -0.132  0.00  0.00     0.055 C 
ATOM      8  C   UNL d   1       5.513  -5.983   0.913  0.00  0.00     0.019 C 
ENDBRANCH   1   7
TORSDOF 1
ENDMDL
