MODEL 1
REMARK minimizedAffinity 6.44476271
REMARK minimizedRMSD -1
REMARK  1 active torsions:
REMARK  status: ('A' for Active; 'I' for Inactive)
REMARK    1  A    between atoms: C1_2  and  C2_3 
ROOT
ATOM      1  C2  UNL d   1       2.716  -2.727  -0.250  0.00  0.00    -0.077 A 
ATOM      2  C3  UNL d   1       3.884  -3.476  -0.454  0.00  0.00     0.002 A 
ATOM      3  C4  UNL d   1       5.114  -3.006   0.010  0.00  0.00     0.002 A 
ATOM      4  C5  UNL d   1       5.188  -1.788   0.683  0.00  0.00    -0.004 A 
ATOM      5  C6  UNL d   1       4.033  -1.035   0.888  0.00  0.00     0.002 A 
ATOM      6  C7  UNL d   1       2.803  -1.503   0.425  0.00  0.00     0.002 A 
ENDROOT
BRANCH   1   7
ATOM      7  C1  UNL d   1       1.381  -3.256  -0.705  0.00  0.00     0.055 C 
ATOM      8  C   UNL d   1       0.541  -3.725   0.473  0.00  0.00     0.019 C 
ENDBRANCH   1   7
TORSDOF 1
ENDMDL
