MODEL 1
REMARK minimizedAffinity 2.95281816
REMARK minimizedRMSD -1
REMARK  1 active torsions:
REMARK  status: ('A' for Active; 'I' for Inactive)
REMARK    1  A    between atoms: C1_2  and  C2_3 
ROOT
ATOM      1  C2  UNL d   1       3.274  -4.186   0.079  0.00  0.00    -0.077 A 
ATOM      2  C3  UNL d   1       3.480  -2.799   0.069  0.00  0.00     0.002 A 
ATOM      3  C4  UNL d   1       2.463  -1.931   0.468  0.00  0.00     0.002 A 
ATOM      4  C5  UNL d   1       1.234  -2.439   0.885  0.00  0.00    -0.004 A 
ATOM      5  C6  UNL d   1       1.018  -3.816   0.897  0.00  0.00     0.002 A 
ATOM      6  C7  UNL d   1       2.034  -4.686   0.497  0.00  0.00     0.002 A 
ENDROOT
BRANCH   1   7
ATOM      7  C1  UNL d   1       4.386  -5.126  -0.304  0.00  0.00     0.055 C 
ATOM      8  C   UNL d   1       4.808  -5.994   0.872  0.00  0.00     0.019 C 
ENDBRANCH   1   7
TORSDOF 1
ENDMDL
