MODEL 1
REMARK minimizedAffinity 1.55882049
REMARK minimizedRMSD -1
REMARK  1 active torsions:
REMARK  status: ('A' for Active; 'I' for Inactive)
REMARK    1  A    between atoms: C1_2  and  C2_3 
ROOT
ATOM      1  C2  UNL d   1       4.221  -4.659   0.189  0.00  0.00    -0.077 A 
ATOM      2  C3  UNL d   1       4.933  -3.466   0.002  0.00  0.00     0.002 A 
ATOM      3  C4  UNL d   1       4.268  -2.239   0.010  0.00  0.00     0.002 A 
ATOM      4  C5  UNL d   1       2.889  -2.192   0.208  0.00  0.00    -0.004 A 
ATOM      5  C6  UNL d   1       2.172  -3.373   0.393  0.00  0.00     0.002 A 
ATOM      6  C7  UNL d   1       2.835  -4.602   0.384  0.00  0.00     0.002 A 
ENDROOT
BRANCH   1   7
ATOM      7  C1  UNL d   1       4.943  -5.981   0.231  0.00  0.00     0.055 C 
ATOM      8  C   UNL d   1       6.000  -6.000   1.326  0.00  0.00     0.019 C 
ENDBRANCH   1   7
TORSDOF 1
ENDMDL
