MODEL 1
REMARK minimizedAffinity -1.20299828
REMARK minimizedRMSD -1
REMARK  1 active torsions:
REMARK  status: ('A' for Active; 'I' for Inactive)
REMARK    1  A    between atoms: C1_2  and  C2_3 
ROOT
ATOM      1  C2  UNL d   1       1.323  -3.561   0.092  0.00  0.00    -0.077 A 
ATOM      2  C3  UNL d   1       0.681  -4.277  -0.928  0.00  0.00     0.002 A 
ATOM      3  C4  UNL d   1      -0.713  -4.350  -0.969  0.00  0.00     0.002 A 
ATOM      4  C5  UNL d   1      -1.475  -3.707   0.004  0.00  0.00    -0.004 A 
ATOM      5  C6  UNL d   1      -0.845  -2.995   1.024  0.00  0.00     0.002 A 
ATOM      6  C7  UNL d   1       0.548  -2.922   1.067  0.00  0.00     0.002 A 
ENDROOT
BRANCH   1   7
ATOM      7  C1  UNL d   1       2.825  -3.440   0.110  0.00  0.00     0.055 C 
ATOM      8  C   UNL d   1       3.491  -4.806   0.037  0.00  0.00     0.019 C 
ENDBRANCH   1   7
TORSDOF 1
ENDMDL
