MODEL 1
REMARK minimizedAffinity 2.36243153
REMARK minimizedRMSD -1
REMARK  1 active torsions:
REMARK  status: ('A' for Active; 'I' for Inactive)
REMARK    1  A    between atoms: C1_2  and  C2_3 
ROOT
ATOM      1  C2  UNL d   1       3.212   2.177  -1.098  0.00  0.00    -0.077 A 
ATOM      2  C3  UNL d   1       2.293   2.046  -0.047  0.00  0.00     0.002 A 
ATOM      3  C4  UNL d   1       2.227   3.013   0.957  0.00  0.00     0.002 A 
ATOM      4  C5  UNL d   1       3.073   4.120   0.918  0.00  0.00    -0.004 A 
ATOM      5  C6  UNL d   1       3.991   4.258  -0.122  0.00  0.00     0.002 A 
ATOM      6  C7  UNL d   1       4.060   3.291  -1.126  0.00  0.00     0.002 A 
ENDROOT
BRANCH   1   7
ATOM      7  C1  UNL d   1       3.251   1.160  -2.209  0.00  0.00     0.055 C 
ATOM      8  C   UNL d   1       1.988   1.217  -3.057  0.00  0.00     0.019 C 
ENDBRANCH   1   7
TORSDOF 1
ENDMDL
