MODEL 1
REMARK minimizedAffinity -1.68171763
REMARK minimizedRMSD -1
REMARK  1 active torsions:
REMARK  status: ('A' for Active; 'I' for Inactive)
REMARK    1  A    between atoms: C1_2  and  C2_3 
ROOT
ATOM      1  C2  UNL d   1      -5.281  -4.827   3.193  0.00  0.00    -0.077 A 
ATOM      2  C3  UNL d   1      -4.911  -5.982   3.896  0.00  0.00     0.002 A 
ATOM      3  C4  UNL d   1      -4.936  -5.998   5.292  0.00  0.00     0.002 A 
ATOM      4  C5  UNL d   1      -5.334  -4.864   5.996  0.00  0.00    -0.004 A 
ATOM      5  C6  UNL d   1      -5.702  -3.709   5.307  0.00  0.00     0.002 A 
ATOM      6  C7  UNL d   1      -5.676  -3.691   3.911  0.00  0.00     0.002 A 
ENDROOT
BRANCH   1   7
ATOM      7  C1  UNL d   1      -5.301  -4.823   1.687  0.00  0.00     0.055 C 
ATOM      8  C   UNL d   1      -4.274  -3.853   1.121  0.00  0.00     0.019 C 
ENDBRANCH   1   7
TORSDOF 1
ENDMDL
