MODEL 1
REMARK minimizedAffinity -5.39623213
REMARK minimizedRMSD -1
REMARK  2 active torsions:
REMARK  status: ('A' for Active; 'I' for Inactive)
REMARK    1  A    between atoms: C1_2  and  C2_3 
REMARK    2  A    between atoms: C2_3  and  C3_4 
ROOT
ATOM      1  C3  UNL d   1      -0.870  -0.311   0.537  0.00  0.00    -0.075 A 
ATOM      2  C4  UNL d   1       0.384   0.198   0.167  0.00  0.00     0.002 A 
ATOM      3  C5  UNL d   1       1.172   0.881   1.094  0.00  0.00     0.002 A 
ATOM      4  C6  UNL d   1       0.714   1.073   2.395  0.00  0.00    -0.004 A 
ATOM      5  C7  UNL d   1      -0.537   0.587   2.769  0.00  0.00     0.002 A 
ATOM      6  C8  UNL d   1      -1.326  -0.101   1.845  0.00  0.00     0.002 A 
ENDROOT
BRANCH   1   7
ATOM      7  C2  UNL d   1      -1.714  -1.077  -0.453  0.00  0.00     0.056 C 
BRANCH   7   8
ATOM      8  C1  UNL d   1      -3.152  -0.561  -0.577  0.00  0.00     0.007 C 
ATOM      9  C   UNL d   1      -4.092  -1.556  -1.244  0.00  0.00     0.009 C 
ENDBRANCH   7   8
ENDBRANCH   1   7
TORSDOF 2
ENDMDL
