MODEL 1
REMARK minimizedAffinity -0.553440928
REMARK minimizedRMSD -1
REMARK  2 active torsions:
REMARK  status: ('A' for Active; 'I' for Inactive)
REMARK    1  A    between atoms: C1_2  and  C2_3 
REMARK    2  A    between atoms: C2_3  and  C3_4 
ROOT
ATOM      1  C3  UNL d   1      -0.591  -0.427   1.176  0.00  0.00    -0.075 A 
ATOM      2  C4  UNL d   1      -1.856   0.122   1.433  0.00  0.00     0.002 A 
ATOM      3  C5  UNL d   1      -2.841   0.125   0.444  0.00  0.00     0.002 A 
ATOM      4  C6  UNL d   1      -2.571  -0.409  -0.814  0.00  0.00    -0.004 A 
ATOM      5  C7  UNL d   1      -1.313  -0.942  -1.085  0.00  0.00     0.002 A 
ATOM      6  C8  UNL d   1      -0.327  -0.951  -0.097  0.00  0.00     0.002 A 
ENDROOT
BRANCH   1   7
ATOM      7  C2  UNL d   1       0.469  -0.461   2.251  0.00  0.00     0.056 C 
BRANCH   7   8
ATOM      8  C1  UNL d   1      -0.066  -0.811   3.643  0.00  0.00     0.007 C 
ATOM      9  C   UNL d   1       0.890  -1.678   4.452  0.00  0.00     0.009 C 
ENDBRANCH   7   8
ENDBRANCH   1   7
TORSDOF 2
ENDMDL
