MODEL 1
REMARK minimizedAffinity 6.79659939
REMARK minimizedRMSD -1
REMARK  2 active torsions:
REMARK  status: ('A' for Active; 'I' for Inactive)
REMARK    1  A    between atoms: C1_2  and  C2_3 
REMARK    2  A    between atoms: C2_3  and  C3_4 
ROOT
ATOM      1  C3  UNL d   1      -0.952  -0.112   2.419  0.00  0.00    -0.075 A 
ATOM      2  C4  UNL d   1      -0.287   1.044   2.852  0.00  0.00     0.002 A 
ATOM      3  C5  UNL d   1       1.048   0.985   3.255  0.00  0.00     0.002 A 
ATOM      4  C6  UNL d   1       1.730  -0.229   3.239  0.00  0.00    -0.004 A 
ATOM      5  C7  UNL d   1       1.075  -1.387   2.826  0.00  0.00     0.002 A 
ATOM      6  C8  UNL d   1      -0.259  -1.330   2.419  0.00  0.00     0.002 A 
ENDROOT
BRANCH   1   7
ATOM      7  C2  UNL d   1      -2.387  -0.049   1.954  0.00  0.00     0.056 C 
BRANCH   7   8
ATOM      8  C1  UNL d   1      -2.710   1.175   1.091  0.00  0.00     0.007 C 
ATOM      9  C   UNL d   1      -3.767   0.899   0.029  0.00  0.00     0.009 C 
ENDBRANCH   7   8
ENDBRANCH   1   7
TORSDOF 2
ENDMDL
