MODEL 1
REMARK minimizedAffinity 5.79826975
REMARK minimizedRMSD -1
REMARK  2 active torsions:
REMARK  status: ('A' for Active; 'I' for Inactive)
REMARK    1  A    between atoms: C1_2  and  C2_3 
REMARK    2  A    between atoms: C2_3  and  C3_4 
ROOT
ATOM      1  C3  UNL d   1       3.420   3.544   1.918  0.00  0.00    -0.075 A 
ATOM      2  C4  UNL d   1       3.692   4.913   2.057  0.00  0.00     0.002 A 
ATOM      3  C5  UNL d   1       4.442   5.380   3.137  0.00  0.00     0.002 A 
ATOM      4  C6  UNL d   1       4.921   4.488   4.094  0.00  0.00    -0.004 A 
ATOM      5  C7  UNL d   1       4.644   3.128   3.974  0.00  0.00     0.002 A 
ATOM      6  C8  UNL d   1       3.897   2.658   2.893  0.00  0.00     0.002 A 
ENDROOT
BRANCH   1   7
ATOM      7  C2  UNL d   1       2.634   3.029   0.736  0.00  0.00     0.056 C 
BRANCH   7   8
ATOM      8  C1  UNL d   1       1.160   2.743   1.045  0.00  0.00     0.007 C 
ATOM      9  C   UNL d   1       0.817   1.259   1.011  0.00  0.00     0.009 C 
ENDBRANCH   7   8
ENDBRANCH   1   7
TORSDOF 2
ENDMDL
