MODEL 1
REMARK minimizedAffinity -1.35229123
REMARK minimizedRMSD -1
REMARK  2 active torsions:
REMARK  status: ('A' for Active; 'I' for Inactive)
REMARK    1  A    between atoms: C1_2  and  C2_3 
REMARK    2  A    between atoms: C2_3  and  C3_4 
ROOT
ATOM      1  C3  UNL d   1      -0.768  -0.995   3.984  0.00  0.00    -0.075 A 
ATOM      2  C4  UNL d   1      -1.543  -2.080   4.419  0.00  0.00     0.002 A 
ATOM      3  C5  UNL d   1      -2.841  -2.261   3.941  0.00  0.00     0.002 A 
ATOM      4  C6  UNL d   1      -3.383  -1.355   3.032  0.00  0.00    -0.004 A 
ATOM      5  C7  UNL d   1      -2.629  -0.264   2.606  0.00  0.00     0.002 A 
ATOM      6  C8  UNL d   1      -1.328  -0.084   3.079  0.00  0.00     0.002 A 
ENDROOT
BRANCH   1   7
ATOM      7  C2  UNL d   1       0.648  -0.811   4.475  0.00  0.00     0.056 C 
BRANCH   7   8
ATOM      8  C1  UNL d   1       1.696  -1.574   3.658  0.00  0.00     0.007 C 
ATOM      9  C   UNL d   1       1.899  -1.003   2.260  0.00  0.00     0.009 C 
ENDBRANCH   7   8
ENDBRANCH   1   7
TORSDOF 2
ENDMDL
