MODEL 1
REMARK minimizedAffinity 2.17540169
REMARK minimizedRMSD -1
REMARK  2 active torsions:
REMARK  status: ('A' for Active; 'I' for Inactive)
REMARK    1  A    between atoms: C1_2  and  C2_3 
REMARK    2  A    between atoms: C2_3  and  C3_4 
ROOT
ATOM      1  C3  UNL d   1       0.051   0.047   2.255  0.00  0.00    -0.075 A 
ATOM      2  C4  UNL d   1       0.111  -1.054   3.121  0.00  0.00     0.002 A 
ATOM      3  C5  UNL d   1      -1.032  -1.495   3.788  0.00  0.00     0.002 A 
ATOM      4  C6  UNL d   1      -2.246  -0.836   3.604  0.00  0.00    -0.004 A 
ATOM      5  C7  UNL d   1      -2.314   0.269   2.759  0.00  0.00     0.002 A 
ATOM      6  C8  UNL d   1      -1.173   0.709   2.087  0.00  0.00     0.002 A 
ENDROOT
BRANCH   1   7
ATOM      7  C2  UNL d   1       1.279   0.511   1.508  0.00  0.00     0.056 C 
BRANCH   7   8
ATOM      8  C1  UNL d   1       1.526   2.021   1.592  0.00  0.00     0.007 C 
ATOM      9  C   UNL d   1       2.983   2.404   1.370  0.00  0.00     0.009 C 
ENDBRANCH   7   8
ENDBRANCH   1   7
TORSDOF 2
ENDMDL
