MODEL 1
REMARK minimizedAffinity 2.34251404
REMARK minimizedRMSD -1
REMARK  2 active torsions:
REMARK  status: ('A' for Active; 'I' for Inactive)
REMARK    1  A    between atoms: C1_2  and  C2_3 
REMARK    2  A    between atoms: C2_3  and  C3_4 
ROOT
ATOM      1  C3  UNL d   1      -1.018   0.177   1.784  0.00  0.00    -0.075 A 
ATOM      2  C4  UNL d   1       0.204   0.211   1.097  0.00  0.00     0.002 A 
ATOM      3  C5  UNL d   1       1.337  -0.400   1.636  0.00  0.00     0.002 A 
ATOM      4  C6  UNL d   1       1.264  -1.042   2.871  0.00  0.00    -0.004 A 
ATOM      5  C7  UNL d   1       0.059  -1.068   3.569  0.00  0.00     0.002 A 
ATOM      6  C8  UNL d   1      -1.076  -0.461   3.030  0.00  0.00     0.002 A 
ENDROOT
BRANCH   1   7
ATOM      7  C2  UNL d   1      -2.254   0.811   1.192  0.00  0.00     0.056 C 
BRANCH   7   8
ATOM      8  C1  UNL d   1      -2.411   0.585  -0.315  0.00  0.00     0.007 C 
ATOM      9  C   UNL d   1      -2.522  -0.886  -0.693  0.00  0.00     0.009 C 
ENDBRANCH   7   8
ENDBRANCH   1   7
TORSDOF 2
ENDMDL
