MODEL 1
REMARK minimizedAffinity 11.1488991
REMARK minimizedRMSD -1
REMARK  0 active torsions:
REMARK  status: ('A' for Active; 'I' for Inactive)
ROOT
ATOM      1  C   UNL d   1       3.579  -6.000  -5.963  0.00  0.00     0.172 C 
ATOM      2  N   UNL d   1       2.407  -5.806  -5.142  0.00  0.00    -0.070 N 
ATOM      3  C1  UNL d   1       2.409  -5.451  -3.820  0.00  0.00    -0.004 A 
ATOM      4  C2  UNL d   1       1.098  -5.369  -3.403  0.00  0.00    -0.047 A 
ATOM      5  C3  UNL d   1       0.280  -5.685  -4.513  0.00  0.00    -0.047 A 
ATOM      6  C4  UNL d   1       1.116  -5.952  -5.577  0.00  0.00    -0.004 A 
ENDROOT
TORSDOF 0
ENDMDL
