MODEL 1
REMARK minimizedAffinity 13.4616165
REMARK minimizedRMSD -1
REMARK  0 active torsions:
REMARK  status: ('A' for Active; 'I' for Inactive)
ROOT
ATOM      1  C   UNL d   1       1.113   5.513   0.102  0.00  0.00     0.172 C 
ATOM      2  N   UNL d   1       1.091   4.195  -0.488  0.00  0.00    -0.070 N 
ATOM      3  C1  UNL d   1       1.008   3.014   0.200  0.00  0.00    -0.004 A 
ATOM      4  C2  UNL d   1       1.015   1.988  -0.720  0.00  0.00    -0.047 A 
ATOM      5  C3  UNL d   1       1.106   2.572  -2.005  0.00  0.00    -0.047 A 
ATOM      6  C4  UNL d   1       1.152   3.940  -1.832  0.00  0.00    -0.004 A 
ENDROOT
TORSDOF 0
ENDMDL
