MODEL 1
REMARK minimizedAffinity 4.23874617
REMARK minimizedRMSD -1
REMARK  0 active torsions:
REMARK  status: ('A' for Active; 'I' for Inactive)
ROOT
ATOM      1  C   UNL d   1      -1.111   6.000  -5.624  0.00  0.00     0.172 C 
ATOM      2  N   UNL d   1      -1.348   5.089  -4.529  0.00  0.00    -0.070 N 
ATOM      3  C1  UNL d   1      -1.757   5.442  -3.271  0.00  0.00    -0.004 A 
ATOM      4  C2  UNL d   1      -1.867   4.289  -2.524  0.00  0.00    -0.047 A 
ATOM      5  C3  UNL d   1      -1.511   3.206  -3.362  0.00  0.00    -0.047 A 
ATOM      6  C4  UNL d   1      -1.193   3.729  -4.597  0.00  0.00    -0.004 A 
ENDROOT
TORSDOF 0
ENDMDL
