MODEL 1
REMARK minimizedAffinity 2.70743418
REMARK minimizedRMSD -1
REMARK  0 active torsions:
REMARK  status: ('A' for Active; 'I' for Inactive)
ROOT
ATOM      1  C   UNL d   1       4.147  -3.734  -5.998  0.00  0.00     0.172 C 
ATOM      2  N   UNL d   1       2.936  -4.429  -5.630  0.00  0.00    -0.070 N 
ATOM      3  C1  UNL d   1       2.604  -5.706  -5.999  0.00  0.00    -0.004 A 
ATOM      4  C2  UNL d   1       1.376  -5.999  -5.447  0.00  0.00    -0.047 A 
ATOM      5  C3  UNL d   1       0.955  -4.860  -4.722  0.00  0.00    -0.047 A 
ATOM      6  C4  UNL d   1       1.939  -3.903  -4.852  0.00  0.00    -0.004 A 
ENDROOT
TORSDOF 0
ENDMDL
