MODEL 1
REMARK minimizedAffinity 5.36642456
REMARK minimizedRMSD -1
REMARK  0 active torsions:
REMARK  status: ('A' for Active; 'I' for Inactive)
ROOT
ATOM      1  C   UNL d   1      -6.000  -5.197   5.976  0.00  0.00     0.172 C 
ATOM      2  N   UNL d   1      -5.367  -3.907   5.833  0.00  0.00    -0.070 N 
ATOM      3  C1  UNL d   1      -4.052  -3.694   5.514  0.00  0.00    -0.004 A 
ATOM      4  C2  UNL d   1      -3.843  -2.333   5.474  0.00  0.00    -0.047 A 
ATOM      5  C3  UNL d   1      -5.074  -1.706   5.780  0.00  0.00    -0.047 A 
ATOM      6  C4  UNL d   1      -6.000  -2.704   5.998  0.00  0.00    -0.004 A 
ENDROOT
TORSDOF 0
ENDMDL
