MODEL 1
REMARK minimizedAffinity 9.44626141
REMARK minimizedRMSD -1
REMARK  0 active torsions:
REMARK  status: ('A' for Active; 'I' for Inactive)
ROOT
ATOM      1  C   UNL d   1       2.240  -5.833   1.340  0.00  0.00     0.172 C 
ATOM      2  N   UNL d   1       1.284  -4.751   1.324  0.00  0.00    -0.070 N 
ATOM      3  C1  UNL d   1       1.562  -3.437   1.588  0.00  0.00    -0.004 A 
ATOM      4  C2  UNL d   1       0.387  -2.725   1.470  0.00  0.00    -0.047 A 
ATOM      5  C3  UNL d   1      -0.632  -3.644   1.125  0.00  0.00    -0.047 A 
ATOM      6  C4  UNL d   1      -0.049  -4.891   1.041  0.00  0.00    -0.004 A 
ENDROOT
TORSDOF 0
ENDMDL
