MODEL 1
REMARK minimizedAffinity 4.33562279
REMARK minimizedRMSD -1
REMARK  0 active torsions:
REMARK  status: ('A' for Active; 'I' for Inactive)
ROOT
ATOM      1  C   UNL d   1       1.082   1.961  -0.440  0.00  0.00     0.172 C 
ATOM      2  N   UNL d   1       1.491   0.766   0.260  0.00  0.00    -0.070 N 
ATOM      3  C1  UNL d   1       0.686  -0.302   0.554  0.00  0.00    -0.004 A 
ATOM      4  C2  UNL d   1       1.449  -1.233   1.225  0.00  0.00    -0.047 A 
ATOM      5  C3  UNL d   1       2.758  -0.706   1.338  0.00  0.00    -0.047 A 
ATOM      6  C4  UNL d   1       2.755   0.532   0.732  0.00  0.00    -0.004 A 
ENDROOT
TORSDOF 0
ENDMDL
