MODEL 1
REMARK minimizedAffinity 12.95261
REMARK minimizedRMSD -1
REMARK  0 active torsions:
REMARK  status: ('A' for Active; 'I' for Inactive)
ROOT
ATOM      1  C   UNL d   1       4.012  -1.136   0.278  0.00  0.00     0.172 C 
ATOM      2  N   UNL d   1       4.452  -0.685  -1.021  0.00  0.00    -0.070 N 
ATOM      3  C1  UNL d   1       4.947  -1.483  -2.018  0.00  0.00    -0.004 A 
ATOM      4  C2  UNL d   1       5.250  -0.677  -3.093  0.00  0.00    -0.047 A 
ATOM      5  C3  UNL d   1       4.927   0.652  -2.730  0.00  0.00    -0.047 A 
ATOM      6  C4  UNL d   1       4.435   0.618  -1.442  0.00  0.00    -0.004 A 
ENDROOT
TORSDOF 0
ENDMDL
