MODEL 1
REMARK minimizedAffinity -0.883095801
REMARK minimizedRMSD -1
REMARK  0 active torsions:
REMARK  status: ('A' for Active; 'I' for Inactive)
ROOT
ATOM      1  C   UNL d   1       3.131  -4.733  -5.995  0.00  0.00     0.172 C 
ATOM      2  N   UNL d   1       1.910  -5.042  -5.289  0.00  0.00    -0.070 N 
ATOM      3  C1  UNL d   1       1.474  -4.431  -4.144  0.00  0.00    -0.004 A 
ATOM      4  C2  UNL d   1       0.273  -5.007  -3.789  0.00  0.00    -0.047 A 
ATOM      5  C3  UNL d   1      -0.022  -5.999  -4.755  0.00  0.00    -0.047 A 
ATOM      6  C4  UNL d   1       1.008  -5.999  -5.672  0.00  0.00    -0.004 A 
ENDROOT
TORSDOF 0
ENDMDL
