MODEL 1
REMARK minimizedAffinity 6.67546749
REMARK minimizedRMSD -1
REMARK  0 active torsions:
REMARK  status: ('A' for Active; 'I' for Inactive)
ROOT
ATOM      1  C   UNL d   1      -2.135   2.548  -2.523  0.00  0.00     0.172 C 
ATOM      2  N   UNL d   1      -0.799   2.482  -1.980  0.00  0.00    -0.070 N 
ATOM      3  C1  UNL d   1      -0.481   2.416  -0.649  0.00  0.00    -0.004 A 
ATOM      4  C2  UNL d   1       0.893   2.367  -0.546  0.00  0.00    -0.047 A 
ATOM      5  C3  UNL d   1       1.418   2.407  -1.860  0.00  0.00    -0.047 A 
ATOM      6  C4  UNL d   1       0.349   2.478  -2.727  0.00  0.00    -0.004 A 
ENDROOT
TORSDOF 0
ENDMDL
