MODEL 1
REMARK minimizedAffinity 6.15086985
REMARK minimizedRMSD -1
REMARK  0 active torsions:
REMARK  status: ('A' for Active; 'I' for Inactive)
ROOT
ATOM      1  C   UNL d   1       2.614  -6.000  -5.991  0.00  0.00     0.172 C 
ATOM      2  N   UNL d   1       1.871  -5.367  -4.928  0.00  0.00    -0.070 N 
ATOM      3  C1  UNL d   1       1.349  -6.000  -3.831  0.00  0.00    -0.004 A 
ATOM      4  C2  UNL d   1       0.716  -5.051  -3.057  0.00  0.00    -0.047 A 
ATOM      5  C3  UNL d   1       0.862  -3.805  -3.711  0.00  0.00    -0.047 A 
ATOM      6  C4  UNL d   1       1.581  -4.029  -4.867  0.00  0.00    -0.004 A 
ENDROOT
TORSDOF 0
ENDMDL
