MODEL 1
REMARK minimizedAffinity 3.1053865
REMARK minimizedRMSD -1
REMARK  0 active torsions:
REMARK  status: ('A' for Active; 'I' for Inactive)
ROOT
ATOM      1  C   UNL d   1       1.870  -6.000  -5.716  0.00  0.00     0.172 C 
ATOM      2  N   UNL d   1       1.449  -5.359  -4.492  0.00  0.00    -0.070 N 
ATOM      3  C1  UNL d   1       1.001  -6.000  -3.368  0.00  0.00    -0.004 A 
ATOM      4  C2  UNL d   1       0.700  -5.039  -2.427  0.00  0.00    -0.047 A 
ATOM      5  C3  UNL d   1       0.975  -3.778  -3.005  0.00  0.00    -0.047 A 
ATOM      6  C4  UNL d   1       1.438  -4.005  -4.284  0.00  0.00    -0.004 A 
ENDROOT
TORSDOF 0
ENDMDL
