MODEL 1
REMARK minimizedAffinity 3.14342952
REMARK minimizedRMSD -1
REMARK  0 active torsions:
REMARK  status: ('A' for Active; 'I' for Inactive)
ROOT
ATOM      1  C   UNL d   1       1.401  -0.955   1.467  0.00  0.00     0.172 C 
ATOM      2  N   UNL d   1       1.100  -0.772   2.867  0.00  0.00    -0.070 N 
ATOM      3  C1  UNL d   1       2.018  -0.546   3.858  0.00  0.00    -0.004 A 
ATOM      4  C2  UNL d   1       1.333  -0.428   5.048  0.00  0.00    -0.047 A 
ATOM      5  C3  UNL d   1      -0.044  -0.589   4.763  0.00  0.00    -0.047 A 
ATOM      6  C4  UNL d   1      -0.160  -0.801   3.405  0.00  0.00    -0.004 A 
ENDROOT
TORSDOF 0
ENDMDL
