MODEL 1
REMARK minimizedAffinity 4.44928074
REMARK minimizedRMSD -1
REMARK  0 active torsions:
REMARK  status: ('A' for Active; 'I' for Inactive)
ROOT
ATOM      1  C   UNL d   1      -4.876  -6.000  -1.255  0.00  0.00     0.172 C 
ATOM      2  N   UNL d   1      -4.785  -5.390   0.051  0.00  0.00    -0.070 N 
ATOM      3  C1  UNL d   1      -4.329  -4.126   0.312  0.00  0.00    -0.004 A 
ATOM      4  C2  UNL d   1      -4.401  -3.924   1.673  0.00  0.00    -0.047 A 
ATOM      5  C3  UNL d   1      -4.919  -5.108   2.250  0.00  0.00    -0.047 A 
ATOM      6  C4  UNL d   1      -5.147  -5.999   1.223  0.00  0.00    -0.004 A 
ENDROOT
TORSDOF 0
ENDMDL
