MODEL 1
REMARK minimizedAffinity -2.50507903
REMARK minimizedRMSD -1
REMARK  0 active torsions:
REMARK  status: ('A' for Active; 'I' for Inactive)
ROOT
ATOM      1  C   UNL d   1      -5.915  -2.487   5.988  0.00  0.00     0.172 C 
ATOM      2  N   UNL d   1      -5.526  -3.791   5.507  0.00  0.00    -0.070 N 
ATOM      3  C1  UNL d   1      -6.000  -4.988   5.972  0.00  0.00    -0.004 A 
ATOM      4  C2  UNL d   1      -5.385  -5.993   5.257  0.00  0.00    -0.047 A 
ATOM      5  C3  UNL d   1      -4.510  -5.378   4.330  0.00  0.00    -0.047 A 
ATOM      6  C4  UNL d   1      -4.617  -4.015   4.506  0.00  0.00    -0.004 A 
ENDROOT
TORSDOF 0
ENDMDL
