MODEL 1
REMARK minimizedAffinity 12.3817425
REMARK minimizedRMSD -1
REMARK  1 active torsions:
REMARK  status: ('A' for Active; 'I' for Inactive)
REMARK    1  A    between atoms: C1_2  and  C2_3 
ROOT
ATOM      1  C2  UNL d   1       4.933   5.733  -3.994  0.00  0.00    -0.081 A 
ATOM      2  C3  UNL d   1       3.617   5.474  -3.589  0.00  0.00     0.006 A 
ATOM      3  C4  UNL d   1       3.278   5.483  -2.234  0.00  0.00     0.002 A 
ATOM      4  C5  UNL d   1       4.246   5.758  -1.262  0.00  0.00    -0.080 A 
ATOM      5  C6  UNL d   1       3.889   5.801   0.194  0.00  0.00     0.076 C 
ATOM      6  C7  UNL d   1       5.564   5.999  -1.665  0.00  0.00     0.002 A 
ATOM      7  C8  UNL d   1       5.904   5.990  -3.020  0.00  0.00     0.006 A 
ENDROOT
BRANCH   1   8
ATOM      8  C1  UNL d   1       5.288   5.788  -5.458  0.00  0.00     0.054 C 
ATOM      9  C   UNL d   1       5.949   4.496  -5.916  0.00  0.00     0.018 C 
ENDBRANCH   1   8
TORSDOF 1
ENDMDL
