MODEL 1
REMARK minimizedAffinity -1.5766387
REMARK minimizedRMSD -1
REMARK  1 active torsions:
REMARK  status: ('A' for Active; 'I' for Inactive)
REMARK    1  A    between atoms: C1_2  and  C2_3 
ROOT
ATOM      1  C2  UNL d   1       3.752   4.827  -2.470  0.00  0.00    -0.081 A 
ATOM      2  C3  UNL d   1       3.309   4.454  -3.744  0.00  0.00     0.006 A 
ATOM      3  C4  UNL d   1       4.019   4.842  -4.883  0.00  0.00     0.002 A 
ATOM      4  C5  UNL d   1       5.188   5.602  -4.765  0.00  0.00    -0.080 A 
ATOM      5  C6  UNL d   1       5.976   6.000  -5.978  0.00  0.00     0.076 C 
ATOM      6  C7  UNL d   1       5.620   5.991  -3.493  0.00  0.00     0.002 A 
ATOM      7  C8  UNL d   1       4.910   5.604  -2.354  0.00  0.00     0.006 A 
ENDROOT
BRANCH   1   8
ATOM      8  C1  UNL d   1       3.023   4.356  -1.237  0.00  0.00     0.054 C 
ATOM      9  C   UNL d   1       1.517   4.499  -1.395  0.00  0.00     0.018 C 
ENDBRANCH   1   8
TORSDOF 1
ENDMDL
