MODEL 1
REMARK minimizedAffinity 13.5192814
REMARK minimizedRMSD -1
REMARK  1 active torsions:
REMARK  status: ('A' for Active; 'I' for Inactive)
REMARK    1  A    between atoms: C1_2  and  C2_3 
ROOT
ATOM      1  C2  UNL d   1       1.325   2.137   1.922  0.00  0.00    -0.081 A 
ATOM      2  C3  UNL d   1       0.853   0.889   1.498  0.00  0.00     0.006 A 
ATOM      3  C4  UNL d   1      -0.411   0.770   0.915  0.00  0.00     0.002 A 
ATOM      4  C5  UNL d   1      -1.220   1.898   0.740  0.00  0.00    -0.080 A 
ATOM      5  C6  UNL d   1      -2.567   1.789   0.088  0.00  0.00     0.076 C 
ATOM      6  C7  UNL d   1      -0.756   3.142   1.179  0.00  0.00     0.002 A 
ATOM      7  C8  UNL d   1       0.508   3.261   1.762  0.00  0.00     0.006 A 
ENDROOT
BRANCH   1   8
ATOM      8  C1  UNL d   1       2.714   2.278   2.491  0.00  0.00     0.054 C 
ATOM      9  C   UNL d   1       2.672   2.637   3.969  0.00  0.00     0.018 C 
ENDBRANCH   1   8
TORSDOF 1
ENDMDL
