MODEL 1
REMARK minimizedAffinity 0.445173591
REMARK minimizedRMSD -1
REMARK  1 active torsions:
REMARK  status: ('A' for Active; 'I' for Inactive)
REMARK    1  A    between atoms: C1_2  and  C2_3 
ROOT
ATOM      1  C2  UNL d   1       1.841  -0.903   1.959  0.00  0.00    -0.081 A 
ATOM      2  C3  UNL d   1       3.065  -0.812   1.286  0.00  0.00     0.006 A 
ATOM      3  C4  UNL d   1       3.541   0.426   0.847  0.00  0.00     0.002 A 
ATOM      4  C5  UNL d   1       2.807   1.593   1.082  0.00  0.00    -0.080 A 
ATOM      5  C6  UNL d   1       3.322   2.932   0.643  0.00  0.00     0.076 C 
ATOM      6  C7  UNL d   1       1.576   1.500   1.739  0.00  0.00     0.002 A 
ATOM      7  C8  UNL d   1       1.098   0.263   2.177  0.00  0.00     0.006 A 
ENDROOT
BRANCH   1   8
ATOM      8  C1  UNL d   1       1.355  -2.227   2.490  0.00  0.00     0.054 C 
ATOM      9  C   UNL d   1       0.655  -2.062   3.832  0.00  0.00     0.018 C 
ENDBRANCH   1   8
TORSDOF 1
ENDMDL
