MODEL 1
REMARK minimizedAffinity 4.9804492
REMARK minimizedRMSD -1
REMARK  1 active torsions:
REMARK  status: ('A' for Active; 'I' for Inactive)
REMARK    1  A    between atoms: C1_2  and  C2_3 
ROOT
ATOM      1  C2  UNL d   1       2.094   1.455  -1.387  0.00  0.00    -0.077 A 
ATOM      2  C3  UNL d   1       2.299   1.352  -0.004  0.00  0.00     0.002 A 
ATOM      3  C4  UNL d   1       2.073   2.451   0.827  0.00  0.00     0.002 A 
ATOM      4  C5  UNL d   1       1.638   3.659   0.286  0.00  0.00    -0.004 A 
ATOM      5  C6  UNL d   1       1.433   3.772  -1.089  0.00  0.00     0.002 A 
ATOM      6  C7  UNL d   1       1.659   2.675  -1.921  0.00  0.00     0.002 A 
ENDROOT
BRANCH   1   7
ATOM      7  C1  UNL d   1       2.289   0.257  -2.279  0.00  0.00     0.055 C 
ATOM      8  C   UNL d   1       1.294   0.256  -3.431  0.00  0.00     0.019 C 
ENDBRANCH   1   7
TORSDOF 1
ENDMDL
