MODEL 1
REMARK minimizedAffinity 12.1274891
REMARK minimizedRMSD -1
REMARK  1 active torsions:
REMARK  status: ('A' for Active; 'I' for Inactive)
REMARK    1  A    between atoms: C1_2  and  C2_3 
ROOT
ATOM      1  C2  UNL d   1       0.203  -2.787  -1.784  0.00  0.00    -0.077 A 
ATOM      2  C3  UNL d   1       0.046  -2.270  -0.490  0.00  0.00     0.002 A 
ATOM      3  C4  UNL d   1       0.717  -1.107  -0.108  0.00  0.00     0.002 A 
ATOM      4  C5  UNL d   1       1.546  -0.449  -1.014  0.00  0.00    -0.004 A 
ATOM      5  C6  UNL d   1       1.711  -0.956  -2.302  0.00  0.00     0.002 A 
ATOM      6  C7  UNL d   1       1.042  -2.119  -2.686  0.00  0.00     0.002 A 
ENDROOT
BRANCH   1   7
ATOM      7  C1  UNL d   1      -0.558  -4.013  -2.214  0.00  0.00     0.055 C 
ATOM      8  C   UNL d   1      -0.643  -4.109  -3.730  0.00  0.00     0.019 C 
ENDBRANCH   1   7
TORSDOF 1
ENDMDL
