MODEL 1
REMARK minimizedAffinity 16.5858746
REMARK minimizedRMSD -1
REMARK  1 active torsions:
REMARK  status: ('A' for Active; 'I' for Inactive)
REMARK    1  A    between atoms: C1_2  and  C2_3 
ROOT
ATOM      1  C2  UNL d   1      -4.159   0.631   3.772  0.00  0.00    -0.077 A 
ATOM      2  C3  UNL d   1      -5.218   0.230   2.944  0.00  0.00     0.002 A 
ATOM      3  C4  UNL d   1      -5.992  -0.884   3.277  0.00  0.00     0.002 A 
ATOM      4  C5  UNL d   1      -5.718  -1.602   4.439  0.00  0.00    -0.004 A 
ATOM      5  C6  UNL d   1      -4.666  -1.212   5.268  0.00  0.00     0.002 A 
ATOM      6  C7  UNL d   1      -3.891  -0.101   4.936  0.00  0.00     0.002 A 
ENDROOT
BRANCH   1   7
ATOM      7  C1  UNL d   1      -3.355   1.860   3.440  0.00  0.00     0.055 C 
ATOM      8  C   UNL d   1      -3.575   2.960   4.468  0.00  0.00     0.019 C 
ENDBRANCH   1   7
TORSDOF 1
ENDMDL
