MODEL 1
REMARK minimizedAffinity 11.598033
REMARK minimizedRMSD -1
REMARK  1 active torsions:
REMARK  status: ('A' for Active; 'I' for Inactive)
REMARK    1  A    between atoms: C1_2  and  C2_3 
ROOT
ATOM      1  C2  UNL d   1      -3.368   1.369   5.224  0.00  0.00    -0.077 A 
ATOM      2  C3  UNL d   1      -3.552   1.465   3.837  0.00  0.00     0.002 A 
ATOM      3  C4  UNL d   1      -4.126   0.409   3.126  0.00  0.00     0.002 A 
ATOM      4  C5  UNL d   1      -4.523  -0.748   3.793  0.00  0.00    -0.004 A 
ATOM      5  C6  UNL d   1      -4.342  -0.854   5.171  0.00  0.00     0.002 A 
ATOM      6  C7  UNL d   1      -3.768   0.200   5.884  0.00  0.00     0.002 A 
ENDROOT
BRANCH   1   7
ATOM      7  C1  UNL d   1      -2.795   2.526   6.000  0.00  0.00     0.055 C 
ATOM      8  C   UNL d   1      -1.274   2.494   5.998  0.00  0.00     0.019 C 
ENDBRANCH   1   7
TORSDOF 1
ENDMDL
