MODEL 1
REMARK minimizedAffinity 18.353014
REMARK minimizedRMSD -1
REMARK  1 active torsions:
REMARK  status: ('A' for Active; 'I' for Inactive)
REMARK    1  A    between atoms: C1_2  and  C2_3 
ROOT
ATOM      1  C2  UNL d   1      -1.159   1.241   3.663  0.00  0.00    -0.077 A 
ATOM      2  C3  UNL d   1      -0.783   1.280   5.013  0.00  0.00     0.002 A 
ATOM      3  C4  UNL d   1      -1.723   1.582   6.000  0.00  0.00     0.002 A 
ATOM      4  C5  UNL d   1      -3.045   1.843   5.649  0.00  0.00    -0.004 A 
ATOM      5  C6  UNL d   1      -3.430   1.808   4.309  0.00  0.00     0.002 A 
ATOM      6  C7  UNL d   1      -2.491   1.508   3.320  0.00  0.00     0.002 A 
ENDROOT
BRANCH   1   7
ATOM      7  C1  UNL d   1      -0.158   0.867   2.601  0.00  0.00     0.055 C 
ATOM      8  C   UNL d   1      -0.118  -0.639   2.384  0.00  0.00     0.019 C 
ENDBRANCH   1   7
TORSDOF 1
ENDMDL
