MODEL 1
REMARK minimizedAffinity 16.3702297
REMARK minimizedRMSD -1
REMARK  1 active torsions:
REMARK  status: ('A' for Active; 'I' for Inactive)
REMARK    1  A    between atoms: C1_2  and  C2_3 
ROOT
ATOM      1  C2  UNL d   1       1.184  -0.724  -1.019  0.00  0.00    -0.077 A 
ATOM      2  C3  UNL d   1       2.416  -0.611  -0.358  0.00  0.00     0.002 A 
ATOM      3  C4  UNL d   1       3.316   0.396  -0.710  0.00  0.00     0.002 A 
ATOM      4  C5  UNL d   1       2.994   1.300  -1.719  0.00  0.00    -0.004 A 
ATOM      5  C6  UNL d   1       1.773   1.196  -2.384  0.00  0.00     0.002 A 
ATOM      6  C7  UNL d   1       0.872   0.189  -2.035  0.00  0.00     0.002 A 
ENDROOT
BRANCH   1   7
ATOM      7  C1  UNL d   1       0.191  -1.779  -0.608  0.00  0.00     0.055 C 
ATOM      8  C   UNL d   1      -0.064  -1.745   0.892  0.00  0.00     0.019 C 
ENDBRANCH   1   7
TORSDOF 1
ENDMDL
