MODEL 1
REMARK minimizedAffinity 7.0462966
REMARK minimizedRMSD -1
REMARK  1 active torsions:
REMARK  status: ('A' for Active; 'I' for Inactive)
REMARK    1  A    between atoms: C1_2  and  C2_3 
ROOT
ATOM      1  C2  UNL d   1      -1.428  -2.932  -1.217  0.00  0.00    -0.077 A 
ATOM      2  C3  UNL d   1      -0.482  -1.914  -1.033  0.00  0.00     0.002 A 
ATOM      3  C4  UNL d   1      -0.072  -1.556   0.253  0.00  0.00     0.002 A 
ATOM      4  C5  UNL d   1      -0.599  -2.213   1.363  0.00  0.00    -0.004 A 
ATOM      5  C6  UNL d   1      -1.542  -3.225   1.189  0.00  0.00     0.002 A 
ATOM      6  C7  UNL d   1      -1.954  -3.584  -0.095  0.00  0.00     0.002 A 
ENDROOT
BRANCH   1   7
ATOM      7  C1  UNL d   1      -1.835  -3.353  -2.605  0.00  0.00     0.055 C 
ATOM      8  C   UNL d   1      -0.703  -4.079  -3.318  0.00  0.00     0.019 C 
ENDBRANCH   1   7
TORSDOF 1
ENDMDL
