MODEL 1
REMARK minimizedAffinity 8.44317818
REMARK minimizedRMSD -1
REMARK  1 active torsions:
REMARK  status: ('A' for Active; 'I' for Inactive)
REMARK    1  A    between atoms: C1_2  and  C2_3 
ROOT
ATOM      1  C2  UNL d   1       1.198   1.600   3.574  0.00  0.00    -0.077 A 
ATOM      2  C3  UNL d   1       1.652   1.073   4.792  0.00  0.00     0.002 A 
ATOM      3  C4  UNL d   1       1.100   1.506   5.999  0.00  0.00     0.002 A 
ATOM      4  C5  UNL d   1       0.089   2.465   6.000  0.00  0.00    -0.004 A 
ATOM      5  C6  UNL d   1      -0.367   2.997   4.795  0.00  0.00     0.002 A 
ATOM      6  C7  UNL d   1       0.184   2.566   3.587  0.00  0.00     0.002 A 
ENDROOT
BRANCH   1   7
ATOM      7  C1  UNL d   1       1.758   1.098   2.269  0.00  0.00     0.055 C 
ATOM      8  C   UNL d   1       3.004   1.873   1.866  0.00  0.00     0.019 C 
ENDBRANCH   1   7
TORSDOF 1
ENDMDL
