MODEL 1
REMARK minimizedAffinity 13.5798292
REMARK minimizedRMSD -1
REMARK  1 active torsions:
REMARK  status: ('A' for Active; 'I' for Inactive)
REMARK    1  A    between atoms: C1_2  and  C2_3 
ROOT
ATOM      1  C2  UNL d   1       1.928   2.303  -1.550  0.00  0.00    -0.077 A 
ATOM      2  C3  UNL d   1       1.294   1.485  -2.496  0.00  0.00     0.002 A 
ATOM      3  C4  UNL d   1       1.576   0.119  -2.551  0.00  0.00     0.002 A 
ATOM      4  C5  UNL d   1       2.489  -0.442  -1.661  0.00  0.00    -0.004 A 
ATOM      5  C6  UNL d   1       3.126   0.363  -0.717  0.00  0.00     0.002 A 
ATOM      6  C7  UNL d   1       2.847   1.729  -0.661  0.00  0.00     0.002 A 
ENDROOT
BRANCH   1   7
ATOM      7  C1  UNL d   1       1.588   3.767  -1.456  0.00  0.00     0.055 C 
ATOM      8  C   UNL d   1       1.507   4.226  -0.007  0.00  0.00     0.019 C 
ENDBRANCH   1   7
TORSDOF 1
ENDMDL
