MODEL 1
REMARK minimizedAffinity -4.01575184
REMARK minimizedRMSD -1
REMARK  1 active torsions:
REMARK  status: ('A' for Active; 'I' for Inactive)
REMARK    1  A    between atoms: C1_2  and  C2_3 
ROOT
ATOM      1  C2  UNL d   1       0.241  -0.340   0.564  0.00  0.00    -0.077 A 
ATOM      2  C3  UNL d   1       0.678  -1.212  -0.443  0.00  0.00     0.002 A 
ATOM      3  C4  UNL d   1       1.568  -0.769  -1.423  0.00  0.00     0.002 A 
ATOM      4  C5  UNL d   1       2.032   0.544  -1.403  0.00  0.00    -0.004 A 
ATOM      5  C6  UNL d   1       1.602   1.420  -0.407  0.00  0.00     0.002 A 
ATOM      6  C7  UNL d   1       0.711   0.980   0.573  0.00  0.00     0.002 A 
ENDROOT
BRANCH   1   7
ATOM      7  C1  UNL d   1      -0.681  -0.829   1.651  0.00  0.00     0.055 C 
ATOM      8  C   UNL d   1      -1.862   0.112   1.840  0.00  0.00     0.019 C 
ENDBRANCH   1   7
TORSDOF 1
ENDMDL
