MODEL 1
REMARK minimizedAffinity 0.141175374
REMARK minimizedRMSD -1
REMARK  1 active torsions:
REMARK  status: ('A' for Active; 'I' for Inactive)
REMARK    1  A    between atoms: C1_2  and  C2_3 
ROOT
ATOM      1  C2  UNL d   1      -4.620   3.772  -5.586  0.00  0.00    -0.077 A 
ATOM      2  C3  UNL d   1      -3.517   2.936  -5.361  0.00  0.00     0.002 A 
ATOM      3  C4  UNL d   1      -3.657   1.549  -5.427  0.00  0.00     0.002 A 
ATOM      4  C5  UNL d   1      -4.896   0.985  -5.723  0.00  0.00    -0.004 A 
ATOM      5  C6  UNL d   1      -6.000   1.808  -5.947  0.00  0.00     0.002 A 
ATOM      6  C7  UNL d   1      -5.862   3.195  -5.880  0.00  0.00     0.002 A 
ENDROOT
BRANCH   1   7
ATOM      7  C1  UNL d   1      -4.461   5.270  -5.563  0.00  0.00     0.055 C 
ATOM      8  C   UNL d   1      -5.757   5.970  -5.942  0.00  0.00     0.019 C 
ENDBRANCH   1   7
TORSDOF 1
ENDMDL
