MODEL 1
REMARK minimizedAffinity -2.6111474
REMARK minimizedRMSD -1
REMARK  1 active torsions:
REMARK  status: ('A' for Active; 'I' for Inactive)
REMARK    1  A    between atoms: C1_2  and  C2_3 
ROOT
ATOM      1  C2  UNL d   1       1.354  -2.264  -2.117  0.00  0.00    -0.077 A 
ATOM      2  C3  UNL d   1       2.634  -2.449  -2.659  0.00  0.00     0.002 A 
ATOM      3  C4  UNL d   1       3.107  -1.598  -3.659  0.00  0.00     0.002 A 
ATOM      4  C5  UNL d   1       2.310  -0.553  -4.122  0.00  0.00    -0.004 A 
ATOM      5  C6  UNL d   1       1.035  -0.362  -3.591  0.00  0.00     0.002 A 
ATOM      6  C7  UNL d   1       0.560  -1.213  -2.592  0.00  0.00     0.002 A 
ENDROOT
BRANCH   1   7
ATOM      7  C1  UNL d   1       0.861  -3.151  -1.004  0.00  0.00     0.055 C 
ATOM      8  C   UNL d   1       0.198  -2.339   0.099  0.00  0.00     0.019 C 
ENDBRANCH   1   7
TORSDOF 1
ENDMDL
