MODEL 1
REMARK minimizedAffinity 11.5364399
REMARK minimizedRMSD -1
REMARK  0 active torsions:
REMARK  status: ('A' for Active; 'I' for Inactive)
ROOT
ATOM      1  C   UNL d   1      -6.000   3.384  -3.636  0.00  0.00     0.077 C 
ATOM      2  C1  UNL d   1      -5.332   2.204  -2.995  0.00  0.00    -0.074 A 
ATOM      3  C2  UNL d   1      -5.996   1.439  -2.031  0.00  0.00    -0.005 A 
ATOM      4  C3  UNL d   1      -5.366   0.338  -1.450  0.00  0.00     0.006 A 
ATOM      5  C4  UNL d   1      -4.068  -0.007  -1.826  0.00  0.00    -0.005 A 
ATOM      6  C5  UNL d   1      -3.388   0.746  -2.789  0.00  0.00    -0.074 A 
ATOM      7  C6  UNL d   1      -1.996   0.382  -3.212  0.00  0.00     0.077 C 
ATOM      8  C7  UNL d   1      -4.031   1.846  -3.373  0.00  0.00    -0.001 A 
ENDROOT
TORSDOF 0
ENDMDL
