MODEL 1
REMARK minimizedAffinity 0.980792642
REMARK minimizedRMSD -1
REMARK  0 active torsions:
REMARK  status: ('A' for Active; 'I' for Inactive)
ROOT
ATOM      1  C   UNL d   1       5.428   2.663  -0.078  0.00  0.00     0.077 C 
ATOM      2  C1  UNL d   1       4.390   1.581  -0.116  0.00  0.00    -0.074 A 
ATOM      3  C2  UNL d   1       4.691   0.314  -0.626  0.00  0.00    -0.005 A 
ATOM      4  C3  UNL d   1       3.719  -0.686  -0.645  0.00  0.00     0.006 A 
ATOM      5  C4  UNL d   1       2.438  -0.430  -0.155  0.00  0.00    -0.005 A 
ATOM      6  C5  UNL d   1       2.118   0.831   0.359  0.00  0.00    -0.074 A 
ATOM      7  C6  UNL d   1       0.749   1.121   0.898  0.00  0.00     0.077 C 
ATOM      8  C7  UNL d   1       3.103   1.828   0.382  0.00  0.00    -0.001 A 
ENDROOT
TORSDOF 0
ENDMDL
