MODEL 1
REMARK minimizedAffinity 5.15467072
REMARK minimizedRMSD -1
REMARK  0 active torsions:
REMARK  status: ('A' for Active; 'I' for Inactive)
ROOT
ATOM      1  C   UNL d   1      -2.391   2.981   2.126  0.00  0.00     0.077 C 
ATOM      2  C1  UNL d   1      -1.149   2.139   2.131  0.00  0.00    -0.074 A 
ATOM      3  C2  UNL d   1      -0.606   1.666   3.330  0.00  0.00    -0.005 A 
ATOM      4  C3  UNL d   1       0.544   0.876   3.318  0.00  0.00     0.006 A 
ATOM      5  C4  UNL d   1       1.161   0.552   2.109  0.00  0.00    -0.005 A 
ATOM      6  C5  UNL d   1       0.631   1.015   0.900  0.00  0.00    -0.074 A 
ATOM      7  C6  UNL d   1       1.277   0.667  -0.409  0.00  0.00     0.077 C 
ATOM      8  C7  UNL d   1      -0.528   1.802   0.920  0.00  0.00    -0.001 A 
ENDROOT
TORSDOF 0
ENDMDL
