MODEL 1
REMARK minimizedAffinity 10.151598
REMARK minimizedRMSD -1
REMARK  0 active torsions:
REMARK  status: ('A' for Active; 'I' for Inactive)
ROOT
ATOM      1  C   UNL d   1       0.423   1.579   3.796  0.00  0.00     0.077 C 
ATOM      2  C1  UNL d   1       0.548   1.548   2.302  0.00  0.00    -0.074 A 
ATOM      3  C2  UNL d   1      -0.565   1.768   1.483  0.00  0.00    -0.005 A 
ATOM      4  C3  UNL d   1      -0.431   1.746   0.094  0.00  0.00     0.006 A 
ATOM      5  C4  UNL d   1       0.814   1.504  -0.488  0.00  0.00    -0.005 A 
ATOM      6  C5  UNL d   1       1.937   1.284   0.315  0.00  0.00    -0.074 A 
ATOM      7  C6  UNL d   1       3.285   1.033  -0.295  0.00  0.00     0.077 C 
ATOM      8  C7  UNL d   1       1.796   1.314   1.709  0.00  0.00    -0.001 A 
ENDROOT
TORSDOF 0
ENDMDL
