MODEL 1
REMARK minimizedAffinity 5.22683859
REMARK minimizedRMSD -1
REMARK  0 active torsions:
REMARK  status: ('A' for Active; 'I' for Inactive)
ROOT
ATOM      1  C   UNL d   1       0.167  -3.088  -1.599  0.00  0.00     0.077 C 
ATOM      2  C1  UNL d   1       1.266  -2.377  -0.867  0.00  0.00    -0.074 A 
ATOM      3  C2  UNL d   1       1.595  -2.725   0.447  0.00  0.00    -0.005 A 
ATOM      4  C3  UNL d   1       2.626  -2.061   1.113  0.00  0.00     0.006 A 
ATOM      5  C4  UNL d   1       3.336  -1.045   0.472  0.00  0.00    -0.005 A 
ATOM      6  C5  UNL d   1       3.021  -0.684  -0.842  0.00  0.00    -0.074 A 
ATOM      7  C6  UNL d   1       3.781   0.399  -1.548  0.00  0.00     0.077 C 
ATOM      8  C7  UNL d   1       1.989  -1.361  -1.506  0.00  0.00    -0.001 A 
ENDROOT
TORSDOF 0
ENDMDL
