MODEL 1
REMARK minimizedAffinity 2.09122682
REMARK minimizedRMSD -1
REMARK  0 active torsions:
REMARK  status: ('A' for Active; 'I' for Inactive)
ROOT
ATOM      1  C   UNL d   1       5.123   1.683  -0.692  0.00  0.00     0.077 C 
ATOM      2  C1  UNL d   1       4.371   0.412  -0.954  0.00  0.00    -0.074 A 
ATOM      3  C2  UNL d   1       4.378  -0.179  -2.222  0.00  0.00    -0.005 A 
ATOM      4  C3  UNL d   1       3.682  -1.366  -2.449  0.00  0.00     0.006 A 
ATOM      5  C4  UNL d   1       2.973  -1.973  -1.412  0.00  0.00    -0.005 A 
ATOM      6  C5  UNL d   1       2.954  -1.398  -0.138  0.00  0.00    -0.074 A 
ATOM      7  C6  UNL d   1       2.205  -2.043   0.990  0.00  0.00     0.077 C 
ATOM      8  C7  UNL d   1       3.662  -0.208   0.084  0.00  0.00    -0.001 A 
ENDROOT
TORSDOF 0
ENDMDL
