MODEL 1
REMARK minimizedAffinity 8.63903332
REMARK minimizedRMSD -1
REMARK  0 active torsions:
REMARK  status: ('A' for Active; 'I' for Inactive)
ROOT
ATOM      1  C   UNL d   1       6.000  -0.761   1.755  0.00  0.00     0.077 C 
ATOM      2  C1  UNL d   1       4.897  -0.480   0.778  0.00  0.00    -0.074 A 
ATOM      3  C2  UNL d   1       4.847   0.730   0.079  0.00  0.00    -0.005 A 
ATOM      4  C3  UNL d   1       3.820   0.974  -0.834  0.00  0.00     0.006 A 
ATOM      5  C4  UNL d   1       2.834   0.011  -1.055  0.00  0.00    -0.005 A 
ATOM      6  C5  UNL d   1       2.868  -1.205  -0.366  0.00  0.00    -0.074 A 
ATOM      7  C6  UNL d   1       1.822  -2.254  -0.599  0.00  0.00     0.077 C 
ATOM      8  C7  UNL d   1       3.907  -1.445   0.544  0.00  0.00    -0.001 A 
ENDROOT
TORSDOF 0
ENDMDL
