MODEL 1
REMARK minimizedAffinity 5.79455423
REMARK minimizedRMSD -1
REMARK  0 active torsions:
REMARK  status: ('A' for Active; 'I' for Inactive)
ROOT
ATOM      1  C   UNL d   1       5.993  -1.547   1.675  0.00  0.00     0.077 C 
ATOM      2  C1  UNL d   1       5.315  -0.647   0.684  0.00  0.00    -0.074 A 
ATOM      3  C2  UNL d   1       5.999   0.425   0.101  0.00  0.00    -0.005 A 
ATOM      4  C3  UNL d   1       5.359   1.247  -0.826  0.00  0.00     0.006 A 
ATOM      5  C4  UNL d   1       4.031   1.006  -1.179  0.00  0.00    -0.005 A 
ATOM      6  C5  UNL d   1       3.331  -0.062  -0.608  0.00  0.00    -0.074 A 
ATOM      7  C6  UNL d   1       1.906  -0.341  -0.984  0.00  0.00     0.077 C 
ATOM      8  C7  UNL d   1       3.984  -0.888   0.318  0.00  0.00    -0.001 A 
ENDROOT
TORSDOF 0
ENDMDL
