MODEL 1
REMARK minimizedAffinity 3.31760979
REMARK minimizedRMSD -1
REMARK  0 active torsions:
REMARK  status: ('A' for Active; 'I' for Inactive)
ROOT
ATOM      1  C   UNL d   1       5.632   1.833   0.023  0.00  0.00     0.077 C 
ATOM      2  C1  UNL d   1       4.925   0.884  -0.898  0.00  0.00    -0.074 A 
ATOM      3  C2  UNL d   1       5.209   0.866  -2.267  0.00  0.00    -0.005 A 
ATOM      4  C3  UNL d   1       4.550  -0.029  -3.111  0.00  0.00     0.006 A 
ATOM      5  C4  UNL d   1       3.602  -0.913  -2.594  0.00  0.00    -0.005 A 
ATOM      6  C5  UNL d   1       3.305  -0.909  -1.227  0.00  0.00    -0.074 A 
ATOM      7  C6  UNL d   1       2.296  -1.860  -0.654  0.00  0.00     0.077 C 
ATOM      8  C7  UNL d   1       3.977  -0.012  -0.386  0.00  0.00    -0.001 A 
ENDROOT
TORSDOF 0
ENDMDL
