MODEL 1
REMARK minimizedAffinity 4.01230192
REMARK minimizedRMSD -1
REMARK  0 active torsions:
REMARK  status: ('A' for Active; 'I' for Inactive)
ROOT
ATOM      1  C   UNL d   1      -5.999   3.377  -3.234  0.00  0.00     0.077 C 
ATOM      2  C1  UNL d   1      -5.184   2.266  -2.640  0.00  0.00    -0.074 A 
ATOM      3  C2  UNL d   1      -5.718   1.430  -1.655  0.00  0.00    -0.005 A 
ATOM      4  C3  UNL d   1      -4.951   0.395  -1.119  0.00  0.00     0.006 A 
ATOM      5  C4  UNL d   1      -3.644   0.187  -1.563  0.00  0.00    -0.005 A 
ATOM      6  C5  UNL d   1      -3.094   1.013  -2.548  0.00  0.00    -0.074 A 
ATOM      7  C6  UNL d   1      -1.694   0.797  -3.042  0.00  0.00     0.077 C 
ATOM      8  C7  UNL d   1      -3.873   2.046  -3.086  0.00  0.00    -0.001 A 
ENDROOT
TORSDOF 0
ENDMDL
