MODEL 1
REMARK minimizedAffinity -4.33509016
REMARK minimizedRMSD -1
REMARK  0 active torsions:
REMARK  status: ('A' for Active; 'I' for Inactive)
ROOT
ATOM      1  C   UNL d   1      -0.029   0.912   0.682  0.00  0.00     0.172 C 
ATOM      2  N   UNL d   1       1.181   0.137   0.826  0.00  0.00    -0.070 N 
ATOM      3  C1  UNL d   1       1.268  -1.110   1.384  0.00  0.00    -0.004 A 
ATOM      4  C2  UNL d   1       2.588  -1.504   1.333  0.00  0.00    -0.047 A 
ATOM      5  C3  UNL d   1       3.319  -0.456   0.725  0.00  0.00    -0.047 A 
ATOM      6  C4  UNL d   1       2.423   0.548   0.421  0.00  0.00    -0.004 A 
ENDROOT
TORSDOF 0
ENDMDL
