MODEL 1
REMARK minimizedAffinity -1.54698765
REMARK minimizedRMSD -1
REMARK  0 active torsions:
REMARK  status: ('A' for Active; 'I' for Inactive)
ROOT
ATOM      1  C   UNL d   1       3.501  -0.815   1.236  0.00  0.00     0.172 C 
ATOM      2  N   UNL d   1       2.268  -0.141   0.900  0.00  0.00    -0.070 N 
ATOM      3  C1  UNL d   1       1.229  -0.684   0.192  0.00  0.00    -0.004 A 
ATOM      4  C2  UNL d   1       0.245   0.274   0.085  0.00  0.00    -0.047 A 
ATOM      5  C3  UNL d   1       0.708   1.434   0.752  0.00  0.00    -0.047 A 
ATOM      6  C4  UNL d   1       1.963   1.149   1.247  0.00  0.00    -0.004 A 
ENDROOT
TORSDOF 0
ENDMDL
