MODEL 1
REMARK minimizedAffinity -3.38786316
REMARK minimizedRMSD -1
REMARK  0 active torsions:
REMARK  status: ('A' for Active; 'I' for Inactive)
ROOT
ATOM      1  C   UNL d   1       3.054  -0.506   0.342  0.00  0.00     0.172 C 
ATOM      2  N   UNL d   1       1.618  -0.361   0.318  0.00  0.00    -0.070 N 
ATOM      3  C1  UNL d   1       0.710  -1.380   0.433  0.00  0.00    -0.004 A 
ATOM      4  C2  UNL d   1      -0.552  -0.831   0.363  0.00  0.00    -0.047 A 
ATOM      5  C3  UNL d   1      -0.397   0.566   0.199  0.00  0.00    -0.047 A 
ATOM      6  C4  UNL d   1       0.956   0.830   0.175  0.00  0.00    -0.004 A 
ENDROOT
TORSDOF 0
ENDMDL
