MODEL 1
REMARK minimizedAffinity -2.94164276
REMARK minimizedRMSD -1
REMARK  0 active torsions:
REMARK  status: ('A' for Active; 'I' for Inactive)
ROOT
ATOM      1  C   UNL d   1       2.891  -0.917   0.729  0.00  0.00     0.172 C 
ATOM      2  N   UNL d   1       1.451  -0.861   0.826  0.00  0.00    -0.070 N 
ATOM      3  C1  UNL d   1       0.644   0.056   0.207  0.00  0.00    -0.004 A 
ATOM      4  C2  UNL d   1      -0.660  -0.229   0.550  0.00  0.00    -0.047 A 
ATOM      5  C3  UNL d   1      -0.635  -1.355   1.407  0.00  0.00    -0.047 A 
ATOM      6  C4  UNL d   1       0.684  -1.725   1.561  0.00  0.00    -0.004 A 
ENDROOT
TORSDOF 0
ENDMDL
