MODEL 1
REMARK minimizedAffinity -1.97304857
REMARK minimizedRMSD -1
REMARK  0 active torsions:
REMARK  status: ('A' for Active; 'I' for Inactive)
ROOT
ATOM      1  C   UNL d   1      -1.393   0.090  -0.007  0.00  0.00     0.172 C 
ATOM      2  N   UNL d   1       0.020   0.088   0.288  0.00  0.00    -0.070 N 
ATOM      3  C1  UNL d   1       0.870   1.151   0.132  0.00  0.00    -0.004 A 
ATOM      4  C2  UNL d   1       2.128   0.746   0.521  0.00  0.00    -0.047 A 
ATOM      5  C3  UNL d   1       2.032  -0.607   0.923  0.00  0.00    -0.047 A 
ATOM      6  C4  UNL d   1       0.716  -0.989   0.769  0.00  0.00    -0.004 A 
ENDROOT
TORSDOF 0
ENDMDL
