MODEL 1
REMARK minimizedAffinity -3.18707633
REMARK minimizedRMSD -1
REMARK  0 active torsions:
REMARK  status: ('A' for Active; 'I' for Inactive)
ROOT
ATOM      1  C   UNL d   1      -0.395  -1.448   1.581  0.00  0.00     0.172 C 
ATOM      2  N   UNL d   1       0.255  -0.294   1.006  0.00  0.00    -0.070 N 
ATOM      3  C1  UNL d   1      -0.368   0.720   0.329  0.00  0.00    -0.004 A 
ATOM      4  C2  UNL d   1       0.596   1.626  -0.056  0.00  0.00    -0.047 A 
ATOM      5  C3  UNL d   1       1.842   1.140   0.404  0.00  0.00    -0.047 A 
ATOM      6  C4  UNL d   1       1.602  -0.050   1.059  0.00  0.00    -0.004 A 
ENDROOT
TORSDOF 0
ENDMDL
