MODEL 1
REMARK minimizedAffinity -2.3816452
REMARK minimizedRMSD -1
REMARK  0 active torsions:
REMARK  status: ('A' for Active; 'I' for Inactive)
ROOT
ATOM      1  C   UNL d   1      -2.384  -0.337  -1.729  0.00  0.00     0.172 C 
ATOM      2  N   UNL d   1      -1.350  -0.272  -0.723  0.00  0.00    -0.070 N 
ATOM      3  C1  UNL d   1      -1.172  -1.168   0.298  0.00  0.00    -0.004 A 
ATOM      4  C2  UNL d   1      -0.083  -0.756   1.035  0.00  0.00    -0.047 A 
ATOM      5  C3  UNL d   1       0.409   0.429   0.438  0.00  0.00    -0.047 A 
ATOM      6  C4  UNL d   1      -0.394   0.706  -0.648  0.00  0.00    -0.004 A 
ENDROOT
TORSDOF 0
ENDMDL
