MODEL 1
REMARK minimizedAffinity -3.25913262
REMARK minimizedRMSD -1
REMARK  0 active torsions:
REMARK  status: ('A' for Active; 'I' for Inactive)
ROOT
ATOM      1  C   UNL d   1      -0.883   0.319  -0.299  0.00  0.00     0.172 C 
ATOM      2  N   UNL d   1       0.493   0.536   0.082  0.00  0.00    -0.070 N 
ATOM      3  C1  UNL d   1       1.162   1.728   0.011  0.00  0.00    -0.004 A 
ATOM      4  C2  UNL d   1       2.446   1.519   0.465  0.00  0.00    -0.047 A 
ATOM      5  C3  UNL d   1       2.553   0.153   0.818  0.00  0.00    -0.047 A 
ATOM      6  C4  UNL d   1       1.329  -0.432   0.571  0.00  0.00    -0.004 A 
ENDROOT
TORSDOF 0
ENDMDL
