MODEL 1
REMARK minimizedAffinity -3.37648964
REMARK minimizedRMSD -1
REMARK  0 active torsions:
REMARK  status: ('A' for Active; 'I' for Inactive)
ROOT
ATOM      1  C   UNL d   1      -0.523  -0.361   0.505  0.00  0.00     0.172 C 
ATOM      2  N   UNL d   1       0.916  -0.371   0.633  0.00  0.00    -0.070 N 
ATOM      3  C1  UNL d   1       1.747  -1.378   0.221  0.00  0.00    -0.004 A 
ATOM      4  C2  UNL d   1       3.040  -1.007   0.519  0.00  0.00    -0.047 A 
ATOM      5  C3  UNL d   1       2.984   0.267   1.133  0.00  0.00    -0.047 A 
ATOM      6  C4  UNL d   1       1.657   0.637   1.191  0.00  0.00    -0.004 A 
ENDROOT
TORSDOF 0
ENDMDL
