MODEL 1
REMARK minimizedAffinity 9.86033535
REMARK minimizedRMSD -1
REMARK  0 active torsions:
REMARK  status: ('A' for Active; 'I' for Inactive)
ROOT
ATOM      1  C2' OXE d   1       2.274   1.168   0.227  0.00  0.00     0.078 C 
ATOM      2  C1' OXE d   1       3.720  -0.490   1.970  0.00  0.00     0.078 C 
ATOM      3  C1  OXE d   1       4.196   0.931   1.793  0.00  0.00    -0.078 A 
ATOM      4  C2  OXE d   1       3.509   1.721   0.903  0.00  0.00    -0.078 A 
ATOM      5  C3  OXE d   1       3.873   3.055   0.744  0.00  0.00     0.003 A 
ATOM      6  C4  OXE d   1       5.023   3.556   1.365  0.00  0.00    -0.002 A 
ATOM      7  C5  OXE d   1       5.759   2.756   2.245  0.00  0.00    -0.002 A 
ATOM      8  C6  OXE d   1       5.336   1.457   2.503  0.00  0.00     0.003 A 
ENDROOT
TORSDOF 0
ENDMDL
