MODEL 1
REMARK minimizedAffinity 13.1092787
REMARK minimizedRMSD -1
REMARK  0 active torsions:
REMARK  status: ('A' for Active; 'I' for Inactive)
ROOT
ATOM      1  C2' OXE d   1      -1.853  -5.218  -4.832  0.00  0.00     0.078 C 
ATOM      2  C1' OXE d   1      -1.322  -3.148  -3.012  0.00  0.00     0.078 C 
ATOM      3  C1  OXE d   1      -0.196  -4.093  -3.350  0.00  0.00    -0.078 A 
ATOM      4  C2  OXE d   1      -0.478  -5.131  -4.205  0.00  0.00    -0.078 A 
ATOM      5  C3  OXE d   1       0.538  -6.000  -4.593  0.00  0.00     0.003 A 
ATOM      6  C4  OXE d   1       1.805  -5.918  -4.002  0.00  0.00    -0.002 A 
ATOM      7  C5  OXE d   1       2.101  -4.893  -3.098  0.00  0.00    -0.002 A 
ATOM      8  C6  OXE d   1       1.126  -3.948  -2.794  0.00  0.00     0.003 A 
ENDROOT
TORSDOF 0
ENDMDL
