MODEL 1
REMARK minimizedAffinity 9.95008087
REMARK minimizedRMSD -1
REMARK  0 active torsions:
REMARK  status: ('A' for Active; 'I' for Inactive)
ROOT
ATOM      1  C2' OXE d   1      -2.193  -1.090  -0.371  0.00  0.00     0.078 C 
ATOM      2  C1' OXE d   1      -4.187   0.699   0.467  0.00  0.00     0.078 C 
ATOM      3  C1  OXE d   1      -3.051   0.415   1.419  0.00  0.00    -0.078 A 
ATOM      4  C2  OXE d   1      -2.105  -0.497   1.019  0.00  0.00    -0.078 A 
ATOM      5  C3  OXE d   1      -1.007  -0.755   1.835  0.00  0.00     0.003 A 
ATOM      6  C4  OXE d   1      -0.939  -0.210   3.123  0.00  0.00    -0.002 A 
ATOM      7  C5  OXE d   1      -1.913   0.691   3.566  0.00  0.00    -0.002 A 
ATOM      8  C6  OXE d   1      -2.951   1.046   2.711  0.00  0.00     0.003 A 
ENDROOT
TORSDOF 0
ENDMDL
