MODEL 1
REMARK minimizedAffinity 13.1311855
REMARK minimizedRMSD -1
REMARK  0 active torsions:
REMARK  status: ('A' for Active; 'I' for Inactive)
ROOT
ATOM      1  C2' OXE d   1       4.549  -2.066  -0.958  0.00  0.00     0.078 C 
ATOM      2  C1' OXE d   1       2.480  -3.938  -1.266  0.00  0.00     0.078 C 
ATOM      3  C1  OXE d   1       3.694  -4.355  -0.474  0.00  0.00    -0.078 A 
ATOM      4  C2  OXE d   1       4.721  -3.449  -0.368  0.00  0.00    -0.078 A 
ATOM      5  C3  OXE d   1       5.841  -3.763   0.397  0.00  0.00     0.003 A 
ATOM      6  C4  OXE d   1       5.998  -5.048   0.930  0.00  0.00    -0.002 A 
ATOM      7  C5  OXE d   1       4.980  -5.999   0.800  0.00  0.00    -0.002 A 
ATOM      8  C6  OXE d   1       3.806  -5.656   0.139  0.00  0.00     0.003 A 
ENDROOT
TORSDOF 0
ENDMDL
