MODEL 1
REMARK minimizedAffinity 19.0750294
REMARK minimizedRMSD -1
REMARK  0 active torsions:
REMARK  status: ('A' for Active; 'I' for Inactive)
ROOT
ATOM      1  C2' OXE d   1       6.000   4.334  -4.594  0.00  0.00     0.078 C 
ATOM      2  C1' OXE d   1       3.767   3.374  -6.000  0.00  0.00     0.078 C 
ATOM      3  C1  OXE d   1       3.725   3.324  -4.493  0.00  0.00    -0.078 A 
ATOM      4  C2  OXE d   1       4.840   3.753  -3.815  0.00  0.00    -0.078 A 
ATOM      5  C3  OXE d   1       4.833   3.778  -2.423  0.00  0.00     0.003 A 
ATOM      6  C4  OXE d   1       3.761   3.229  -1.709  0.00  0.00    -0.002 A 
ATOM      7  C5  OXE d   1       2.631   2.751  -2.382  0.00  0.00    -0.002 A 
ATOM      8  C6  OXE d   1       2.580   2.830  -3.769  0.00  0.00     0.003 A 
ENDROOT
TORSDOF 0
ENDMDL
