MODEL 1
REMARK minimizedAffinity 4.72814989
REMARK minimizedRMSD -1
REMARK  0 active torsions:
REMARK  status: ('A' for Active; 'I' for Inactive)
ROOT
ATOM      1  C2' OXE d   1      -2.943   1.270   4.008  0.00  0.00     0.078 C 
ATOM      2  C1' OXE d   1      -4.132   0.476   1.592  0.00  0.00     0.078 C 
ATOM      3  C1  OXE d   1      -2.838  -0.188   1.990  0.00  0.00    -0.078 A 
ATOM      4  C2  OXE d   1      -2.239   0.239   3.151  0.00  0.00    -0.078 A 
ATOM      5  C3  OXE d   1      -1.073  -0.379   3.593  0.00  0.00     0.003 A 
ATOM      6  C4  OXE d   1      -0.423  -1.324   2.789  0.00  0.00    -0.002 A 
ATOM      7  C5  OXE d   1      -0.996  -1.745   1.585  0.00  0.00    -0.002 A 
ATOM      8  C6  OXE d   1      -2.222  -1.219   1.192  0.00  0.00     0.003 A 
ENDROOT
TORSDOF 0
ENDMDL
