MODEL 1
REMARK minimizedAffinity 12.0913534
REMARK minimizedRMSD -1
REMARK  0 active torsions:
REMARK  status: ('A' for Active; 'I' for Inactive)
ROOT
ATOM      1  C2' OXE d   1      -3.740   1.796   4.031  0.00  0.00     0.078 C 
ATOM      2  C1' OXE d   1      -4.926   0.867   1.662  0.00  0.00     0.078 C 
ATOM      3  C1  OXE d   1      -3.566   0.326   2.027  0.00  0.00    -0.078 A 
ATOM      4  C2  OXE d   1      -2.973   0.821   3.163  0.00  0.00    -0.078 A 
ATOM      5  C3  OXE d   1      -1.743   0.316   3.575  0.00  0.00     0.003 A 
ATOM      6  C4  OXE d   1      -1.036  -0.577   2.761  0.00  0.00    -0.002 A 
ATOM      7  C5  OXE d   1      -1.605  -1.064   1.580  0.00  0.00    -0.002 A 
ATOM      8  C6  OXE d   1      -2.884  -0.656   1.221  0.00  0.00     0.003 A 
ENDROOT
TORSDOF 0
ENDMDL
