MODEL 1
REMARK minimizedAffinity 8.57161903
REMARK minimizedRMSD -1
REMARK  0 active torsions:
REMARK  status: ('A' for Active; 'I' for Inactive)
ROOT
ATOM      1  C2' OXE d   1      -4.879  -6.000   5.926  0.00  0.00     0.078 C 
ATOM      2  C1' OXE d   1      -4.523  -3.216   6.000  0.00  0.00     0.078 C 
ATOM      3  C1  OXE d   1      -4.370  -3.910   4.669  0.00  0.00    -0.078 A 
ATOM      4  C2  OXE d   1      -4.501  -5.278   4.651  0.00  0.00    -0.078 A 
ATOM      5  C3  OXE d   1      -4.424  -5.961   3.441  0.00  0.00     0.003 A 
ATOM      6  C4  OXE d   1      -4.063  -5.288   2.268  0.00  0.00    -0.002 A 
ATOM      7  C5  OXE d   1      -3.887  -3.900   2.272  0.00  0.00    -0.002 A 
ATOM      8  C6  OXE d   1      -4.079  -3.192   3.453  0.00  0.00     0.003 A 
ENDROOT
TORSDOF 0
ENDMDL
