MODEL 1
REMARK minimizedAffinity 15.0960531
REMARK minimizedRMSD -1
REMARK  0 active torsions:
REMARK  status: ('A' for Active; 'I' for Inactive)
ROOT
ATOM      1  C2' OXE d   1       6.000   3.328   0.851  0.00  0.00     0.078 C 
ATOM      2  C1' OXE d   1       3.908   4.740   2.080  0.00  0.00     0.078 C 
ATOM      3  C1  OXE d   1       3.563   3.466   1.350  0.00  0.00    -0.078 A 
ATOM      4  C2  OXE d   1       4.586   2.806   0.712  0.00  0.00    -0.078 A 
ATOM      5  C3  OXE d   1       4.332   1.598   0.071  0.00  0.00     0.003 A 
ATOM      6  C4  OXE d   1       3.020   1.127  -0.062  0.00  0.00    -0.002 A 
ATOM      7  C5  OXE d   1       1.958   1.804   0.547  0.00  0.00    -0.002 A 
ATOM      8  C6  OXE d   1       2.218   2.950   1.291  0.00  0.00     0.003 A 
ENDROOT
TORSDOF 0
ENDMDL
