MODEL 1
REMARK minimizedAffinity 14.1921654
REMARK minimizedRMSD -1
REMARK  0 active torsions:
REMARK  status: ('A' for Active; 'I' for Inactive)
ROOT
ATOM      1  C2' OXE d   1      -0.916   0.400   5.464  0.00  0.00     0.078 C 
ATOM      2  C1' OXE d   1       1.123  -1.181   4.359  0.00  0.00     0.078 C 
ATOM      3  C1  OXE d   1      -0.040  -0.812   3.473  0.00  0.00    -0.078 A 
ATOM      4  C2  OXE d   1      -1.056  -0.078   4.035  0.00  0.00    -0.078 A 
ATOM      5  C3  OXE d   1      -2.126   0.336   3.247  0.00  0.00     0.003 A 
ATOM      6  C4  OXE d   1      -2.252  -0.119   1.929  0.00  0.00    -0.002 A 
ATOM      7  C5  OXE d   1      -1.249  -0.902   1.348  0.00  0.00    -0.002 A 
ATOM      8  C6  OXE d   1      -0.118  -1.221   2.092  0.00  0.00     0.003 A 
ENDROOT
TORSDOF 0
ENDMDL
