MODEL 1
REMARK minimizedAffinity 14.5555801
REMARK minimizedRMSD -1
REMARK  0 active torsions:
REMARK  status: ('A' for Active; 'I' for Inactive)
ROOT
ATOM      1  C2' OXE d   1      -1.537   5.348  -4.992  0.00  0.00     0.078 C 
ATOM      2  C1' OXE d   1      -0.015   5.429  -2.634  0.00  0.00     0.078 C 
ATOM      3  C1  OXE d   1      -1.517   5.464  -2.503  0.00  0.00    -0.078 A 
ATOM      4  C2  OXE d   1      -2.253   5.471  -3.664  0.00  0.00    -0.078 A 
ATOM      5  C3  OXE d   1      -3.643   5.448  -3.599  0.00  0.00     0.003 A 
ATOM      6  C4  OXE d   1      -4.297   5.572  -2.367  0.00  0.00    -0.002 A 
ATOM      7  C5  OXE d   1      -3.566   5.606  -1.175  0.00  0.00    -0.002 A 
ATOM      8  C6  OXE d   1      -2.179   5.511  -1.223  0.00  0.00     0.003 A 
ENDROOT
TORSDOF 0
ENDMDL
