MODEL 1
REMARK minimizedAffinity 15.7448177
REMARK minimizedRMSD -1
REMARK  0 active torsions:
REMARK  status: ('A' for Active; 'I' for Inactive)
ROOT
ATOM      1  C2' OXE d   1      -3.261  -3.249   2.734  0.00  0.00     0.078 C 
ATOM      2  C1' OXE d   1      -3.905  -5.974   2.540  0.00  0.00     0.078 C 
ATOM      3  C1  OXE d   1      -4.377  -5.225   3.761  0.00  0.00    -0.078 A 
ATOM      4  C2  OXE d   1      -4.018  -3.903   3.870  0.00  0.00    -0.078 A 
ATOM      5  C3  OXE d   1      -4.473  -3.151   4.949  0.00  0.00     0.003 A 
ATOM      6  C4  OXE d   1      -5.164  -3.766   6.000  0.00  0.00    -0.002 A 
ATOM      7  C5  OXE d   1      -5.506  -5.121   5.928  0.00  0.00    -0.002 A 
ATOM      8  C6  OXE d   1      -5.158  -5.853   4.798  0.00  0.00     0.003 A 
ENDROOT
TORSDOF 0
ENDMDL
