MODEL 1
REMARK minimizedAffinity 6.38715792
REMARK minimizedRMSD -1
REMARK  0 active torsions:
REMARK  status: ('A' for Active; 'I' for Inactive)
ROOT
ATOM      1  C2' OXE d   1      -2.839   1.122   3.638  0.00  0.00     0.078 C 
ATOM      2  C1' OXE d   1      -3.008  -0.371   1.266  0.00  0.00     0.078 C 
ATOM      3  C1  OXE d   1      -1.887  -0.694   2.223  0.00  0.00    -0.078 A 
ATOM      4  C2  OXE d   1      -1.785   0.073   3.358  0.00  0.00    -0.078 A 
ATOM      5  C3  OXE d   1      -0.802  -0.219   4.300  0.00  0.00     0.003 A 
ATOM      6  C4  OXE d   1       0.175  -1.184   4.029  0.00  0.00    -0.002 A 
ATOM      7  C5  OXE d   1       0.112  -1.950   2.860  0.00  0.00    -0.002 A 
ATOM      8  C6  OXE d   1      -0.935  -1.746   1.968  0.00  0.00     0.003 A 
ENDROOT
TORSDOF 0
ENDMDL
