MODEL 1
REMARK minimizedAffinity 9.87201405
REMARK minimizedRMSD -1
REMARK  0 active torsions:
REMARK  status: ('A' for Active; 'I' for Inactive)
ROOT
ATOM      1  C2' OXE d   1      -2.561   1.159   4.434  0.00  0.00     0.078 C 
ATOM      2  C1' OXE d   1      -0.555  -0.313   5.734  0.00  0.00     0.078 C 
ATOM      3  C1  OXE d   1      -0.726  -0.515   4.249  0.00  0.00    -0.078 A 
ATOM      4  C2  OXE d   1      -1.741   0.174   3.630  0.00  0.00    -0.078 A 
ATOM      5  C3  OXE d   1      -1.907   0.065   2.252  0.00  0.00     0.003 A 
ATOM      6  C4  OXE d   1      -1.151  -0.855   1.517  0.00  0.00    -0.002 A 
ATOM      7  C5  OXE d   1      -0.138  -1.597   2.136  0.00  0.00    -0.002 A 
ATOM      8  C6  OXE d   1       0.114  -1.408   3.490  0.00  0.00     0.003 A 
ENDROOT
TORSDOF 0
ENDMDL
