MODEL 1
REMARK minimizedAffinity 14.8316164
REMARK minimizedRMSD -1
REMARK  0 active torsions:
REMARK  status: ('A' for Active; 'I' for Inactive)
ROOT
ATOM      1  C2' OXE d   1      -1.489  -1.369   0.237  0.00  0.00     0.078 C 
ATOM      2  C1' OXE d   1       0.367  -1.576   2.333  0.00  0.00     0.078 C 
ATOM      3  C1  OXE d   1      -0.835  -0.690   2.544  0.00  0.00    -0.078 A 
ATOM      4  C2  OXE d   1      -1.714  -0.558   1.496  0.00  0.00    -0.078 A 
ATOM      5  C3  OXE d   1      -2.868   0.203   1.656  0.00  0.00     0.003 A 
ATOM      6  C4  OXE d   1      -3.064   0.957   2.819  0.00  0.00    -0.002 A 
ATOM      7  C5  OXE d   1      -2.161   0.868   3.883  0.00  0.00    -0.002 A 
ATOM      8  C6  OXE d   1      -1.066   0.018   3.778  0.00  0.00     0.003 A 
ENDROOT
TORSDOF 0
ENDMDL
