MODEL 1
REMARK minimizedAffinity 16.8753872
REMARK minimizedRMSD -1
REMARK  0 active torsions:
REMARK  status: ('A' for Active; 'I' for Inactive)
ROOT
ATOM      1  C2' OXE d   1       5.208   3.009   1.553  0.00  0.00     0.078 C 
ATOM      2  C1' OXE d   1       6.000   1.459  -0.649  0.00  0.00     0.078 C 
ATOM      3  C1  OXE d   1       4.540   1.447  -0.268  0.00  0.00    -0.078 A 
ATOM      4  C2  OXE d   1       4.170   2.171   0.839  0.00  0.00    -0.078 A 
ATOM      5  C3  OXE d   1       2.828   2.238   1.202  0.00  0.00     0.003 A 
ATOM      6  C4  OXE d   1       1.875   1.452   0.543  0.00  0.00    -0.002 A 
ATOM      7  C5  OXE d   1       2.238   0.675  -0.563  0.00  0.00    -0.002 A 
ATOM      8  C6  OXE d   1       3.556   0.695  -1.007  0.00  0.00     0.003 A 
ENDROOT
TORSDOF 0
ENDMDL
