MODEL 1
REMARK minimizedAffinity 18.9976902
REMARK minimizedRMSD -1
REMARK  0 active torsions:
REMARK  status: ('A' for Active; 'I' for Inactive)
ROOT
ATOM      1  C2' OXE d   1       2.632   2.606  -2.860  0.00  0.00     0.078 C 
ATOM      2  C1' OXE d   1       4.077   2.565  -5.266  0.00  0.00     0.078 C 
ATOM      3  C1  OXE d   1       4.529   3.521  -4.190  0.00  0.00    -0.078 A 
ATOM      4  C2  OXE d   1       3.787   3.568  -3.034  0.00  0.00    -0.078 A 
ATOM      5  C3  OXE d   1       4.192   4.393  -1.988  0.00  0.00     0.003 A 
ATOM      6  C4  OXE d   1       5.256   5.287  -2.161  0.00  0.00    -0.002 A 
ATOM      7  C5  OXE d   1       6.000   5.284  -3.346  0.00  0.00    -0.002 A 
ATOM      8  C6  OXE d   1       5.676   4.379  -4.352  0.00  0.00     0.003 A 
ENDROOT
TORSDOF 0
ENDMDL
