MODEL 1
REMARK minimizedAffinity 13.306428
REMARK minimizedRMSD -1
REMARK  0 active torsions:
REMARK  status: ('A' for Active; 'I' for Inactive)
ROOT
ATOM      1  C2' OXE d   1       5.992   4.198  -4.178  0.00  0.00     0.078 C 
ATOM      2  C1' OXE d   1       5.997   4.164  -1.371  0.00  0.00     0.078 C 
ATOM      3  C1  OXE d   1       4.816   3.550  -2.080  0.00  0.00    -0.078 A 
ATOM      4  C2  OXE d   1       4.799   3.613  -3.453  0.00  0.00    -0.078 A 
ATOM      5  C3  OXE d   1       3.759   3.014  -4.158  0.00  0.00     0.003 A 
ATOM      6  C4  OXE d   1       2.655   2.484  -3.479  0.00  0.00    -0.002 A 
ATOM      7  C5  OXE d   1       2.633   2.446  -2.081  0.00  0.00    -0.002 A 
ATOM      8  C6  OXE d   1       3.723   2.935  -1.368  0.00  0.00     0.003 A 
ENDROOT
TORSDOF 0
ENDMDL
