MODEL 1
REMARK minimizedAffinity 15.8339796
REMARK minimizedRMSD -1
REMARK  0 active torsions:
REMARK  status: ('A' for Active; 'I' for Inactive)
ROOT
ATOM      1  C2' OXE d   1      -1.927  -4.158  -3.381  0.00  0.00     0.078 C 
ATOM      2  C1' OXE d   1      -1.499  -5.996  -5.459  0.00  0.00     0.078 C 
ATOM      3  C1  OXE d   1      -2.914  -5.542  -5.202  0.00  0.00    -0.078 A 
ATOM      4  C2  OXE d   1      -3.121  -4.679  -4.153  0.00  0.00    -0.078 A 
ATOM      5  C3  OXE d   1      -4.399  -4.186  -3.907  0.00  0.00     0.003 A 
ATOM      6  C4  OXE d   1      -5.498  -4.681  -4.619  0.00  0.00    -0.002 A 
ATOM      7  C5  OXE d   1      -5.315  -5.591  -5.665  0.00  0.00    -0.002 A 
ATOM      8  C6  OXE d   1      -4.028  -5.999  -5.996  0.00  0.00     0.003 A 
ENDROOT
TORSDOF 0
ENDMDL
