MODEL 1
REMARK minimizedAffinity 13.0391884
REMARK minimizedRMSD -1
REMARK  0 active torsions:
REMARK  status: ('A' for Active; 'I' for Inactive)
ROOT
ATOM      1  C2' OXE d   1      -4.132   0.928  -0.470  0.00  0.00     0.078 C 
ATOM      2  C1' OXE d   1      -5.394  -0.031   1.847  0.00  0.00     0.078 C 
ATOM      3  C1  OXE d   1      -3.889  -0.110   1.782  0.00  0.00    -0.078 A 
ATOM      4  C2  OXE d   1      -3.283   0.319   0.625  0.00  0.00    -0.078 A 
ATOM      5  C3  OXE d   1      -1.894   0.319   0.534  0.00  0.00     0.003 A 
ATOM      6  C4  OXE d   1      -1.117  -0.255   1.547  0.00  0.00    -0.002 A 
ATOM      7  C5  OXE d   1      -1.717  -0.734   2.717  0.00  0.00    -0.002 A 
ATOM      8  C6  OXE d   1      -3.095  -0.630   2.867  0.00  0.00     0.003 A 
ENDROOT
TORSDOF 0
ENDMDL
