MODEL 1
REMARK minimizedAffinity -2.07530522
REMARK minimizedRMSD -1
REMARK  0 active torsions:
REMARK  status: ('A' for Active; 'I' for Inactive)
ROOT
ATOM      1  C   UNL d   1       0.401   0.161   2.189  0.00  0.00     0.020 A 
ATOM      2  C1  UNL d   1      -0.168   1.415   2.408  0.00  0.00     0.020 A 
ATOM      3  C2  UNL d   1      -0.270   2.329   1.357  0.00  0.00     0.034 A 
ATOM      4  C3  UNL d   1       0.198   1.990   0.082  0.00  0.00     0.017 A 
ATOM      5  C4  UNL d   1       0.769   0.732  -0.137  0.00  0.00     0.017 A 
ATOM      6  C5  UNL d   1       0.868  -0.180   0.919  0.00  0.00     0.034 A 
ATOM      7 Cl   UNL d   1       1.369   0.242  -1.682  0.00  0.00    -0.070 Cl
ATOM      8 Cl1  UNL d   1       0.040   3.170  -1.171  0.00  0.00    -0.070 Cl
ENDROOT
TORSDOF 0
ENDMDL
