MODEL 1
REMARK minimizedAffinity 3.02676487
REMARK minimizedRMSD -1
REMARK  0 active torsions:
REMARK  status: ('A' for Active; 'I' for Inactive)
ROOT
ATOM      1  C   UNL d   1       0.402   1.431   2.269  0.00  0.00     0.020 A 
ATOM      2  C1  UNL d   1       0.823   0.132   2.554  0.00  0.00     0.020 A 
ATOM      3  C2  UNL d   1       0.838  -0.834   1.546  0.00  0.00     0.034 A 
ATOM      4  C3  UNL d   1       0.432  -0.503   0.248  0.00  0.00     0.017 A 
ATOM      5  C4  UNL d   1       0.009   0.800  -0.037  0.00  0.00     0.017 A 
ATOM      6  C5  UNL d   1      -0.004   1.764   0.976  0.00  0.00     0.034 A 
ATOM      7 Cl   UNL d   1      -0.507   1.284  -1.614  0.00  0.00    -0.070 Cl
ATOM      8 Cl1  UNL d   1       0.476  -1.748  -0.950  0.00  0.00    -0.070 Cl
ENDROOT
TORSDOF 0
ENDMDL
