MODEL 1
REMARK minimizedAffinity -1.22624099
REMARK minimizedRMSD -1
REMARK  0 active torsions:
REMARK  status: ('A' for Active; 'I' for Inactive)
ROOT
ATOM      1  C   UNL d   1       0.093  -1.677   0.713  0.00  0.00     0.020 A 
ATOM      2  C1  UNL d   1       0.268  -1.728  -0.669  0.00  0.00     0.020 A 
ATOM      3  C2  UNL d   1       0.356  -0.545  -1.407  0.00  0.00     0.034 A 
ATOM      4  C3  UNL d   1       0.269   0.694  -0.762  0.00  0.00     0.017 A 
ATOM      5  C4  UNL d   1       0.094   0.745   0.626  0.00  0.00     0.017 A 
ATOM      6  C5  UNL d   1       0.007  -0.443   1.359  0.00  0.00     0.034 A 
ATOM      7 Cl   UNL d   1      -0.021   2.236   1.492  0.00  0.00    -0.070 Cl
ATOM      8 Cl1  UNL d   1       0.386   2.116  -1.736  0.00  0.00    -0.070 Cl
ENDROOT
TORSDOF 0
ENDMDL
