MODEL 1
REMARK minimizedAffinity -0.687429428
REMARK minimizedRMSD -1
REMARK  0 active torsions:
REMARK  status: ('A' for Active; 'I' for Inactive)
ROOT
ATOM      1  C   UNL d   1      -0.348   0.619   2.205  0.00  0.00     0.020 A 
ATOM      2  C1  UNL d   1      -0.272   1.886   1.627  0.00  0.00     0.020 A 
ATOM      3  C2  UNL d   1      -0.046   2.015   0.255  0.00  0.00     0.034 A 
ATOM      4  C3  UNL d   1       0.105   0.875  -0.544  0.00  0.00     0.017 A 
ATOM      5  C4  UNL d   1       0.029  -0.396   0.037  0.00  0.00     0.017 A 
ATOM      6  C5  UNL d   1      -0.198  -0.519   1.412  0.00  0.00     0.034 A 
ATOM      7 Cl   UNL d   1       0.205  -1.848  -0.883  0.00  0.00    -0.070 Cl
ATOM      8 Cl1  UNL d   1       0.383   1.109  -2.233  0.00  0.00    -0.070 Cl
ENDROOT
TORSDOF 0
ENDMDL
