MODEL 1
REMARK minimizedAffinity 0.647642136
REMARK minimizedRMSD -1
REMARK  0 active torsions:
REMARK  status: ('A' for Active; 'I' for Inactive)
ROOT
ATOM      1  C   UNL d   1      -0.300   4.172  -1.143  0.00  0.00     0.020 A 
ATOM      2  C1  UNL d   1      -0.402   3.064  -1.983  0.00  0.00     0.020 A 
ATOM      3  C2  UNL d   1      -0.350   1.775  -1.448  0.00  0.00     0.034 A 
ATOM      4  C3  UNL d   1      -0.194   1.591  -0.070  0.00  0.00     0.017 A 
ATOM      5  C4  UNL d   1      -0.091   2.704   0.773  0.00  0.00     0.017 A 
ATOM      6  C5  UNL d   1      -0.145   3.992   0.232  0.00  0.00     0.034 A 
ATOM      7 Cl   UNL d   1       0.103   2.556   2.484  0.00  0.00    -0.070 Cl
ATOM      8 Cl1  UNL d   1      -0.137  -0.031   0.523  0.00  0.00    -0.070 Cl
ENDROOT
TORSDOF 0
ENDMDL
