MODEL 1
REMARK minimizedAffinity -4.70034647
REMARK minimizedRMSD -1
REMARK  0 active torsions:
REMARK  status: ('A' for Active; 'I' for Inactive)
ROOT
ATOM      1  C   UNL d   1      -0.358   1.014   1.957  0.00  0.00     0.020 A 
ATOM      2  C1  UNL d   1      -0.086  -0.120   1.194  0.00  0.00     0.020 A 
ATOM      3  C2  UNL d   1       0.075  -0.009  -0.189  0.00  0.00     0.034 A 
ATOM      4  C3  UNL d   1      -0.036   1.239  -0.812  0.00  0.00     0.017 A 
ATOM      5  C4  UNL d   1      -0.308   2.378  -0.045  0.00  0.00     0.017 A 
ATOM      6  C5  UNL d   1      -0.469   2.260   1.339  0.00  0.00     0.034 A 
ATOM      7 Cl   UNL d   1      -0.459   3.952  -0.743  0.00  0.00    -0.070 Cl
ATOM      8 Cl1  UNL d   1       0.176   1.303  -2.526  0.00  0.00    -0.070 Cl
ENDROOT
TORSDOF 0
ENDMDL
