MODEL 1
REMARK minimizedAffinity -3.00929475
REMARK minimizedRMSD -1
REMARK  0 active torsions:
REMARK  status: ('A' for Active; 'I' for Inactive)
ROOT
ATOM      1  C   UNL d   1      -0.293   0.287   2.364  0.00  0.00     0.020 A 
ATOM      2  C1  UNL d   1      -0.527   1.569   1.870  0.00  0.00     0.020 A 
ATOM      3  C2  UNL d   1      -0.470   1.809   0.495  0.00  0.00     0.034 A 
ATOM      4  C3  UNL d   1      -0.177   0.764  -0.390  0.00  0.00     0.017 A 
ATOM      5  C4  UNL d   1       0.058  -0.523   0.108  0.00  0.00     0.017 A 
ATOM      6  C5  UNL d   1      -0.001  -0.757   1.485  0.00  0.00     0.034 A 
ATOM      7 Cl   UNL d   1       0.425  -1.862  -0.922  0.00  0.00    -0.070 Cl
ATOM      8 Cl1  UNL d   1      -0.122   1.132  -2.077  0.00  0.00    -0.070 Cl
ENDROOT
TORSDOF 0
ENDMDL
