MODEL 1
REMARK minimizedAffinity -3.03570342
REMARK minimizedRMSD -1
REMARK  0 active torsions:
REMARK  status: ('A' for Active; 'I' for Inactive)
ROOT
ATOM      1  C   UNL d   1       1.052  -1.109  -0.141  0.00  0.00     0.020 A 
ATOM      2  C1  UNL d   1      -0.073  -1.923  -0.272  0.00  0.00     0.020 A 
ATOM      3  C2  UNL d   1      -1.247  -1.606   0.414  0.00  0.00     0.034 A 
ATOM      4  C3  UNL d   1      -1.300  -0.473   1.234  0.00  0.00     0.017 A 
ATOM      5  C4  UNL d   1      -0.170   0.343   1.365  0.00  0.00     0.017 A 
ATOM      6  C5  UNL d   1       1.003   0.021   0.675  0.00  0.00     0.034 A 
ATOM      7 Cl   UNL d   1      -0.158   1.758   2.358  0.00  0.00    -0.070 Cl
ATOM      8 Cl1  UNL d   1      -2.785  -0.141   2.052  0.00  0.00    -0.070 Cl
ENDROOT
TORSDOF 0
ENDMDL
