MODEL 1
REMARK minimizedAffinity -1.16686845
REMARK minimizedRMSD -1
REMARK  0 active torsions:
REMARK  status: ('A' for Active; 'I' for Inactive)
ROOT
ATOM      1  C   UNL d   1       0.781  -1.535   0.319  0.00  0.00     0.020 A 
ATOM      2  C1  UNL d   1       0.538  -1.328  -1.039  0.00  0.00     0.020 A 
ATOM      3  C2  UNL d   1       0.239  -0.048  -1.508  0.00  0.00     0.034 A 
ATOM      4  C3  UNL d   1       0.180   1.032  -0.619  0.00  0.00     0.017 A 
ATOM      5  C4  UNL d   1       0.423   0.824   0.743  0.00  0.00     0.017 A 
ATOM      6  C5  UNL d   1       0.723  -0.461   1.208  0.00  0.00     0.034 A 
ATOM      7 Cl   UNL d   1       0.369   2.106   1.901  0.00  0.00    -0.070 Cl
ATOM      8 Cl1  UNL d   1      -0.195   2.588  -1.269  0.00  0.00    -0.070 Cl
ENDROOT
TORSDOF 0
ENDMDL
