MODEL 1
REMARK minimizedAffinity -0.864518046
REMARK minimizedRMSD -1
REMARK  0 active torsions:
REMARK  status: ('A' for Active; 'I' for Inactive)
ROOT
ATOM      1  C   UNL d   1      -0.307   3.346   0.135  0.00  0.00     0.020 A 
ATOM      2  C1  UNL d   1      -0.276   3.344   1.529  0.00  0.00     0.020 A 
ATOM      3  C2  UNL d   1      -0.055   2.152   2.221  0.00  0.00     0.034 A 
ATOM      4  C3  UNL d   1       0.136   0.956   1.519  0.00  0.00     0.017 A 
ATOM      5  C4  UNL d   1       0.105   0.959   0.120  0.00  0.00     0.017 A 
ATOM      6  C5  UNL d   1      -0.117   2.156  -0.568  0.00  0.00     0.034 A 
ATOM      7 Cl   UNL d   1       0.333  -0.477  -0.815  0.00  0.00    -0.070 Cl
ATOM      8 Cl1  UNL d   1       0.405  -0.482   2.440  0.00  0.00    -0.070 Cl
ENDROOT
TORSDOF 0
ENDMDL
