MODEL 1
REMARK minimizedAffinity 2.09666967
REMARK minimizedRMSD -1
REMARK  0 active torsions:
REMARK  status: ('A' for Active; 'I' for Inactive)
ROOT
ATOM      1  C   UNL d   1       2.032   3.004   3.579  0.00  0.00     0.020 A 
ATOM      2  C1  UNL d   1       2.543   4.184   3.040  0.00  0.00     0.020 A 
ATOM      3  C2  UNL d   1       2.128   4.612   1.777  0.00  0.00     0.034 A 
ATOM      4  C3  UNL d   1       1.199   3.860   1.049  0.00  0.00     0.017 A 
ATOM      5  C4  UNL d   1       0.686   2.676   1.591  0.00  0.00     0.017 A 
ATOM      6  C5  UNL d   1       1.106   2.252   2.856  0.00  0.00     0.034 A 
ATOM      7 Cl   UNL d   1      -0.463   1.694   0.753  0.00  0.00    -0.070 Cl
ATOM      8 Cl1  UNL d   1       0.730   4.449  -0.506  0.00  0.00    -0.070 Cl
ENDROOT
TORSDOF 0
ENDMDL
