MODEL 1
REMARK minimizedAffinity 17.3008289
REMARK minimizedRMSD -1
REMARK  1 active torsions:
REMARK  status: ('A' for Active; 'I' for Inactive)
REMARK    1  A    between atoms: C1_2  and  C2_3 
ROOT
ATOM      1  C2  UNL d   1      -5.234   0.956  -0.830  0.00  0.00    -0.081 A 
ATOM      2  C3  UNL d   1      -4.476  -0.012  -1.501  0.00  0.00     0.006 A 
ATOM      3  C4  UNL d   1      -4.476  -0.069  -2.896  0.00  0.00     0.002 A 
ATOM      4  C5  UNL d   1      -5.227   0.844  -3.644  0.00  0.00    -0.080 A 
ATOM      5  C6  UNL d   1      -5.213   0.813  -5.144  0.00  0.00     0.076 C 
ATOM      6  C7  UNL d   1      -5.999   1.800  -2.974  0.00  0.00     0.002 A 
ATOM      7  C8  UNL d   1      -5.999   1.857  -1.578  0.00  0.00     0.006 A 
ENDROOT
BRANCH   1   8
ATOM      8  C1  UNL d   1      -5.185   1.061   0.673  0.00  0.00     0.054 C 
ATOM      9  C   UNL d   1      -5.155   2.514   1.125  0.00  0.00     0.018 C 
ENDBRANCH   1   8
TORSDOF 1
ENDMDL
