MODEL 1
REMARK minimizedAffinity 8.5163002
REMARK minimizedRMSD -1
REMARK  1 active torsions:
REMARK  status: ('A' for Active; 'I' for Inactive)
REMARK    1  A    between atoms: C1_2  and  C2_3 
ROOT
ATOM      1  C2  UNL d   1       0.982   3.423   3.326  0.00  0.00    -0.081 A 
ATOM      2  C3  UNL d   1       0.241   3.013   4.441  0.00  0.00     0.006 A 
ATOM      3  C4  UNL d   1       0.190   1.664   4.800  0.00  0.00     0.002 A 
ATOM      4  C5  UNL d   1       0.884   0.705   4.055  0.00  0.00    -0.080 A 
ATOM      5  C6  UNL d   1       0.862  -0.743   4.448  0.00  0.00     0.076 C 
ATOM      6  C7  UNL d   1       1.610   1.112   2.931  0.00  0.00     0.002 A 
ATOM      7  C8  UNL d   1       1.661   2.460   2.571  0.00  0.00     0.006 A 
ENDROOT
BRANCH   1   8
ATOM      8  C1  UNL d   1       1.092   4.885   2.974  0.00  0.00     0.054 C 
ATOM      9  C   UNL d   1       2.342   5.507   3.579  0.00  0.00     0.018 C 
ENDBRANCH   1   8
TORSDOF 1
ENDMDL
