MODEL 1
REMARK minimizedAffinity 13.4937067
REMARK minimizedRMSD -1
REMARK  1 active torsions:
REMARK  status: ('A' for Active; 'I' for Inactive)
REMARK    1  A    between atoms: C1_2  and  C2_3 
ROOT
ATOM      1  C2  UNL d   1       1.648   0.467   1.381  0.00  0.00    -0.081 A 
ATOM      2  C3  UNL d   1       2.236  -0.511   0.569  0.00  0.00     0.006 A 
ATOM      3  C4  UNL d   1       3.240  -0.166  -0.339  0.00  0.00     0.002 A 
ATOM      4  C5  UNL d   1       3.678   1.158  -0.445  0.00  0.00    -0.080 A 
ATOM      5  C6  UNL d   1       4.776   1.536  -1.394  0.00  0.00     0.076 C 
ATOM      6  C7  UNL d   1       3.078   2.138   0.354  0.00  0.00     0.002 A 
ATOM      7  C8  UNL d   1       2.074   1.794   1.262  0.00  0.00     0.006 A 
ENDROOT
BRANCH   1   8
ATOM      8  C1  UNL d   1       0.610   0.088   2.407  0.00  0.00     0.054 C 
ATOM      9  C   UNL d   1       0.737   0.939   3.662  0.00  0.00     0.018 C 
ENDBRANCH   1   8
TORSDOF 1
ENDMDL
