MODEL 1
REMARK minimizedAffinity 12.4937296
REMARK minimizedRMSD -1
REMARK  1 active torsions:
REMARK  status: ('A' for Active; 'I' for Inactive)
REMARK    1  A    between atoms: C1_2  and  C2_3 
ROOT
ATOM      1  C2  UNL d   1       1.000   0.900   4.426  0.00  0.00    -0.081 A 
ATOM      2  C3  UNL d   1       2.022   0.363   5.218  0.00  0.00     0.006 A 
ATOM      3  C4  UNL d   1       2.010  -0.989   5.569  0.00  0.00     0.002 A 
ATOM      4  C5  UNL d   1       0.982  -1.828   5.127  0.00  0.00    -0.080 A 
ATOM      5  C6  UNL d   1       0.973  -3.288   5.471  0.00  0.00     0.076 C 
ATOM      6  C7  UNL d   1      -0.048  -1.288   4.350  0.00  0.00     0.002 A 
ATOM      7  C8  UNL d   1      -0.037   0.064   3.999  0.00  0.00     0.006 A 
ENDROOT
BRANCH   1   8
ATOM      8  C1  UNL d   1       1.045   2.343   3.992  0.00  0.00     0.054 C 
ATOM      9  C   UNL d   1       2.136   2.577   2.958  0.00  0.00     0.018 C 
ENDBRANCH   1   8
TORSDOF 1
ENDMDL
