MODEL 1
REMARK minimizedAffinity 2.4097383
REMARK minimizedRMSD -1
REMARK  1 active torsions:
REMARK  status: ('A' for Active; 'I' for Inactive)
REMARK    1  A    between atoms: C1_2  and  C2_3 
ROOT
ATOM      1  C2  UNL d   1      -0.044  -4.745   5.364  0.00  0.00    -0.081 A 
ATOM      2  C3  UNL d   1       1.005  -4.054   5.983  0.00  0.00     0.006 A 
ATOM      3  C4  UNL d   1       1.497  -2.869   5.431  0.00  0.00     0.002 A 
ATOM      4  C5  UNL d   1       0.943  -2.351   4.255  0.00  0.00    -0.080 A 
ATOM      5  C6  UNL d   1       1.441  -1.064   3.668  0.00  0.00     0.076 C 
ATOM      6  C7  UNL d   1      -0.093  -3.050   3.627  0.00  0.00     0.002 A 
ATOM      7  C8  UNL d   1      -0.584  -4.235   4.178  0.00  0.00     0.006 A 
ENDROOT
BRANCH   1   8
ATOM      8  C1  UNL d   1      -0.619  -5.988   5.992  0.00  0.00     0.054 C 
ATOM      9  C   UNL d   1      -2.141  -5.958   5.986  0.00  0.00     0.018 C 
ENDBRANCH   1   8
TORSDOF 1
ENDMDL
