MODEL 1
REMARK minimizedAffinity 1.94401133
REMARK minimizedRMSD -1
REMARK  1 active torsions:
REMARK  status: ('A' for Active; 'I' for Inactive)
REMARK    1  A    between atoms: C1_2  and  C2_3 
ROOT
ATOM      1  C2  UNL d   1       5.025   1.586  -0.387  0.00  0.00    -0.081 A 
ATOM      2  C3  UNL d   1       3.629   1.557  -0.483  0.00  0.00     0.006 A 
ATOM      3  C4  UNL d   1       2.889   0.611   0.231  0.00  0.00     0.002 A 
ATOM      4  C5  UNL d   1       3.533  -0.315   1.059  0.00  0.00    -0.080 A 
ATOM      5  C6  UNL d   1       2.749  -1.316   1.855  0.00  0.00     0.076 C 
ATOM      6  C7  UNL d   1       4.929  -0.297   1.141  0.00  0.00     0.002 A 
ATOM      7  C8  UNL d   1       5.669   0.648   0.427  0.00  0.00     0.006 A 
ENDROOT
BRANCH   1   8
ATOM      8  C1  UNL d   1       5.821   2.646  -1.106  0.00  0.00     0.054 C 
ATOM      9  C   UNL d   1       5.995   3.887  -0.242  0.00  0.00     0.018 C 
ENDBRANCH   1   8
TORSDOF 1
ENDMDL
