MODEL 1
REMARK minimizedAffinity -5.06820059
REMARK minimizedRMSD -1
REMARK  1 active torsions:
REMARK  status: ('A' for Active; 'I' for Inactive)
REMARK    1  A    between atoms: C1_2  and  C2_3 
ROOT
ATOM      1  C2  UNL d   1      -1.147  -0.172   0.209  0.00  0.00    -0.077 A 
ATOM      2  C3  UNL d   1      -0.348   0.971   0.067  0.00  0.00     0.002 A 
ATOM      3  C4  UNL d   1       1.013   0.924   0.376  0.00  0.00     0.002 A 
ATOM      4  C5  UNL d   1       1.587  -0.264   0.824  0.00  0.00    -0.004 A 
ATOM      5  C6  UNL d   1       0.800  -1.406   0.970  0.00  0.00     0.002 A 
ATOM      6  C7  UNL d   1      -0.561  -1.361   0.663  0.00  0.00     0.002 A 
ENDROOT
BRANCH   1   7
ATOM      7  C1  UNL d   1      -2.605  -0.137  -0.170  0.00  0.00     0.055 C 
ATOM      8  C   UNL d   1      -2.787   0.239  -1.634  0.00  0.00     0.019 C 
ENDBRANCH   1   7
TORSDOF 1
ENDMDL
