MODEL 1
REMARK minimizedAffinity -3.32285285
REMARK minimizedRMSD -1
REMARK  1 active torsions:
REMARK  status: ('A' for Active; 'I' for Inactive)
REMARK    1  A    between atoms: C1_2  and  C2_3 
ROOT
ATOM      1  C2  UNL d   1      -3.348   1.745  -3.026  0.00  0.00    -0.077 A 
ATOM      2  C3  UNL d   1      -3.286   0.607  -3.842  0.00  0.00     0.002 A 
ATOM      3  C4  UNL d   1      -2.902  -0.625  -3.309  0.00  0.00     0.002 A 
ATOM      4  C5  UNL d   1      -2.582  -0.732  -1.957  0.00  0.00    -0.004 A 
ATOM      5  C6  UNL d   1      -2.638   0.394  -1.138  0.00  0.00     0.002 A 
ATOM      6  C7  UNL d   1      -3.020   1.627  -1.669  0.00  0.00     0.002 A 
ENDROOT
BRANCH   1   7
ATOM      7  C1  UNL d   1      -3.809   3.064  -3.588  0.00  0.00     0.055 C 
ATOM      8  C   UNL d   1      -4.449   3.930  -2.514  0.00  0.00     0.019 C 
ENDBRANCH   1   7
TORSDOF 1
ENDMDL
