MODEL 1
REMARK minimizedAffinity -3.09031963
REMARK minimizedRMSD -1
REMARK  1 active torsions:
REMARK  status: ('A' for Active; 'I' for Inactive)
REMARK    1  A    between atoms: C1_2  and  C2_3 
ROOT
ATOM      1  C2  UNL d   1       1.269   0.552   0.300  0.00  0.00    -0.077 A 
ATOM      2  C3  UNL d   1       0.709  -0.734   0.290  0.00  0.00     0.002 A 
ATOM      3  C4  UNL d   1      -0.614  -0.924  -0.114  0.00  0.00     0.002 A 
ATOM      4  C5  UNL d   1      -1.386   0.164  -0.514  0.00  0.00    -0.004 A 
ATOM      5  C6  UNL d   1      -0.839   1.447  -0.505  0.00  0.00     0.002 A 
ATOM      6  C7  UNL d   1       0.483   1.639  -0.101  0.00  0.00     0.002 A 
ENDROOT
BRANCH   1   7
ATOM      7  C1  UNL d   1       2.711   0.753   0.687  0.00  0.00     0.055 C 
ATOM      8  C   UNL d   1       3.305  -0.513   1.286  0.00  0.00     0.019 C 
ENDBRANCH   1   7
TORSDOF 1
ENDMDL
