MODEL 1
REMARK minimizedAffinity -4.59298992
REMARK minimizedRMSD -1
REMARK  1 active torsions:
REMARK  status: ('A' for Active; 'I' for Inactive)
REMARK    1  A    between atoms: C1_2  and  C2_3 
ROOT
ATOM      1  C2  UNL d   1      -0.279   0.377  -0.156  0.00  0.00    -0.077 A 
ATOM      2  C3  UNL d   1       0.588  -0.603   0.346  0.00  0.00     0.002 A 
ATOM      3  C4  UNL d   1       1.896  -0.273   0.704  0.00  0.00     0.002 A 
ATOM      4  C5  UNL d   1       2.348   1.038   0.567  0.00  0.00    -0.004 A 
ATOM      5  C6  UNL d   1       1.494   2.020   0.066  0.00  0.00     0.002 A 
ATOM      6  C7  UNL d   1       0.186   1.691  -0.293  0.00  0.00     0.002 A 
ENDROOT
BRANCH   1   7
ATOM      7  C1  UNL d   1      -1.706   0.033  -0.497  0.00  0.00     0.055 C 
ATOM      8  C   UNL d   1      -1.888  -0.154  -1.996  0.00  0.00     0.019 C 
ENDBRANCH   1   7
TORSDOF 1
ENDMDL
