MODEL 1
REMARK minimizedAffinity -3.52599621
REMARK minimizedRMSD -1
REMARK  1 active torsions:
REMARK  status: ('A' for Active; 'I' for Inactive)
REMARK    1  A    between atoms: C1_2  and  C2_3 
ROOT
ATOM      1  C2  UNL d   1      -0.086   0.076  -0.072  0.00  0.00    -0.077 A 
ATOM      2  C3  UNL d   1       0.631  -1.006   0.457  0.00  0.00     0.002 A 
ATOM      3  C4  UNL d   1       1.942  -0.834   0.906  0.00  0.00     0.002 A 
ATOM      4  C5  UNL d   1       2.545   0.420   0.834  0.00  0.00    -0.004 A 
ATOM      5  C6  UNL d   1       1.841   1.502   0.308  0.00  0.00     0.002 A 
ATOM      6  C7  UNL d   1       0.532   1.331  -0.143  0.00  0.00     0.002 A 
ENDROOT
BRANCH   1   7
ATOM      7  C1  UNL d   1      -1.516  -0.097  -0.512  0.00  0.00     0.055 C 
ATOM      8  C   UNL d   1      -1.599  -0.563  -1.958  0.00  0.00     0.019 C 
ENDBRANCH   1   7
TORSDOF 1
ENDMDL
