MODEL 1
REMARK minimizedAffinity -4.84950876
REMARK minimizedRMSD -1
REMARK  1 active torsions:
REMARK  status: ('A' for Active; 'I' for Inactive)
REMARK    1  A    between atoms: C1_2  and  C2_3 
ROOT
ATOM      1  C2  UNL d   1       0.593   0.321   0.374  0.00  0.00    -0.077 A 
ATOM      2  C3  UNL d   1       0.496  -0.583  -0.694  0.00  0.00     0.002 A 
ATOM      3  C4  UNL d   1      -0.670  -0.649  -1.459  0.00  0.00     0.002 A 
ATOM      4  C5  UNL d   1      -1.745   0.188  -1.167  0.00  0.00    -0.004 A 
ATOM      5  C6  UNL d   1      -1.659   1.088  -0.106  0.00  0.00     0.002 A 
ATOM      6  C7  UNL d   1      -0.495   1.155   0.660  0.00  0.00     0.002 A 
ENDROOT
BRANCH   1   7
ATOM      7  C1  UNL d   1       1.868   0.428   1.170  0.00  0.00     0.055 C 
ATOM      8  C   UNL d   1       3.077   0.036   0.333  0.00  0.00     0.019 C 
ENDBRANCH   1   7
TORSDOF 1
ENDMDL
