MODEL 1
REMARK minimizedAffinity -4.46993208
REMARK minimizedRMSD -1
REMARK  1 active torsions:
REMARK  status: ('A' for Active; 'I' for Inactive)
REMARK    1  A    between atoms: C1_2  and  C2_3 
ROOT
ATOM      1  C2  UNL d   1      -0.022  -0.153   0.516  0.00  0.00    -0.077 A 
ATOM      2  C3  UNL d   1      -0.092  -1.360   1.225  0.00  0.00     0.002 A 
ATOM      3  C4  UNL d   1       1.002  -1.806   1.970  0.00  0.00     0.002 A 
ATOM      4  C5  UNL d   1       2.170  -1.048   2.017  0.00  0.00    -0.004 A 
ATOM      5  C6  UNL d   1       2.250   0.153   1.314  0.00  0.00     0.002 A 
ATOM      6  C7  UNL d   1       1.158   0.599   0.567  0.00  0.00     0.002 A 
ENDROOT
BRANCH   1   7
ATOM      7  C1  UNL d   1      -1.218   0.354  -0.248  0.00  0.00     0.055 C 
ATOM      8  C   UNL d   1      -1.478  -0.487  -1.489  0.00  0.00     0.019 C 
ENDBRANCH   1   7
TORSDOF 1
ENDMDL
