MODEL 1
REMARK minimizedAffinity 12.3252945
REMARK minimizedRMSD -1
REMARK  2 active torsions:
REMARK  status: ('A' for Active; 'I' for Inactive)
REMARK    1  A    between atoms: C2'_3  and  C1'_4 
REMARK    2  A    between atoms: C1'_4  and  C1_5 
ROOT
ATOM      1  C1  I4B d   1      -0.342  -1.061   3.155  0.00  0.00    -0.075 A 
ATOM      2  C2  I4B d   1      -0.773  -1.126   1.853  0.00  0.00     0.003 A 
ATOM      3  C3  I4B d   1       0.085  -0.734   0.797  0.00  0.00     0.002 A 
ATOM      4  C4  I4B d   1       1.339  -0.238   1.089  0.00  0.00    -0.004 A 
ATOM      5  C5  I4B d   1       1.783  -0.194   2.408  0.00  0.00     0.002 A 
ATOM      6  C6  I4B d   1       0.942  -0.619   3.447  0.00  0.00     0.003 A 
ENDROOT
BRANCH   1   7
ATOM      7  C1' I4B d   1      -1.286  -1.451   4.247  0.00  0.00     0.060 C 
BRANCH   7   8
ATOM      8  C2' I4B d   1      -1.014  -2.899   4.604  0.00  0.00    -0.013 C 
ATOM      9  C4' I4B d   1      -0.398  -3.017   5.973  0.00  0.00     0.013 C 
ATOM     10  C3' I4B d   1      -2.312  -3.646   4.527  0.00  0.00     0.013 C 
ENDBRANCH   7   8
ENDBRANCH   1   7
TORSDOF 2
ENDMDL
