MODEL 1
REMARK minimizedAffinity 16.8923206
REMARK minimizedRMSD -1
REMARK  2 active torsions:
REMARK  status: ('A' for Active; 'I' for Inactive)
REMARK    1  A    between atoms: C2'_3  and  C1'_4 
REMARK    2  A    between atoms: C1'_4  and  C1_5 
ROOT
ATOM      1  C1  I4B d   1       1.139  -3.350  -2.140  0.00  0.00    -0.075 A 
ATOM      2  C2  I4B d   1       1.429  -2.992  -0.847  0.00  0.00     0.003 A 
ATOM      3  C3  I4B d   1       1.213  -1.663  -0.411  0.00  0.00     0.002 A 
ATOM      4  C4  I4B d   1       0.757  -0.718  -1.307  0.00  0.00    -0.004 A 
ATOM      5  C5  I4B d   1       0.442  -1.088  -2.612  0.00  0.00     0.002 A 
ATOM      6  C6  I4B d   1       0.623  -2.416  -3.028  0.00  0.00     0.003 A 
ENDROOT
BRANCH   1   7
ATOM      7  C1' I4B d   1       1.410  -4.755  -2.577  0.00  0.00     0.060 C 
BRANCH   7   8
ATOM      8  C2' I4B d   1       1.832  -4.719  -4.032  0.00  0.00    -0.013 C 
ATOM      9  C4' I4B d   1       3.324  -4.556  -4.163  0.00  0.00     0.013 C 
ATOM     10  C3' I4B d   1       1.367  -5.988  -4.681  0.00  0.00     0.013 C 
ENDBRANCH   7   8
ENDBRANCH   1   7
TORSDOF 2
ENDMDL
