MODEL 1
REMARK minimizedAffinity 13.0067549
REMARK minimizedRMSD -1
REMARK  2 active torsions:
REMARK  status: ('A' for Active; 'I' for Inactive)
REMARK    1  A    between atoms: C2'_3  and  C1'_4 
REMARK    2  A    between atoms: C1'_4  and  C1_5 
ROOT
ATOM      1  C1  I4B d   1       1.114  -0.693   1.083  0.00  0.00    -0.075 A 
ATOM      2  C2  I4B d   1       1.313  -1.802   0.300  0.00  0.00     0.003 A 
ATOM      3  C3  I4B d   1       0.517  -2.958   0.486  0.00  0.00     0.002 A 
ATOM      4  C4  I4B d   1      -0.427  -2.979   1.493  0.00  0.00    -0.004 A 
ATOM      5  C5  I4B d   1      -0.643  -1.845   2.271  0.00  0.00     0.002 A 
ATOM      6  C6  I4B d   1       0.123  -0.690   2.057  0.00  0.00     0.003 A 
ENDROOT
BRANCH   1   7
ATOM      7  C1' I4B d   1       1.995   0.499   0.881  0.00  0.00     0.060 C 
BRANCH   7   8
ATOM      8  C2' I4B d   1       1.700   1.071  -0.490  0.00  0.00    -0.013 C 
ATOM      9  C4' I4B d   1       0.748   2.235  -0.402  0.00  0.00     0.013 C 
ATOM     10  C3' I4B d   1       3.002   1.483  -1.110  0.00  0.00     0.013 C 
ENDBRANCH   7   8
ENDBRANCH   1   7
TORSDOF 2
ENDMDL
