MODEL 1
REMARK minimizedAffinity 0.195565462
REMARK minimizedRMSD -1
REMARK  2 active torsions:
REMARK  status: ('A' for Active; 'I' for Inactive)
REMARK    1  A    between atoms: C2'_3  and  C1'_4 
REMARK    2  A    between atoms: C1'_4  and  C1_5 
ROOT
ATOM      1  C1  I4B d   1      -4.821  -5.601  -0.449  0.00  0.00    -0.075 A 
ATOM      2  C2  I4B d   1      -3.523  -5.996  -0.659  0.00  0.00     0.003 A 
ATOM      3  C3  I4B d   1      -2.867  -5.672  -1.871  0.00  0.00     0.002 A 
ATOM      4  C4  I4B d   1      -3.557  -5.001  -2.859  0.00  0.00    -0.004 A 
ATOM      5  C5  I4B d   1      -4.865  -4.581  -2.635  0.00  0.00     0.002 A 
ATOM      6  C6  I4B d   1      -5.498  -4.872  -1.418  0.00  0.00     0.003 A 
ENDROOT
BRANCH   1   7
ATOM      7  C1' I4B d   1      -5.494  -5.989   0.830  0.00  0.00     0.060 C 
BRANCH   7   8
ATOM      8  C2' I4B d   1      -4.511  -5.768   1.961  0.00  0.00    -0.013 C 
ATOM      9  C4' I4B d   1      -3.911  -4.388   1.900  0.00  0.00     0.013 C 
ATOM     10  C3' I4B d   1      -5.238  -5.985   3.255  0.00  0.00     0.013 C 
ENDBRANCH   7   8
ENDBRANCH   1   7
TORSDOF 2
ENDMDL
