MODEL 1
REMARK minimizedAffinity 15.94841
REMARK minimizedRMSD -1
REMARK  2 active torsions:
REMARK  status: ('A' for Active; 'I' for Inactive)
REMARK    1  A    between atoms: C2'_3  and  C1'_4 
REMARK    2  A    between atoms: C1'_4  and  C1_5 
ROOT
ATOM      1  C1  I4B d   1       1.344  -0.228   1.764  0.00  0.00    -0.075 A 
ATOM      2  C2  I4B d   1       2.023  -0.248   2.957  0.00  0.00     0.003 A 
ATOM      3  C3  I4B d   1       3.439  -0.245   2.971  0.00  0.00     0.002 A 
ATOM      4  C4  I4B d   1       4.131  -0.274   1.778  0.00  0.00    -0.004 A 
ATOM      5  C5  I4B d   1       3.441  -0.230   0.569  0.00  0.00     0.002 A 
ATOM      6  C6  I4B d   1       2.039  -0.195   0.562  0.00  0.00     0.003 A 
ENDROOT
BRANCH   1   7
ATOM      7  C1' I4B d   1      -0.151  -0.265   1.785  0.00  0.00     0.060 C 
BRANCH   7   8
ATOM      8  C2' I4B d   1      -0.580  -1.710   1.939  0.00  0.00    -0.013 C 
ATOM      9  C4' I4B d   1      -1.032  -1.997   3.347  0.00  0.00     0.013 C 
ATOM     10  C3' I4B d   1      -1.679  -1.974   0.953  0.00  0.00     0.013 C 
ENDBRANCH   7   8
ENDBRANCH   1   7
TORSDOF 2
ENDMDL
