MODEL 1
REMARK minimizedAffinity 9.34909058
REMARK minimizedRMSD -1
REMARK  2 active torsions:
REMARK  status: ('A' for Active; 'I' for Inactive)
REMARK    1  A    between atoms: C2'_3  and  C1'_4 
REMARK    2  A    between atoms: C1'_4  and  C1_5 
ROOT
ATOM      1  C1  I4B d   1      -2.240   3.017  -3.341  0.00  0.00    -0.075 A 
ATOM      2  C2  I4B d   1      -1.561   3.043  -2.148  0.00  0.00     0.003 A 
ATOM      3  C3  I4B d   1      -0.385   3.819  -2.014  0.00  0.00     0.002 A 
ATOM      4  C4  I4B d   1       0.102   4.509  -3.106  0.00  0.00    -0.004 A 
ATOM      5  C5  I4B d   1      -0.599   4.499  -4.308  0.00  0.00     0.002 A 
ATOM      6  C6  I4B d   1      -1.785   3.759  -4.423  0.00  0.00     0.003 A 
ENDROOT
BRANCH   1   7
ATOM      7  C1' I4B d   1      -3.461   2.160  -3.457  0.00  0.00     0.060 C 
BRANCH   7   8
ATOM      8  C2' I4B d   1      -4.674   3.066  -3.400  0.00  0.00    -0.013 C 
ATOM      9  C4' I4B d   1      -5.259   3.281  -4.771  0.00  0.00     0.013 C 
ATOM     10  C3' I4B d   1      -5.676   2.441  -2.476  0.00  0.00     0.013 C 
ENDBRANCH   7   8
ENDBRANCH   1   7
TORSDOF 2
ENDMDL
