MODEL 1
REMARK minimizedAffinity 7.32147598
REMARK minimizedRMSD -1
REMARK  2 active torsions:
REMARK  status: ('A' for Active; 'I' for Inactive)
REMARK    1  A    between atoms: C2'_3  and  C1'_4 
REMARK    2  A    between atoms: C1'_4  and  C1_5 
ROOT
ATOM      1  C1  I4B d   1       1.350  -0.398   0.775  0.00  0.00    -0.075 A 
ATOM      2  C2  I4B d   1       1.161   0.249  -0.421  0.00  0.00     0.003 A 
ATOM      3  C3  I4B d   1       2.267   0.548  -1.252  0.00  0.00     0.002 A 
ATOM      4  C4  I4B d   1       3.541   0.230  -0.829  0.00  0.00    -0.004 A 
ATOM      5  C5  I4B d   1       3.730  -0.446   0.373  0.00  0.00     0.002 A 
ATOM      6  C6  I4B d   1       2.626  -0.773   1.175  0.00  0.00     0.003 A 
ENDROOT
BRANCH   1   7
ATOM      7  C1' I4B d   1       0.163  -0.669   1.644  0.00  0.00     0.060 C 
BRANCH   7   8
ATOM      8  C2' I4B d   1      -0.287  -2.093   1.389  0.00  0.00    -0.013 C 
ATOM      9  C4' I4B d   1      -1.787  -2.209   1.447  0.00  0.00     0.013 C 
ATOM     10  C3' I4B d   1       0.237  -2.510   0.047  0.00  0.00     0.013 C 
ENDBRANCH   7   8
ENDBRANCH   1   7
TORSDOF 2
ENDMDL
