MODEL 1
REMARK minimizedAffinity 6.47302628
REMARK minimizedRMSD -1
REMARK  2 active torsions:
REMARK  status: ('A' for Active; 'I' for Inactive)
REMARK    1  A    between atoms: C2'_3  and  C1'_4 
REMARK    2  A    between atoms: C1'_4  and  C1_5 
ROOT
ATOM      1  C1  I4B d   1      -0.056   0.396   0.130  0.00  0.00    -0.075 A 
ATOM      2  C2  I4B d   1       0.349  -0.270   1.260  0.00  0.00     0.003 A 
ATOM      3  C3  I4B d   1       0.373  -1.686   1.282  0.00  0.00     0.002 A 
ATOM      4  C4  I4B d   1      -0.061  -2.391   0.178  0.00  0.00    -0.004 A 
ATOM      5  C5  I4B d   1      -0.449  -1.713  -0.974  0.00  0.00     0.002 A 
ATOM      6  C6  I4B d   1      -0.435  -0.311  -1.003  0.00  0.00     0.003 A 
ENDROOT
BRANCH   1   7
ATOM      7  C1' I4B d   1      -0.100   1.891   0.152  0.00  0.00     0.060 C 
BRANCH   7   8
ATOM      8  C2' I4B d   1       0.510   2.395  -1.139  0.00  0.00    -0.013 C 
ATOM      9  C4' I4B d   1      -0.271   3.558  -1.694  0.00  0.00     0.013 C 
ATOM     10  C3' I4B d   1       1.932   2.782  -0.860  0.00  0.00     0.013 C 
ENDBRANCH   7   8
ENDBRANCH   1   7
TORSDOF 2
ENDMDL
