MODEL 1
REMARK minimizedAffinity 5.66637802
REMARK minimizedRMSD -1
REMARK  2 active torsions:
REMARK  status: ('A' for Active; 'I' for Inactive)
REMARK    1  A    between atoms: C2'_3  and  C1'_4 
REMARK    2  A    between atoms: C1'_4  and  C1_5 
ROOT
ATOM      1  C1  I4B d   1      -1.059  -4.689  -1.570  0.00  0.00    -0.075 A 
ATOM      2  C2  I4B d   1      -0.645  -3.758  -0.651  0.00  0.00     0.003 A 
ATOM      3  C3  I4B d   1      -1.597  -3.017   0.091  0.00  0.00     0.002 A 
ATOM      4  C4  I4B d   1      -2.943  -3.202  -0.153  0.00  0.00    -0.004 A 
ATOM      5  C5  I4B d   1      -3.360  -4.163  -1.070  0.00  0.00     0.002 A 
ATOM      6  C6  I4B d   1      -2.413  -4.920  -1.774  0.00  0.00     0.003 A 
ENDROOT
BRANCH   1   7
ATOM      7  C1' I4B d   1      -0.027  -5.431  -2.359  0.00  0.00     0.060 C 
BRANCH   7   8
ATOM      8  C2' I4B d   1      -0.249  -5.121  -3.825  0.00  0.00    -0.013 C 
ATOM      9  C4' I4B d   1      -0.018  -3.662  -4.116  0.00  0.00     0.013 C 
ATOM     10  C3' I4B d   1       0.677  -5.986  -4.627  0.00  0.00     0.013 C 
ENDBRANCH   7   8
ENDBRANCH   1   7
TORSDOF 2
ENDMDL
