MODEL 1
REMARK minimizedAffinity 9.85417271
REMARK minimizedRMSD -1
REMARK  2 active torsions:
REMARK  status: ('A' for Active; 'I' for Inactive)
REMARK    1  A    between atoms: C2'_3  and  C1'_4 
REMARK    2  A    between atoms: C1'_4  and  C1_5 
ROOT
ATOM      1  C1  I4B d   1      -0.405  -1.020   2.616  0.00  0.00    -0.075 A 
ATOM      2  C2  I4B d   1      -0.510  -1.525   1.343  0.00  0.00     0.003 A 
ATOM      3  C3  I4B d   1       0.605  -1.496   0.471  0.00  0.00     0.002 A 
ATOM      4  C4  I4B d   1       1.782  -0.912   0.892  0.00  0.00    -0.004 A 
ATOM      5  C5  I4B d   1       1.894  -0.422   2.189  0.00  0.00     0.002 A 
ATOM      6  C6  I4B d   1       0.798  -0.487   3.061  0.00  0.00     0.003 A 
ENDROOT
BRANCH   1   7
ATOM      7  C1' I4B d   1      -1.612  -1.036   3.499  0.00  0.00     0.060 C 
BRANCH   7   8
ATOM      8  C2' I4B d   1      -1.303  -1.915   4.695  0.00  0.00    -0.013 C 
ATOM      9  C4' I4B d   1      -1.635  -1.215   5.986  0.00  0.00     0.013 C 
ATOM     10  C3' I4B d   1      -2.087  -3.185   4.550  0.00  0.00     0.013 C 
ENDBRANCH   7   8
ENDBRANCH   1   7
TORSDOF 2
ENDMDL
