MODEL 1
REMARK minimizedAffinity -2.938447
REMARK minimizedRMSD -1
REMARK  2 active torsions:
REMARK  status: ('A' for Active; 'I' for Inactive)
REMARK    1  A    between atoms: C2'_3  and  C1'_4 
REMARK    2  A    between atoms: C1'_4  and  C1_5 
ROOT
ATOM      1  C1  I4B d   1      -0.640  -0.309   0.593  0.00  0.00    -0.075 A 
ATOM      2  C2  I4B d   1      -1.311  -1.042  -0.354  0.00  0.00     0.003 A 
ATOM      3  C3  I4B d   1      -2.261  -0.417  -1.198  0.00  0.00     0.002 A 
ATOM      4  C4  I4B d   1      -2.544   0.923  -1.027  0.00  0.00    -0.004 A 
ATOM      5  C5  I4B d   1      -1.846   1.669  -0.082  0.00  0.00     0.002 A 
ATOM      6  C6  I4B d   1      -0.879   1.053   0.725  0.00  0.00     0.003 A 
ENDROOT
BRANCH   1   7
ATOM      7  C1' I4B d   1       0.333  -1.008   1.489  0.00  0.00     0.060 C 
BRANCH   7   8
ATOM      8  C2' I4B d   1       1.351  -1.711   0.615  0.00  0.00    -0.013 C 
ATOM      9  C4' I4B d   1       2.719  -1.101   0.773  0.00  0.00     0.013 C 
ATOM     10  C3' I4B d   1       1.360  -3.163   0.990  0.00  0.00     0.013 C 
ENDBRANCH   7   8
ENDBRANCH   1   7
TORSDOF 2
ENDMDL
