MODEL 1
REMARK minimizedAffinity 1.08213139
REMARK minimizedRMSD -1
REMARK  2 active torsions:
REMARK  status: ('A' for Active; 'I' for Inactive)
REMARK    1  A    between atoms: C2'_3  and  C1'_4 
REMARK    2  A    between atoms: C1'_4  and  C1_5 
ROOT
ATOM      1  C1  I4B d   1      -1.961  -0.562  -0.165  0.00  0.00    -0.075 A 
ATOM      2  C2  I4B d   1      -2.388   0.190   0.901  0.00  0.00     0.003 A 
ATOM      3  C3  I4B d   1      -3.748   0.569   1.006  0.00  0.00     0.002 A 
ATOM      4  C4  I4B d   1      -4.631   0.221   0.004  0.00  0.00    -0.004 A 
ATOM      5  C5  I4B d   1      -4.200  -0.561  -1.065  0.00  0.00     0.002 A 
ATOM      6  C6  I4B d   1      -2.860  -0.966  -1.144  0.00  0.00     0.003 A 
ENDROOT
BRANCH   1   7
ATOM      7  C1' I4B d   1      -0.511  -0.918  -0.261  0.00  0.00     0.060 C 
BRANCH   7   8
ATOM      8  C2' I4B d   1       0.223  -0.187   0.844  0.00  0.00    -0.013 C 
ATOM      9  C4' I4B d   1       0.934  -1.151   1.757  0.00  0.00     0.013 C 
ATOM     10  C3' I4B d   1       1.188   0.767   0.207  0.00  0.00     0.013 C 
ENDBRANCH   7   8
ENDBRANCH   1   7
TORSDOF 2
ENDMDL
