MODEL 1
REMARK minimizedAffinity 6.07035255
REMARK minimizedRMSD -1
REMARK  2 active torsions:
REMARK  status: ('A' for Active; 'I' for Inactive)
REMARK    1  A    between atoms: C2'_3  and  C1'_4 
REMARK    2  A    between atoms: C1'_4  and  C1_5 
ROOT
ATOM      1  C1  I4B d   1       1.285   1.198  -0.811  0.00  0.00    -0.075 A 
ATOM      2  C2  I4B d   1       2.557   1.569  -1.169  0.00  0.00     0.003 A 
ATOM      3  C3  I4B d   1       2.886   2.939  -1.312  0.00  0.00     0.002 A 
ATOM      4  C4  I4B d   1       1.906   3.895  -1.139  0.00  0.00    -0.004 A 
ATOM      5  C5  I4B d   1       0.623   3.518  -0.754  0.00  0.00     0.002 A 
ATOM      6  C6  I4B d   1       0.313   2.161  -0.577  0.00  0.00     0.003 A 
ENDROOT
BRANCH   1   7
ATOM      7  C1' I4B d   1       0.964  -0.259  -0.700  0.00  0.00     0.060 C 
BRANCH   7   8
ATOM      8  C2' I4B d   1       1.199  -0.681   0.736  0.00  0.00    -0.013 C 
ATOM      9  C4' I4B d   1       2.505  -0.140   1.256  0.00  0.00     0.013 C 
ATOM     10  C3' I4B d   1       0.044  -0.192   1.558  0.00  0.00     0.013 C 
ENDBRANCH   7   8
ENDBRANCH   1   7
TORSDOF 2
ENDMDL
