MODEL 1
REMARK minimizedAffinity 6.00461197
REMARK minimizedRMSD -1
REMARK  2 active torsions:
REMARK  status: ('A' for Active; 'I' for Inactive)
REMARK    1  A    between atoms: C2'_3  and  C1'_4 
REMARK    2  A    between atoms: C1'_4  and  C1_5 
ROOT
ATOM      1  C1  I4B d   1       2.405  -1.177   0.558  0.00  0.00    -0.075 A 
ATOM      2  C2  I4B d   1       1.204  -0.537   0.735  0.00  0.00     0.003 A 
ATOM      3  C3  I4B d   1      -0.008  -1.265   0.665  0.00  0.00     0.002 A 
ATOM      4  C4  I4B d   1       0.024  -2.612   0.367  0.00  0.00    -0.004 A 
ATOM      5  C5  I4B d   1       1.243  -3.264   0.211  0.00  0.00     0.002 A 
ATOM      6  C6  I4B d   1       2.443  -2.545   0.319  0.00  0.00     0.003 A 
ENDROOT
BRANCH   1   7
ATOM      7  C1' I4B d   1       3.665  -0.372   0.607  0.00  0.00     0.060 C 
BRANCH   7   8
ATOM      8  C2' I4B d   1       4.212  -0.445   2.018  0.00  0.00    -0.013 C 
ATOM      9  C4' I4B d   1       5.687  -0.145   2.047  0.00  0.00     0.013 C 
ATOM     10  C3' I4B d   1       3.445   0.528   2.863  0.00  0.00     0.013 C 
ENDBRANCH   7   8
ENDBRANCH   1   7
TORSDOF 2
ENDMDL
