MODEL 1
REMARK minimizedAffinity 9.79935265
REMARK minimizedRMSD -1
REMARK  2 active torsions:
REMARK  status: ('A' for Active; 'I' for Inactive)
REMARK    1  A    between atoms: C2'_3  and  C1'_4 
REMARK    2  A    between atoms: C1'_4  and  C1_5 
ROOT
ATOM      1  C1  I4B d   1      -1.527  -2.583  -0.024  0.00  0.00    -0.075 A 
ATOM      2  C2  I4B d   1      -1.867  -1.421   0.623  0.00  0.00     0.003 A 
ATOM      3  C3  I4B d   1      -1.073  -0.943   1.693  0.00  0.00     0.002 A 
ATOM      4  C4  I4B d   1       0.017  -1.679   2.112  0.00  0.00    -0.004 A 
ATOM      5  C5  I4B d   1       0.373  -2.844   1.440  0.00  0.00     0.002 A 
ATOM      6  C6  I4B d   1      -0.396  -3.293   0.357  0.00  0.00     0.003 A 
ENDROOT
BRANCH   1   7
ATOM      7  C1' I4B d   1      -2.407  -3.077  -1.129  0.00  0.00     0.060 C 
BRANCH   7   8
ATOM      8  C2' I4B d   1      -1.783  -4.336  -1.696  0.00  0.00    -0.013 C 
ATOM      9  C4' I4B d   1      -2.778  -5.465  -1.741  0.00  0.00     0.013 C 
ATOM     10  C3' I4B d   1      -1.262  -4.018  -3.065  0.00  0.00     0.013 C 
ENDBRANCH   7   8
ENDBRANCH   1   7
TORSDOF 2
ENDMDL
