MODEL 1
REMARK minimizedAffinity 1.73150003
REMARK minimizedRMSD -1
REMARK  0 active torsions:
REMARK  status: ('A' for Active; 'I' for Inactive)
ROOT
ATOM      1  C   UNL d   1       5.728  -5.912   5.277  0.00  0.00     0.020 A 
ATOM      2  C1  UNL d   1       5.801  -5.782   3.890  0.00  0.00     0.020 A 
ATOM      3  C2  UNL d   1       4.630  -5.717   3.132  0.00  0.00     0.034 A 
ATOM      4  C3  UNL d   1       3.381  -5.782   3.760  0.00  0.00     0.017 A 
ATOM      5  C4  UNL d   1       3.308  -5.912   5.152  0.00  0.00     0.017 A 
ATOM      6  C5  UNL d   1       4.484  -5.977   5.906  0.00  0.00     0.034 A 
ATOM      7 Cl   UNL d   1       1.804  -5.998   5.998  0.00  0.00    -0.070 Cl
ATOM      8 Cl1  UNL d   1       1.974  -5.695   2.761  0.00  0.00    -0.070 Cl
ENDROOT
TORSDOF 0
ENDMDL
