MODEL 1
REMARK minimizedAffinity 10.9081554
REMARK minimizedRMSD -1
REMARK  0 active torsions:
REMARK  status: ('A' for Active; 'I' for Inactive)
ROOT
ATOM      1  C   UNL d   1       2.615  -0.038  -4.150  0.00  0.00     0.020 A 
ATOM      2  C1  UNL d   1       3.231   0.498  -5.280  0.00  0.00     0.020 A 
ATOM      3  C2  UNL d   1       3.651   1.830  -5.279  0.00  0.00     0.034 A 
ATOM      4  C3  UNL d   1       3.456   2.630  -4.147  0.00  0.00     0.017 A 
ATOM      5  C4  UNL d   1       2.837   2.090  -3.014  0.00  0.00     0.017 A 
ATOM      6  C5  UNL d   1       2.419   0.756  -3.019  0.00  0.00     0.034 A 
ATOM      7 Cl   UNL d   1       2.562   3.015  -1.580  0.00  0.00    -0.070 Cl
ATOM      8 Cl1  UNL d   1       4.000   4.268  -4.217  0.00  0.00    -0.070 Cl
ENDROOT
TORSDOF 0
ENDMDL
