MODEL 1
REMARK minimizedAffinity 11.2064676
REMARK minimizedRMSD -1
REMARK  0 active torsions:
REMARK  status: ('A' for Active; 'I' for Inactive)
ROOT
ATOM      1  C   UNL d   1      -3.869  -3.939  -5.946  0.00  0.00     0.020 A 
ATOM      2  C1  UNL d   1      -3.777  -5.330  -5.965  0.00  0.00     0.020 A 
ATOM      3  C2  UNL d   1      -2.523  -5.946  -5.981  0.00  0.00     0.034 A 
ATOM      4  C3  UNL d   1      -1.358  -5.171  -5.978  0.00  0.00     0.017 A 
ATOM      5  C4  UNL d   1      -1.452  -3.775  -5.959  0.00  0.00     0.017 A 
ATOM      6  C5  UNL d   1      -2.710  -3.163  -5.943  0.00  0.00     0.034 A 
ATOM      7 Cl   UNL d   1      -0.059  -2.752  -5.954  0.00  0.00    -0.070 Cl
ATOM      8 Cl1  UNL d   1       0.158  -6.000  -5.997  0.00  0.00    -0.070 Cl
ENDROOT
TORSDOF 0
ENDMDL
