MODEL 1
REMARK minimizedAffinity 13.0796814
REMARK minimizedRMSD -1
REMARK  0 active torsions:
REMARK  status: ('A' for Active; 'I' for Inactive)
ROOT
ATOM      1  C   UNL d   1      -2.628   0.893   1.497  0.00  0.00     0.020 A 
ATOM      2  C1  UNL d   1      -3.693   1.793   1.495  0.00  0.00     0.020 A 
ATOM      3  C2  UNL d   1      -3.558   3.037   2.113  0.00  0.00     0.034 A 
ATOM      4  C3  UNL d   1      -2.354   3.386   2.737  0.00  0.00     0.017 A 
ATOM      5  C4  UNL d   1      -1.285   2.482   2.738  0.00  0.00     0.017 A 
ATOM      6  C5  UNL d   1      -1.426   1.238   2.118  0.00  0.00     0.034 A 
ATOM      7 Cl   UNL d   1       0.231   2.842   3.487  0.00  0.00    -0.070 Cl
ATOM      8 Cl1  UNL d   1      -2.256   4.942   3.482  0.00  0.00    -0.070 Cl
ENDROOT
TORSDOF 0
ENDMDL
