MODEL 1
REMARK minimizedAffinity 14.3328762
REMARK minimizedRMSD -1
REMARK  0 active torsions:
REMARK  status: ('A' for Active; 'I' for Inactive)
ROOT
ATOM      1  C   UNL d   1       3.450   2.997  -5.909  0.00  0.00     0.020 A 
ATOM      2  C1  UNL d   1       3.460   4.146  -5.120  0.00  0.00     0.020 A 
ATOM      3  C2  UNL d   1       3.086   4.075  -3.777  0.00  0.00     0.034 A 
ATOM      4  C3  UNL d   1       2.699   2.851  -3.218  0.00  0.00     0.017 A 
ATOM      5  C4  UNL d   1       2.689   1.698  -4.011  0.00  0.00     0.017 A 
ATOM      6  C5  UNL d   1       3.065   1.775  -5.356  0.00  0.00     0.034 A 
ATOM      7 Cl   UNL d   1       2.224   0.152  -3.393  0.00  0.00    -0.070 Cl
ATOM      8 Cl1  UNL d   1       2.249   2.835  -1.550  0.00  0.00    -0.070 Cl
ENDROOT
TORSDOF 0
ENDMDL
