MODEL 1
REMARK minimizedAffinity 16.1301003
REMARK minimizedRMSD -1
REMARK  0 active torsions:
REMARK  status: ('A' for Active; 'I' for Inactive)
ROOT
ATOM      1  C   UNL d   1       0.980  -1.403  -2.503  0.00  0.00     0.020 A 
ATOM      2  C1  UNL d   1       0.954  -0.009  -2.522  0.00  0.00     0.020 A 
ATOM      3  C2  UNL d   1       1.526   0.686  -3.589  0.00  0.00     0.034 A 
ATOM      4  C3  UNL d   1       2.128  -0.013  -4.642  0.00  0.00     0.017 A 
ATOM      5  C4  UNL d   1       2.154  -1.412  -4.622  0.00  0.00     0.017 A 
ATOM      6  C5  UNL d   1       1.579  -2.103  -3.551  0.00  0.00     0.034 A 
ATOM      7 Cl   UNL d   1       2.878  -2.343  -5.886  0.00  0.00    -0.070 Cl
ATOM      8 Cl1  UNL d   1       2.816   0.911  -5.930  0.00  0.00    -0.070 Cl
ENDROOT
TORSDOF 0
ENDMDL
