MODEL 1
REMARK minimizedAffinity 11.0997353
REMARK minimizedRMSD -1
REMARK  0 active torsions:
REMARK  status: ('A' for Active; 'I' for Inactive)
ROOT
ATOM      1  C   UNL d   1       1.734  -0.277  -3.710  0.00  0.00     0.020 A 
ATOM      2  C1  UNL d   1       1.051  -1.241  -2.969  0.00  0.00     0.020 A 
ATOM      3  C2  UNL d   1       0.444  -0.892  -1.761  0.00  0.00     0.034 A 
ATOM      4  C3  UNL d   1       0.518   0.424  -1.290  0.00  0.00     0.017 A 
ATOM      5  C4  UNL d   1       1.204   1.391  -2.034  0.00  0.00     0.017 A 
ATOM      6  C5  UNL d   1       1.810   1.036  -3.243  0.00  0.00     0.034 A 
ATOM      7 Cl   UNL d   1       1.338   3.035  -1.517  0.00  0.00    -0.070 Cl
ATOM      8 Cl1  UNL d   1      -0.257   0.784   0.212  0.00  0.00    -0.070 Cl
ENDROOT
TORSDOF 0
ENDMDL
