MODEL 1
REMARK minimizedAffinity 12.8992176
REMARK minimizedRMSD -1
REMARK  0 active torsions:
REMARK  status: ('A' for Active; 'I' for Inactive)
ROOT
ATOM      1  C   UNL d   1      -6.000  -1.502  -1.906  0.00  0.00     0.020 A 
ATOM      2  C1  UNL d   1      -5.347  -0.975  -3.020  0.00  0.00     0.020 A 
ATOM      3  C2  UNL d   1      -4.621  -1.815  -3.866  0.00  0.00     0.034 A 
ATOM      4  C3  UNL d   1      -4.546  -3.187  -3.601  0.00  0.00     0.017 A 
ATOM      5  C4  UNL d   1      -5.201  -3.716  -2.483  0.00  0.00     0.017 A 
ATOM      6  C5  UNL d   1      -5.927  -2.870  -1.638  0.00  0.00     0.034 A 
ATOM      7 Cl   UNL d   1      -5.154  -5.398  -2.090  0.00  0.00    -0.070 Cl
ATOM      8 Cl1  UNL d   1      -3.631  -4.167  -4.690  0.00  0.00    -0.070 Cl
ENDROOT
TORSDOF 0
ENDMDL
