MODEL 1
REMARK minimizedAffinity 6.71630478
REMARK minimizedRMSD -1
REMARK  0 active torsions:
REMARK  status: ('A' for Active; 'I' for Inactive)
ROOT
ATOM      1  C   UNL d   1      -4.809  -5.996  -1.148  0.00  0.00     0.020 A 
ATOM      2  C1  UNL d   1      -4.215  -5.856   0.106  0.00  0.00     0.020 A 
ATOM      3  C2  UNL d   1      -4.157  -4.601   0.715  0.00  0.00     0.034 A 
ATOM      4  C3  UNL d   1      -4.694  -3.480   0.070  0.00  0.00     0.017 A 
ATOM      5  C4  UNL d   1      -5.290  -3.621  -1.188  0.00  0.00     0.017 A 
ATOM      6  C5  UNL d   1      -5.346  -4.881  -1.793  0.00  0.00     0.034 A 
ATOM      7 Cl   UNL d   1      -5.974  -2.285  -2.045  0.00  0.00    -0.070 Cl
ATOM      8 Cl1  UNL d   1      -4.587  -1.958   0.882  0.00  0.00    -0.070 Cl
ENDROOT
TORSDOF 0
ENDMDL
