MODEL 1
REMARK minimizedAffinity 13.1356411
REMARK minimizedRMSD -1
REMARK  0 active torsions:
REMARK  status: ('A' for Active; 'I' for Inactive)
ROOT
ATOM      1  C   UNL d   1       0.944  -1.662  -4.306  0.00  0.00     0.020 A 
ATOM      2  C1  UNL d   1       2.215  -1.318  -4.764  0.00  0.00     0.020 A 
ATOM      3  C2  UNL d   1       2.866  -0.199  -4.241  0.00  0.00     0.034 A 
ATOM      4  C3  UNL d   1       2.246   0.580  -3.257  0.00  0.00     0.017 A 
ATOM      5  C4  UNL d   1       0.970   0.234  -2.798  0.00  0.00     0.017 A 
ATOM      6  C5  UNL d   1       0.323  -0.888  -3.325  0.00  0.00     0.034 A 
ATOM      7 Cl   UNL d   1       0.142   1.147  -1.587  0.00  0.00    -0.070 Cl
ATOM      8 Cl1  UNL d   1       3.110   1.950  -2.655  0.00  0.00    -0.070 Cl
ENDROOT
TORSDOF 0
ENDMDL
