MODEL 1
REMARK minimizedAffinity 3.06738591
REMARK minimizedRMSD -1
REMARK  0 active torsions:
REMARK  status: ('A' for Active; 'I' for Inactive)
ROOT
ATOM      1  C   UNL d   1       1.440   0.758  -2.363  0.00  0.00     0.020 A 
ATOM      2  C1  UNL d   1       0.250   0.098  -2.059  0.00  0.00     0.020 A 
ATOM      3  C2  UNL d   1      -0.139  -1.019  -2.801  0.00  0.00     0.034 A 
ATOM      4  C3  UNL d   1       0.663  -1.479  -3.852  0.00  0.00     0.017 A 
ATOM      5  C4  UNL d   1       1.857  -0.816  -4.157  0.00  0.00     0.017 A 
ATOM      6  C5  UNL d   1       2.242   0.302  -3.410  0.00  0.00     0.034 A 
ATOM      7 Cl   UNL d   1       2.898  -1.326  -5.439  0.00  0.00    -0.070 Cl
ATOM      8 Cl1  UNL d   1       0.120  -2.866  -4.728  0.00  0.00    -0.070 Cl
ENDROOT
TORSDOF 0
ENDMDL
