MODEL 1
REMARK minimizedAffinity 11.1195784
REMARK minimizedRMSD -1
REMARK  0 active torsions:
REMARK  status: ('A' for Active; 'I' for Inactive)
ROOT
ATOM      1  C   UNL d   1       2.241  -1.074  -3.819  0.00  0.00     0.020 A 
ATOM      2  C1  UNL d   1       0.947  -1.554  -3.617  0.00  0.00     0.020 A 
ATOM      3  C2  UNL d   1       0.109  -0.933  -2.689  0.00  0.00     0.034 A 
ATOM      4  C3  UNL d   1       0.564   0.171  -1.958  0.00  0.00     0.017 A 
ATOM      5  C4  UNL d   1       1.862   0.652  -2.162  0.00  0.00     0.017 A 
ATOM      6  C5  UNL d   1       2.697   0.026  -3.093  0.00  0.00     0.034 A 
ATOM      7 Cl   UNL d   1       2.494   2.009  -1.298  0.00  0.00    -0.070 Cl
ATOM      8 Cl1  UNL d   1      -0.526   0.890  -0.827  0.00  0.00    -0.070 Cl
ENDROOT
TORSDOF 0
ENDMDL
