MODEL 1
REMARK minimizedAffinity 8.58191681
REMARK minimizedRMSD -1
REMARK  0 active torsions:
REMARK  status: ('A' for Active; 'I' for Inactive)
ROOT
ATOM      1  C   UNL d   1       1.785  -0.393  -3.550  0.00  0.00     0.020 A 
ATOM      2  C1  UNL d   1       2.856   0.492  -3.670  0.00  0.00     0.020 A 
ATOM      3  C2  UNL d   1       2.941   1.602  -2.826  0.00  0.00     0.034 A 
ATOM      4  C3  UNL d   1       1.955   1.830  -1.860  0.00  0.00     0.017 A 
ATOM      5  C4  UNL d   1       0.880   0.941  -1.741  0.00  0.00     0.017 A 
ATOM      6  C5  UNL d   1       0.799  -0.169  -2.588  0.00  0.00     0.034 A 
ATOM      7 Cl   UNL d   1      -0.376   1.155  -0.573  0.00  0.00    -0.070 Cl
ATOM      8 Cl1  UNL d   1       2.124   3.222  -0.851  0.00  0.00    -0.070 Cl
ENDROOT
TORSDOF 0
ENDMDL
