MODEL 1
REMARK minimizedAffinity 13.6380167
REMARK minimizedRMSD -1
REMARK  0 active torsions:
REMARK  status: ('A' for Active; 'I' for Inactive)
ROOT
ATOM      1  C   UNL d   1       5.981  -3.385   5.483  0.00  0.00     0.020 A 
ATOM      2  C1  UNL d   1       5.852  -3.646   4.119  0.00  0.00     0.020 A 
ATOM      3  C2  UNL d   1       5.716  -2.590   3.216  0.00  0.00     0.034 A 
ATOM      4  C3  UNL d   1       5.709  -1.268   3.675  0.00  0.00     0.017 A 
ATOM      5  C4  UNL d   1       5.839  -1.007   5.044  0.00  0.00     0.017 A 
ATOM      6  C5  UNL d   1       5.974  -2.068   5.944  0.00  0.00     0.034 A 
ATOM      7 Cl   UNL d   1       5.839   0.598   5.685  0.00  0.00    -0.070 Cl
ATOM      8 Cl1  UNL d   1       5.538  -0.011   2.502  0.00  0.00    -0.070 Cl
ENDROOT
TORSDOF 0
ENDMDL
