MODEL 1
REMARK minimizedAffinity 13.0915499
REMARK minimizedRMSD -1
REMARK  0 active torsions:
REMARK  status: ('A' for Active; 'I' for Inactive)
ROOT
ATOM      1  C   UNL d   1       3.088   1.181  -6.000  0.00  0.00     0.020 A 
ATOM      2  C1  UNL d   1       3.786   0.236  -5.248  0.00  0.00     0.020 A 
ATOM      3  C2  UNL d   1       3.088  -0.690  -4.470  0.00  0.00     0.034 A 
ATOM      4  C3  UNL d   1       1.689  -0.674  -4.442  0.00  0.00     0.017 A 
ATOM      5  C4  UNL d   1       0.990   0.275  -5.197  0.00  0.00     0.017 A 
ATOM      6  C5  UNL d   1       1.693   1.200  -5.974  0.00  0.00     0.034 A 
ATOM      7 Cl   UNL d   1      -0.737   0.357  -5.213  0.00  0.00    -0.070 Cl
ATOM      8 Cl1  UNL d   1       0.891  -1.849  -3.459  0.00  0.00    -0.070 Cl
ENDROOT
TORSDOF 0
ENDMDL
