MODEL 1
REMARK minimizedAffinity 4.84531212
REMARK minimizedRMSD -1
REMARK  0 active torsions:
REMARK  status: ('A' for Active; 'I' for Inactive)
ROOT
ATOM      1  C   UNL d   1       1.847  -0.711  -3.262  0.00  0.00     0.020 A 
ATOM      2  C1  UNL d   1       1.299   0.394  -2.611  0.00  0.00     0.020 A 
ATOM      3  C2  UNL d   1      -0.041   0.731  -2.816  0.00  0.00     0.034 A 
ATOM      4  C3  UNL d   1      -0.836  -0.037  -3.675  0.00  0.00     0.017 A 
ATOM      5  C4  UNL d   1      -0.285  -1.145  -4.328  0.00  0.00     0.017 A 
ATOM      6  C5  UNL d   1       1.057  -1.478  -4.118  0.00  0.00     0.034 A 
ATOM      7 Cl   UNL d   1      -1.203  -2.140  -5.401  0.00  0.00    -0.070 Cl
ATOM      8 Cl1  UNL d   1      -2.484   0.438  -3.882  0.00  0.00    -0.070 Cl
ENDROOT
TORSDOF 0
ENDMDL
