MODEL 1
REMARK minimizedAffinity 13.2948809
REMARK minimizedRMSD -1
REMARK  0 active torsions:
REMARK  status: ('A' for Active; 'I' for Inactive)
ROOT
ATOM      1  C   UNL d   1      -2.646  -3.866  -6.000  0.00  0.00     0.020 A 
ATOM      2  C1  UNL d   1      -1.416  -4.505  -5.845  0.00  0.00     0.020 A 
ATOM      3  C2  UNL d   1      -0.263  -3.751  -5.613  0.00  0.00     0.034 A 
ATOM      4  C3  UNL d   1      -0.338  -2.356  -5.535  0.00  0.00     0.017 A 
ATOM      5  C4  UNL d   1      -1.573  -1.716  -5.690  0.00  0.00     0.017 A 
ATOM      6  C5  UNL d   1      -2.724  -2.475  -5.922  0.00  0.00     0.034 A 
ATOM      7 Cl   UNL d   1      -1.744   0.001  -5.606  0.00  0.00    -0.070 Cl
ATOM      8 Cl1  UNL d   1       1.128  -1.488  -5.245  0.00  0.00    -0.070 Cl
ENDROOT
TORSDOF 0
ENDMDL
