MODEL 1
REMARK minimizedAffinity 5.08539581
REMARK minimizedRMSD -1
REMARK  0 active torsions:
REMARK  status: ('A' for Active; 'I' for Inactive)
ROOT
ATOM      1  C   UNL d   1      -4.409  -5.998  -0.221  0.00  0.00     0.020 A 
ATOM      2  C1  UNL d   1      -5.156  -6.000  -1.398  0.00  0.00     0.020 A 
ATOM      3  C2  UNL d   1      -5.624  -4.796  -1.930  0.00  0.00     0.034 A 
ATOM      4  C3  UNL d   1      -5.344  -3.586  -1.284  0.00  0.00     0.017 A 
ATOM      5  C4  UNL d   1      -4.594  -3.586  -0.103  0.00  0.00     0.017 A 
ATOM      6  C5  UNL d   1      -4.128  -4.794   0.425  0.00  0.00     0.034 A 
ATOM      7 Cl   UNL d   1      -4.209  -2.133   0.750  0.00  0.00    -0.070 Cl
ATOM      8 Cl1  UNL d   1      -5.954  -2.135  -1.998  0.00  0.00    -0.070 Cl
ENDROOT
TORSDOF 0
ENDMDL
