MODEL 1
REMARK minimizedAffinity 11.5296011
REMARK minimizedRMSD -1
REMARK  0 active torsions:
REMARK  status: ('A' for Active; 'I' for Inactive)
ROOT
ATOM      1  C   UNL d   1       3.040   0.396  -3.791  0.00  0.00     0.020 A 
ATOM      2  C1  UNL d   1       1.920  -0.429  -3.696  0.00  0.00     0.020 A 
ATOM      3  C2  UNL d   1       0.813  -0.020  -2.949  0.00  0.00     0.034 A 
ATOM      4  C3  UNL d   1       0.824   1.216  -2.293  0.00  0.00     0.017 A 
ATOM      5  C4  UNL d   1       1.949   2.044  -2.389  0.00  0.00     0.017 A 
ATOM      6  C5  UNL d   1       3.054   1.630  -3.139  0.00  0.00     0.034 A 
ATOM      7 Cl   UNL d   1       2.036   3.584  -1.609  0.00  0.00    -0.070 Cl
ATOM      8 Cl1  UNL d   1      -0.579   1.658  -1.387  0.00  0.00    -0.070 Cl
ENDROOT
TORSDOF 0
ENDMDL
