MODEL 1
REMARK minimizedAffinity 13.8355026
REMARK minimizedRMSD -1
REMARK  0 active torsions:
REMARK  status: ('A' for Active; 'I' for Inactive)
ROOT
ATOM      1  C   UNL d   1       1.753   5.126  -5.330  0.00  0.00     0.020 A 
ATOM      2  C1  UNL d   1       2.657   5.974  -4.693  0.00  0.00     0.020 A 
ATOM      3  C2  UNL d   1       3.964   5.545  -4.449  0.00  0.00     0.034 A 
ATOM      4  C3  UNL d   1       4.369   4.265  -4.843  0.00  0.00     0.017 A 
ATOM      5  C4  UNL d   1       3.460   3.414  -5.483  0.00  0.00     0.017 A 
ATOM      6  C5  UNL d   1       2.153   3.849  -5.724  0.00  0.00     0.034 A 
ATOM      7 Cl   UNL d   1       3.887   1.820  -5.998  0.00  0.00    -0.070 Cl
ATOM      8 Cl1  UNL d   1       6.000   3.801  -4.510  0.00  0.00    -0.070 Cl
ENDROOT
TORSDOF 0
ENDMDL
