MODEL 1
REMARK minimizedAffinity 18.4450035
REMARK minimizedRMSD -1
REMARK  0 active torsions:
REMARK  status: ('A' for Active; 'I' for Inactive)
ROOT
ATOM      1  C   UNL d   1      -3.267  -0.069  -4.003  0.00  0.00     0.124 A 
ATOM      2  C1  UNL d   1      -3.520   1.204  -3.510  0.00  0.00     0.062 A 
ATOM      3  C2  UNL d   1      -2.861   1.658  -2.371  0.00  0.00     0.162 A 
ATOM      4  C3  UNL d   1      -1.941   0.839  -1.717  0.00  0.00    -0.034 A 
ATOM      5  C4  UNL d   1      -1.692  -0.441  -2.218  0.00  0.00     0.162 A 
ATOM      6  C5  UNL d   1      -2.353  -0.890  -3.356  0.00  0.00     0.062 A 
ATOM      7  F   UNL d   1      -2.107  -2.119  -3.831  0.00  0.00    -0.097 F 
ATOM      8  F1  UNL d   1      -0.814  -1.254  -1.613  0.00  0.00    -0.096 F 
ATOM      9  I   UNL d   1      -0.954   1.513  -0.014  0.00  0.00    -0.060 I 
ATOM     10  F2  UNL d   1      -3.126   2.892  -1.918  0.00  0.00    -0.096 F 
ATOM     11  F3  UNL d   1      -4.403   1.999  -4.132  0.00  0.00    -0.097 F 
ATOM     12  F4  UNL d   1      -3.903  -0.503  -5.098  0.00  0.00    -0.092 F 
ENDROOT
TORSDOF 0
ENDMDL
