MODEL 1
REMARK minimizedAffinity 0.474546313
REMARK minimizedRMSD -1
REMARK  0 active torsions:
REMARK  status: ('A' for Active; 'I' for Inactive)
ROOT
ATOM      1  C   UNL d   1       2.120  -0.592   2.680  0.00  0.00     0.124 A 
ATOM      2  C1  UNL d   1       1.374  -1.575   2.045  0.00  0.00     0.062 A 
ATOM      3  C2  UNL d   1       0.628  -1.264   0.912  0.00  0.00     0.162 A 
ATOM      4  C3  UNL d   1       0.623   0.036   0.407  0.00  0.00    -0.034 A 
ATOM      5  C4  UNL d   1       1.375   1.019   1.052  0.00  0.00     0.162 A 
ATOM      6  C5  UNL d   1       2.120   0.704   2.184  0.00  0.00     0.062 A 
ATOM      7  F   UNL d   1       2.840   1.655   2.796  0.00  0.00    -0.097 F 
ATOM      8  F1  UNL d   1       1.394   2.279   0.593  0.00  0.00    -0.096 F 
ATOM      9  I   UNL d   1      -0.492   0.504  -1.287  0.00  0.00    -0.060 I 
ATOM     10  F2  UNL d   1      -0.084  -2.234   0.318  0.00  0.00    -0.096 F 
ATOM     11  F3  UNL d   1       1.372  -2.827   2.523  0.00  0.00    -0.097 F 
ATOM     12  F4  UNL d   1       2.837  -0.893   3.771  0.00  0.00    -0.092 F 
ENDROOT
TORSDOF 0
ENDMDL
