MODEL 1
REMARK minimizedAffinity 33.3831406
REMARK minimizedRMSD -1
REMARK  0 active torsions:
REMARK  status: ('A' for Active; 'I' for Inactive)
ROOT
ATOM      1  C   UNL d   1      -2.566   0.099  -3.752  0.00  0.00     0.124 A 
ATOM      2  C1  UNL d   1      -1.994  -0.849  -2.915  0.00  0.00     0.062 A 
ATOM      3  C2  UNL d   1      -1.693  -0.527  -1.595  0.00  0.00     0.162 A 
ATOM      4  C3  UNL d   1      -1.964   0.750  -1.103  0.00  0.00    -0.034 A 
ATOM      5  C4  UNL d   1      -2.538   1.699  -1.951  0.00  0.00     0.162 A 
ATOM      6  C5  UNL d   1      -2.837   1.371  -3.270  0.00  0.00     0.062 A 
ATOM      7  F   UNL d   1      -3.388   2.289  -4.077  0.00  0.00    -0.097 F 
ATOM      8  F1  UNL d   1      -2.811   2.936  -1.511  0.00  0.00    -0.096 F 
ATOM      9  I   UNL d   1      -1.515   1.236   0.871  0.00  0.00    -0.060 I 
ATOM     10  F2  UNL d   1      -1.142  -1.463  -0.808  0.00  0.00    -0.096 F 
ATOM     11  F3  UNL d   1      -1.731  -2.080  -3.379  0.00  0.00    -0.097 F 
ATOM     12  F4  UNL d   1      -2.853  -0.214  -5.022  0.00  0.00    -0.092 F 
ENDROOT
TORSDOF 0
ENDMDL
