MODEL 1
REMARK minimizedAffinity 10.9982719
REMARK minimizedRMSD -1
REMARK  0 active torsions:
REMARK  status: ('A' for Active; 'I' for Inactive)
ROOT
ATOM      1  C   UNL d   1      -2.895   1.354  -3.075  0.00  0.00     0.124 A 
ATOM      2  C1  UNL d   1      -2.850   1.815  -1.767  0.00  0.00     0.062 A 
ATOM      3  C2  UNL d   1      -2.450   0.966  -0.739  0.00  0.00     0.162 A 
ATOM      4  C3  UNL d   1      -2.090  -0.353  -1.016  0.00  0.00    -0.034 A 
ATOM      5  C4  UNL d   1      -2.139  -0.810  -2.334  0.00  0.00     0.162 A 
ATOM      6  C5  UNL d   1      -2.540   0.043  -3.358  0.00  0.00     0.062 A 
ATOM      7  F   UNL d   1      -2.582  -0.404  -4.621  0.00  0.00    -0.097 F 
ATOM      8  F1  UNL d   1      -1.800  -2.072  -2.635  0.00  0.00    -0.096 F 
ATOM      9  I   UNL d   1      -1.491  -1.626   0.518  0.00  0.00    -0.060 I 
ATOM     10  F2  UNL d   1      -2.416   1.438   0.516  0.00  0.00    -0.096 F 
ATOM     11  F3  UNL d   1      -3.194   3.081  -1.492  0.00  0.00    -0.097 F 
ATOM     12  F4  UNL d   1      -3.281   2.173  -4.062  0.00  0.00    -0.092 F 
ENDROOT
TORSDOF 0
ENDMDL
