MODEL 1
REMARK minimizedAffinity 17.9526157
REMARK minimizedRMSD -1
REMARK  0 active torsions:
REMARK  status: ('A' for Active; 'I' for Inactive)
ROOT
ATOM      1  C   UNL d   1      -2.659   1.743  -2.679  0.00  0.00     0.124 A 
ATOM      2  C1  UNL d   1      -2.597   2.146  -1.353  0.00  0.00     0.062 A 
ATOM      3  C2  UNL d   1      -2.165   1.259  -0.371  0.00  0.00     0.162 A 
ATOM      4  C3  UNL d   1      -1.791  -0.041  -0.712  0.00  0.00    -0.034 A 
ATOM      5  C4  UNL d   1      -1.857  -0.439  -2.048  0.00  0.00     0.162 A 
ATOM      6  C5  UNL d   1      -2.290   0.451  -3.025  0.00  0.00     0.062 A 
ATOM      7  F   UNL d   1      -2.349   0.059  -4.306  0.00  0.00    -0.097 F 
ATOM      8  F1  UNL d   1      -1.505  -1.682  -2.410  0.00  0.00    -0.096 F 
ATOM      9  I   UNL d   1      -1.145  -1.370   0.754  0.00  0.00    -0.060 I 
ATOM     10  F2  UNL d   1      -2.115   1.676   0.903  0.00  0.00    -0.096 F 
ATOM     11  F3  UNL d   1      -2.954   3.394  -1.015  0.00  0.00    -0.097 F 
ATOM     12  F4  UNL d   1      -3.076   2.598  -3.622  0.00  0.00    -0.092 F 
ENDROOT
TORSDOF 0
ENDMDL
