MODEL 1
REMARK minimizedAffinity 20.1094494
REMARK minimizedRMSD -1
REMARK  0 active torsions:
REMARK  status: ('A' for Active; 'I' for Inactive)
ROOT
ATOM      1  C   UNL d   1      -1.148  -2.520   1.554  0.00  0.00     0.124 A 
ATOM      2  C1  UNL d   1      -0.184  -3.462   1.886  0.00  0.00     0.062 A 
ATOM      3  C2  UNL d   1       0.935  -3.087   2.624  0.00  0.00     0.162 A 
ATOM      4  C3  UNL d   1       1.095  -1.764   3.037  0.00  0.00    -0.034 A 
ATOM      5  C4  UNL d   1       0.121  -0.823   2.699  0.00  0.00     0.162 A 
ATOM      6  C5  UNL d   1      -0.995  -1.202   1.960  0.00  0.00     0.062 A 
ATOM      7  F   UNL d   1      -1.925  -0.291   1.641  0.00  0.00    -0.097 F 
ATOM      8  F1  UNL d   1       0.244   0.457   3.080  0.00  0.00    -0.096 F 
ATOM      9  I   UNL d   1       2.766  -1.200   4.142  0.00  0.00    -0.060 I 
ATOM     10  F2  UNL d   1       1.851  -4.018   2.931  0.00  0.00    -0.096 F 
ATOM     11  F3  UNL d   1      -0.329  -4.735   1.493  0.00  0.00    -0.097 F 
ATOM     12  F4  UNL d   1      -2.223  -2.883   0.842  0.00  0.00    -0.092 F 
ENDROOT
TORSDOF 0
ENDMDL
