MODEL 1
REMARK minimizedAffinity 28.4730015
REMARK minimizedRMSD -1
REMARK  0 active torsions:
REMARK  status: ('A' for Active; 'I' for Inactive)
ROOT
ATOM      1  C   UNL d   1      -3.391   0.417  -3.026  0.00  0.00     0.124 A 
ATOM      2  C1  UNL d   1      -2.814   1.502  -3.672  0.00  0.00     0.062 A 
ATOM      3  C2  UNL d   1      -3.298   2.788  -3.451  0.00  0.00     0.162 A 
ATOM      4  C3  UNL d   1      -4.366   2.997  -2.579  0.00  0.00    -0.034 A 
ATOM      5  C4  UNL d   1      -4.942   1.901  -1.933  0.00  0.00     0.162 A 
ATOM      6  C5  UNL d   1      -4.454   0.618  -2.157  0.00  0.00     0.062 A 
ATOM      7  F   UNL d   1      -5.013  -0.428  -1.532  0.00  0.00    -0.097 F 
ATOM      8  F1  UNL d   1      -5.971   2.066  -1.088  0.00  0.00    -0.096 F 
ATOM      9  I   UNL d   1      -5.094   4.918  -2.246  0.00  0.00    -0.060 I 
ATOM     10  F2  UNL d   1      -2.721   3.817  -4.089  0.00  0.00    -0.096 F 
ATOM     11  F3  UNL d   1      -1.787   1.311  -4.513  0.00  0.00    -0.097 F 
ATOM     12  F4  UNL d   1      -2.923  -0.819  -3.241  0.00  0.00    -0.092 F 
ENDROOT
TORSDOF 0
ENDMDL
