MODEL 1
REMARK minimizedAffinity 15.1597462
REMARK minimizedRMSD -1
REMARK  0 active torsions:
REMARK  status: ('A' for Active; 'I' for Inactive)
ROOT
ATOM      1  C   UNL d   1      -4.197   4.304  -2.498  0.00  0.00     0.124 A 
ATOM      2  C1  UNL d   1      -4.865   3.266  -1.864  0.00  0.00     0.062 A 
ATOM      3  C2  UNL d   1      -4.362   1.970  -1.923  0.00  0.00     0.162 A 
ATOM      4  C3  UNL d   1      -3.182   1.704  -2.618  0.00  0.00    -0.034 A 
ATOM      5  C4  UNL d   1      -2.516   2.753  -3.255  0.00  0.00     0.162 A 
ATOM      6  C5  UNL d   1      -3.023   4.047  -3.193  0.00  0.00     0.062 A 
ATOM      7  F   UNL d   1      -2.376   5.049  -3.806  0.00  0.00    -0.097 F 
ATOM      8  F1  UNL d   1      -1.379   2.533  -3.932  0.00  0.00    -0.096 F 
ATOM      9  I   UNL d   1      -2.426  -0.233  -2.709  0.00  0.00    -0.060 I 
ATOM     10  F2  UNL d   1      -5.028   0.986  -1.301  0.00  0.00    -0.096 F 
ATOM     11  F3  UNL d   1      -6.000   3.512  -1.193  0.00  0.00    -0.097 F 
ATOM     12  F4  UNL d   1      -4.684   5.550  -2.441  0.00  0.00    -0.092 F 
ENDROOT
TORSDOF 0
ENDMDL
