MODEL 1
REMARK minimizedAffinity 23.4286995
REMARK minimizedRMSD -1
REMARK  0 active torsions:
REMARK  status: ('A' for Active; 'I' for Inactive)
ROOT
ATOM      1  C   UNL d   1      -2.889   0.131  -4.334  0.00  0.00     0.124 A 
ATOM      2  C1  UNL d   1      -2.188  -0.832  -3.622  0.00  0.00     0.062 A 
ATOM      3  C2  UNL d   1      -1.708  -0.548  -2.347  0.00  0.00     0.162 A 
ATOM      4  C3  UNL d   1      -1.928   0.705  -1.774  0.00  0.00    -0.034 A 
ATOM      5  C4  UNL d   1      -2.634   1.669  -2.497  0.00  0.00     0.162 A 
ATOM      6  C5  UNL d   1      -3.112   1.380  -3.771  0.00  0.00     0.062 A 
ATOM      7  F   UNL d   1      -3.789   2.312  -4.457  0.00  0.00    -0.097 F 
ATOM      8  F1  UNL d   1      -2.864   2.883  -1.976  0.00  0.00    -0.096 F 
ATOM      9  I   UNL d   1      -1.212   1.133   0.132  0.00  0.00    -0.060 I 
ATOM     10  F2  UNL d   1      -1.033  -1.498  -1.682  0.00  0.00    -0.096 F 
ATOM     11  F3  UNL d   1      -1.971  -2.039  -4.164  0.00  0.00    -0.097 F 
ATOM     12  F4  UNL d   1      -3.349  -0.144  -5.561  0.00  0.00    -0.092 F 
ENDROOT
TORSDOF 0
ENDMDL
