MODEL 1
REMARK minimizedAffinity 9.14924431
REMARK minimizedRMSD -1
REMARK  0 active torsions:
REMARK  status: ('A' for Active; 'I' for Inactive)
ROOT
ATOM      1  C   UNL d   1       1.786  -1.486   2.470  0.00  0.00     0.124 A 
ATOM      2  C1  UNL d   1       2.058  -1.915   3.762  0.00  0.00     0.062 A 
ATOM      3  C2  UNL d   1       2.347  -0.989   4.761  0.00  0.00     0.162 A 
ATOM      4  C3  UNL d   1       2.364   0.375   4.472  0.00  0.00    -0.034 A 
ATOM      5  C4  UNL d   1       2.090   0.799   3.170  0.00  0.00     0.162 A 
ATOM      6  C5  UNL d   1       1.802  -0.130   2.176  0.00  0.00     0.062 A 
ATOM      7  F   UNL d   1       1.539   0.287   0.928  0.00  0.00    -0.097 F 
ATOM      8  F1  UNL d   1       2.098   2.104   2.858  0.00  0.00    -0.096 F 
ATOM      9  I   UNL d   1       2.796   1.762   5.962  0.00  0.00    -0.060 I 
ATOM     10  F2  UNL d   1       2.606  -1.432   6.000  0.00  0.00    -0.096 F 
ATOM     11  F3  UNL d   1       2.043  -3.224   4.049  0.00  0.00    -0.097 F 
ATOM     12  F4  UNL d   1       1.509  -2.378   1.511  0.00  0.00    -0.092 F 
ENDROOT
TORSDOF 0
ENDMDL
