MODEL 1
REMARK minimizedAffinity 11.3018837
REMARK minimizedRMSD -1
REMARK  0 active torsions:
REMARK  status: ('A' for Active; 'I' for Inactive)
ROOT
ATOM      1  C   UNL d   1      -1.048  -1.301  -3.886  0.00  0.00     0.124 A 
ATOM      2  C1  UNL d   1      -0.839  -0.299  -2.949  0.00  0.00     0.062 A 
ATOM      3  C2  UNL d   1      -1.921   0.289  -2.300  0.00  0.00     0.162 A 
ATOM      4  C3  UNL d   1      -3.222  -0.125  -2.585  0.00  0.00    -0.034 A 
ATOM      5  C4  UNL d   1      -3.424  -1.133  -3.529  0.00  0.00     0.162 A 
ATOM      6  C5  UNL d   1      -2.340  -1.717  -4.175  0.00  0.00     0.062 A 
ATOM      7  F   UNL d   1      -2.543  -2.686  -5.080  0.00  0.00    -0.097 F 
ATOM      8  F1  UNL d   1      -4.662  -1.555  -3.828  0.00  0.00    -0.096 F 
ATOM      9  I   UNL d   1      -4.843   0.752  -1.617  0.00  0.00    -0.060 I 
ATOM     10  F2  UNL d   1      -1.690   1.255  -1.399  0.00  0.00    -0.096 F 
ATOM     11  F3  UNL d   1       0.408   0.105  -2.668  0.00  0.00    -0.097 F 
ATOM     12  F4  UNL d   1      -0.005  -1.865  -4.509  0.00  0.00    -0.092 F 
ENDROOT
TORSDOF 0
ENDMDL
