MODEL 1
REMARK minimizedAffinity 1.96664083
REMARK minimizedRMSD -1
REMARK  0 active torsions:
REMARK  status: ('A' for Active; 'I' for Inactive)
ROOT
ATOM      1  C   UNL d   1       5.994   0.874  -5.168  0.00  0.00     0.023 A 
ATOM      2  C1  UNL d   1       4.875   0.780  -5.996  0.00  0.00     0.003 A 
ATOM      3  C2  UNL d   1       3.612   0.561  -5.443  0.00  0.00     0.048 A 
ATOM      4  C3  UNL d   1       3.474   0.438  -4.060  0.00  0.00     0.023 A 
ATOM      5  C4  UNL d   1       4.591   0.532  -3.228  0.00  0.00     0.048 A 
ATOM      6  C5  UNL d   1       5.852   0.751  -3.786  0.00  0.00     0.003 A 
ATOM      7  I   UNL d   1       1.595   0.112  -3.234  0.00  0.00    -0.146 I 
ENDROOT
TORSDOF 0
ENDMDL
