MODEL 1
REMARK minimizedAffinity 5.53081179
REMARK minimizedRMSD -1
REMARK  0 active torsions:
REMARK  status: ('A' for Active; 'I' for Inactive)
ROOT
ATOM      1  C   UNL d   1       0.534  -0.722  -0.621  0.00  0.00     0.023 A 
ATOM      2  C1  UNL d   1       0.270   0.529  -1.180  0.00  0.00     0.003 A 
ATOM      3  C2  UNL d   1       0.642   0.798  -2.499  0.00  0.00     0.048 A 
ATOM      4  C3  UNL d   1       1.277  -0.188  -3.253  0.00  0.00     0.023 A 
ATOM      5  C4  UNL d   1       1.542  -1.441  -2.699  0.00  0.00     0.048 A 
ATOM      6  C5  UNL d   1       1.169  -1.706  -1.379  0.00  0.00     0.003 A 
ATOM      7  I   UNL d   1       1.831   0.210  -5.216  0.00  0.00    -0.146 I 
ENDROOT
TORSDOF 0
ENDMDL
