MODEL 1
REMARK minimizedAffinity 1.83324456
REMARK minimizedRMSD -1
REMARK  0 active torsions:
REMARK  status: ('A' for Active; 'I' for Inactive)
ROOT
ATOM      1  C   UNL d   1       2.992   3.611  -5.239  0.00  0.00     0.023 A 
ATOM      2  C1  UNL d   1       2.493   2.404  -5.729  0.00  0.00     0.003 A 
ATOM      3  C2  UNL d   1       3.355   1.328  -5.948  0.00  0.00     0.048 A 
ATOM      4  C3  UNL d   1       4.715   1.464  -5.674  0.00  0.00     0.023 A 
ATOM      5  C4  UNL d   1       5.219   2.670  -5.183  0.00  0.00     0.048 A 
ATOM      6  C5  UNL d   1       4.354   3.744  -4.966  0.00  0.00     0.003 A 
ATOM      7  I   UNL d   1       6.000  -0.137  -5.999  0.00  0.00    -0.146 I 
ENDROOT
TORSDOF 0
ENDMDL
