MODEL 1
REMARK minimizedAffinity 0.84828037
REMARK minimizedRMSD -1
REMARK  0 active torsions:
REMARK  status: ('A' for Active; 'I' for Inactive)
ROOT
ATOM      1  C   UNL d   1      -3.618   1.137   5.213  0.00  0.00     0.023 A 
ATOM      2  C1  UNL d   1      -4.586   1.797   5.970  0.00  0.00     0.003 A 
ATOM      3  C2  UNL d   1      -4.619   3.193   5.999  0.00  0.00     0.048 A 
ATOM      4  C3  UNL d   1      -3.682   3.922   5.267  0.00  0.00     0.023 A 
ATOM      5  C4  UNL d   1      -2.712   3.266   4.508  0.00  0.00     0.048 A 
ATOM      6  C5  UNL d   1      -2.682   1.870   4.483  0.00  0.00     0.003 A 
ATOM      7  I   UNL d   1      -3.730   5.999   5.308  0.00  0.00    -0.146 I 
ENDROOT
TORSDOF 0
ENDMDL
