MODEL 1
REMARK minimizedAffinity 2.77195024
REMARK minimizedRMSD -1
REMARK  0 active torsions:
REMARK  status: ('A' for Active; 'I' for Inactive)
ROOT
ATOM      1  C   UNL d   1       0.559  -1.835  -3.232  0.00  0.00     0.023 A 
ATOM      2  C1  UNL d   1       0.983  -0.544  -3.547  0.00  0.00     0.003 A 
ATOM      3  C2  UNL d   1       1.460   0.301  -2.543  0.00  0.00     0.048 A 
ATOM      4  C3  UNL d   1       1.510  -0.152  -1.225  0.00  0.00     0.023 A 
ATOM      5  C4  UNL d   1       1.088  -1.443  -0.905  0.00  0.00     0.048 A 
ATOM      6  C5  UNL d   1       0.611  -2.284  -1.912  0.00  0.00     0.003 A 
ATOM      7  I   UNL d   1       2.218   1.103   0.272  0.00  0.00    -0.146 I 
ENDROOT
TORSDOF 0
ENDMDL
