MODEL 1
REMARK minimizedAffinity -2.96494699
REMARK minimizedRMSD -1
REMARK  0 active torsions:
REMARK  status: ('A' for Active; 'I' for Inactive)
ROOT
ATOM      1  C   UNL d   1      -4.739   6.000   5.240  0.00  0.00     0.023 A 
ATOM      2  C1  UNL d   1      -3.710   5.424   4.494  0.00  0.00     0.003 A 
ATOM      3  C2  UNL d   1      -3.532   4.039   4.500  0.00  0.00     0.048 A 
ATOM      4  C3  UNL d   1      -4.387   3.236   5.253  0.00  0.00     0.023 A 
ATOM      5  C4  UNL d   1      -5.419   3.807   6.000  0.00  0.00     0.048 A 
ATOM      6  C5  UNL d   1      -5.592   5.192   5.991  0.00  0.00     0.003 A 
ATOM      7  I   UNL d   1      -4.124   1.174   5.263  0.00  0.00    -0.146 I 
ENDROOT
TORSDOF 0
ENDMDL
