MODEL 1
REMARK minimizedAffinity 3.68430567
REMARK minimizedRMSD -1
REMARK  0 active torsions:
REMARK  status: ('A' for Active; 'I' for Inactive)
ROOT
ATOM      1  C   UNL d   1       0.719  -2.588  -1.330  0.00  0.00     0.023 A 
ATOM      2  C1  UNL d   1       0.958  -3.075  -2.616  0.00  0.00     0.003 A 
ATOM      3  C2  UNL d   1       1.507  -2.238  -3.589  0.00  0.00     0.048 A 
ATOM      4  C3  UNL d   1       1.817  -0.916  -3.271  0.00  0.00     0.023 A 
ATOM      5  C4  UNL d   1       1.580  -0.425  -1.986  0.00  0.00     0.048 A 
ATOM      6  C5  UNL d   1       1.030  -1.265  -1.016  0.00  0.00     0.003 A 
ATOM      7  I   UNL d   1       2.635   0.330  -4.718  0.00  0.00    -0.146 I 
ENDROOT
TORSDOF 0
ENDMDL
