MODEL 1
REMARK minimizedAffinity 5.32701778
REMARK minimizedRMSD -1
REMARK  0 active torsions:
REMARK  status: ('A' for Active; 'I' for Inactive)
ROOT
ATOM      1  C   UNL d   1       0.796  -0.146  -0.246  0.00  0.00     0.023 A 
ATOM      2  C1  UNL d   1       0.468   0.885  -1.127  0.00  0.00     0.003 A 
ATOM      3  C2  UNL d   1       0.643   0.711  -2.502  0.00  0.00     0.048 A 
ATOM      4  C3  UNL d   1       1.144  -0.496  -2.988  0.00  0.00     0.023 A 
ATOM      5  C4  UNL d   1       1.472  -1.530  -2.110  0.00  0.00     0.048 A 
ATOM      6  C5  UNL d   1       1.296  -1.352  -0.736  0.00  0.00     0.003 A 
ATOM      7  I   UNL d   1       1.404  -0.757  -5.034  0.00  0.00    -0.146 I 
ENDROOT
TORSDOF 0
ENDMDL
