MODEL 1
REMARK minimizedAffinity 3.5901444
REMARK minimizedRMSD -1
REMARK  0 active torsions:
REMARK  status: ('A' for Active; 'I' for Inactive)
ROOT
ATOM      1  C   UNL d   1       0.413  -0.242  -1.901  0.00  0.00     0.023 A 
ATOM      2  C1  UNL d   1       1.200  -0.980  -1.017  0.00  0.00     0.003 A 
ATOM      3  C2  UNL d   1       1.986  -0.326  -0.066  0.00  0.00     0.048 A 
ATOM      4  C3  UNL d   1       1.980   1.067  -0.004  0.00  0.00     0.023 A 
ATOM      5  C4  UNL d   1       1.193   1.810  -0.885  0.00  0.00     0.048 A 
ATOM      6  C5  UNL d   1       0.409   1.152  -1.834  0.00  0.00     0.003 A 
ATOM      7  I   UNL d   1       3.149   2.042   1.411  0.00  0.00    -0.146 I 
ENDROOT
TORSDOF 0
ENDMDL
