MODEL 1
REMARK minimizedAffinity 4.77285433
REMARK minimizedRMSD -1
REMARK  0 active torsions:
REMARK  status: ('A' for Active; 'I' for Inactive)
ROOT
ATOM      1  C   UNL d   1       5.125   1.080  -5.714  0.00  0.00     0.023 A 
ATOM      2  C1  UNL d   1       6.000   1.737  -4.848  0.00  0.00     0.003 A 
ATOM      3  C2  UNL d   1       5.589   2.895  -4.185  0.00  0.00     0.048 A 
ATOM      4  C3  UNL d   1       4.302   3.390  -4.391  0.00  0.00     0.023 A 
ATOM      5  C4  UNL d   1       3.423   2.735  -5.256  0.00  0.00     0.048 A 
ATOM      6  C5  UNL d   1       3.838   1.578  -5.917  0.00  0.00     0.003 A 
ATOM      7  I   UNL d   1       3.687   5.113  -3.405  0.00  0.00    -0.146 I 
ENDROOT
TORSDOF 0
ENDMDL
