MODEL 1
REMARK minimizedAffinity -1.18533552
REMARK minimizedRMSD -1
REMARK  0 active torsions:
REMARK  status: ('A' for Active; 'I' for Inactive)
ROOT
ATOM      1  C   UNL d   1       0.561   0.031  -0.363  0.00  0.00     0.023 A 
ATOM      2  C1  UNL d   1       1.132  -1.130  -0.886  0.00  0.00     0.003 A 
ATOM      3  C2  UNL d   1       1.646  -1.133  -2.184  0.00  0.00     0.048 A 
ATOM      4  C3  UNL d   1       1.588   0.028  -2.953  0.00  0.00     0.023 A 
ATOM      5  C4  UNL d   1       1.019   1.192  -2.434  0.00  0.00     0.048 A 
ATOM      6  C5  UNL d   1       0.505   1.190  -1.136  0.00  0.00     0.003 A 
ATOM      7  I   UNL d   1       2.354   0.027  -4.886  0.00  0.00    -0.146 I 
ENDROOT
TORSDOF 0
ENDMDL
