MODEL 1
REMARK minimizedAffinity 1.70920181
REMARK minimizedRMSD -1
REMARK  0 active torsions:
REMARK  status: ('A' for Active; 'I' for Inactive)
ROOT
ATOM      1  C   UNL d   1      -4.125   5.997   4.809  0.00  0.00     0.023 A 
ATOM      2  C1  UNL d   1      -4.590   5.281   5.912  0.00  0.00     0.003 A 
ATOM      3  C2  UNL d   1      -4.371   3.904   5.995  0.00  0.00     0.048 A 
ATOM      4  C3  UNL d   1      -3.685   3.250   4.973  0.00  0.00     0.023 A 
ATOM      5  C4  UNL d   1      -3.217   3.963   3.867  0.00  0.00     0.048 A 
ATOM      6  C5  UNL d   1      -3.439   5.339   3.788  0.00  0.00     0.003 A 
ATOM      7  I   UNL d   1      -3.357   1.202   5.095  0.00  0.00    -0.146 I 
ENDROOT
TORSDOF 0
ENDMDL
