MODEL 1
REMARK minimizedAffinity 1.97835612
REMARK minimizedRMSD -1
REMARK  0 active torsions:
REMARK  status: ('A' for Active; 'I' for Inactive)
ROOT
ATOM      1  C   UNL d   1       1.263  -1.602  -3.384  0.00  0.00     0.023 A 
ATOM      2  C1  UNL d   1       0.985  -1.732  -2.023  0.00  0.00     0.003 A 
ATOM      3  C2  UNL d   1       0.987  -0.606  -1.197  0.00  0.00     0.048 A 
ATOM      4  C3  UNL d   1       1.268   0.648  -1.739  0.00  0.00     0.023 A 
ATOM      5  C4  UNL d   1       1.546   0.783  -3.100  0.00  0.00     0.048 A 
ATOM      6  C5  UNL d   1       1.543  -0.345  -3.921  0.00  0.00     0.003 A 
ATOM      7  I   UNL d   1       1.272   2.325  -0.512  0.00  0.00    -0.146 I 
ENDROOT
TORSDOF 0
ENDMDL
