MODEL 1
REMARK minimizedAffinity 0.309898287
REMARK minimizedRMSD -1
REMARK  0 active torsions:
REMARK  status: ('A' for Active; 'I' for Inactive)
ROOT
ATOM      1  C   UNL d   1       1.026  -0.960  -3.273  0.00  0.00     0.023 A 
ATOM      2  C1  UNL d   1       1.133  -0.931  -4.663  0.00  0.00     0.003 A 
ATOM      3  C2  UNL d   1       2.349  -0.601  -5.265  0.00  0.00     0.048 A 
ATOM      4  C3  UNL d   1       3.455  -0.303  -4.469  0.00  0.00     0.023 A 
ATOM      5  C4  UNL d   1       3.353  -0.331  -3.077  0.00  0.00     0.048 A 
ATOM      6  C5  UNL d   1       2.134  -0.661  -2.481  0.00  0.00     0.003 A 
ATOM      7  I   UNL d   1       5.267   0.189  -5.361  0.00  0.00    -0.146 I 
ENDROOT
TORSDOF 0
ENDMDL
