MODEL 1
REMARK minimizedAffinity 1.26804471
REMARK minimizedRMSD -1
REMARK  1 active torsions:
REMARK  status: ('A' for Active; 'I' for Inactive)
REMARK    1  A    between atoms: C1_2  and  C2_3 
ROOT
ATOM      1  C2  UNL d   1       3.684  -2.601  -3.071  0.00  0.00    -0.077 A 
ATOM      2  C3  UNL d   1       4.931  -1.960  -3.087  0.00  0.00     0.002 A 
ATOM      3  C4  UNL d   1       5.900  -2.325  -4.024  0.00  0.00     0.002 A 
ATOM      4  C5  UNL d   1       5.631  -3.329  -4.952  0.00  0.00    -0.004 A 
ATOM      5  C6  UNL d   1       4.395  -3.973  -4.943  0.00  0.00     0.002 A 
ATOM      6  C7  UNL d   1       3.426  -3.611  -4.007  0.00  0.00     0.002 A 
ENDROOT
BRANCH   1   7
ATOM      7  C1  UNL d   1       2.620  -2.175  -2.094  0.00  0.00     0.055 C 
ATOM      8  C   UNL d   1       1.589  -3.275  -1.883  0.00  0.00     0.019 C 
ENDBRANCH   1   7
TORSDOF 1
ENDMDL
