MODEL 1
REMARK minimizedAffinity 8.33282471
REMARK minimizedRMSD -1
REMARK  1 active torsions:
REMARK  status: ('A' for Active; 'I' for Inactive)
REMARK    1  A    between atoms: C1_2  and  C2_3 
ROOT
ATOM      1  C2  UNL d   1      -4.319   3.074  -5.185  0.00  0.00    -0.077 A 
ATOM      2  C3  UNL d   1      -4.113   3.019  -3.799  0.00  0.00     0.002 A 
ATOM      3  C4  UNL d   1      -4.109   4.190  -3.039  0.00  0.00     0.002 A 
ATOM      4  C5  UNL d   1      -4.315   5.423  -3.654  0.00  0.00    -0.004 A 
ATOM      5  C6  UNL d   1      -4.519   5.488  -5.032  0.00  0.00     0.002 A 
ATOM      6  C7  UNL d   1      -4.522   4.319  -5.794  0.00  0.00     0.002 A 
ENDROOT
BRANCH   1   7
ATOM      7  C1  UNL d   1      -4.372   1.808  -5.999  0.00  0.00     0.055 C 
ATOM      8  C   UNL d   1      -3.375   0.778  -5.488  0.00  0.00     0.019 C 
ENDBRANCH   1   7
TORSDOF 1
ENDMDL
