MODEL 1
REMARK minimizedAffinity 8.21434021
REMARK minimizedRMSD -1
REMARK  1 active torsions:
REMARK  status: ('A' for Active; 'I' for Inactive)
REMARK    1  A    between atoms: C1_2  and  C2_3 
ROOT
ATOM      1  C2  UNL d   1       0.078   2.594  -0.369  0.00  0.00    -0.077 A 
ATOM      2  C3  UNL d   1      -0.519   2.454  -1.630  0.00  0.00     0.002 A 
ATOM      3  C4  UNL d   1      -0.565   3.535  -2.513  0.00  0.00     0.002 A 
ATOM      4  C5  UNL d   1      -0.013   4.761  -2.146  0.00  0.00    -0.004 A 
ATOM      5  C6  UNL d   1       0.581   4.910  -0.894  0.00  0.00     0.002 A 
ATOM      6  C7  UNL d   1       0.627   3.831  -0.010  0.00  0.00     0.002 A 
ENDROOT
BRANCH   1   7
ATOM      7  C1  UNL d   1       0.174   1.416   0.565  0.00  0.00     0.055 C 
ATOM      8  C   UNL d   1       0.056   1.851   2.018  0.00  0.00     0.019 C 
ENDBRANCH   1   7
TORSDOF 1
ENDMDL
