MODEL 1
REMARK minimizedAffinity 15.3251066
REMARK minimizedRMSD -1
REMARK  1 active torsions:
REMARK  status: ('A' for Active; 'I' for Inactive)
REMARK    1  A    between atoms: C1_2  and  C2_3 
ROOT
ATOM      1  C2  UNL d   1      -0.030   2.420  -0.054  0.00  0.00    -0.077 A 
ATOM      2  C3  UNL d   1      -0.699   1.815  -1.126  0.00  0.00     0.002 A 
ATOM      3  C4  UNL d   1      -1.081   2.569  -2.237  0.00  0.00     0.002 A 
ATOM      4  C5  UNL d   1      -0.795   3.932  -2.288  0.00  0.00    -0.004 A 
ATOM      5  C6  UNL d   1      -0.131   4.544  -1.226  0.00  0.00     0.002 A 
ATOM      6  C7  UNL d   1       0.251   3.791  -0.114  0.00  0.00     0.002 A 
ENDROOT
BRANCH   1   7
ATOM      7  C1  UNL d   1       0.427   1.599   1.123  0.00  0.00     0.055 C 
ATOM      8  C   UNL d   1      -0.613   1.599   2.235  0.00  0.00     0.019 C 
ENDBRANCH   1   7
TORSDOF 1
ENDMDL
