MODEL 1
REMARK minimizedAffinity 11.4849958
REMARK minimizedRMSD -1
REMARK  1 active torsions:
REMARK  status: ('A' for Active; 'I' for Inactive)
REMARK    1  A    between atoms: C1_2  and  C2_3 
ROOT
ATOM      1  C2  UNL d   1       1.458  -1.236   4.206  0.00  0.00    -0.077 A 
ATOM      2  C3  UNL d   1       1.504  -0.166   3.301  0.00  0.00     0.002 A 
ATOM      3  C4  UNL d   1       0.585   0.881   3.398  0.00  0.00     0.002 A 
ATOM      4  C5  UNL d   1      -0.384   0.869   4.400  0.00  0.00    -0.004 A 
ATOM      5  C6  UNL d   1      -0.439  -0.192   5.303  0.00  0.00     0.002 A 
ATOM      6  C7  UNL d   1       0.478  -1.239   5.207  0.00  0.00     0.002 A 
ENDROOT
BRANCH   1   7
ATOM      7  C1  UNL d   1       2.479  -2.341   4.133  0.00  0.00     0.055 C 
ATOM      8  C   UNL d   1       3.895  -1.784   4.090  0.00  0.00     0.019 C 
ENDBRANCH   1   7
TORSDOF 1
ENDMDL
