MODEL 1
REMARK minimizedAffinity 0.351343453
REMARK minimizedRMSD -1
REMARK  1 active torsions:
REMARK  status: ('A' for Active; 'I' for Inactive)
REMARK    1  A    between atoms: C1_2  and  C2_3 
ROOT
ATOM      1  C2  UNL d   1       0.135  -0.583  -1.323  0.00  0.00    -0.077 A 
ATOM      2  C3  UNL d   1      -0.743   0.456  -0.987  0.00  0.00     0.002 A 
ATOM      3  C4  UNL d   1      -1.012   1.476  -1.901  0.00  0.00     0.002 A 
ATOM      4  C5  UNL d   1      -0.410   1.465  -3.158  0.00  0.00    -0.004 A 
ATOM      5  C6  UNL d   1       0.467   0.436  -3.500  0.00  0.00     0.002 A 
ATOM      6  C7  UNL d   1       0.738  -0.584  -2.587  0.00  0.00     0.002 A 
ENDROOT
BRANCH   1   7
ATOM      7  C1  UNL d   1       0.389  -1.711  -0.356  0.00  0.00     0.055 C 
ATOM      8  C   UNL d   1      -0.105  -3.039  -0.913  0.00  0.00     0.019 C 
ENDBRANCH   1   7
TORSDOF 1
ENDMDL
