MODEL 1
REMARK minimizedAffinity 5.23536825
REMARK minimizedRMSD -1
REMARK  1 active torsions:
REMARK  status: ('A' for Active; 'I' for Inactive)
REMARK    1  A    between atoms: C1_2  and  C2_3 
ROOT
ATOM      1  C2  UNL d   1      -1.393  -3.608  -5.329  0.00  0.00    -0.077 A 
ATOM      2  C3  UNL d   1      -1.258  -2.337  -5.906  0.00  0.00     0.002 A 
ATOM      3  C4  UNL d   1      -0.444  -1.373  -5.307  0.00  0.00     0.002 A 
ATOM      4  C5  UNL d   1       0.243  -1.671  -4.133  0.00  0.00    -0.004 A 
ATOM      5  C6  UNL d   1       0.114  -2.931  -3.551  0.00  0.00     0.002 A 
ATOM      6  C7  UNL d   1      -0.700  -3.896  -4.147  0.00  0.00     0.002 A 
ENDROOT
BRANCH   1   7
ATOM      7  C1  UNL d   1      -2.231  -4.665  -6.000  0.00  0.00     0.055 C 
ATOM      8  C   UNL d   1      -2.124  -5.998  -5.275  0.00  0.00     0.019 C 
ENDBRANCH   1   7
TORSDOF 1
ENDMDL
