MODEL 1
REMARK minimizedAffinity 5.86473513
REMARK minimizedRMSD -1
REMARK  1 active torsions:
REMARK  status: ('A' for Active; 'I' for Inactive)
REMARK    1  A    between atoms: C1_2  and  C2_3 
ROOT
ATOM      1  C2  UNL d   1      -0.747   1.814  -3.282  0.00  0.00    -0.077 A 
ATOM      2  C3  UNL d   1      -0.070   0.938  -4.141  0.00  0.00     0.002 A 
ATOM      3  C4  UNL d   1      -0.768   0.229  -5.121  0.00  0.00     0.002 A 
ATOM      4  C5  UNL d   1      -2.146   0.393  -5.252  0.00  0.00    -0.004 A 
ATOM      5  C6  UNL d   1      -2.828   1.261  -4.401  0.00  0.00     0.002 A 
ATOM      6  C7  UNL d   1      -2.132   1.969  -3.420  0.00  0.00     0.002 A 
ENDROOT
BRANCH   1   7
ATOM      7  C1  UNL d   1       0.012   2.616  -2.257  0.00  0.00     0.055 C 
ATOM      8  C   UNL d   1      -0.734   2.670  -0.932  0.00  0.00     0.019 C 
ENDBRANCH   1   7
TORSDOF 1
ENDMDL
