MODEL 1
REMARK minimizedAffinity 5.98527002
REMARK minimizedRMSD -1
REMARK  1 active torsions:
REMARK  status: ('A' for Active; 'I' for Inactive)
REMARK    1  A    between atoms: C1_2  and  C2_3 
ROOT
ATOM      1  C2  UNL d   1       4.545  -1.881  -3.436  0.00  0.00    -0.077 A 
ATOM      2  C3  UNL d   1       3.948  -1.841  -2.168  0.00  0.00     0.002 A 
ATOM      3  C4  UNL d   1       2.626  -1.416  -2.023  0.00  0.00     0.002 A 
ATOM      4  C5  UNL d   1       1.889  -1.033  -3.142  0.00  0.00    -0.004 A 
ATOM      5  C6  UNL d   1       2.474  -1.067  -4.407  0.00  0.00     0.002 A 
ATOM      6  C7  UNL d   1       3.796  -1.490  -4.553  0.00  0.00     0.002 A 
ENDROOT
BRANCH   1   7
ATOM      7  C1  UNL d   1       5.955  -2.385  -3.600  0.00  0.00     0.055 C 
ATOM      8  C   UNL d   1       5.996  -3.906  -3.651  0.00  0.00     0.019 C 
ENDBRANCH   1   7
TORSDOF 1
ENDMDL
