MODEL 1
REMARK minimizedAffinity -5.92937994
REMARK minimizedRMSD -1
REMARK  1 active torsions:
REMARK  status: ('A' for Active; 'I' for Inactive)
REMARK    1  A    between atoms: C1_2  and  C2_3 
ROOT
ATOM      1  C2  UNL d   1       0.677   0.448   0.414  0.00  0.00    -0.077 A 
ATOM      2  C3  UNL d   1       1.486  -0.582  -0.084  0.00  0.00     0.002 A 
ATOM      3  C4  UNL d   1       1.831  -0.619  -1.437  0.00  0.00     0.002 A 
ATOM      4  C5  UNL d   1       1.375   0.375  -2.300  0.00  0.00    -0.004 A 
ATOM      5  C6  UNL d   1       0.568   1.403  -1.815  0.00  0.00     0.002 A 
ATOM      6  C7  UNL d   1       0.221   1.440  -0.464  0.00  0.00     0.002 A 
ENDROOT
BRANCH   1   7
ATOM      7  C1  UNL d   1       0.345   0.516   1.882  0.00  0.00     0.055 C 
ATOM      8  C   UNL d   1       0.261   1.957   2.364  0.00  0.00     0.019 C 
ENDBRANCH   1   7
TORSDOF 1
ENDMDL
