MODEL 1
REMARK minimizedAffinity 8.05545139
REMARK minimizedRMSD -1
REMARK  0 active torsions:
REMARK  status: ('A' for Active; 'I' for Inactive)
ROOT
ATOM      1  C   UNL d   1      -3.665   4.962  -5.997  0.00  0.00    -0.002 A 
ATOM      2  C1  UNL d   1      -4.220   5.659  -4.933  0.00  0.00     0.010 A 
ATOM      3  C2  UNL d   1      -3.442   6.000  -3.824  0.00  0.00     0.041 A 
ATOM      4  C3  UNL d   1      -2.084   5.626  -3.804  0.00  0.00    -0.075 A 
ATOM      5  S   UNL d   1      -0.939   5.936  -2.552  0.00  0.00     0.015 SA
ATOM      6  C4  UNL d   1       0.313   5.152  -3.401  0.00  0.00     0.022 A 
ATOM      7  C5  UNL d   1      -0.114   4.659  -4.611  0.00  0.00     0.026 A 
ATOM      8  C6  UNL d   1      -1.502   4.924  -4.864  0.00  0.00    -0.082 A 
ATOM      9  C7  UNL d   1      -2.317   4.593  -5.973  0.00  0.00     0.045 A 
ENDROOT
TORSDOF 0
ENDMDL
