MODEL 1
REMARK minimizedAffinity 9.12782764
REMARK minimizedRMSD -1
REMARK  0 active torsions:
REMARK  status: ('A' for Active; 'I' for Inactive)
ROOT
ATOM      1  C   UNL d   1      -5.109   1.658  -0.389  0.00  0.00    -0.002 A 
ATOM      2  C1  UNL d   1      -5.627   1.242  -1.607  0.00  0.00     0.010 A 
ATOM      3  C2  UNL d   1      -5.927   2.171  -2.606  0.00  0.00     0.041 A 
ATOM      4  C3  UNL d   1      -5.695   3.538  -2.357  0.00  0.00    -0.075 A 
ATOM      5  S   UNL d   1      -5.986   4.854  -3.432  0.00  0.00     0.015 SA
ATOM      6  C4  UNL d   1      -5.429   6.000  -2.299  0.00  0.00     0.022 A 
ATOM      7  C5  UNL d   1      -5.028   5.410  -1.124  0.00  0.00     0.026 A 
ATOM      8  C6  UNL d   1      -5.174   3.981  -1.138  0.00  0.00    -0.082 A 
ATOM      9  C7  UNL d   1      -4.880   3.015  -0.146  0.00  0.00     0.045 A 
ENDROOT
TORSDOF 0
ENDMDL
