MODEL 1
REMARK minimizedAffinity 20.9796066
REMARK minimizedRMSD -1
REMARK  0 active torsions:
REMARK  status: ('A' for Active; 'I' for Inactive)
ROOT
ATOM      1  C   UNL d   1      -3.032  -3.419   0.604  0.00  0.00    -0.002 A 
ATOM      2  C1  UNL d   1      -3.935  -2.378   0.449  0.00  0.00     0.010 A 
ATOM      3  C2  UNL d   1      -3.584  -1.074   0.804  0.00  0.00     0.041 A 
ATOM      4  C3  UNL d   1      -2.295  -0.832   1.321  0.00  0.00    -0.075 A 
ATOM      5  S   UNL d   1      -1.644   0.684   1.822  0.00  0.00     0.015 SA
ATOM      6  C4  UNL d   1      -0.151  -0.016   2.252  0.00  0.00     0.022 A 
ATOM      7  C5  UNL d   1      -0.132  -1.372   2.026  0.00  0.00     0.026 A 
ATOM      8  C6  UNL d   1      -1.368  -1.865   1.485  0.00  0.00    -0.082 A 
ATOM      9  C7  UNL d   1      -1.755  -3.176   1.116  0.00  0.00     0.045 A 
ENDROOT
TORSDOF 0
ENDMDL
