MODEL 1
REMARK minimizedAffinity 24.8847008
REMARK minimizedRMSD -1
REMARK  0 active torsions:
REMARK  status: ('A' for Active; 'I' for Inactive)
ROOT
ATOM      1  C   UNL d   1       1.030  -2.832   2.636  0.00  0.00    -0.002 A 
ATOM      2  C1  UNL d   1       2.008  -1.850   2.558  0.00  0.00     0.010 A 
ATOM      3  C2  UNL d   1       3.060  -1.966   1.648  0.00  0.00     0.041 A 
ATOM      4  C3  UNL d   1       3.113  -3.096   0.808  0.00  0.00    -0.075 A 
ATOM      5  S   UNL d   1       4.308  -3.450  -0.383  0.00  0.00     0.015 SA
ATOM      6  C4  UNL d   1       3.548  -4.912  -0.818  0.00  0.00     0.022 A 
ATOM      7  C5  UNL d   1       2.410  -5.141  -0.082  0.00  0.00     0.026 A 
ATOM      8  C6  UNL d   1       2.140  -4.097   0.867  0.00  0.00    -0.082 A 
ATOM      9  C7  UNL d   1       1.086  -3.951   1.801  0.00  0.00     0.045 A 
ENDROOT
TORSDOF 0
ENDMDL
