MODEL 1
REMARK minimizedAffinity 20.2853851
REMARK minimizedRMSD -1
REMARK  0 active torsions:
REMARK  status: ('A' for Active; 'I' for Inactive)
ROOT
ATOM      1  C   UNL d   1       6.000   6.000  -3.419  0.00  0.00    -0.002 A 
ATOM      2  C1  UNL d   1       5.301   5.809  -2.235  0.00  0.00     0.010 A 
ATOM      3  C2  UNL d   1       4.281   4.858  -2.158  0.00  0.00     0.041 A 
ATOM      4  C3  UNL d   1       3.974   4.094  -3.301  0.00  0.00    -0.075 A 
ATOM      5  S   UNL d   1       2.765   2.873  -3.441  0.00  0.00     0.015 SA
ATOM      6  C4  UNL d   1       3.149   2.574  -5.074  0.00  0.00     0.022 A 
ATOM      7  C5  UNL d   1       4.172   3.379  -5.519  0.00  0.00     0.026 A 
ATOM      8  C6  UNL d   1       4.664   4.268  -4.504  0.00  0.00    -0.082 A 
ATOM      9  C7  UNL d   1       5.692   5.240  -4.550  0.00  0.00     0.045 A 
ENDROOT
TORSDOF 0
ENDMDL
