MODEL 1
REMARK minimizedAffinity 21.0846214
REMARK minimizedRMSD -1
REMARK  0 active torsions:
REMARK  status: ('A' for Active; 'I' for Inactive)
ROOT
ATOM      1  C   UNL d   1      -1.807  -1.569   0.745  0.00  0.00    -0.002 A 
ATOM      2  C1  UNL d   1      -1.736  -0.320   1.345  0.00  0.00     0.010 A 
ATOM      3  C2  UNL d   1      -0.806  -0.068   2.355  0.00  0.00     0.041 A 
ATOM      4  C3  UNL d   1       0.062  -1.103   2.755  0.00  0.00    -0.075 A 
ATOM      5  S   UNL d   1       1.282  -1.025   3.971  0.00  0.00     0.015 SA
ATOM      6  C4  UNL d   1       1.739  -2.648   3.722  0.00  0.00     0.022 A 
ATOM      7  C5  UNL d   1       0.989  -3.250   2.740  0.00  0.00     0.026 A 
ATOM      8  C6  UNL d   1       0.011  -2.370   2.166  0.00  0.00    -0.082 A 
ATOM      9  C7  UNL d   1      -0.944  -2.593   1.145  0.00  0.00     0.045 A 
ENDROOT
TORSDOF 0
ENDMDL
