MODEL 1
REMARK minimizedAffinity 20.5059967
REMARK minimizedRMSD -1
REMARK  0 active torsions:
REMARK  status: ('A' for Active; 'I' for Inactive)
ROOT
ATOM      1  C   UNL d   1       5.999   4.094   0.926  0.00  0.00    -0.002 A 
ATOM      2  C1  UNL d   1       5.587   3.890   2.235  0.00  0.00     0.010 A 
ATOM      3  C2  UNL d   1       4.725   2.838   2.552  0.00  0.00     0.041 A 
ATOM      4  C3  UNL d   1       4.283   1.984   1.522  0.00  0.00    -0.075 A 
ATOM      5  S   UNL d   1       3.227   0.631   1.676  0.00  0.00     0.015 SA
ATOM      6  C4  UNL d   1       3.300   0.290   0.007  0.00  0.00     0.022 A 
ATOM      7  C5  UNL d   1       4.105   1.178  -0.666  0.00  0.00     0.026 A 
ATOM      8  C6  UNL d   1       4.686   2.169   0.197  0.00  0.00    -0.082 A 
ATOM      9  C7  UNL d   1       5.559   3.245  -0.093  0.00  0.00     0.045 A 
ENDROOT
TORSDOF 0
ENDMDL
