MODEL 1
REMARK minimizedAffinity 15.2223673
REMARK minimizedRMSD -1
REMARK  0 active torsions:
REMARK  status: ('A' for Active; 'I' for Inactive)
ROOT
ATOM      1  C   UNL d   1      -3.076   0.546   2.120  0.00  0.00    -0.002 A 
ATOM      2  C1  UNL d   1      -2.208   0.977   3.113  0.00  0.00     0.010 A 
ATOM      3  C2  UNL d   1      -1.084   0.220   3.452  0.00  0.00     0.041 A 
ATOM      4  C3  UNL d   1      -0.844  -0.987   2.767  0.00  0.00    -0.075 A 
ATOM      5  S   UNL d   1       0.470  -2.077   3.011  0.00  0.00     0.015 SA
ATOM      6  C4  UNL d   1      -0.090  -3.140   1.802  0.00  0.00     0.022 A 
ATOM      7  C5  UNL d   1      -1.249  -2.690   1.216  0.00  0.00     0.026 A 
ATOM      8  C6  UNL d   1      -1.703  -1.441   1.762  0.00  0.00    -0.082 A 
ATOM      9  C7  UNL d   1      -2.834  -0.653   1.443  0.00  0.00     0.045 A 
ENDROOT
TORSDOF 0
ENDMDL
