MODEL 1
REMARK minimizedAffinity 23.5491371
REMARK minimizedRMSD -1
REMARK  0 active torsions:
REMARK  status: ('A' for Active; 'I' for Inactive)
ROOT
ATOM      1  C   UNL d   1       2.112   1.872  -2.507  0.00  0.00    -0.002 A 
ATOM      2  C1  UNL d   1       2.624   1.210  -1.400  0.00  0.00     0.010 A 
ATOM      3  C2  UNL d   1       3.825   1.621  -0.819  0.00  0.00     0.041 A 
ATOM      4  C3  UNL d   1       4.510   2.720  -1.374  0.00  0.00    -0.075 A 
ATOM      5  S   UNL d   1       5.997   3.401  -0.830  0.00  0.00     0.015 SA
ATOM      6  C4  UNL d   1       5.988   4.588  -2.054  0.00  0.00     0.022 A 
ATOM      7  C5  UNL d   1       4.884   4.481  -2.867  0.00  0.00     0.026 A 
ATOM      8  C6  UNL d   1       4.014   3.404  -2.488  0.00  0.00    -0.082 A 
ATOM      9  C7  UNL d   1       2.794   2.962  -3.055  0.00  0.00     0.045 A 
ENDROOT
TORSDOF 0
ENDMDL
