MODEL 1
REMARK minimizedAffinity 20.1667786
REMARK minimizedRMSD -1
REMARK  0 active torsions:
REMARK  status: ('A' for Active; 'I' for Inactive)
ROOT
ATOM      1  C   UNL d   1      -2.802   1.328   3.161  0.00  0.00    -0.002 A 
ATOM      2  C1  UNL d   1      -2.388   1.026   4.451  0.00  0.00     0.010 A 
ATOM      3  C2  UNL d   1      -1.441   0.025   4.676  0.00  0.00     0.041 A 
ATOM      4  C3  UNL d   1      -0.911  -0.673   3.573  0.00  0.00    -0.075 A 
ATOM      5  S   UNL d   1       0.260  -1.938   3.609  0.00  0.00     0.015 SA
ATOM      6  C4  UNL d   1       0.239  -2.107   1.913  0.00  0.00     0.022 A 
ATOM      7  C5  UNL d   1      -0.635  -1.227   1.318  0.00  0.00     0.026 A 
ATOM      8  C6  UNL d   1      -1.312  -0.386   2.265  0.00  0.00    -0.082 A 
ATOM      9  C7  UNL d   1      -2.274   0.634   2.070  0.00  0.00     0.045 A 
ENDROOT
TORSDOF 0
ENDMDL
