MODEL 1
REMARK minimizedAffinity 15.7034512
REMARK minimizedRMSD -1
REMARK  0 active torsions:
REMARK  status: ('A' for Active; 'I' for Inactive)
ROOT
ATOM      1  C   UNL d   1       5.823   3.570  -4.495  0.00  0.00    -0.002 A 
ATOM      2  C1  UNL d   1       5.999   4.535  -3.512  0.00  0.00     0.010 A 
ATOM      3  C2  UNL d   1       4.918   4.970  -2.743  0.00  0.00     0.041 A 
ATOM      4  C3  UNL d   1       3.645   4.414  -2.979  0.00  0.00    -0.075 A 
ATOM      5  S   UNL d   1       2.177   4.794  -2.160  0.00  0.00     0.015 SA
ATOM      6  C4  UNL d   1       1.281   3.684  -3.093  0.00  0.00     0.022 A 
ATOM      7  C5  UNL d   1       2.068   3.032  -4.013  0.00  0.00     0.026 A 
ATOM      8  C6  UNL d   1       3.443   3.441  -3.962  0.00  0.00    -0.082 A 
ATOM      9  C7  UNL d   1       4.559   3.021  -4.726  0.00  0.00     0.045 A 
ENDROOT
TORSDOF 0
ENDMDL
