MODEL 1
REMARK minimizedAffinity 4.69582844
REMARK minimizedRMSD -1
REMARK  0 active torsions:
REMARK  status: ('A' for Active; 'I' for Inactive)
ROOT
ATOM      1  C1  DEN d   1       3.363   0.223   1.625  0.00  0.00     0.130 A 
ATOM      2  C2  DEN d   1       2.577   0.840   0.560  0.00  0.00    -0.031 A 
ATOM      3  C3  DEN d   1       1.468  -0.076   0.223  0.00  0.00     0.027 A 
ATOM      4  C4  DEN d   1       0.894  -2.374   1.243  0.00  0.00     0.027 A 
ATOM      5  C5  DEN d   1       1.279  -3.319   2.168  0.00  0.00    -0.003 A 
ATOM      6  C6  DEN d   1       2.396  -3.168   2.946  0.00  0.00     0.001 A 
ATOM      7  C7  DEN d   1       3.142  -2.023   2.845  0.00  0.00     0.017 A 
ATOM      8  C8  DEN d   1       2.764  -1.069   1.910  0.00  0.00    -0.094 A 
ATOM      9  C9  DEN d   1       1.625  -1.235   1.142  0.00  0.00    -0.072 A 
ENDROOT
TORSDOF 0
ENDMDL
