MODEL 1
REMARK minimizedAffinity 1.98208547
REMARK minimizedRMSD -1
REMARK  0 active torsions:
REMARK  status: ('A' for Active; 'I' for Inactive)
ROOT
ATOM      1  C1  DEN d   1       2.734   0.231   1.436  0.00  0.00     0.130 A 
ATOM      2  C2  DEN d   1       2.281   1.530   0.946  0.00  0.00    -0.031 A 
ATOM      3  C3  DEN d   1       0.828   1.445   0.701  0.00  0.00     0.027 A 
ATOM      4  C4  DEN d   1      -0.759  -0.561   1.036  0.00  0.00     0.027 A 
ATOM      5  C5  DEN d   1      -0.833  -1.881   1.422  0.00  0.00    -0.003 A 
ATOM      6  C6  DEN d   1       0.272  -2.594   1.804  0.00  0.00     0.001 A 
ATOM      7  C7  DEN d   1       1.494  -1.976   1.852  0.00  0.00     0.017 A 
ATOM      8  C8  DEN d   1       1.579  -0.648   1.457  0.00  0.00    -0.094 A 
ATOM      9  C9  DEN d   1       0.447   0.059   1.085  0.00  0.00    -0.072 A 
ENDROOT
TORSDOF 0
ENDMDL
