MODEL 1
REMARK minimizedAffinity 1.3982693
REMARK minimizedRMSD -1
REMARK  0 active torsions:
REMARK  status: ('A' for Active; 'I' for Inactive)
ROOT
ATOM      1  C1  DEN d   1       1.367   1.212   1.062  0.00  0.00     0.130 A 
ATOM      2  C2  DEN d   1       2.685   0.714   1.446  0.00  0.00    -0.031 A 
ATOM      3  C3  DEN d   1       2.578  -0.743   1.660  0.00  0.00     0.027 A 
ATOM      4  C4  DEN d   1       0.511  -2.269   1.431  0.00  0.00     0.027 A 
ATOM      5  C5  DEN d   1      -0.835  -2.300   1.139  0.00  0.00    -0.003 A 
ATOM      6  C6  DEN d   1      -1.542  -1.167   0.837  0.00  0.00     0.001 A 
ATOM      7  C7  DEN d   1      -0.898   0.040   0.775  0.00  0.00     0.017 A 
ATOM      8  C8  DEN d   1       0.458   0.080   1.075  0.00  0.00    -0.094 A 
ATOM      9  C9  DEN d   1       1.158  -1.078   1.367  0.00  0.00    -0.072 A 
ENDROOT
TORSDOF 0
ENDMDL
