MODEL 1
REMARK minimizedAffinity 9.66611958
REMARK minimizedRMSD -1
REMARK  0 active torsions:
REMARK  status: ('A' for Active; 'I' for Inactive)
ROOT
ATOM      1  C1  DEN d   1       0.976   1.500   1.125  0.00  0.00     0.130 A 
ATOM      2  C2  DEN d   1       1.525   2.632   0.385  0.00  0.00    -0.031 A 
ATOM      3  C3  DEN d   1       2.862   2.248  -0.112  0.00  0.00     0.027 A 
ATOM      4  C4  DEN d   1       4.125   0.019   0.187  0.00  0.00     0.027 A 
ATOM      5  C5  DEN d   1       4.068  -1.237   0.750  0.00  0.00    -0.003 A 
ATOM      6  C6  DEN d   1       3.000  -1.653   1.500  0.00  0.00     0.001 A 
ATOM      7  C7  DEN d   1       1.924  -0.822   1.669  0.00  0.00     0.017 A 
ATOM      8  C8  DEN d   1       1.978   0.449   1.111  0.00  0.00    -0.094 A 
ATOM      9  C9  DEN d   1       3.061   0.846   0.346  0.00  0.00    -0.072 A 
ENDROOT
TORSDOF 0
ENDMDL
