MODEL 1
REMARK minimizedAffinity 13.5199795
REMARK minimizedRMSD -1
REMARK  0 active torsions:
REMARK  status: ('A' for Active; 'I' for Inactive)
ROOT
ATOM      1  C1  DEN d   1      -5.155   3.133  -1.726  0.00  0.00     0.130 A 
ATOM      2  C2  DEN d   1      -3.915   2.738  -2.390  0.00  0.00    -0.031 A 
ATOM      3  C3  DEN d   1      -3.066   2.048  -1.399  0.00  0.00     0.027 A 
ATOM      4  C4  DEN d   1      -3.550   1.550   1.086  0.00  0.00     0.027 A 
ATOM      5  C5  DEN d   1      -4.466   1.702   2.103  0.00  0.00    -0.003 A 
ATOM      6  C6  DEN d   1      -5.652   2.365   1.926  0.00  0.00     0.001 A 
ATOM      7  C7  DEN d   1      -5.972   2.863   0.690  0.00  0.00     0.017 A 
ATOM      8  C8  DEN d   1      -5.051   2.721  -0.338  0.00  0.00    -0.094 A 
ATOM      9  C9  DEN d   1      -3.863   2.036  -0.142  0.00  0.00    -0.072 A 
ENDROOT
TORSDOF 0
ENDMDL
