MODEL 1
REMARK minimizedAffinity 3.56404257
REMARK minimizedRMSD -1
REMARK  0 active torsions:
REMARK  status: ('A' for Active; 'I' for Inactive)
ROOT
ATOM      1  C1  DEN d   1      -0.440  -2.256   0.972  0.00  0.00     0.130 A 
ATOM      2  C2  DEN d   1      -1.325  -1.132   1.265  0.00  0.00    -0.031 A 
ATOM      3  C3  DEN d   1      -0.488   0.064   1.485  0.00  0.00     0.027 A 
ATOM      4  C4  DEN d   1       2.081   0.285   1.397  0.00  0.00     0.027 A 
ATOM      5  C5  DEN d   1       3.260  -0.399   1.198  0.00  0.00    -0.003 A 
ATOM      6  C6  DEN d   1       3.290  -1.744   0.945  0.00  0.00     0.001 A 
ATOM      7  C7  DEN d   1       2.116  -2.442   0.840  0.00  0.00     0.017 A 
ATOM      8  C8  DEN d   1       0.923  -1.761   1.047  0.00  0.00    -0.094 A 
ATOM      9  C9  DEN d   1       0.913  -0.398   1.289  0.00  0.00    -0.072 A 
ENDROOT
TORSDOF 0
ENDMDL
