MODEL 1
REMARK minimizedAffinity 18.1041946
REMARK minimizedRMSD -1
REMARK  0 active torsions:
REMARK  status: ('A' for Active; 'I' for Inactive)
ROOT
ATOM      1  C1  DEN d   1      -0.152  -1.028   1.389  0.00  0.00     0.130 A 
ATOM      2  C2  DEN d   1      -0.065  -2.440   1.026  0.00  0.00    -0.031 A 
ATOM      3  C3  DEN d   1       1.356  -2.764   0.789  0.00  0.00     0.027 A 
ATOM      4  C4  DEN d   1       3.420  -1.226   0.953  0.00  0.00     0.027 A 
ATOM      5  C5  DEN d   1       3.846   0.057   1.216  0.00  0.00    -0.003 A 
ATOM      6  C6  DEN d   1       2.973   1.068   1.519  0.00  0.00     0.001 A 
ATOM      7  C7  DEN d   1       1.632   0.802   1.612  0.00  0.00     0.017 A 
ATOM      8  C8  DEN d   1       1.195  -0.487   1.340  0.00  0.00    -0.094 A 
ATOM      9  C9  DEN d   1       2.094  -1.499   1.047  0.00  0.00    -0.072 A 
ENDROOT
TORSDOF 0
ENDMDL
