MODEL 1
REMARK minimizedAffinity 11.2396059
REMARK minimizedRMSD -1
REMARK  0 active torsions:
REMARK  status: ('A' for Active; 'I' for Inactive)
ROOT
ATOM      1  C1  DEN d   1       3.032  -1.234   0.260  0.00  0.00     0.130 A 
ATOM      2  C2  DEN d   1       2.912  -0.724   1.623  0.00  0.00    -0.031 A 
ATOM      3  C3  DEN d   1       1.476  -0.555   1.922  0.00  0.00     0.027 A 
ATOM      4  C4  DEN d   1      -0.563  -1.035   0.416  0.00  0.00     0.027 A 
ATOM      5  C5  DEN d   1      -0.961  -1.467  -0.829  0.00  0.00    -0.003 A 
ATOM      6  C6  DEN d   1      -0.063  -1.817  -1.802  0.00  0.00     0.001 A 
ATOM      7  C7  DEN d   1       1.279  -1.784  -1.531  0.00  0.00     0.017 A 
ATOM      8  C8  DEN d   1       1.689  -1.341  -0.280  0.00  0.00    -0.094 A 
ATOM      9  C9  DEN d   1       0.765  -1.004   0.695  0.00  0.00    -0.072 A 
ENDROOT
TORSDOF 0
ENDMDL
