MODEL 1
REMARK minimizedAffinity 0.125129595
REMARK minimizedRMSD -1
REMARK  0 active torsions:
REMARK  status: ('A' for Active; 'I' for Inactive)
ROOT
ATOM      1  C1  DEN d   1       1.909   3.398  -0.251  0.00  0.00     0.130 A 
ATOM      2  C2  DEN d   1       0.595   3.837  -0.714  0.00  0.00    -0.031 A 
ATOM      3  C3  DEN d   1      -0.403   2.849  -0.260  0.00  0.00     0.027 A 
ATOM      4  C4  DEN d   1      -0.046   0.695   1.113  0.00  0.00     0.027 A 
ATOM      5  C5  DEN d   1       0.896  -0.102   1.726  0.00  0.00    -0.003 A 
ATOM      6  C6  DEN d   1       2.233   0.191   1.695  0.00  0.00     0.001 A 
ATOM      7  C7  DEN d   1       2.663   1.335   1.075  0.00  0.00     0.017 A 
ATOM      8  C8  DEN d   1       1.721   2.139   0.448  0.00  0.00    -0.094 A 
ATOM      9  C9  DEN d   1       0.372   1.832   0.501  0.00  0.00    -0.072 A 
ENDROOT
TORSDOF 0
ENDMDL
