MODEL 1
REMARK minimizedAffinity 6.94723415
REMARK minimizedRMSD -1
REMARK  0 active torsions:
REMARK  status: ('A' for Active; 'I' for Inactive)
ROOT
ATOM      1  C   UNL d   1      -5.578   4.083   1.004  0.00  0.00     0.020 A 
ATOM      2  C1  UNL d   1      -5.291   3.166   2.014  0.00  0.00     0.020 A 
ATOM      3  C2  UNL d   1      -4.038   2.552   2.064  0.00  0.00     0.034 A 
ATOM      4  C3  UNL d   1      -3.068   2.852   1.101  0.00  0.00     0.017 A 
ATOM      5  C4  UNL d   1      -3.357   3.772   0.087  0.00  0.00     0.017 A 
ATOM      6  C5  UNL d   1      -4.614   4.385   0.042  0.00  0.00     0.034 A 
ATOM      7 Cl   UNL d   1      -2.212   4.194  -1.137  0.00  0.00    -0.070 Cl
ATOM      8 Cl1  UNL d   1      -1.540   2.055   1.223  0.00  0.00    -0.070 Cl
ENDROOT
TORSDOF 0
ENDMDL
