MODEL 1
REMARK minimizedAffinity 10.4893141
REMARK minimizedRMSD -1
REMARK  0 active torsions:
REMARK  status: ('A' for Active; 'I' for Inactive)
ROOT
ATOM      1  C   UNL d   1      -5.588   3.939   1.108  0.00  0.00     0.020 A 
ATOM      2  C1  UNL d   1      -5.191   3.183   2.211  0.00  0.00     0.020 A 
ATOM      3  C2  UNL d   1      -3.995   2.465   2.171  0.00  0.00     0.034 A 
ATOM      4  C3  UNL d   1      -3.190   2.500   1.026  0.00  0.00     0.017 A 
ATOM      5  C4  UNL d   1      -3.589   3.258  -0.081  0.00  0.00     0.017 A 
ATOM      6  C5  UNL d   1      -4.788   3.976  -0.035  0.00  0.00     0.034 A 
ATOM      7 Cl   UNL d   1      -2.650   3.351  -1.528  0.00  0.00    -0.070 Cl
ATOM      8 Cl1  UNL d   1      -1.724   1.587   1.046  0.00  0.00    -0.070 Cl
ENDROOT
TORSDOF 0
ENDMDL
