MODEL 1
REMARK minimizedAffinity 12.8064098
REMARK minimizedRMSD -1
REMARK  0 active torsions:
REMARK  status: ('A' for Active; 'I' for Inactive)
ROOT
ATOM      1  C   UNL d   1       2.822   1.898   2.160  0.00  0.00     0.020 A 
ATOM      2  C1  UNL d   1       4.075   2.483   2.340  0.00  0.00     0.020 A 
ATOM      3  C2  UNL d   1       4.774   2.282   3.532  0.00  0.00     0.034 A 
ATOM      4  C3  UNL d   1       4.221   1.494   4.548  0.00  0.00     0.017 A 
ATOM      5  C4  UNL d   1       2.964   0.907   4.366  0.00  0.00     0.017 A 
ATOM      6  C5  UNL d   1       2.268   1.111   3.171  0.00  0.00     0.034 A 
ATOM      7 Cl   UNL d   1       2.218  -0.079   5.574  0.00  0.00    -0.070 Cl
ATOM      8 Cl1  UNL d   1       5.142   1.288   5.996  0.00  0.00    -0.070 Cl
ENDROOT
TORSDOF 0
ENDMDL
