MODEL 1
REMARK minimizedAffinity 16.8150024
REMARK minimizedRMSD -1
REMARK  0 active torsions:
REMARK  status: ('A' for Active; 'I' for Inactive)
ROOT
ATOM      1  C   UNL d   1       5.481  -1.416  -4.366  0.00  0.00     0.020 A 
ATOM      2  C1  UNL d   1       4.237  -1.321  -3.742  0.00  0.00     0.020 A 
ATOM      3  C2  UNL d   1       3.512  -0.129  -3.809  0.00  0.00     0.034 A 
ATOM      4  C3  UNL d   1       4.029   0.972  -4.501  0.00  0.00     0.017 A 
ATOM      5  C4  UNL d   1       5.277   0.875  -5.127  0.00  0.00     0.017 A 
ATOM      6  C5  UNL d   1       5.999  -0.320  -5.057  0.00  0.00     0.034 A 
ATOM      7 Cl   UNL d   1       5.980   2.191  -6.000  0.00  0.00    -0.070 Cl
ATOM      8 Cl1  UNL d   1       3.077   2.413  -4.544  0.00  0.00    -0.070 Cl
ENDROOT
TORSDOF 0
ENDMDL
