MODEL 1
REMARK minimizedAffinity 5.97768545
REMARK minimizedRMSD -1
REMARK  0 active torsions:
REMARK  status: ('A' for Active; 'I' for Inactive)
ROOT
ATOM      1  C   UNL d   1      -0.899   1.690  -0.134  0.00  0.00     0.020 A 
ATOM      2  C1  UNL d   1      -0.670   0.323  -0.282  0.00  0.00     0.020 A 
ATOM      3  C2  UNL d   1       0.526  -0.238   0.171  0.00  0.00     0.034 A 
ATOM      4  C3  UNL d   1       1.498   0.569   0.773  0.00  0.00     0.017 A 
ATOM      5  C4  UNL d   1       1.268   1.942   0.921  0.00  0.00     0.017 A 
ATOM      6  C5  UNL d   1       0.068   2.498   0.466  0.00  0.00     0.034 A 
ATOM      7 Cl   UNL d   1       2.420   3.001   1.654  0.00  0.00    -0.070 Cl
ATOM      8 Cl1  UNL d   1       2.954  -0.192   1.310  0.00  0.00    -0.070 Cl
ENDROOT
TORSDOF 0
ENDMDL
