MODEL 1
REMARK minimizedAffinity 14.5403013
REMARK minimizedRMSD -1
REMARK  0 active torsions:
REMARK  status: ('A' for Active; 'I' for Inactive)
ROOT
ATOM      1  C   UNL d   1      -1.067   0.466  -3.437  0.00  0.00     0.020 A 
ATOM      2  C1  UNL d   1      -0.556  -0.810  -3.205  0.00  0.00     0.020 A 
ATOM      3  C2  UNL d   1       0.022  -1.117  -1.971  0.00  0.00     0.034 A 
ATOM      4  C3  UNL d   1       0.090  -0.146  -0.965  0.00  0.00     0.017 A 
ATOM      5  C4  UNL d   1      -0.424   1.134  -1.199  0.00  0.00     0.017 A 
ATOM      6  C5  UNL d   1      -1.001   1.436  -2.436  0.00  0.00     0.034 A 
ATOM      7 Cl   UNL d   1      -0.376   2.384  -0.006  0.00  0.00    -0.070 Cl
ATOM      8 Cl1  UNL d   1       0.818  -0.596   0.536  0.00  0.00    -0.070 Cl
ENDROOT
TORSDOF 0
ENDMDL
