MODEL 1
REMARK minimizedAffinity 11.7457552
REMARK minimizedRMSD -1
REMARK  0 active torsions:
REMARK  status: ('A' for Active; 'I' for Inactive)
ROOT
ATOM      1  C   UNL d   1       5.091   1.620  -4.965  0.00  0.00     0.020 A 
ATOM      2  C1  UNL d   1       5.956   1.002  -5.867  0.00  0.00     0.020 A 
ATOM      3  C2  UNL d   1       5.950  -0.388  -5.999  0.00  0.00     0.034 A 
ATOM      4  C3  UNL d   1       5.078  -1.165  -5.226  0.00  0.00     0.017 A 
ATOM      5  C4  UNL d   1       4.211  -0.543  -4.321  0.00  0.00     0.017 A 
ATOM      6  C5  UNL d   1       4.221   0.850  -4.193  0.00  0.00     0.034 A 
ATOM      7 Cl   UNL d   1       3.107  -1.434  -3.333  0.00  0.00    -0.070 Cl
ATOM      8 Cl1  UNL d   1       5.125  -2.879  -5.440  0.00  0.00    -0.070 Cl
ENDROOT
TORSDOF 0
ENDMDL
