MODEL 1
REMARK minimizedAffinity 12.2098722
REMARK minimizedRMSD -1
REMARK  0 active torsions:
REMARK  status: ('A' for Active; 'I' for Inactive)
ROOT
ATOM      1  C   UNL d   1       2.017  -0.230   3.728  0.00  0.00     0.020 A 
ATOM      2  C1  UNL d   1       2.982  -0.670   2.822  0.00  0.00     0.020 A 
ATOM      3  C2  UNL d   1       3.194  -2.038   2.638  0.00  0.00     0.034 A 
ATOM      4  C3  UNL d   1       2.441  -2.971   3.361  0.00  0.00     0.017 A 
ATOM      5  C4  UNL d   1       1.473  -2.528   4.269  0.00  0.00     0.017 A 
ATOM      6  C5  UNL d   1       1.265  -1.157   4.449  0.00  0.00     0.034 A 
ATOM      7 Cl   UNL d   1       0.505  -3.619   5.197  0.00  0.00    -0.070 Cl
ATOM      8 Cl1  UNL d   1       2.757  -4.647   3.083  0.00  0.00    -0.070 Cl
ENDROOT
TORSDOF 0
ENDMDL
