MODEL 1
REMARK minimizedAffinity 4.16656637
REMARK minimizedRMSD -1
REMARK  0 active torsions:
REMARK  status: ('A' for Active; 'I' for Inactive)
ROOT
ATOM      1  C   UNL d   1       2.143  -1.881   5.252  0.00  0.00     0.020 A 
ATOM      2  C1  UNL d   1       2.162  -1.473   3.919  0.00  0.00     0.020 A 
ATOM      3  C2  UNL d   1       3.363  -1.469   3.207  0.00  0.00     0.034 A 
ATOM      4  C3  UNL d   1       4.550  -1.874   3.828  0.00  0.00     0.017 A 
ATOM      5  C4  UNL d   1       4.530  -2.283   5.166  0.00  0.00     0.017 A 
ATOM      6  C5  UNL d   1       3.325  -2.285   5.874  0.00  0.00     0.034 A 
ATOM      7 Cl   UNL d   1       5.955  -2.796   6.000  0.00  0.00    -0.070 Cl
ATOM      8 Cl1  UNL d   1       6.000  -1.844   2.887  0.00  0.00    -0.070 Cl
ENDROOT
TORSDOF 0
ENDMDL
