MODEL 1
REMARK minimizedAffinity 1.90290654
REMARK minimizedRMSD -1
REMARK  0 active torsions:
REMARK  status: ('A' for Active; 'I' for Inactive)
ROOT
ATOM      1  C   UNL d   1       6.000  -1.873   4.924  0.00  0.00     0.020 A 
ATOM      2  C1  UNL d   1       5.441  -2.896   5.688  0.00  0.00     0.020 A 
ATOM      3  C2  UNL d   1       4.075  -3.171   5.595  0.00  0.00     0.034 A 
ATOM      4  C3  UNL d   1       3.263  -2.422   4.734  0.00  0.00     0.017 A 
ATOM      5  C4  UNL d   1       3.826  -1.396   3.967  0.00  0.00     0.017 A 
ATOM      6  C5  UNL d   1       5.194  -1.125   4.065  0.00  0.00     0.034 A 
ATOM      7 Cl   UNL d   1       2.889  -0.429   2.883  0.00  0.00    -0.070 Cl
ATOM      8 Cl1  UNL d   1       1.583  -2.817   4.668  0.00  0.00    -0.070 Cl
ENDROOT
TORSDOF 0
ENDMDL
