MODEL 1
REMARK minimizedAffinity -4.9117794
REMARK minimizedRMSD -1
REMARK  0 active torsions:
REMARK  status: ('A' for Active; 'I' for Inactive)
ROOT
ATOM      1  C1  BNZ d   1       0.755  -1.322   0.279  0.00  0.00     0.000 A 
ATOM      2  C2  BNZ d   1       2.098  -1.589   0.265  0.00  0.00     0.000 A 
ATOM      3  C3  BNZ d   1       2.558  -2.854   0.024  0.00  0.00     0.000 A 
ATOM      4  C4  BNZ d   1       1.674  -3.856  -0.161  0.00  0.00     0.000 A 
ATOM      5  C5  BNZ d   1       0.317  -3.605  -0.140  0.00  0.00     0.000 A 
ATOM      6  C6  BNZ d   1      -0.141  -2.323   0.064  0.00  0.00     0.000 A 
ENDROOT
TORSDOF 0
ENDMDL
