MODEL 1
REMARK minimizedAffinity -0.127426684
REMARK minimizedRMSD -1
REMARK  0 active torsions:
REMARK  status: ('A' for Active; 'I' for Inactive)
ROOT
ATOM      1  C1  BNZ d   1       2.235  -2.833   0.350  0.00  0.00     0.000 A 
ATOM      2  C2  BNZ d   1       1.810  -1.551   0.576  0.00  0.00     0.000 A 
ATOM      3  C3  BNZ d   1       0.544  -1.163   0.234  0.00  0.00     0.000 A 
ATOM      4  C4  BNZ d   1      -0.279  -2.044  -0.369  0.00  0.00     0.000 A 
ATOM      5  C5  BNZ d   1       0.138  -3.338  -0.612  0.00  0.00     0.000 A 
ATOM      6  C6  BNZ d   1       1.399  -3.736  -0.231  0.00  0.00     0.000 A 
ENDROOT
TORSDOF 0
ENDMDL
