MODEL 1
REMARK minimizedAffinity -2.5480125
REMARK minimizedRMSD -1
REMARK  0 active torsions:
REMARK  status: ('A' for Active; 'I' for Inactive)
ROOT
ATOM      1  C1  BNZ d   1       1.697  -2.076   1.442  0.00  0.00     0.000 A 
ATOM      2  C2  BNZ d   1       1.048  -0.870   1.484  0.00  0.00     0.000 A 
ATOM      3  C3  BNZ d   1      -0.181  -0.717   0.905  0.00  0.00     0.000 A 
ATOM      4  C4  BNZ d   1      -0.740  -1.756   0.252  0.00  0.00     0.000 A 
ATOM      5  C5  BNZ d   1      -0.094  -2.974   0.193  0.00  0.00     0.000 A 
ATOM      6  C6  BNZ d   1       1.125  -3.136   0.811  0.00  0.00     0.000 A 
ENDROOT
TORSDOF 0
ENDMDL
