MODEL 1
REMARK minimizedAffinity -3.96329236
REMARK minimizedRMSD -1
REMARK  0 active torsions:
REMARK  status: ('A' for Active; 'I' for Inactive)
ROOT
ATOM      1  C1  BNZ d   1      -0.517  -1.714   0.542  0.00  0.00     0.000 A 
ATOM      2  C2  BNZ d   1      -0.150  -2.977   0.161  0.00  0.00     0.000 A 
ATOM      3  C3  BNZ d   1       1.152  -3.266  -0.140  0.00  0.00     0.000 A 
ATOM      4  C4  BNZ d   1       2.076  -2.285  -0.098  0.00  0.00     0.000 A 
ATOM      5  C5  BNZ d   1       1.719  -1.004   0.275  0.00  0.00     0.000 A 
ATOM      6  C6  BNZ d   1       0.415  -0.726   0.615  0.00  0.00     0.000 A 
ENDROOT
TORSDOF 0
ENDMDL
