MODEL 1
REMARK minimizedAffinity -3.12442327
REMARK minimizedRMSD -1
REMARK  0 active torsions:
REMARK  status: ('A' for Active; 'I' for Inactive)
ROOT
ATOM      1  C1  BNZ d   1       2.359  -1.468   0.128  0.00  0.00     0.000 A 
ATOM      2  C2  BNZ d   1       3.500  -2.207  -0.042  0.00  0.00     0.000 A 
ATOM      3  C3  BNZ d   1       3.445  -3.570  -0.123  0.00  0.00     0.000 A 
ATOM      4  C4  BNZ d   1       2.256  -4.195   0.005  0.00  0.00     0.000 A 
ATOM      5  C5  BNZ d   1       1.099  -3.464   0.186  0.00  0.00     0.000 A 
ATOM      6  C6  BNZ d   1       1.153  -2.090   0.228  0.00  0.00     0.000 A 
ENDROOT
TORSDOF 0
ENDMDL
