MODEL 1
REMARK minimizedAffinity 0.0530047044
REMARK minimizedRMSD -1
REMARK  0 active torsions:
REMARK  status: ('A' for Active; 'I' for Inactive)
ROOT
ATOM      1  C1  BNZ d   1       1.497  -1.626  -0.221  0.00  0.00     0.000 A 
ATOM      2  C2  BNZ d   1       0.182  -1.472   0.130  0.00  0.00     0.000 A 
ATOM      3  C3  BNZ d   1      -0.166  -0.748   1.237  0.00  0.00     0.000 A 
ATOM      4  C4  BNZ d   1       0.800  -0.215   2.012  0.00  0.00     0.000 A 
ATOM      5  C5  BNZ d   1       2.130  -0.370   1.676  0.00  0.00     0.000 A 
ATOM      6  C6  BNZ d   1       2.476  -1.066   0.540  0.00  0.00     0.000 A 
ENDROOT
TORSDOF 0
ENDMDL
