MODEL 1
REMARK minimizedAffinity -4.7348876
REMARK minimizedRMSD -1
REMARK  0 active torsions:
REMARK  status: ('A' for Active; 'I' for Inactive)
ROOT
ATOM      1  C1  BNZ d   1       1.415  -1.212   0.502  0.00  0.00     0.000 A 
ATOM      2  C2  BNZ d   1       1.981  -2.423   0.204  0.00  0.00     0.000 A 
ATOM      3  C3  BNZ d   1       1.222  -3.559   0.158  0.00  0.00     0.000 A 
ATOM      4  C4  BNZ d   1      -0.093  -3.489   0.449  0.00  0.00     0.000 A 
ATOM      5  C5  BNZ d   1      -0.677  -2.278   0.760  0.00  0.00     0.000 A 
ATOM      6  C6  BNZ d   1       0.083  -1.130   0.767  0.00  0.00     0.000 A 
ENDROOT
TORSDOF 0
ENDMDL
