MODEL 1
REMARK minimizedAffinity -2.00903463
REMARK minimizedRMSD -1
REMARK  0 active torsions:
REMARK  status: ('A' for Active; 'I' for Inactive)
ROOT
ATOM      1  C1  BNZ d   1       1.270  -3.630   0.482  0.00  0.00     0.000 A 
ATOM      2  C2  BNZ d   1       0.328  -2.680   0.775  0.00  0.00     0.000 A 
ATOM      3  C3  BNZ d   1       0.668  -1.358   0.853  0.00  0.00     0.000 A 
ATOM      4  C4  BNZ d   1       1.954  -0.993   0.678  0.00  0.00     0.000 A 
ATOM      5  C5  BNZ d   1       2.917  -1.940   0.391  0.00  0.00     0.000 A 
ATOM      6  C6  BNZ d   1       2.564  -3.265   0.275  0.00  0.00     0.000 A 
ENDROOT
TORSDOF 0
ENDMDL
