MODEL 1
REMARK minimizedAffinity -2.85828161
REMARK minimizedRMSD -1
REMARK  0 active torsions:
REMARK  status: ('A' for Active; 'I' for Inactive)
ROOT
ATOM      1  C1  BNZ d   1       2.078  -1.580   0.005  0.00  0.00     0.000 A 
ATOM      2  C2  BNZ d   1       2.269  -2.901  -0.299  0.00  0.00     0.000 A 
ATOM      3  C3  BNZ d   1       1.297  -3.827  -0.042  0.00  0.00     0.000 A 
ATOM      4  C4  BNZ d   1       0.152  -3.437   0.554  0.00  0.00     0.000 A 
ATOM      5  C5  BNZ d   1      -0.052  -2.109   0.876  0.00  0.00     0.000 A 
ATOM      6  C6  BNZ d   1       0.913  -1.175   0.580  0.00  0.00     0.000 A 
ENDROOT
TORSDOF 0
ENDMDL
