MODEL 1
REMARK minimizedAffinity -3.66652036
REMARK minimizedRMSD -1
REMARK  0 active torsions:
REMARK  status: ('A' for Active; 'I' for Inactive)
ROOT
ATOM      1  C1  BNZ d   1       1.223  -1.050   0.549  0.00  0.00     0.000 A 
ATOM      2  C2  BNZ d   1       2.309  -1.854   0.328  0.00  0.00     0.000 A 
ATOM      3  C3  BNZ d   1       2.153  -3.192   0.098  0.00  0.00     0.000 A 
ATOM      4  C4  BNZ d   1       0.918  -3.731   0.129  0.00  0.00     0.000 A 
ATOM      5  C5  BNZ d   1      -0.187  -2.935   0.359  0.00  0.00     0.000 A 
ATOM      6  C6  BNZ d   1      -0.030  -1.582   0.552  0.00  0.00     0.000 A 
ENDROOT
TORSDOF 0
ENDMDL
