MODEL 1
REMARK minimizedAffinity -1.99085212
REMARK minimizedRMSD -1
REMARK  0 active torsions:
REMARK  status: ('A' for Active; 'I' for Inactive)
ROOT
ATOM      1  C1  BNZ d   1       1.413  -3.616   0.148  0.00  0.00     0.000 A 
ATOM      2  C2  BNZ d   1       0.045  -3.578   0.190  0.00  0.00     0.000 A 
ATOM      3  C3  BNZ d   1      -0.612  -2.448   0.590  0.00  0.00     0.000 A 
ATOM      4  C4  BNZ d   1       0.100  -1.372   0.985  0.00  0.00     0.000 A 
ATOM      5  C5  BNZ d   1       1.480  -1.399   0.957  0.00  0.00     0.000 A 
ATOM      6  C6  BNZ d   1       2.137  -2.525   0.517  0.00  0.00     0.000 A 
ENDROOT
TORSDOF 0
ENDMDL
