MODEL 1
REMARK minimizedAffinity -3.39517355
REMARK minimizedRMSD -1
REMARK  0 active torsions:
REMARK  status: ('A' for Active; 'I' for Inactive)
ROOT
ATOM      1  C1  BNZ d   1       1.988  -3.201   0.332  0.00  0.00     0.000 A 
ATOM      2  C2  BNZ d   1       2.358  -1.897   0.523  0.00  0.00     0.000 A 
ATOM      3  C3  BNZ d   1       1.417  -0.920   0.690  0.00  0.00     0.000 A 
ATOM      4  C4  BNZ d   1       0.109  -1.241   0.625  0.00  0.00     0.000 A 
ATOM      5  C5  BNZ d   1      -0.280  -2.550   0.423  0.00  0.00     0.000 A 
ATOM      6  C6  BNZ d   1       0.670  -3.537   0.295  0.00  0.00     0.000 A 
ENDROOT
TORSDOF 0
ENDMDL
