MODEL 1
REMARK minimizedAffinity -4.54844713
REMARK minimizedRMSD -1
REMARK  0 active torsions:
REMARK  status: ('A' for Active; 'I' for Inactive)
ROOT
ATOM      1  C1  BNZ d   1       2.541  -2.079  -0.031  0.00  0.00     0.000 A 
ATOM      2  C2  BNZ d   1       2.008  -3.325  -0.228  0.00  0.00     0.000 A 
ATOM      3  C3  BNZ d   1       0.654  -3.507  -0.278  0.00  0.00     0.000 A 
ATOM      4  C4  BNZ d   1      -0.164  -2.451  -0.091  0.00  0.00     0.000 A 
ATOM      5  C5  BNZ d   1       0.358  -1.190   0.118  0.00  0.00     0.000 A 
ATOM      6  C6  BNZ d   1       1.722  -1.005   0.128  0.00  0.00     0.000 A 
ENDROOT
TORSDOF 0
ENDMDL
