MODEL 1
REMARK minimizedAffinity -0.210853294
REMARK minimizedRMSD -1
REMARK  0 active torsions:
REMARK  status: ('A' for Active; 'I' for Inactive)
ROOT
ATOM      1  C1  BNZ d   1       3.790  -3.062  -0.130  0.00  0.00     0.000 A 
ATOM      2  C2  BNZ d   1       3.213  -4.303  -0.154  0.00  0.00     0.000 A 
ATOM      3  C3  BNZ d   1       1.872  -4.455   0.064  0.00  0.00     0.000 A 
ATOM      4  C4  BNZ d   1       1.119  -3.373   0.345  0.00  0.00     0.000 A 
ATOM      5  C5  BNZ d   1       1.688  -2.115   0.382  0.00  0.00     0.000 A 
ATOM      6  C6  BNZ d   1       3.031  -1.962   0.123  0.00  0.00     0.000 A 
ENDROOT
TORSDOF 0
ENDMDL
