MODEL 1
REMARK minimizedAffinity 0.784871399
REMARK minimizedRMSD -1
REMARK  0 active torsions:
REMARK  status: ('A' for Active; 'I' for Inactive)
ROOT
ATOM      1  C1  BNZ d   1       3.591   1.323  -1.907  0.00  0.00     0.000 A 
ATOM      2  C2  BNZ d   1       4.002   2.076  -0.840  0.00  0.00     0.000 A 
ATOM      3  C3  BNZ d   1       3.407   3.274  -0.558  0.00  0.00     0.000 A 
ATOM      4  C4  BNZ d   1       2.429   3.735  -1.365  0.00  0.00     0.000 A 
ATOM      5  C5  BNZ d   1       2.010   2.991  -2.450  0.00  0.00     0.000 A 
ATOM      6  C6  BNZ d   1       2.586   1.768  -2.709  0.00  0.00     0.000 A 
ENDROOT
TORSDOF 0
ENDMDL
