MODEL 1
REMARK minimizedAffinity 4.82491875
REMARK minimizedRMSD -1
REMARK  0 active torsions:
REMARK  status: ('A' for Active; 'I' for Inactive)
ROOT
ATOM      1  C1  BNZ d   1      -0.357   0.053   3.045  0.00  0.00     0.000 A 
ATOM      2  C2  BNZ d   1      -1.251   0.976   2.573  0.00  0.00     0.000 A 
ATOM      3  C3  BNZ d   1      -2.164   1.557   3.408  0.00  0.00     0.000 A 
ATOM      4  C4  BNZ d   1      -2.208   1.185   4.703  0.00  0.00     0.000 A 
ATOM      5  C5  BNZ d   1      -1.319   0.249   5.193  0.00  0.00     0.000 A 
ATOM      6  C6  BNZ d   1      -0.376  -0.305   4.358  0.00  0.00     0.000 A 
ENDROOT
TORSDOF 0
ENDMDL
