MODEL 1
REMARK minimizedAffinity -5.03657579
REMARK minimizedRMSD -1
REMARK  0 active torsions:
REMARK  status: ('A' for Active; 'I' for Inactive)
ROOT
ATOM      1  C2' OXE d   1       2.364   1.640   1.115  0.00  0.00     0.078 C 
ATOM      2  C1' OXE d   1       3.288  -0.977   0.697  0.00  0.00     0.078 C 
ATOM      3  C1  OXE d   1       1.875  -0.655   0.280  0.00  0.00    -0.078 A 
ATOM      4  C2  OXE d   1       1.416   0.615   0.531  0.00  0.00    -0.078 A 
ATOM      5  C3  OXE d   1       0.138   0.981   0.117  0.00  0.00     0.003 A 
ATOM      6  C4  OXE d   1      -0.736   0.024  -0.413  0.00  0.00    -0.002 A 
ATOM      7  C5  OXE d   1      -0.302  -1.286  -0.640  0.00  0.00    -0.002 A 
ATOM      8  C6  OXE d   1       1.011  -1.630  -0.339  0.00  0.00     0.003 A 
ENDROOT
TORSDOF 0
ENDMDL
