MODEL 1
REMARK minimizedAffinity -2.65708089
REMARK minimizedRMSD -1
REMARK  0 active torsions:
REMARK  status: ('A' for Active; 'I' for Inactive)
ROOT
ATOM      1  C2' OXE d   1       2.521  -1.121   1.216  0.00  0.00     0.078 C 
ATOM      2  C1' OXE d   1       1.532   1.505   1.274  0.00  0.00     0.078 C 
ATOM      3  C1  OXE d   1       0.828   0.508   0.389  0.00  0.00    -0.078 A 
ATOM      4  C2  OXE d   1       1.347  -0.763   0.331  0.00  0.00    -0.078 A 
ATOM      5  C3  OXE d   1       0.704  -1.737  -0.428  0.00  0.00     0.003 A 
ATOM      6  C4  OXE d   1      -0.376  -1.395  -1.251  0.00  0.00    -0.002 A 
ATOM      7  C5  OXE d   1      -0.896  -0.097  -1.237  0.00  0.00    -0.002 A 
ATOM      8  C6  OXE d   1      -0.334   0.854  -0.393  0.00  0.00     0.003 A 
ENDROOT
TORSDOF 0
ENDMDL
