MODEL 1
REMARK minimizedAffinity 1.41567612
REMARK minimizedRMSD -1
REMARK  0 active torsions:
REMARK  status: ('A' for Active; 'I' for Inactive)
ROOT
ATOM      1  C2' OXE d   1      -0.505  -2.255  -1.494  0.00  0.00     0.078 C 
ATOM      2  C1' OXE d   1       2.130  -2.129  -0.535  0.00  0.00     0.078 C 
ATOM      3  C1  OXE d   1       1.281  -0.887  -0.426  0.00  0.00    -0.078 A 
ATOM      4  C2  OXE d   1       0.008  -0.944  -0.940  0.00  0.00    -0.078 A 
ATOM      5  C3  OXE d   1      -0.836   0.157  -0.816  0.00  0.00     0.003 A 
ATOM      6  C4  OXE d   1      -0.350   1.369  -0.312  0.00  0.00    -0.002 A 
ATOM      7  C5  OXE d   1       0.956   1.460   0.181  0.00  0.00    -0.002 A 
ATOM      8  C6  OXE d   1       1.769   0.332   0.171  0.00  0.00     0.003 A 
ENDROOT
TORSDOF 0
ENDMDL
