MODEL 1
REMARK minimizedAffinity 2.95142412
REMARK minimizedRMSD -1
REMARK  0 active torsions:
REMARK  status: ('A' for Active; 'I' for Inactive)
ROOT
ATOM      1  C2' OXE d   1       2.126  -2.725   0.145  0.00  0.00     0.078 C 
ATOM      2  C1' OXE d   1      -0.504  -3.342  -0.616  0.00  0.00     0.078 C 
ATOM      3  C1  OXE d   1      -0.131  -1.886  -0.492  0.00  0.00    -0.078 A 
ATOM      4  C2  OXE d   1       1.145  -1.594  -0.073  0.00  0.00    -0.078 A 
ATOM      5  C3  OXE d   1       1.558  -0.267   0.006  0.00  0.00     0.003 A 
ATOM      6  C4  OXE d   1       0.641   0.774  -0.188  0.00  0.00    -0.002 A 
ATOM      7  C5  OXE d   1      -0.675   0.497  -0.576  0.00  0.00    -0.002 A 
ATOM      8  C6  OXE d   1      -1.064  -0.823  -0.773  0.00  0.00     0.003 A 
ENDROOT
TORSDOF 0
ENDMDL
