MODEL 1
REMARK minimizedAffinity 5.65884256
REMARK minimizedRMSD -1
REMARK  0 active torsions:
REMARK  status: ('A' for Active; 'I' for Inactive)
ROOT
ATOM      1  C2' OXE d   1       1.359   0.796   0.280  0.00  0.00     0.078 C 
ATOM      2  C1' OXE d   1       2.630  -1.690  -0.012  0.00  0.00     0.078 C 
ATOM      3  C1  OXE d   1       1.138  -1.634  -0.222  0.00  0.00    -0.078 A 
ATOM      4  C2  OXE d   1       0.517  -0.423  -0.031  0.00  0.00    -0.078 A 
ATOM      5  C3  OXE d   1      -0.850  -0.304  -0.265  0.00  0.00     0.003 A 
ATOM      6  C4  OXE d   1      -1.623  -1.438  -0.543  0.00  0.00    -0.002 A 
ATOM      7  C5  OXE d   1      -1.016  -2.689  -0.703  0.00  0.00    -0.002 A 
ATOM      8  C6  OXE d   1       0.365  -2.796  -0.588  0.00  0.00     0.003 A 
ENDROOT
TORSDOF 0
ENDMDL
