MODEL 1
REMARK minimizedAffinity -1.90990245
REMARK minimizedRMSD -1
REMARK  0 active torsions:
REMARK  status: ('A' for Active; 'I' for Inactive)
ROOT
ATOM      1  C2' OXE d   1       1.478   0.347   1.262  0.00  0.00     0.078 C 
ATOM      2  C1' OXE d   1       3.691   1.637   0.114  0.00  0.00     0.078 C 
ATOM      3  C1  OXE d   1       3.392   0.226  -0.327  0.00  0.00    -0.078 A 
ATOM      4  C2  OXE d   1       2.336  -0.414   0.274  0.00  0.00    -0.078 A 
ATOM      5  C3  OXE d   1       1.983  -1.697  -0.136  0.00  0.00     0.003 A 
ATOM      6  C4  OXE d   1       2.787  -2.397  -1.043  0.00  0.00    -0.002 A 
ATOM      7  C5  OXE d   1       3.892  -1.778  -1.638  0.00  0.00    -0.002 A 
ATOM      8  C6  OXE d   1       4.182  -0.455  -1.324  0.00  0.00     0.003 A 
ENDROOT
TORSDOF 0
ENDMDL
