MODEL 1
REMARK minimizedAffinity 1.57569313
REMARK minimizedRMSD -1
REMARK  0 active torsions:
REMARK  status: ('A' for Active; 'I' for Inactive)
ROOT
ATOM      1  C2' OXE d   1      -0.799  -2.506  -2.366  0.00  0.00     0.078 C 
ATOM      2  C1' OXE d   1       1.678  -2.647  -1.052  0.00  0.00     0.078 C 
ATOM      3  C1  OXE d   1       0.860  -1.392  -0.879  0.00  0.00    -0.078 A 
ATOM      4  C2  OXE d   1      -0.329  -1.312  -1.563  0.00  0.00    -0.078 A 
ATOM      5  C3  OXE d   1      -1.148  -0.199  -1.395  0.00  0.00     0.003 A 
ATOM      6  C4  OXE d   1      -0.701   0.905  -0.659  0.00  0.00    -0.002 A 
ATOM      7  C5  OXE d   1       0.525   0.861   0.014  0.00  0.00    -0.002 A 
ATOM      8  C6  OXE d   1       1.297  -0.294  -0.051  0.00  0.00     0.003 A 
ENDROOT
TORSDOF 0
ENDMDL
