MODEL 1
REMARK minimizedAffinity 1.58974314
REMARK minimizedRMSD -1
REMARK  0 active torsions:
REMARK  status: ('A' for Active; 'I' for Inactive)
ROOT
ATOM      1  C2' OXE d   1       3.382  -1.945  -0.712  0.00  0.00     0.078 C 
ATOM      2  C1' OXE d   1       2.570  -3.334  -3.012  0.00  0.00     0.078 C 
ATOM      3  C1  OXE d   1       1.503  -2.668  -2.179  0.00  0.00    -0.078 A 
ATOM      4  C2  OXE d   1       1.905  -2.030  -1.030  0.00  0.00    -0.078 A 
ATOM      5  C3  OXE d   1       0.968  -1.353  -0.254  0.00  0.00     0.003 A 
ATOM      6  C4  OXE d   1      -0.397  -1.446  -0.550  0.00  0.00    -0.002 A 
ATOM      7  C5  OXE d   1      -0.831  -2.124  -1.694  0.00  0.00    -0.002 A 
ATOM      8  C6  OXE d   1       0.108  -2.703  -2.540  0.00  0.00     0.003 A 
ENDROOT
TORSDOF 0
ENDMDL
