MODEL 1
REMARK minimizedAffinity 0.179307103
REMARK minimizedRMSD -1
REMARK  1 active torsions:
REMARK  status: ('A' for Active; 'I' for Inactive)
REMARK    1  A    between atoms: C3_4  and  O_7 
ROOT
ATOM      1  C   UNL d   1       0.741   0.722   0.741  0.00  0.00    -0.033 A 
ATOM      2  C1  UNL d   1       0.549  -0.524   1.341  0.00  0.00     0.039 A 
ATOM      3  C2  UNL d   1       1.194  -1.652   0.832  0.00  0.00    -0.080 A 
ATOM      4  C3  UNL d   1       2.030  -1.521  -0.274  0.00  0.00     0.150 A 
ATOM      5  C4  UNL d   1       2.229  -0.282  -0.874  0.00  0.00    -0.007 A 
ATOM      6  C5  UNL d   1       1.583   0.843  -0.365  0.00  0.00     0.039 A 
ENDROOT
BRANCH   4   7
ATOM      7  O   UNL d   1       2.678  -2.595  -0.808  0.00  0.00    -0.526 OA
ATOM      8  H5  UNL d   1       2.422  -3.389  -0.309  0.00  0.00     0.418 HD
ENDBRANCH   4   7
TORSDOF 1
ENDMDL
