MODEL 1
REMARK minimizedAffinity -1.77281404
REMARK minimizedRMSD -1
REMARK  1 active torsions:
REMARK  status: ('A' for Active; 'I' for Inactive)
REMARK    1  A    between atoms: C3_4  and  O_7 
ROOT
ATOM      1  C   UNL d   1       1.952   0.199  -0.394  0.00  0.00    -0.033 A 
ATOM      2  C1  UNL d   1       2.457  -1.103  -0.421  0.00  0.00     0.039 A 
ATOM      3  C2  UNL d   1       3.593  -1.398  -1.176  0.00  0.00    -0.080 A 
ATOM      4  C3  UNL d   1       4.215  -0.383  -1.899  0.00  0.00     0.150 A 
ATOM      5  C4  UNL d   1       3.720   0.916  -1.874  0.00  0.00    -0.007 A 
ATOM      6  C5  UNL d   1       2.584   1.209  -1.120  0.00  0.00     0.039 A 
ENDROOT
BRANCH   4   7
ATOM      7  O   UNL d   1       5.324  -0.623  -2.655  0.00  0.00    -0.526 OA
ATOM      8  H5  UNL d   1       5.535  -1.570  -2.599  0.00  0.00     0.418 HD
ENDBRANCH   4   7
TORSDOF 1
ENDMDL
