MODEL 1
REMARK minimizedAffinity -0.884725928
REMARK minimizedRMSD -1
REMARK  1 active torsions:
REMARK  status: ('A' for Active; 'I' for Inactive)
REMARK    1  A    between atoms: C3_4  and  O_7 
ROOT
ATOM      1  C   UNL d   1       1.101   0.553   0.294  0.00  0.00    -0.033 A 
ATOM      2  C1  UNL d   1       2.051   1.369  -0.325  0.00  0.00     0.039 A 
ATOM      3  C2  UNL d   1       3.158   0.798  -0.956  0.00  0.00    -0.080 A 
ATOM      4  C3  UNL d   1       3.303  -0.586  -0.963  0.00  0.00     0.150 A 
ATOM      5  C4  UNL d   1       2.359  -1.405  -0.352  0.00  0.00    -0.007 A 
ATOM      6  C5  UNL d   1       1.254  -0.833   0.279  0.00  0.00     0.039 A 
ENDROOT
BRANCH   4   7
ATOM      7  O   UNL d   1       4.369  -1.188  -1.562  0.00  0.00    -0.526 OA
ATOM      8  H5  UNL d   1       4.953  -0.497  -1.917  0.00  0.00     0.418 HD
ENDBRANCH   4   7
TORSDOF 1
ENDMDL
