MODEL 1
REMARK minimizedAffinity -5.88936329
REMARK minimizedRMSD -1
REMARK  1 active torsions:
REMARK  status: ('A' for Active; 'I' for Inactive)
REMARK    1  A    between atoms: C3_4  and  O_7 
ROOT
ATOM      1  C   UNL d   1       0.710  -0.375   0.368  0.00  0.00    -0.033 A 
ATOM      2  C1  UNL d   1       1.408  -1.562   0.137  0.00  0.00     0.039 A 
ATOM      3  C2  UNL d   1       2.546  -1.559  -0.671  0.00  0.00    -0.080 A 
ATOM      4  C3  UNL d   1       2.977  -0.364  -1.240  0.00  0.00     0.150 A 
ATOM      5  C4  UNL d   1       2.289   0.823  -1.012  0.00  0.00    -0.007 A 
ATOM      6  C5  UNL d   1       1.151   0.818  -0.205  0.00  0.00     0.039 A 
ENDROOT
BRANCH   4   7
ATOM      7  O   UNL d   1       4.079  -0.312  -2.040  0.00  0.00    -0.526 OA
ATOM      8  H5  UNL d   1       4.435  -1.212  -2.132  0.00  0.00     0.418 HD
ENDBRANCH   4   7
TORSDOF 1
ENDMDL
