MODEL 1
REMARK minimizedAffinity -2.32621074
REMARK minimizedRMSD -1
REMARK  1 active torsions:
REMARK  status: ('A' for Active; 'I' for Inactive)
REMARK    1  A    between atoms: C3_4  and  O_7 
ROOT
ATOM      1  C   UNL d   1       1.822  -1.037  -0.861  0.00  0.00    -0.033 A 
ATOM      2  C1  UNL d   1       1.191  -0.821   0.366  0.00  0.00     0.039 A 
ATOM      3  C2  UNL d   1       1.278   0.426   0.987  0.00  0.00    -0.080 A 
ATOM      4  C3  UNL d   1       1.997   1.448   0.372  0.00  0.00     0.150 A 
ATOM      5  C4  UNL d   1       2.624   1.241  -0.851  0.00  0.00    -0.007 A 
ATOM      6  C5  UNL d   1       2.538  -0.006  -1.470  0.00  0.00     0.039 A 
ENDROOT
BRANCH   4   7
ATOM      7  O   UNL d   1       2.113   2.680   0.943  0.00  0.00    -0.526 OA
ATOM      8  H5  UNL d   1       1.653   2.668   1.799  0.00  0.00     0.418 HD
ENDBRANCH   4   7
TORSDOF 1
ENDMDL
