MODEL 1
REMARK minimizedAffinity -6.00548649
REMARK minimizedRMSD -1
REMARK  1 active torsions:
REMARK  status: ('A' for Active; 'I' for Inactive)
REMARK    1  A    between atoms: C3_4  and  O_7 
ROOT
ATOM      1  C   UNL d   1       0.754  -0.203   0.409  0.00  0.00    -0.033 A 
ATOM      2  C1  UNL d   1       1.198  -1.483   0.073  0.00  0.00     0.039 A 
ATOM      3  C2  UNL d   1       2.322  -1.643  -0.739  0.00  0.00    -0.080 A 
ATOM      4  C3  UNL d   1       2.993  -0.517  -1.208  0.00  0.00     0.150 A 
ATOM      5  C4  UNL d   1       2.558   0.761  -0.874  0.00  0.00    -0.007 A 
ATOM      6  C5  UNL d   1       1.435   0.920  -0.063  0.00  0.00     0.039 A 
ENDROOT
BRANCH   4   7
ATOM      7  O   UNL d   1       4.092  -0.623  -2.007  0.00  0.00    -0.526 OA
ATOM      8  H5  UNL d   1       4.258  -1.565  -2.178  0.00  0.00     0.418 HD
ENDBRANCH   4   7
TORSDOF 1
ENDMDL
