MODEL 1
REMARK minimizedAffinity -2.38417959
REMARK minimizedRMSD -1
REMARK  1 active torsions:
REMARK  status: ('A' for Active; 'I' for Inactive)
REMARK    1  A    between atoms: C3_4  and  O_7 
ROOT
ATOM      1  C   UNL d   1       0.586  -0.018   0.635  0.00  0.00    -0.033 A 
ATOM      2  C1  UNL d   1       1.525   0.840   0.059  0.00  0.00     0.039 A 
ATOM      3  C2  UNL d   1       2.738   0.336  -0.414  0.00  0.00    -0.080 A 
ATOM      4  C3  UNL d   1       2.999  -1.027  -0.305  0.00  0.00     0.150 A 
ATOM      5  C4  UNL d   1       2.068  -1.889   0.264  0.00  0.00    -0.007 A 
ATOM      6  C5  UNL d   1       0.857  -1.383   0.736  0.00  0.00     0.039 A 
ENDROOT
BRANCH   4   7
ATOM      7  O   UNL d   1       4.171  -1.565  -0.748  0.00  0.00    -0.526 OA
ATOM      8  H5  UNL d   1       4.730  -0.848  -1.090  0.00  0.00     0.418 HD
ENDBRANCH   4   7
TORSDOF 1
ENDMDL
