MODEL 1
REMARK minimizedAffinity -4.00003004
REMARK minimizedRMSD -1
REMARK  1 active torsions:
REMARK  status: ('A' for Active; 'I' for Inactive)
REMARK    1  A    between atoms: C3_4  and  O_7 
ROOT
ATOM      1  C   UNL d   1       0.904  -0.123   0.743  0.00  0.00    -0.033 A 
ATOM      2  C1  UNL d   1       1.624  -1.318   0.799  0.00  0.00     0.039 A 
ATOM      3  C2  UNL d   1       2.692  -1.533  -0.074  0.00  0.00    -0.080 A 
ATOM      4  C3  UNL d   1       3.031  -0.546  -0.996  0.00  0.00     0.150 A 
ATOM      5  C4  UNL d   1       2.320   0.648  -1.054  0.00  0.00    -0.007 A 
ATOM      6  C5  UNL d   1       1.253   0.861  -0.182  0.00  0.00     0.039 A 
ENDROOT
BRANCH   4   7
ATOM      7  O   UNL d   1       4.062  -0.712  -1.871  0.00  0.00    -0.526 OA
ATOM      8  H5  UNL d   1       4.443  -1.596  -1.734  0.00  0.00     0.418 HD
ENDBRANCH   4   7
TORSDOF 1
ENDMDL
