MODEL 1
REMARK minimizedAffinity -0.458410829
REMARK minimizedRMSD -1
REMARK  1 active torsions:
REMARK  status: ('A' for Active; 'I' for Inactive)
REMARK    1  A    between atoms: C3_4  and  O_7 
ROOT
ATOM      1  C   UNL d   1       1.204   1.173   0.405  0.00  0.00    -0.033 A 
ATOM      2  C1  UNL d   1       0.870   0.024   1.124  0.00  0.00     0.039 A 
ATOM      3  C2  UNL d   1       1.346  -1.222   0.713  0.00  0.00    -0.080 A 
ATOM      4  C3  UNL d   1       2.155  -1.306  -0.417  0.00  0.00     0.150 A 
ATOM      5  C4  UNL d   1       2.496  -0.165  -1.136  0.00  0.00    -0.007 A 
ATOM      6  C5  UNL d   1       2.019   1.079  -0.724  0.00  0.00     0.039 A 
ENDROOT
BRANCH   4   7
ATOM      7  O   UNL d   1       2.640  -2.501  -0.859  0.00  0.00    -0.526 OA
ATOM      8  H5  UNL d   1       2.299  -3.204  -0.282  0.00  0.00     0.418 HD
ENDBRANCH   4   7
TORSDOF 1
ENDMDL
