MODEL 1
REMARK minimizedAffinity 3.41622472
REMARK minimizedRMSD -1
REMARK  1 active torsions:
REMARK  status: ('A' for Active; 'I' for Inactive)
REMARK    1  A    between atoms: C3_4  and  O_7 
ROOT
ATOM      1  C   UNL d   1       1.895  -2.077   0.378  0.00  0.00    -0.033 A 
ATOM      2  C1  UNL d   1       3.023  -1.476  -0.183  0.00  0.00     0.039 A 
ATOM      3  C2  UNL d   1       3.115  -0.085  -0.252  0.00  0.00    -0.080 A 
ATOM      4  C3  UNL d   1       2.073   0.694   0.245  0.00  0.00     0.150 A 
ATOM      5  C4  UNL d   1       0.948   0.103   0.809  0.00  0.00    -0.007 A 
ATOM      6  C5  UNL d   1       0.858  -1.287   0.876  0.00  0.00     0.039 A 
ENDROOT
BRANCH   4   7
ATOM      7  O   UNL d   1       2.115   2.056   0.195  0.00  0.00    -0.526 OA
ATOM      8  H5  UNL d   1       2.938   2.322  -0.247  0.00  0.00     0.418 HD
ENDBRANCH   4   7
TORSDOF 1
ENDMDL
