MODEL 1
REMARK minimizedAffinity -5.13508272
REMARK minimizedRMSD -1
REMARK  1 active torsions:
REMARK  status: ('A' for Active; 'I' for Inactive)
REMARK    1  A    between atoms: C3_4  and  O_7 
ROOT
ATOM      1  C   UNL d   1       2.475  -0.832  -0.687  0.00  0.00    -0.033 A 
ATOM      2  C1  UNL d   1       2.211   0.495  -0.343  0.00  0.00     0.039 A 
ATOM      3  C2  UNL d   1       1.150   0.799   0.513  0.00  0.00    -0.080 A 
ATOM      4  C3  UNL d   1       0.364  -0.233   1.019  0.00  0.00     0.150 A 
ATOM      5  C4  UNL d   1       0.624  -1.558   0.684  0.00  0.00    -0.007 A 
ATOM      6  C5  UNL d   1       1.683  -1.858  -0.172  0.00  0.00     0.039 A 
ENDROOT
BRANCH   4   7
ATOM      7  O   UNL d   1      -0.685   0.014   1.854  0.00  0.00    -0.526 OA
ATOM      8  H5  UNL d   1      -0.763   0.975   1.974  0.00  0.00     0.418 HD
ENDBRANCH   4   7
TORSDOF 1
ENDMDL
