MODEL 1
REMARK minimizedAffinity 0.0521341562
REMARK minimizedRMSD -1
REMARK  1 active torsions:
REMARK  status: ('A' for Active; 'I' for Inactive)
REMARK    1  A    between atoms: C3_4  and  O_7 
ROOT
ATOM      1  C   UNL d   1       0.402   0.003   0.326  0.00  0.00    -0.033 A 
ATOM      2  C1  UNL d   1       0.521  -1.365   0.575  0.00  0.00     0.039 A 
ATOM      3  C2  UNL d   1       1.740  -2.012   0.361  0.00  0.00    -0.080 A 
ATOM      4  C3  UNL d   1       2.831  -1.279  -0.099  0.00  0.00     0.150 A 
ATOM      5  C4  UNL d   1       2.720   0.086  -0.346  0.00  0.00    -0.007 A 
ATOM      6  C5  UNL d   1       1.501   0.729  -0.133  0.00  0.00     0.039 A 
ENDROOT
BRANCH   4   7
ATOM      7  O   UNL d   1       4.039  -1.867  -0.327  0.00  0.00    -0.526 OA
ATOM      8  H5  UNL d   1       3.959  -2.817  -0.141  0.00  0.00     0.418 HD
ENDBRANCH   4   7
TORSDOF 1
ENDMDL
