MODEL 1
REMARK minimizedAffinity -3.02612638
REMARK minimizedRMSD -1
REMARK  1 active torsions:
REMARK  status: ('A' for Active; 'I' for Inactive)
REMARK    1  A    between atoms: C3_4  and  O_7 
ROOT
ATOM      1  C   UNL d   1       3.738  -0.362  -1.561  0.00  0.00    -0.033 A 
ATOM      2  C1  UNL d   1       3.352  -1.486  -0.827  0.00  0.00     0.039 A 
ATOM      3  C2  UNL d   1       2.210  -1.439  -0.026  0.00  0.00    -0.080 A 
ATOM      4  C3  UNL d   1       1.463  -0.266   0.032  0.00  0.00     0.150 A 
ATOM      5  C4  UNL d   1       1.839   0.855  -0.700  0.00  0.00    -0.007 A 
ATOM      6  C5  UNL d   1       2.981   0.808  -1.499  0.00  0.00     0.039 A 
ENDROOT
BRANCH   4   7
ATOM      7  O   UNL d   1       0.343  -0.172   0.804  0.00  0.00    -0.526 OA
ATOM      8  H5  UNL d   1       0.222  -1.013   1.274  0.00  0.00     0.418 HD
ENDBRANCH   4   7
TORSDOF 1
ENDMDL
