MODEL 1
REMARK minimizedAffinity 1.73665416
REMARK minimizedRMSD -1
REMARK  1 active torsions:
REMARK  status: ('A' for Active; 'I' for Inactive)
REMARK    1  A    between atoms: C3_4  and  O_7 
ROOT
ATOM      1  C   UNL d   1       2.230   1.108   0.006  0.00  0.00    -0.033 A 
ATOM      2  C1  UNL d   1       1.482   1.521   1.110  0.00  0.00     0.039 A 
ATOM      3  C2  UNL d   1       0.499   0.684   1.642  0.00  0.00    -0.080 A 
ATOM      4  C3  UNL d   1       0.275  -0.562   1.063  0.00  0.00     0.150 A 
ATOM      5  C4  UNL d   1       1.019  -0.982  -0.035  0.00  0.00    -0.007 A 
ATOM      6  C5  UNL d   1       2.000  -0.144  -0.566  0.00  0.00     0.039 A 
ENDROOT
BRANCH   4   7
ATOM      7  O   UNL d   1      -0.676  -1.412   1.544  0.00  0.00    -0.526 OA
ATOM      8  H5  UNL d   1      -1.130  -0.977   2.286  0.00  0.00     0.418 HD
ENDBRANCH   4   7
TORSDOF 1
ENDMDL
