MODEL 1
REMARK minimizedAffinity -5.26417732
REMARK minimizedRMSD -1
REMARK  1 active torsions:
REMARK  status: ('A' for Active; 'I' for Inactive)
REMARK    1  A    between atoms: C3_4  and  O_7 
ROOT
ATOM      1  C   UNL d   1       0.637   0.418   0.601  0.00  0.00    -0.033 A 
ATOM      2  C1  UNL d   1       1.045  -0.912   0.721  0.00  0.00     0.039 A 
ATOM      3  C2  UNL d   1       2.060  -1.409  -0.097  0.00  0.00    -0.080 A 
ATOM      4  C3  UNL d   1       2.660  -0.568  -1.030  0.00  0.00     0.150 A 
ATOM      5  C4  UNL d   1       2.262   0.759  -1.152  0.00  0.00    -0.007 A 
ATOM      6  C5  UNL d   1       1.247   1.254  -0.335  0.00  0.00     0.039 A 
ENDROOT
BRANCH   4   7
ATOM      7  O   UNL d   1       3.652  -1.010  -1.854  0.00  0.00    -0.526 OA
ATOM      8  H5  UNL d   1       3.803  -1.953  -1.676  0.00  0.00     0.418 HD
ENDBRANCH   4   7
TORSDOF 1
ENDMDL
