MODEL 1
REMARK minimizedAffinity -5.78727102
REMARK minimizedRMSD -1
REMARK  1 active torsions:
REMARK  status: ('A' for Active; 'I' for Inactive)
REMARK    1  A    between atoms: C3_4  and  O_7 
ROOT
ATOM      1  C   UNL d   1       1.216  -1.018   0.263  0.00  0.00    -0.033 A 
ATOM      2  C1  UNL d   1       1.270   0.270  -0.275  0.00  0.00     0.039 A 
ATOM      3  C2  UNL d   1       2.278   0.609  -1.180  0.00  0.00    -0.080 A 
ATOM      4  C3  UNL d   1       3.224  -0.347  -1.539  0.00  0.00     0.150 A 
ATOM      5  C4  UNL d   1       3.174  -1.633  -1.010  0.00  0.00    -0.007 A 
ATOM      6  C5  UNL d   1       2.168  -1.969  -0.106  0.00  0.00     0.039 A 
ENDROOT
BRANCH   4   7
ATOM      7  O   UNL d   1       4.229  -0.062  -2.415  0.00  0.00    -0.526 OA
ATOM      8  H5  UNL d   1       4.154   0.871  -2.676  0.00  0.00     0.418 HD
ENDBRANCH   4   7
TORSDOF 1
ENDMDL
