MODEL 1
REMARK minimizedAffinity 4.11769104
REMARK minimizedRMSD -1
REMARK  1 active torsions:
REMARK  status: ('A' for Active; 'I' for Inactive)
REMARK    1  A    between atoms: C3_4  and  O_7 
ROOT
ATOM      1  C   UNL d   1      -0.913   2.432  -4.008  0.00  0.00    -0.033 A 
ATOM      2  C1  UNL d   1       0.331   2.952  -3.642  0.00  0.00     0.039 A 
ATOM      3  C2  UNL d   1       0.405   4.134  -2.903  0.00  0.00    -0.080 A 
ATOM      4  C3  UNL d   1      -0.769   4.785  -2.535  0.00  0.00     0.150 A 
ATOM      5  C4  UNL d   1      -2.011   4.271  -2.893  0.00  0.00    -0.007 A 
ATOM      6  C5  UNL d   1      -2.084   3.091  -3.632  0.00  0.00     0.039 A 
ENDROOT
BRANCH   4   7
ATOM      7  O   UNL d   1      -0.747   5.944  -1.817  0.00  0.00    -0.526 OA
ATOM      8  H5  UNL d   1       0.180   6.195  -1.667  0.00  0.00     0.418 HD
ENDBRANCH   4   7
TORSDOF 1
ENDMDL
