MODEL 1
REMARK minimizedAffinity -1.68305826
REMARK minimizedRMSD -1
REMARK  1 active torsions:
REMARK  status: ('A' for Active; 'I' for Inactive)
REMARK    1  A    between atoms: C3_4  and  O_7 
ROOT
ATOM      1  C   UNL d   1       0.694   0.087   0.532  0.00  0.00    -0.033 A 
ATOM      2  C1  UNL d   1       1.508   1.105   0.033  0.00  0.00     0.039 A 
ATOM      3  C2  UNL d   1       2.640   0.791  -0.721  0.00  0.00    -0.080 A 
ATOM      4  C3  UNL d   1       2.945  -0.544  -0.971  0.00  0.00     0.150 A 
ATOM      5  C4  UNL d   1       2.136  -1.564  -0.481  0.00  0.00    -0.007 A 
ATOM      6  C5  UNL d   1       1.007  -1.248   0.274  0.00  0.00     0.039 A 
ENDROOT
BRANCH   4   7
ATOM      7  O   UNL d   1       4.042  -0.901  -1.698  0.00  0.00    -0.526 OA
ATOM      8  H5  UNL d   1       4.522  -0.093  -1.947  0.00  0.00     0.418 HD
ENDBRANCH   4   7
TORSDOF 1
ENDMDL
