MODEL 1
REMARK minimizedAffinity -3.78507638
REMARK minimizedRMSD -1
REMARK  1 active torsions:
REMARK  status: ('A' for Active; 'I' for Inactive)
REMARK    1  A    between atoms: C3_4  and  O_7 
ROOT
ATOM      1  C   UNL d   1       0.908   0.280   0.392  0.00  0.00    -0.033 A 
ATOM      2  C1  UNL d   1       1.816   1.212  -0.115  0.00  0.00     0.039 A 
ATOM      3  C2  UNL d   1       2.954   0.779  -0.799  0.00  0.00    -0.080 A 
ATOM      4  C3  UNL d   1       3.171  -0.585  -0.970  0.00  0.00     0.150 A 
ATOM      5  C4  UNL d   1       2.269  -1.519  -0.471  0.00  0.00    -0.007 A 
ATOM      6  C5  UNL d   1       1.134  -1.085   0.212  0.00  0.00     0.039 A 
ENDROOT
BRANCH   4   7
ATOM      7  O   UNL d   1       4.270  -1.055  -1.627  0.00  0.00    -0.526 OA
ATOM      8  H5  UNL d   1       4.818  -0.297  -1.890  0.00  0.00     0.418 HD
ENDBRANCH   4   7
TORSDOF 1
ENDMDL
