MODEL 1
REMARK minimizedAffinity 5.60829401
REMARK minimizedRMSD -1
REMARK  0 active torsions:
REMARK  status: ('A' for Active; 'I' for Inactive)
ROOT
ATOM      1  C1  DEN d   1      -0.620  -0.536   0.965  0.00  0.00     0.130 A 
ATOM      2  C2  DEN d   1      -1.091   0.827   0.732  0.00  0.00    -0.031 A 
ATOM      3  C3  DEN d   1      -2.379   0.748   0.014  0.00  0.00     0.027 A 
ATOM      4  C4  DEN d   1      -3.685  -1.340  -0.752  0.00  0.00     0.027 A 
ATOM      5  C5  DEN d   1      -3.678  -2.717  -0.790  0.00  0.00    -0.003 A 
ATOM      6  C6  DEN d   1      -2.643  -3.456  -0.281  0.00  0.00     0.001 A 
ATOM      7  C7  DEN d   1      -1.593  -2.823   0.330  0.00  0.00     0.017 A 
ATOM      8  C8  DEN d   1      -1.589  -1.435   0.366  0.00  0.00    -0.094 A 
ATOM      9  C9  DEN d   1      -2.650  -0.706  -0.144  0.00  0.00    -0.072 A 
ENDROOT
TORSDOF 0
ENDMDL
