MODEL 1
REMARK minimizedAffinity 4.49688673
REMARK minimizedRMSD -1
REMARK  0 active torsions:
REMARK  status: ('A' for Active; 'I' for Inactive)
ROOT
ATOM      1  C1  DEN d   1       1.639  -3.687   4.838  0.00  0.00     0.130 A 
ATOM      2  C2  DEN d   1       0.857  -3.270   5.999  0.00  0.00    -0.031 A 
ATOM      3  C3  DEN d   1       0.375  -1.895   5.754  0.00  0.00     0.027 A 
ATOM      4  C4  DEN d   1       0.758  -0.384   3.699  0.00  0.00     0.027 A 
ATOM      5  C5  DEN d   1       1.368  -0.297   2.467  0.00  0.00    -0.003 A 
ATOM      6  C6  DEN d   1       2.132  -1.313   1.958  0.00  0.00     0.001 A 
ATOM      7  C7  DEN d   1       2.270  -2.479   2.665  0.00  0.00     0.017 A 
ATOM      8  C8  DEN d   1       1.665  -2.570   3.911  0.00  0.00    -0.094 A 
ATOM      9  C9  DEN d   1       0.886  -1.537   4.403  0.00  0.00    -0.072 A 
ENDROOT
TORSDOF 0
ENDMDL
