MODEL 1
REMARK minimizedAffinity 3.98939896
REMARK minimizedRMSD -1
REMARK  0 active torsions:
REMARK  status: ('A' for Active; 'I' for Inactive)
ROOT
ATOM      1  C1  DEN d   1       0.803  -0.515   2.451  0.00  0.00     0.130 A 
ATOM      2  C2  DEN d   1       1.307  -1.118   1.220  0.00  0.00    -0.031 A 
ATOM      3  C3  DEN d   1       1.949  -2.401   1.570  0.00  0.00     0.027 A 
ATOM      4  C4  DEN d   1       2.206  -3.509   3.885  0.00  0.00     0.027 A 
ATOM      5  C5  DEN d   1       1.948  -3.371   5.230  0.00  0.00    -0.003 A 
ATOM      6  C6  DEN d   1       1.325  -2.264   5.744  0.00  0.00     0.001 A 
ATOM      7  C7  DEN d   1       0.899  -1.272   4.901  0.00  0.00     0.017 A 
ATOM      8  C8  DEN d   1       1.162  -1.401   3.544  0.00  0.00    -0.094 A 
ATOM      9  C9  DEN d   1       1.782  -2.533   3.042  0.00  0.00    -0.072 A 
ENDROOT
TORSDOF 0
ENDMDL
