MODEL 1
REMARK minimizedAffinity -0.856928527
REMARK minimizedRMSD -1
REMARK  0 active torsions:
REMARK  status: ('A' for Active; 'I' for Inactive)
ROOT
ATOM      1  C1  DEN d   1       0.611  -3.081   2.078  0.00  0.00     0.130 A 
ATOM      2  C2  DEN d   1       1.322  -1.955   2.678  0.00  0.00    -0.031 A 
ATOM      3  C3  DEN d   1       0.736  -0.709   2.145  0.00  0.00     0.027 A 
ATOM      4  C4  DEN d   1      -1.198  -0.415   0.463  0.00  0.00     0.027 A 
ATOM      5  C5  DEN d   1      -2.106  -1.080  -0.330  0.00  0.00    -0.003 A 
ATOM      6  C6  DEN d   1      -2.149  -2.447  -0.402  0.00  0.00     0.001 A 
ATOM      7  C7  DEN d   1      -1.298  -3.195   0.368  0.00  0.00     0.017 A 
ATOM      8  C8  DEN d   1      -0.374  -2.531   1.165  0.00  0.00    -0.094 A 
ATOM      9  C9  DEN d   1      -0.354  -1.149   1.233  0.00  0.00    -0.072 A 
ENDROOT
TORSDOF 0
ENDMDL
