MODEL 1
REMARK minimizedAffinity 4.19847727
REMARK minimizedRMSD -1
REMARK  0 active torsions:
REMARK  status: ('A' for Active; 'I' for Inactive)
ROOT
ATOM      1  C1  DEN d   1       2.261  -3.784   1.780  0.00  0.00     0.130 A 
ATOM      2  C2  DEN d   1       2.442  -4.635   2.953  0.00  0.00    -0.031 A 
ATOM      3  C3  DEN d   1       2.006  -3.873   4.141  0.00  0.00     0.027 A 
ATOM      4  C4  DEN d   1       1.070  -1.474   4.276  0.00  0.00     0.027 A 
ATOM      5  C5  DEN d   1       0.743  -0.353   3.545  0.00  0.00    -0.003 A 
ATOM      6  C6  DEN d   1       0.930  -0.286   2.190  0.00  0.00     0.001 A 
ATOM      7  C7  DEN d   1       1.416  -1.376   1.516  0.00  0.00     0.017 A 
ATOM      8  C8  DEN d   1       1.754  -2.507   2.248  0.00  0.00    -0.094 A 
ATOM      9  C9  DEN d   1       1.546  -2.560   3.616  0.00  0.00    -0.072 A 
ENDROOT
TORSDOF 0
ENDMDL
