MODEL 1
REMARK minimizedAffinity 17.086689
REMARK minimizedRMSD -1
REMARK  0 active torsions:
REMARK  status: ('A' for Active; 'I' for Inactive)
ROOT
ATOM      1  C1  DEN d   1       4.756   5.902  -1.919  0.00  0.00     0.130 A 
ATOM      2  C2  DEN d   1       5.999   5.998  -1.158  0.00  0.00    -0.031 A 
ATOM      3  C3  DEN d   1       5.693   5.695   0.255  0.00  0.00     0.027 A 
ATOM      4  C4  DEN d   1       3.429   5.087   1.331  0.00  0.00     0.027 A 
ATOM      5  C5  DEN d   1       2.087   4.894   1.089  0.00  0.00    -0.003 A 
ATOM      6  C6  DEN d   1       1.539   5.055  -0.156  0.00  0.00     0.001 A 
ATOM      7  C7  DEN d   1       2.345   5.377  -1.216  0.00  0.00     0.017 A 
ATOM      8  C8  DEN d   1       3.698   5.580  -0.979  0.00  0.00    -0.094 A 
ATOM      9  C9  DEN d   1       4.235   5.400   0.285  0.00  0.00    -0.072 A 
ENDROOT
TORSDOF 0
ENDMDL
