MODEL 1
REMARK minimizedAffinity 8.85439587
REMARK minimizedRMSD -1
REMARK  0 active torsions:
REMARK  status: ('A' for Active; 'I' for Inactive)
ROOT
ATOM      1  C1  DEN d   1      -3.438  -1.552   0.043  0.00  0.00     0.130 A 
ATOM      2  C2  DEN d   1      -2.823  -0.444  -0.682  0.00  0.00    -0.031 A 
ATOM      3  C3  DEN d   1      -1.705  -0.985  -1.481  0.00  0.00     0.027 A 
ATOM      4  C4  DEN d   1      -0.875  -3.420  -1.668  0.00  0.00     0.027 A 
ATOM      5  C5  DEN d   1      -1.074  -4.710  -1.231  0.00  0.00    -0.003 A 
ATOM      6  C6  DEN d   1      -2.045  -5.031  -0.319  0.00  0.00     0.001 A 
ATOM      7  C7  DEN d   1      -2.884  -4.055   0.150  0.00  0.00     0.017 A 
ATOM      8  C8  DEN d   1      -2.685  -2.750  -0.281  0.00  0.00    -0.094 A 
ATOM      9  C9  DEN d   1      -1.705  -2.448  -1.212  0.00  0.00    -0.072 A 
ENDROOT
TORSDOF 0
ENDMDL
