MODEL 1
REMARK minimizedAffinity -4.70399714
REMARK minimizedRMSD -1
REMARK  0 active torsions:
REMARK  status: ('A' for Active; 'I' for Inactive)
ROOT
ATOM      1  C1  BNZ d   1      -0.028   1.065   1.403  0.00  0.00     0.000 A 
ATOM      2  C2  BNZ d   1      -0.198   1.020   0.045  0.00  0.00     0.000 A 
ATOM      3  C3  BNZ d   1      -0.510   2.149  -0.660  0.00  0.00     0.000 A 
ATOM      4  C4  BNZ d   1      -0.691   3.312  -0.001  0.00  0.00     0.000 A 
ATOM      5  C5  BNZ d   1      -0.532   3.372   1.369  0.00  0.00     0.000 A 
ATOM      6  C6  BNZ d   1      -0.180   2.242   2.070  0.00  0.00     0.000 A 
ENDROOT
TORSDOF 0
ENDMDL
