MODEL 1
REMARK minimizedAffinity -4.87444448
REMARK minimizedRMSD -1
REMARK  0 active torsions:
REMARK  status: ('A' for Active; 'I' for Inactive)
ROOT
ATOM      1  C1  BNZ d   1      -0.838   2.599   1.069  0.00  0.00     0.000 A 
ATOM      2  C2  BNZ d   1      -0.694   1.868   2.218  0.00  0.00     0.000 A 
ATOM      3  C3  BNZ d   1      -0.260   0.573   2.175  0.00  0.00     0.000 A 
ATOM      4  C4  BNZ d   1      -0.010  -0.002   0.981  0.00  0.00     0.000 A 
ATOM      5  C5  BNZ d   1      -0.159   0.718  -0.187  0.00  0.00     0.000 A 
ATOM      6  C6  BNZ d   1      -0.558   2.034  -0.137  0.00  0.00     0.000 A 
ENDROOT
TORSDOF 0
ENDMDL
