MODEL 1
REMARK minimizedAffinity -2.22967958
REMARK minimizedRMSD -1
REMARK  0 active torsions:
REMARK  status: ('A' for Active; 'I' for Inactive)
ROOT
ATOM      1  C1  BNZ d   1      -0.132  -0.109   1.691  0.00  0.00     0.000 A 
ATOM      2  C2  BNZ d   1      -0.332  -1.217   0.912  0.00  0.00     0.000 A 
ATOM      3  C3  BNZ d   1      -0.218  -1.146  -0.448  0.00  0.00     0.000 A 
ATOM      4  C4  BNZ d   1       0.056   0.040  -1.029  0.00  0.00     0.000 A 
ATOM      5  C5  BNZ d   1       0.252   1.168  -0.258  0.00  0.00     0.000 A 
ATOM      6  C6  BNZ d   1       0.175   1.084   1.113  0.00  0.00     0.000 A 
ENDROOT
TORSDOF 0
ENDMDL
