MODEL 1
REMARK minimizedAffinity -3.77970457
REMARK minimizedRMSD -1
REMARK  0 active torsions:
REMARK  status: ('A' for Active; 'I' for Inactive)
ROOT
ATOM      1  C1  BNZ d   1       0.644   1.624   2.340  0.00  0.00     0.000 A 
ATOM      2  C2  BNZ d   1       1.058   0.376   1.957  0.00  0.00     0.000 A 
ATOM      3  C3  BNZ d   1       0.460  -0.268   0.910  0.00  0.00     0.000 A 
ATOM      4  C4  BNZ d   1      -0.575   0.317   0.274  0.00  0.00     0.000 A 
ATOM      5  C5  BNZ d   1      -1.011   1.571   0.655  0.00  0.00     0.000 A 
ATOM      6  C6  BNZ d   1      -0.382   2.233   1.684  0.00  0.00     0.000 A 
ENDROOT
TORSDOF 0
ENDMDL
