MODEL 1
REMARK minimizedAffinity -4.40994406
REMARK minimizedRMSD -1
REMARK  0 active torsions:
REMARK  status: ('A' for Active; 'I' for Inactive)
ROOT
ATOM      1  C1  BNZ d   1      -0.741   2.776   0.033  0.00  0.00     0.000 A 
ATOM      2  C2  BNZ d   1      -0.733   1.535  -0.546  0.00  0.00     0.000 A 
ATOM      3  C3  BNZ d   1      -0.349   0.433   0.165  0.00  0.00     0.000 A 
ATOM      4  C4  BNZ d   1       0.063   0.577   1.441  0.00  0.00     0.000 A 
ATOM      5  C5  BNZ d   1       0.070   1.823   2.036  0.00  0.00     0.000 A 
ATOM      6  C6  BNZ d   1      -0.354   2.925   1.330  0.00  0.00     0.000 A 
ENDROOT
TORSDOF 0
ENDMDL
