MODEL 1
REMARK minimizedAffinity -4.81688499
REMARK minimizedRMSD -1
REMARK  0 active torsions:
REMARK  status: ('A' for Active; 'I' for Inactive)
ROOT
ATOM      1  C1  BNZ d   1      -0.829   3.309  -0.079  0.00  0.00     0.000 A 
ATOM      2  C2  BNZ d   1      -0.667   2.134  -0.764  0.00  0.00     0.000 A 
ATOM      3  C3  BNZ d   1      -0.514   0.950  -0.097  0.00  0.00     0.000 A 
ATOM      4  C4  BNZ d   1      -0.483   0.948   1.251  0.00  0.00     0.000 A 
ATOM      5  C5  BNZ d   1      -0.635   2.126   1.956  0.00  0.00     0.000 A 
ATOM      6  C6  BNZ d   1      -0.828   3.310   1.282  0.00  0.00     0.000 A 
ENDROOT
TORSDOF 0
ENDMDL
