MODEL 1
REMARK minimizedAffinity -5.44929314
REMARK minimizedRMSD -1
REMARK  1 active torsions:
REMARK  status: ('A' for Active; 'I' for Inactive)
REMARK    1  A    between atoms: N_2  and  C1_3 
ROOT
ATOM      1  C1  UNL d   1      -0.671  -0.114   0.662  0.00  0.00     0.143 A 
ATOM      2  C2  UNL d   1      -0.173  -1.417   0.558  0.00  0.00    -0.057 A 
ATOM      3  C3  UNL d   1      -0.906  -2.515   1.026  0.00  0.00     0.033 A 
ATOM      4  C4  UNL d   1      -2.142  -2.325   1.635  0.00  0.00    -0.042 A 
ATOM      5  C5  UNL d   1      -2.646  -1.036   1.771  0.00  0.00     0.033 A 
ATOM      6  C6  UNL d   1      -1.912   0.055   1.296  0.00  0.00    -0.057 A 
ENDROOT
BRANCH   1   7
ATOM      7  N   UNL d   1       0.052   1.026   0.305  0.00  0.00    -0.732 N 
ATOM      8  C   UNL d   1       0.751   1.090  -0.960  0.00  0.00     0.284 C 
ATOM      9  H3  UNL d   1      -0.429   1.886   0.558  0.00  0.00     0.395 HD
ENDBRANCH   1   7
TORSDOF 1
ENDMDL
