MODEL 1
REMARK minimizedAffinity -3.92927456
REMARK minimizedRMSD -1
REMARK  1 active torsions:
REMARK  status: ('A' for Active; 'I' for Inactive)
REMARK    1  A    between atoms: N_2  and  C1_3 
ROOT
ATOM      1  C1  UNL d   1      -0.509  -0.975   0.368  0.00  0.00     0.143 A 
ATOM      2  C2  UNL d   1      -0.749  -2.318   0.677  0.00  0.00    -0.057 A 
ATOM      3  C3  UNL d   1      -1.893  -2.707   1.385  0.00  0.00     0.033 A 
ATOM      4  C4  UNL d   1      -2.804  -1.752   1.824  0.00  0.00    -0.042 A 
ATOM      5  C5  UNL d   1      -2.573  -0.409   1.551  0.00  0.00     0.033 A 
ATOM      6  C6  UNL d   1      -1.432  -0.028   0.837  0.00  0.00    -0.057 A 
ENDROOT
BRANCH   1   7
ATOM      7  N   UNL d   1       0.658  -0.515  -0.247  0.00  0.00    -0.732 N 
ATOM      8  C   UNL d   1       0.815   0.885  -0.577  0.00  0.00     0.284 C 
ATOM      9  H3  UNL d   1       1.496  -0.948   0.136  0.00  0.00     0.395 HD
ENDBRANCH   1   7
TORSDOF 1
ENDMDL
