MODEL 1
REMARK minimizedAffinity -4.20441008
REMARK minimizedRMSD -1
REMARK  1 active torsions:
REMARK  status: ('A' for Active; 'I' for Inactive)
REMARK    1  A    between atoms: N_2  and  C1_3 
ROOT
ATOM      1  C1  UNL d   1       0.015  -1.066   0.457  0.00  0.00     0.143 A 
ATOM      2  C2  UNL d   1       0.460  -2.178   1.181  0.00  0.00    -0.057 A 
ATOM      3  C3  UNL d   1      -0.443  -3.076   1.761  0.00  0.00     0.033 A 
ATOM      4  C4  UNL d   1      -1.813  -2.863   1.651  0.00  0.00    -0.042 A 
ATOM      5  C5  UNL d   1      -2.278  -1.751   0.958  0.00  0.00     0.033 A 
ATOM      6  C6  UNL d   1      -1.371  -0.861   0.375  0.00  0.00    -0.057 A 
ENDROOT
BRANCH   1   7
ATOM      7  N   UNL d   1       0.863  -0.083  -0.059  0.00  0.00    -0.732 N 
ATOM      8  C   UNL d   1       0.429   1.295  -0.142  0.00  0.00     0.284 C 
ATOM      9  H3  UNL d   1       1.825  -0.198   0.252  0.00  0.00     0.395 HD
ENDBRANCH   1   7
TORSDOF 1
ENDMDL
