MODEL 1
REMARK minimizedAffinity -2.45624638
REMARK minimizedRMSD -1
REMARK  1 active torsions:
REMARK  status: ('A' for Active; 'I' for Inactive)
REMARK    1  A    between atoms: N_2  and  C1_3 
ROOT
ATOM      1  C1  UNL d   1       0.537   1.199  -1.287  0.00  0.00     0.143 A 
ATOM      2  C2  UNL d   1       1.764   1.871  -1.306  0.00  0.00    -0.057 A 
ATOM      3  C3  UNL d   1       2.343   2.292  -2.509  0.00  0.00     0.033 A 
ATOM      4  C4  UNL d   1       1.717   2.021  -3.722  0.00  0.00    -0.042 A 
ATOM      5  C5  UNL d   1       0.510   1.333  -3.729  0.00  0.00     0.033 A 
ATOM      6  C6  UNL d   1      -0.067   0.921  -2.524  0.00  0.00    -0.057 A 
ENDROOT
BRANCH   1   7
ATOM      7  N   UNL d   1      -0.041   0.668  -0.132  0.00  0.00    -0.732 N 
ATOM      8  C   UNL d   1       0.231  -0.695   0.270  0.00  0.00     0.284 C 
ATOM      9  H3  UNL d   1      -0.053   1.334   0.637  0.00  0.00     0.395 HD
ENDBRANCH   1   7
TORSDOF 1
ENDMDL
