MODEL 1
REMARK minimizedAffinity -4.00656796
REMARK minimizedRMSD -1
REMARK  1 active torsions:
REMARK  status: ('A' for Active; 'I' for Inactive)
REMARK    1  A    between atoms: N_2  and  C1_3 
ROOT
ATOM      1  C1  UNL d   1      -0.210  -0.346  -0.122  0.00  0.00     0.143 A 
ATOM      2  C2  UNL d   1      -1.592  -0.151  -0.029  0.00  0.00    -0.057 A 
ATOM      3  C3  UNL d   1      -2.396  -1.009   0.731  0.00  0.00     0.033 A 
ATOM      4  C4  UNL d   1      -1.834  -2.097   1.390  0.00  0.00    -0.042 A 
ATOM      5  C5  UNL d   1      -0.466  -2.324   1.292  0.00  0.00     0.033 A 
ATOM      6  C6  UNL d   1       0.333  -1.460   0.536  0.00  0.00    -0.057 A 
ENDROOT
BRANCH   1   7
ATOM      7  N   UNL d   1       0.629   0.414  -0.941  0.00  0.00    -0.732 N 
ATOM      8  C   UNL d   1       0.212   0.792  -2.275  0.00  0.00     0.284 C 
ATOM      9  H3  UNL d   1       1.106   1.153  -0.430  0.00  0.00     0.395 HD
ENDBRANCH   1   7
TORSDOF 1
ENDMDL
