MODEL 1
REMARK minimizedAffinity -5.47960806
REMARK minimizedRMSD -1
REMARK  1 active torsions:
REMARK  status: ('A' for Active; 'I' for Inactive)
REMARK    1  A    between atoms: N_2  and  C1_3 
ROOT
ATOM      1  C1  UNL d   1      -0.716  -0.621   0.010  0.00  0.00     0.143 A 
ATOM      2  C2  UNL d   1      -0.709  -2.004  -0.202  0.00  0.00    -0.057 A 
ATOM      3  C3  UNL d   1      -1.481  -2.864   0.589  0.00  0.00     0.033 A 
ATOM      4  C4  UNL d   1      -2.252  -2.356   1.630  0.00  0.00    -0.042 A 
ATOM      5  C5  UNL d   1      -2.254  -0.988   1.875  0.00  0.00     0.033 A 
ATOM      6  C6  UNL d   1      -1.487  -0.134   1.077  0.00  0.00    -0.057 A 
ENDROOT
BRANCH   1   7
ATOM      7  N   UNL d   1       0.105   0.275  -0.679  0.00  0.00    -0.732 N 
ATOM      8  C   UNL d   1       0.424   1.568  -0.112  0.00  0.00     0.284 C 
ATOM      9  H3  UNL d   1       0.891  -0.186  -1.130  0.00  0.00     0.395 HD
ENDBRANCH   1   7
TORSDOF 1
ENDMDL
