MODEL 1
REMARK minimizedAffinity -4.34647846
REMARK minimizedRMSD -1
REMARK  1 active torsions:
REMARK  status: ('A' for Active; 'I' for Inactive)
REMARK    1  A    between atoms: N_2  and  C1_3 
ROOT
ATOM      1  C1  UNL d   1      -1.082  -0.054   0.368  0.00  0.00     0.143 A 
ATOM      2  C2  UNL d   1      -0.276  -1.194   0.270  0.00  0.00    -0.057 A 
ATOM      3  C3  UNL d   1      -0.651  -2.402   0.868  0.00  0.00     0.033 A 
ATOM      4  C4  UNL d   1      -1.829  -2.486   1.603  0.00  0.00    -0.042 A 
ATOM      5  C5  UNL d   1      -2.634  -1.360   1.735  0.00  0.00     0.033 A 
ATOM      6  C6  UNL d   1      -2.257  -0.157   1.129  0.00  0.00    -0.057 A 
ENDROOT
BRANCH   1   7
ATOM      7  N   UNL d   1      -0.717   1.202  -0.121  0.00  0.00    -0.732 N 
ATOM      8  C   UNL d   1       0.668   1.504  -0.414  0.00  0.00     0.284 C 
ATOM      9  H3  UNL d   1      -1.375   1.557  -0.811  0.00  0.00     0.395 HD
ENDBRANCH   1   7
TORSDOF 1
ENDMDL
