MODEL 1
REMARK minimizedAffinity -5.03441334
REMARK minimizedRMSD -1
REMARK  1 active torsions:
REMARK  status: ('A' for Active; 'I' for Inactive)
REMARK    1  A    between atoms: N_2  and  C1_3 
ROOT
ATOM      1  C1  UNL d   1      -0.561  -0.059   0.340  0.00  0.00     0.143 A 
ATOM      2  C2  UNL d   1      -0.277  -1.429   0.344  0.00  0.00    -0.057 A 
ATOM      3  C3  UNL d   1      -1.166  -2.353   0.906  0.00  0.00     0.033 A 
ATOM      4  C4  UNL d   1      -2.345  -1.919   1.502  0.00  0.00    -0.042 A 
ATOM      5  C5  UNL d   1      -2.636  -0.560   1.532  0.00  0.00     0.033 A 
ATOM      6  C6  UNL d   1      -1.747   0.357   0.963  0.00  0.00    -0.057 A 
ENDROOT
BRANCH   1   7
ATOM      7  N   UNL d   1       0.328   0.918  -0.115  0.00  0.00    -0.732 N 
ATOM      8  C   UNL d   1       0.206   1.461  -1.451  0.00  0.00     0.284 C 
ATOM      9  H3  UNL d   1       0.541   1.612   0.598  0.00  0.00     0.395 HD
ENDBRANCH   1   7
TORSDOF 1
ENDMDL
