MODEL 1
REMARK minimizedAffinity -5.56248569
REMARK minimizedRMSD -1
REMARK  1 active torsions:
REMARK  status: ('A' for Active; 'I' for Inactive)
REMARK    1  A    between atoms: N_2  and  C1_3 
ROOT
ATOM      1  C1  UNL d   1      -0.955  -0.607   0.252  0.00  0.00     0.143 A 
ATOM      2  C2  UNL d   1      -0.841  -2.001   0.272  0.00  0.00    -0.057 A 
ATOM      3  C3  UNL d   1      -1.705  -2.790   1.040  0.00  0.00     0.033 A 
ATOM      4  C4  UNL d   1      -2.685  -2.195   1.828  0.00  0.00    -0.042 A 
ATOM      5  C5  UNL d   1      -2.801  -0.809   1.843  0.00  0.00     0.033 A 
ATOM      6  C6  UNL d   1      -1.939  -0.027   1.069  0.00  0.00    -0.057 A 
ENDROOT
BRANCH   1   7
ATOM      7  N   UNL d   1      -0.063   0.238  -0.413  0.00  0.00    -0.732 N 
ATOM      8  C   UNL d   1       1.243   0.516   0.144  0.00  0.00     0.284 C 
ATOM      9  H3  UNL d   1      -0.063   0.086  -1.419  0.00  0.00     0.395 HD
ENDBRANCH   1   7
TORSDOF 1
ENDMDL
