MODEL 1
REMARK minimizedAffinity -5.50703096
REMARK minimizedRMSD -1
REMARK  1 active torsions:
REMARK  status: ('A' for Active; 'I' for Inactive)
REMARK    1  A    between atoms: N_2  and  C1_3 
ROOT
ATOM      1  C1  UNL d   1      -0.447  -0.116   0.466  0.00  0.00     0.143 A 
ATOM      2  C2  UNL d   1      -0.172  -1.487   0.507  0.00  0.00    -0.057 A 
ATOM      3  C3  UNL d   1      -0.992  -2.371   1.217  0.00  0.00     0.033 A 
ATOM      4  C4  UNL d   1      -2.090  -1.894   1.926  0.00  0.00    -0.042 A 
ATOM      5  C5  UNL d   1      -2.369  -0.532   1.920  0.00  0.00     0.033 A 
ATOM      6  C6  UNL d   1      -1.549   0.345   1.203  0.00  0.00    -0.057 A 
ENDROOT
BRANCH   1   7
ATOM      7  N   UNL d   1       0.386   0.827  -0.141  0.00  0.00    -0.732 N 
ATOM      8  C   UNL d   1       0.079   1.342  -1.459  0.00  0.00     0.284 C 
ATOM      9  H3  UNL d   1       0.717   1.532   0.514  0.00  0.00     0.395 HD
ENDBRANCH   1   7
TORSDOF 1
ENDMDL
