MODEL 1
REMARK minimizedAffinity -5.48359299
REMARK minimizedRMSD -1
REMARK  1 active torsions:
REMARK  status: ('A' for Active; 'I' for Inactive)
REMARK    1  A    between atoms: N_2  and  C1_3 
ROOT
ATOM      1  C1  UNL d   1      -0.448  -0.207   0.478  0.00  0.00     0.143 A 
ATOM      2  C2  UNL d   1      -0.061  -1.551   0.466  0.00  0.00    -0.057 A 
ATOM      3  C3  UNL d   1      -0.895  -2.551   0.979  0.00  0.00     0.033 A 
ATOM      4  C4  UNL d   1      -2.123  -2.220   1.543  0.00  0.00    -0.042 A 
ATOM      5  C5  UNL d   1      -2.517  -0.887   1.588  0.00  0.00     0.033 A 
ATOM      6  C6  UNL d   1      -1.682   0.106   1.067  0.00  0.00    -0.057 A 
ENDROOT
BRANCH   1   7
ATOM      7  N   UNL d   1       0.379   0.844   0.072  0.00  0.00    -0.732 N 
ATOM      8  C   UNL d   1       0.385   1.288  -1.305  0.00  0.00     0.284 C 
ATOM      9  H3  UNL d   1       0.408   1.600   0.752  0.00  0.00     0.395 HD
ENDBRANCH   1   7
TORSDOF 1
ENDMDL
