MODEL 1
REMARK minimizedAffinity -1.38008356
REMARK minimizedRMSD -1
REMARK  1 active torsions:
REMARK  status: ('A' for Active; 'I' for Inactive)
REMARK    1  A    between atoms: N_2  and  C1_3 
ROOT
ATOM      1  C1  UNL d   1       1.035   1.870  -1.707  0.00  0.00     0.143 A 
ATOM      2  C2  UNL d   1       2.340   1.569  -2.110  0.00  0.00    -0.057 A 
ATOM      3  C3  UNL d   1       2.752   1.757  -3.435  0.00  0.00     0.033 A 
ATOM      4  C4  UNL d   1       1.853   2.223  -4.390  0.00  0.00    -0.042 A 
ATOM      5  C5  UNL d   1       0.544   2.505  -4.016  0.00  0.00     0.033 A 
ATOM      6  C6  UNL d   1       0.141   2.321  -2.690  0.00  0.00    -0.057 A 
ENDROOT
BRANCH   1   7
ATOM      7  N   UNL d   1       0.537   1.612  -0.427  0.00  0.00    -0.732 N 
ATOM      8  C   UNL d   1       0.033   0.300  -0.083  0.00  0.00     0.284 C 
ATOM      9  H3  UNL d   1       1.098   2.046   0.303  0.00  0.00     0.395 HD
ENDBRANCH   1   7
TORSDOF 1
ENDMDL
