MODEL 1
REMARK minimizedAffinity -3.63803792
REMARK minimizedRMSD -1
REMARK  1 active torsions:
REMARK  status: ('A' for Active; 'I' for Inactive)
REMARK    1  A    between atoms: N_2  and  C1_3 
ROOT
ATOM      1  C1  UNL d   1      -1.890  -0.096   1.435  0.00  0.00     0.143 A 
ATOM      2  C2  UNL d   1      -0.905  -0.327   0.469  0.00  0.00    -0.057 A 
ATOM      3  C3  UNL d   1      -0.287  -1.577   0.347  0.00  0.00     0.033 A 
ATOM      4  C4  UNL d   1      -0.623  -2.614   1.211  0.00  0.00    -0.042 A 
ATOM      5  C5  UNL d   1      -1.582  -2.400   2.195  0.00  0.00     0.033 A 
ATOM      6  C6  UNL d   1      -2.200  -1.151   2.308  0.00  0.00    -0.057 A 
ENDROOT
BRANCH   1   7
ATOM      7  N   UNL d   1      -2.470   1.153   1.671  0.00  0.00    -0.732 N 
ATOM      8  C   UNL d   1      -3.822   1.253   2.179  0.00  0.00     0.284 C 
ATOM      9  H3  UNL d   1      -1.819   1.811   2.092  0.00  0.00     0.395 HD
ENDBRANCH   1   7
TORSDOF 1
ENDMDL
