MODEL 1
REMARK minimizedAffinity -4.45913887
REMARK minimizedRMSD -1
REMARK  1 active torsions:
REMARK  status: ('A' for Active; 'I' for Inactive)
REMARK    1  A    between atoms: N_2  and  C1_3 
ROOT
ATOM      1  C1  UNL d   1      -0.761  -0.547   0.416  0.00  0.00     0.143 A 
ATOM      2  C2  UNL d   1      -0.915  -1.859   0.877  0.00  0.00    -0.057 A 
ATOM      3  C3  UNL d   1      -2.015  -2.229   1.660  0.00  0.00     0.033 A 
ATOM      4  C4  UNL d   1      -2.968  -1.283   2.021  0.00  0.00    -0.042 A 
ATOM      5  C5  UNL d   1      -2.823   0.033   1.595  0.00  0.00     0.033 A 
ATOM      6  C6  UNL d   1      -1.725   0.394   0.808  0.00  0.00    -0.057 A 
ENDROOT
BRANCH   1   7
ATOM      7  N   UNL d   1       0.361  -0.095  -0.284  0.00  0.00    -0.732 N 
ATOM      8  C   UNL d   1       0.778   1.288  -0.194  0.00  0.00     0.284 C 
ATOM      9  H3  UNL d   1       1.129  -0.763  -0.260  0.00  0.00     0.395 HD
ENDBRANCH   1   7
TORSDOF 1
ENDMDL
