MODEL 1
REMARK minimizedAffinity 8.57404423
REMARK minimizedRMSD -1
REMARK  1 active torsions:
REMARK  status: ('A' for Active; 'I' for Inactive)
REMARK    1  A    between atoms: C3_4  and  O_7 
ROOT
ATOM      1  C   UNL d   1      -3.576   1.344   4.038  0.00  0.00    -0.033 A 
ATOM      2  C1  UNL d   1      -3.297   0.836   5.308  0.00  0.00     0.039 A 
ATOM      3  C2  UNL d   1      -3.333  -0.541   5.535  0.00  0.00    -0.080 A 
ATOM      4  C3  UNL d   1      -3.648  -1.398   4.485  0.00  0.00     0.150 A 
ATOM      5  C4  UNL d   1      -3.924  -0.900   3.216  0.00  0.00    -0.007 A 
ATOM      6  C5  UNL d   1      -3.888   0.476   2.991  0.00  0.00     0.039 A 
ENDROOT
BRANCH   4   7
ATOM      7  O   UNL d   1      -3.700  -2.749   4.659  0.00  0.00    -0.526 OA
ATOM      8  H5  UNL d   1      -3.516  -2.947   5.592  0.00  0.00     0.418 HD
ENDBRANCH   4   7
TORSDOF 1
ENDMDL
