MODEL 1
REMARK minimizedAffinity 5.70862341
REMARK minimizedRMSD -1
REMARK  1 active torsions:
REMARK  status: ('A' for Active; 'I' for Inactive)
REMARK    1  A    between atoms: C3_4  and  O_7 
ROOT
ATOM      1  C   UNL d   1      -3.888   0.843   3.490  0.00  0.00    -0.033 A 
ATOM      2  C1  UNL d   1      -4.088  -0.252   2.647  0.00  0.00     0.039 A 
ATOM      3  C2  UNL d   1      -4.068  -1.548   3.167  0.00  0.00    -0.080 A 
ATOM      4  C3  UNL d   1      -3.848  -1.735   4.529  0.00  0.00     0.150 A 
ATOM      5  C4  UNL d   1      -3.651  -0.648   5.375  0.00  0.00    -0.007 A 
ATOM      6  C5  UNL d   1      -3.671   0.645   4.854  0.00  0.00     0.039 A 
ENDROOT
BRANCH   4   7
ATOM      7  O   UNL d   1      -3.814  -2.981   5.081  0.00  0.00    -0.526 OA
ATOM      8  H5  UNL d   1      -3.937  -3.635   4.373  0.00  0.00     0.418 HD
ENDBRANCH   4   7
TORSDOF 1
ENDMDL
