MODEL 1
REMARK minimizedAffinity 13.4246407
REMARK minimizedRMSD -1
REMARK  1 active torsions:
REMARK  status: ('A' for Active; 'I' for Inactive)
REMARK    1  A    between atoms: C3_4  and  O_7 
ROOT
ATOM      1  C   UNL d   1      -4.389   2.493   5.999  0.00  0.00    -0.033 A 
ATOM      2  C1  UNL d   1      -3.391   1.520   5.915  0.00  0.00     0.039 A 
ATOM      3  C2  UNL d   1      -2.922   1.105   4.667  0.00  0.00    -0.080 A 
ATOM      4  C3  UNL d   1      -3.458   1.669   3.513  0.00  0.00     0.150 A 
ATOM      5  C4  UNL d   1      -4.450   2.641   3.590  0.00  0.00    -0.007 A 
ATOM      6  C5  UNL d   1      -4.918   3.054   4.837  0.00  0.00     0.039 A 
ENDROOT
BRANCH   4   7
ATOM      7  O   UNL d   1      -3.036   1.293   2.273  0.00  0.00    -0.526 OA
ATOM      8  H5  UNL d   1      -2.369   0.593   2.375  0.00  0.00     0.418 HD
ENDBRANCH   4   7
TORSDOF 1
ENDMDL
