MODEL 1
REMARK minimizedAffinity 11.3877964
REMARK minimizedRMSD -1
REMARK  1 active torsions:
REMARK  status: ('A' for Active; 'I' for Inactive)
REMARK    1  A    between atoms: C3_4  and  O_7 
ROOT
ATOM      1  C   UNL d   1      -3.164   0.835   5.078  0.00  0.00    -0.033 A 
ATOM      2  C1  UNL d   1      -3.810   1.869   5.759  0.00  0.00     0.039 A 
ATOM      3  C2  UNL d   1      -4.680   2.721   5.076  0.00  0.00    -0.080 A 
ATOM      4  C3  UNL d   1      -4.896   2.529   3.714  0.00  0.00     0.150 A 
ATOM      5  C4  UNL d   1      -4.259   1.499   3.030  0.00  0.00    -0.007 A 
ATOM      6  C5  UNL d   1      -3.390   0.649   3.714  0.00  0.00     0.039 A 
ENDROOT
BRANCH   4   7
ATOM      7  O   UNL d   1      -5.732   3.338   3.004  0.00  0.00    -0.526 OA
ATOM      8  H5  UNL d   1      -6.079   4.022   3.601  0.00  0.00     0.418 HD
ENDBRANCH   4   7
TORSDOF 1
ENDMDL
