MODEL 1
REMARK minimizedAffinity 2.67781043
REMARK minimizedRMSD -1
REMARK  1 active torsions:
REMARK  status: ('A' for Active; 'I' for Inactive)
REMARK    1  A    between atoms: C3_4  and  O_7 
ROOT
ATOM      1  C   UNL d   1       1.447  -4.340  -2.080  0.00  0.00    -0.033 A 
ATOM      2  C1  UNL d   1       1.423  -3.327  -3.041  0.00  0.00     0.039 A 
ATOM      3  C2  UNL d   1       1.875  -2.046  -2.718  0.00  0.00    -0.080 A 
ATOM      4  C3  UNL d   1       2.349  -1.792  -1.434  0.00  0.00     0.150 A 
ATOM      5  C4  UNL d   1       2.379  -2.797  -0.473  0.00  0.00    -0.007 A 
ATOM      6  C5  UNL d   1       1.926  -4.076  -0.797  0.00  0.00     0.039 A 
ENDROOT
BRANCH   4   7
ATOM      7  O   UNL d   1       2.797  -0.556  -1.071  0.00  0.00    -0.526 OA
ATOM      8  H5  UNL d   1       2.689   0.044  -1.828  0.00  0.00     0.418 HD
ENDBRANCH   4   7
TORSDOF 1
ENDMDL
