MODEL 1
REMARK minimizedAffinity 3.7556932
REMARK minimizedRMSD -1
REMARK  1 active torsions:
REMARK  status: ('A' for Active; 'I' for Inactive)
REMARK    1  A    between atoms: C3_4  and  O_7 
ROOT
ATOM      1  C   UNL d   1       1.239  -2.124  -2.600  0.00  0.00    -0.033 A 
ATOM      2  C1  UNL d   1       1.991  -1.514  -1.594  0.00  0.00     0.039 A 
ATOM      3  C2  UNL d   1       2.631  -2.293  -0.628  0.00  0.00    -0.080 A 
ATOM      4  C3  UNL d   1       2.512  -3.679  -0.680  0.00  0.00     0.150 A 
ATOM      5  C4  UNL d   1       1.768  -4.294  -1.681  0.00  0.00    -0.007 A 
ATOM      6  C5  UNL d   1       1.129  -3.514  -2.644  0.00  0.00     0.039 A 
ENDROOT
BRANCH   4   7
ATOM      7  O   UNL d   1       3.114  -4.480   0.244  0.00  0.00    -0.526 OA
ATOM      8  H5  UNL d   1       3.570  -3.916   0.891  0.00  0.00     0.418 HD
ENDBRANCH   4   7
TORSDOF 1
ENDMDL
