MODEL 1
REMARK minimizedAffinity 7.7126379
REMARK minimizedRMSD -1
REMARK  1 active torsions:
REMARK  status: ('A' for Active; 'I' for Inactive)
REMARK    1  A    between atoms: C3_4  and  O_7 
ROOT
ATOM      1  C   UNL d   1       1.321  -1.619  -2.534  0.00  0.00    -0.033 A 
ATOM      2  C1  UNL d   1       1.230  -3.012  -2.572  0.00  0.00     0.039 A 
ATOM      3  C2  UNL d   1       1.729  -3.775  -1.515  0.00  0.00    -0.080 A 
ATOM      4  C3  UNL d   1       2.315  -3.135  -0.427  0.00  0.00     0.150 A 
ATOM      5  C4  UNL d   1       2.406  -1.747  -0.380  0.00  0.00    -0.007 A 
ATOM      6  C5  UNL d   1       1.908  -0.987  -1.437  0.00  0.00     0.039 A 
ENDROOT
BRANCH   4   7
ATOM      7  O   UNL d   1       2.821  -3.838   0.626  0.00  0.00    -0.526 OA
ATOM      8  H5  UNL d   1       2.714  -4.786   0.443  0.00  0.00     0.418 HD
ENDBRANCH   4   7
TORSDOF 1
ENDMDL
