MODEL 1
REMARK minimizedAffinity 13.9528608
REMARK minimizedRMSD -1
REMARK  1 active torsions:
REMARK  status: ('A' for Active; 'I' for Inactive)
REMARK    1  A    between atoms: C3_4  and  O_7 
ROOT
ATOM      1  C   UNL d   1      -3.577   1.106   3.576  0.00  0.00    -0.033 A 
ATOM      2  C1  UNL d   1      -3.300   0.808   4.911  0.00  0.00     0.039 A 
ATOM      3  C2  UNL d   1      -3.487  -0.490   5.392  0.00  0.00    -0.080 A 
ATOM      4  C3  UNL d   1      -3.949  -1.478   4.527  0.00  0.00     0.150 A 
ATOM      5  C4  UNL d   1      -4.223  -1.189   3.195  0.00  0.00    -0.007 A 
ATOM      6  C5  UNL d   1      -4.037   0.107   2.717  0.00  0.00     0.039 A 
ENDROOT
BRANCH   4   7
ATOM      7  O   UNL d   1      -4.151  -2.758   4.952  0.00  0.00    -0.526 OA
ATOM      8  H5  UNL d   1      -3.948  -2.803   5.901  0.00  0.00     0.418 HD
ENDBRANCH   4   7
TORSDOF 1
ENDMDL
