MODEL 1
REMARK minimizedAffinity 9.72267914
REMARK minimizedRMSD -1
REMARK  1 active torsions:
REMARK  status: ('A' for Active; 'I' for Inactive)
REMARK    1  A    between atoms: C3_4  and  O_7 
ROOT
ATOM      1  C   UNL d   1      -3.755   5.929  -5.950  0.00  0.00    -0.033 A 
ATOM      2  C1  UNL d   1      -4.431   4.708  -6.000  0.00  0.00     0.039 A 
ATOM      3  C2  UNL d   1      -3.829   3.554  -5.494  0.00  0.00    -0.080 A 
ATOM      4  C3  UNL d   1      -2.554   3.635  -4.941  0.00  0.00     0.150 A 
ATOM      5  C4  UNL d   1      -1.877   4.848  -4.886  0.00  0.00    -0.007 A 
ATOM      6  C5  UNL d   1      -2.479   5.999  -5.392  0.00  0.00     0.039 A 
ENDROOT
BRANCH   4   7
ATOM      7  O   UNL d   1      -1.924   2.535  -4.440  0.00  0.00    -0.526 OA
ATOM      8  H5  UNL d   1      -2.500   1.763  -4.572  0.00  0.00     0.418 HD
ENDBRANCH   4   7
TORSDOF 1
ENDMDL
