MODEL 1
REMARK minimizedAffinity 4.97857952
REMARK minimizedRMSD -1
REMARK  1 active torsions:
REMARK  status: ('A' for Active; 'I' for Inactive)
REMARK    1  A    between atoms: C3_4  and  O_7 
ROOT
ATOM      1  C   UNL d   1      -3.322   5.997  -5.028  0.00  0.00    -0.033 A 
ATOM      2  C1  UNL d   1      -3.546   4.984  -5.962  0.00  0.00     0.039 A 
ATOM      3  C2  UNL d   1      -2.896   3.755  -5.831  0.00  0.00    -0.080 A 
ATOM      4  C3  UNL d   1      -2.027   3.552  -4.763  0.00  0.00     0.150 A 
ATOM      5  C4  UNL d   1      -1.802   4.556  -3.826  0.00  0.00    -0.007 A 
ATOM      6  C5  UNL d   1      -2.452   5.782  -3.959  0.00  0.00     0.039 A 
ENDROOT
BRANCH   4   7
ATOM      7  O   UNL d   1      -1.367   2.371  -4.596  0.00  0.00    -0.526 OA
ATOM      8  H5  UNL d   1      -1.597   1.783  -5.334  0.00  0.00     0.418 HD
ENDBRANCH   4   7
TORSDOF 1
ENDMDL
