MODEL 1
REMARK minimizedAffinity 14.3215523
REMARK minimizedRMSD -1
REMARK  1 active torsions:
REMARK  status: ('A' for Active; 'I' for Inactive)
REMARK    1  A    between atoms: C3_4  and  O_7 
ROOT
ATOM      1  C   UNL d   1      -2.218   1.068   2.808  0.00  0.00    -0.033 A 
ATOM      2  C1  UNL d   1      -2.964   0.478   3.830  0.00  0.00     0.039 A 
ATOM      3  C2  UNL d   1      -3.942  -0.471   3.524  0.00  0.00    -0.080 A 
ATOM      4  C3  UNL d   1      -4.161  -0.822   2.195  0.00  0.00     0.150 A 
ATOM      5  C4  UNL d   1      -3.419  -0.241   1.172  0.00  0.00    -0.007 A 
ATOM      6  C5  UNL d   1      -2.444   0.708   1.479  0.00  0.00     0.039 A 
ENDROOT
BRANCH   4   7
ATOM      7  O   UNL d   1      -5.107  -1.740   1.847  0.00  0.00    -0.526 OA
ATOM      8  H5  UNL d   1      -5.561  -2.035   2.654  0.00  0.00     0.418 HD
ENDBRANCH   4   7
TORSDOF 1
ENDMDL
