MODEL 1
REMARK minimizedAffinity 8.30067253
REMARK minimizedRMSD -1
REMARK  1 active torsions:
REMARK  status: ('A' for Active; 'I' for Inactive)
REMARK    1  A    between atoms: C3_4  and  O_7 
ROOT
ATOM      1  C   UNL d   1       2.058  -2.503  -0.816  0.00  0.00    -0.033 A 
ATOM      2  C1  UNL d   1       1.606  -1.368  -1.491  0.00  0.00     0.039 A 
ATOM      3  C2  UNL d   1       2.246  -0.141  -1.305  0.00  0.00    -0.080 A 
ATOM      4  C3  UNL d   1       3.337  -0.064  -0.443  0.00  0.00     0.150 A 
ATOM      5  C4  UNL d   1       3.795  -1.191   0.230  0.00  0.00    -0.007 A 
ATOM      6  C5  UNL d   1       3.154  -2.415   0.044  0.00  0.00     0.039 A 
ENDROOT
BRANCH   4   7
ATOM      7  O   UNL d   1       3.991   1.113  -0.225  0.00  0.00    -0.526 OA
ATOM      8  H5  UNL d   1       3.546   1.811  -0.734  0.00  0.00     0.418 HD
ENDBRANCH   4   7
TORSDOF 1
ENDMDL
