MODEL 1
REMARK minimizedAffinity 15.5247469
REMARK minimizedRMSD -1
REMARK  1 active torsions:
REMARK  status: ('A' for Active; 'I' for Inactive)
REMARK    1  A    between atoms: C3_4  and  O_7 
ROOT
ATOM      1  C   UNL d   1       2.383  -2.872  -0.602  0.00  0.00    -0.033 A 
ATOM      2  C1  UNL d   1       1.890  -4.172  -0.730  0.00  0.00     0.039 A 
ATOM      3  C2  UNL d   1       1.032  -4.495  -1.783  0.00  0.00    -0.080 A 
ATOM      4  C3  UNL d   1       0.676  -3.511  -2.701  0.00  0.00     0.150 A 
ATOM      5  C4  UNL d   1       1.166  -2.214  -2.582  0.00  0.00    -0.007 A 
ATOM      6  C5  UNL d   1       2.022  -1.893  -1.529  0.00  0.00     0.039 A 
ENDROOT
BRANCH   4   7
ATOM      7  O   UNL d   1      -0.162  -3.777  -3.742  0.00  0.00    -0.526 OA
ATOM      8  H5  UNL d   1      -0.444  -4.705  -3.681  0.00  0.00     0.418 HD
ENDBRANCH   4   7
TORSDOF 1
ENDMDL
