MODEL 1
REMARK minimizedAffinity 10.5929155
REMARK minimizedRMSD -1
REMARK  1 active torsions:
REMARK  status: ('A' for Active; 'I' for Inactive)
REMARK    1  A    between atoms: C3_4  and  O_7 
ROOT
ATOM      1  C   UNL d   1      -0.319  -5.438  -2.247  0.00  0.00    -0.033 A 
ATOM      2  C1  UNL d   1      -1.637  -5.835  -2.016  0.00  0.00     0.039 A 
ATOM      3  C2  UNL d   1      -2.692  -5.133  -2.603  0.00  0.00    -0.080 A 
ATOM      4  C3  UNL d   1      -2.415  -4.040  -3.419  0.00  0.00     0.150 A 
ATOM      5  C4  UNL d   1      -1.104  -3.642  -3.657  0.00  0.00    -0.007 A 
ATOM      6  C5  UNL d   1      -0.052  -4.343  -3.069  0.00  0.00     0.039 A 
ENDROOT
BRANCH   4   7
ATOM      7  O   UNL d   1      -3.412  -3.321  -4.010  0.00  0.00    -0.526 OA
ATOM      8  H5  UNL d   1      -4.266  -3.694  -3.733  0.00  0.00     0.418 HD
ENDBRANCH   4   7
TORSDOF 1
ENDMDL
