MODEL 1
REMARK minimizedAffinity -3.7862041
REMARK minimizedRMSD -1
REMARK  0 active torsions:
REMARK  status: ('A' for Active; 'I' for Inactive)
ROOT
ATOM      1  C   UNL d   1      -1.500   0.005   0.665  0.00  0.00     0.078 C 
ATOM      2  C1  UNL d   1      -0.299   0.094  -0.229  0.00  0.00    -0.077 A 
ATOM      3  C2  UNL d   1       0.876   0.721   0.201  0.00  0.00    -0.001 A 
ATOM      4  C3  UNL d   1       1.983   0.804  -0.645  0.00  0.00     0.003 A 
ATOM      5  C4  UNL d   1       1.924   0.264  -1.929  0.00  0.00    -0.005 A 
ATOM      6  C5  UNL d   1       0.758  -0.360  -2.367  0.00  0.00     0.003 A 
ATOM      7  C6  UNL d   1      -0.349  -0.444  -1.521  0.00  0.00    -0.001 A 
ENDROOT
TORSDOF 0
ENDMDL
