MODEL 1
REMARK minimizedAffinity -4.42709923
REMARK minimizedRMSD -1
REMARK  0 active torsions:
REMARK  status: ('A' for Active; 'I' for Inactive)
ROOT
ATOM      1  C   UNL d   1       1.246  -0.460  -2.712  0.00  0.00     0.078 C 
ATOM      2  C1  UNL d   1       0.678  -0.769  -1.359  0.00  0.00    -0.077 A 
ATOM      3  C2  UNL d   1       0.251   0.255  -0.505  0.00  0.00    -0.001 A 
ATOM      4  C3  UNL d   1      -0.266  -0.047   0.755  0.00  0.00     0.003 A 
ATOM      5  C4  UNL d   1      -0.361  -1.373   1.174  0.00  0.00    -0.005 A 
ATOM      6  C5  UNL d   1       0.063  -2.399   0.331  0.00  0.00     0.003 A 
ATOM      7  C6  UNL d   1       0.581  -2.099  -0.930  0.00  0.00    -0.001 A 
ENDROOT
TORSDOF 0
ENDMDL
