MODEL 1
REMARK minimizedAffinity -1.62733495
REMARK minimizedRMSD -1
REMARK  0 active torsions:
REMARK  status: ('A' for Active; 'I' for Inactive)
ROOT
ATOM      1  C   UNL d   1      -3.063   2.597   3.961  0.00  0.00     0.078 C 
ATOM      2  C1  UNL d   1      -3.399   1.562   2.929  0.00  0.00    -0.077 A 
ATOM      3  C2  UNL d   1      -2.579   1.366   1.810  0.00  0.00    -0.001 A 
ATOM      4  C3  UNL d   1      -2.910   0.406   0.853  0.00  0.00     0.003 A 
ATOM      5  C4  UNL d   1      -4.061  -0.364   1.002  0.00  0.00    -0.005 A 
ATOM      6  C5  UNL d   1      -4.884  -0.175   2.110  0.00  0.00     0.003 A 
ATOM      7  C6  UNL d   1      -4.555   0.785   3.069  0.00  0.00    -0.001 A 
ENDROOT
TORSDOF 0
ENDMDL
