MODEL 1
REMARK minimizedAffinity -2.99947834
REMARK minimizedRMSD -1
REMARK  0 active torsions:
REMARK  status: ('A' for Active; 'I' for Inactive)
ROOT
ATOM      1  C   UNL d   1      -3.328   3.251   4.050  0.00  0.00     0.078 C 
ATOM      2  C1  UNL d   1      -2.848   2.048   3.294  0.00  0.00    -0.077 A 
ATOM      3  C2  UNL d   1      -1.510   1.640   3.362  0.00  0.00    -0.001 A 
ATOM      4  C3  UNL d   1      -1.075   0.524   2.645  0.00  0.00     0.003 A 
ATOM      5  C4  UNL d   1      -1.972  -0.192   1.854  0.00  0.00    -0.005 A 
ATOM      6  C5  UNL d   1      -3.304   0.207   1.779  0.00  0.00     0.003 A 
ATOM      7  C6  UNL d   1      -3.741   1.323   2.495  0.00  0.00    -0.001 A 
ENDROOT
TORSDOF 0
ENDMDL
