MODEL 1
REMARK minimizedAffinity -4.64100313
REMARK minimizedRMSD -1
REMARK  0 active torsions:
REMARK  status: ('A' for Active; 'I' for Inactive)
ROOT
ATOM      1  C   UNL d   1       1.215   0.100  -2.892  0.00  0.00     0.078 C 
ATOM      2  C1  UNL d   1       0.635  -0.402  -1.603  0.00  0.00    -0.077 A 
ATOM      3  C2  UNL d   1       0.562  -1.774  -1.331  0.00  0.00    -0.001 A 
ATOM      4  C3  UNL d   1       0.010  -2.227  -0.132  0.00  0.00     0.003 A 
ATOM      5  C4  UNL d   1      -0.473  -1.315   0.805  0.00  0.00    -0.005 A 
ATOM      6  C5  UNL d   1      -0.407   0.052   0.542  0.00  0.00     0.003 A 
ATOM      7  C6  UNL d   1       0.144   0.507  -0.657  0.00  0.00    -0.001 A 
ENDROOT
TORSDOF 0
ENDMDL
