MODEL 1
REMARK minimizedAffinity -3.1570704
REMARK minimizedRMSD -1
REMARK  0 active torsions:
REMARK  status: ('A' for Active; 'I' for Inactive)
ROOT
ATOM      1  C   UNL d   1       1.125   0.411   4.671  0.00  0.00     0.078 C 
ATOM      2  C1  UNL d   1       1.623   1.428   3.688  0.00  0.00    -0.077 A 
ATOM      3  C2  UNL d   1       2.271   2.591   4.121  0.00  0.00    -0.001 A 
ATOM      4  C3  UNL d   1       2.720   3.535   3.195  0.00  0.00     0.003 A 
ATOM      5  C4  UNL d   1       2.525   3.325   1.832  0.00  0.00    -0.005 A 
ATOM      6  C5  UNL d   1       1.879   2.172   1.392  0.00  0.00     0.003 A 
ATOM      7  C6  UNL d   1       1.429   1.227   2.316  0.00  0.00    -0.001 A 
ENDROOT
TORSDOF 0
ENDMDL
