MODEL 1
REMARK minimizedAffinity -1.47767508
REMARK minimizedRMSD -1
REMARK  0 active torsions:
REMARK  status: ('A' for Active; 'I' for Inactive)
ROOT
ATOM      1  C   UNL d   1       3.358   1.629  -0.770  0.00  0.00     0.078 C 
ATOM      2  C1  UNL d   1       2.151   0.790  -1.067  0.00  0.00    -0.077 A 
ATOM      3  C2  UNL d   1       2.041   0.087  -2.272  0.00  0.00    -0.001 A 
ATOM      4  C3  UNL d   1       0.907  -0.682  -2.539  0.00  0.00     0.003 A 
ATOM      5  C4  UNL d   1      -0.126  -0.754  -1.607  0.00  0.00    -0.005 A 
ATOM      6  C5  UNL d   1      -0.026  -0.056  -0.405  0.00  0.00     0.003 A 
ATOM      7  C6  UNL d   1       1.107   0.714  -0.136  0.00  0.00    -0.001 A 
ENDROOT
TORSDOF 0
ENDMDL
