MODEL 1
REMARK minimizedAffinity -5.03779697
REMARK minimizedRMSD -1
REMARK  0 active torsions:
REMARK  status: ('A' for Active; 'I' for Inactive)
ROOT
ATOM      1  C   UNL d   1       1.814  -0.126  -2.910  0.00  0.00     0.078 C 
ATOM      2  C1  UNL d   1       1.140   0.003  -1.576  0.00  0.00    -0.077 A 
ATOM      3  C2  UNL d   1       0.404  -1.058  -1.034  0.00  0.00    -0.001 A 
ATOM      4  C3  UNL d   1      -0.226  -0.920   0.203  0.00  0.00     0.003 A 
ATOM      5  C4  UNL d   1      -0.128   0.277   0.909  0.00  0.00    -0.005 A 
ATOM      6  C5  UNL d   1       0.600   1.339   0.377  0.00  0.00     0.003 A 
ATOM      7  C6  UNL d   1       1.231   1.203  -0.860  0.00  0.00    -0.001 A 
ENDROOT
TORSDOF 0
ENDMDL
