MODEL 1
REMARK minimizedAffinity -1.60847449
REMARK minimizedRMSD -1
REMARK  0 active torsions:
REMARK  status: ('A' for Active; 'I' for Inactive)
ROOT
ATOM      1  C   UNL d   1      -1.780   4.170  -5.384  0.00  0.00     0.078 C 
ATOM      2  C1  UNL d   1      -3.239   4.433  -5.606  0.00  0.00    -0.077 A 
ATOM      3  C2  UNL d   1      -3.720   5.737  -5.774  0.00  0.00    -0.001 A 
ATOM      4  C3  UNL d   1      -5.082   5.968  -5.970  0.00  0.00     0.003 A 
ATOM      5  C4  UNL d   1      -5.976   4.899  -5.999  0.00  0.00    -0.005 A 
ATOM      6  C5  UNL d   1      -5.507   3.597  -5.831  0.00  0.00     0.003 A 
ATOM      7  C6  UNL d   1      -4.145   3.365  -5.634  0.00  0.00    -0.001 A 
ENDROOT
TORSDOF 0
ENDMDL
