MODEL 1
REMARK minimizedAffinity -1.34628785
REMARK minimizedRMSD -1
REMARK  0 active torsions:
REMARK  status: ('A' for Active; 'I' for Inactive)
ROOT
ATOM      1  C   UNL d   1      -4.816  -2.471   2.286  0.00  0.00     0.078 C 
ATOM      2  C1  UNL d   1      -4.144  -1.181   1.920  0.00  0.00    -0.077 A 
ATOM      3  C2  UNL d   1      -4.884  -0.002   1.762  0.00  0.00    -0.001 A 
ATOM      4  C3  UNL d   1      -4.247   1.189   1.411  0.00  0.00     0.003 A 
ATOM      5  C4  UNL d   1      -2.867   1.214   1.215  0.00  0.00    -0.005 A 
ATOM      6  C5  UNL d   1      -2.124   0.045   1.368  0.00  0.00     0.003 A 
ATOM      7  C6  UNL d   1      -2.759  -1.147   1.718  0.00  0.00    -0.001 A 
ENDROOT
TORSDOF 0
ENDMDL
