MODEL 1
REMARK minimizedAffinity -4.06768799
REMARK minimizedRMSD -1
REMARK  0 active torsions:
REMARK  status: ('A' for Active; 'I' for Inactive)
ROOT
ATOM      1  C   UNL d   1       1.597  -0.082  -2.741  0.00  0.00     0.078 C 
ATOM      2  C1  UNL d   1       0.878  -0.523  -1.502  0.00  0.00    -0.077 A 
ATOM      3  C2  UNL d   1       0.405   0.411  -0.571  0.00  0.00    -0.001 A 
ATOM      4  C3  UNL d   1      -0.254  -0.015   0.583  0.00  0.00     0.003 A 
ATOM      5  C4  UNL d   1      -0.446  -1.375   0.818  0.00  0.00    -0.005 A 
ATOM      6  C5  UNL d   1       0.022  -2.311  -0.101  0.00  0.00     0.003 A 
ATOM      7  C6  UNL d   1       0.682  -1.888  -1.256  0.00  0.00    -0.001 A 
ENDROOT
TORSDOF 0
ENDMDL
