MODEL 1
REMARK minimizedAffinity -1.81738305
REMARK minimizedRMSD -1
REMARK  0 active torsions:
REMARK  status: ('A' for Active; 'I' for Inactive)
ROOT
ATOM      1  C   UNL d   1      -0.947  -0.478   1.174  0.00  0.00     0.078 C 
ATOM      2  C1  UNL d   1       0.115   0.482   1.622  0.00  0.00    -0.077 A 
ATOM      3  C2  UNL d   1       0.499   0.556   2.966  0.00  0.00    -0.001 A 
ATOM      4  C3  UNL d   1       1.482   1.462   3.370  0.00  0.00     0.003 A 
ATOM      5  C4  UNL d   1       2.087   2.300   2.436  0.00  0.00    -0.005 A 
ATOM      6  C5  UNL d   1       1.710   2.235   1.097  0.00  0.00     0.003 A 
ATOM      7  C6  UNL d   1       0.727   1.331   0.691  0.00  0.00    -0.001 A 
ENDROOT
TORSDOF 0
ENDMDL
