MODEL 1
REMARK minimizedAffinity -3.73910689
REMARK minimizedRMSD -1
REMARK  0 active torsions:
REMARK  status: ('A' for Active; 'I' for Inactive)
ROOT
ATOM      1  C   UNL d   1       2.958   4.133   3.239  0.00  0.00     0.078 C 
ATOM      2  C1  UNL d   1       2.161   3.018   2.630  0.00  0.00    -0.077 A 
ATOM      3  C2  UNL d   1       2.046   2.889   1.241  0.00  0.00    -0.001 A 
ATOM      4  C3  UNL d   1       1.293   1.852   0.688  0.00  0.00     0.003 A 
ATOM      5  C4  UNL d   1       0.648   0.937   1.517  0.00  0.00    -0.005 A 
ATOM      6  C5  UNL d   1       0.754   1.058   2.901  0.00  0.00     0.003 A 
ATOM      7  C6  UNL d   1       1.507   2.094   3.456  0.00  0.00    -0.001 A 
ENDROOT
TORSDOF 0
ENDMDL
