MODEL 1
REMARK minimizedAffinity -3.18987727
REMARK minimizedRMSD -1
REMARK  0 active torsions:
REMARK  status: ('A' for Active; 'I' for Inactive)
ROOT
ATOM      1  C   UNL d   1       1.847  -1.476  -2.914  0.00  0.00     0.078 C 
ATOM      2  C1  UNL d   1       1.370  -0.580  -1.810  0.00  0.00    -0.077 A 
ATOM      3  C2  UNL d   1       2.049   0.605  -1.499  0.00  0.00    -0.001 A 
ATOM      4  C3  UNL d   1       1.599   1.425  -0.463  0.00  0.00     0.003 A 
ATOM      5  C4  UNL d   1       0.470   1.069   0.271  0.00  0.00    -0.005 A 
ATOM      6  C5  UNL d   1      -0.211  -0.109  -0.030  0.00  0.00     0.003 A 
ATOM      7  C6  UNL d   1       0.237  -0.930  -1.066  0.00  0.00    -0.001 A 
ENDROOT
TORSDOF 0
ENDMDL
