MODEL 1
REMARK minimizedAffinity -5.03312683
REMARK minimizedRMSD -1
REMARK  0 active torsions:
REMARK  status: ('A' for Active; 'I' for Inactive)
ROOT
ATOM      1  C   UNL d   1      -2.971   2.537   3.840  0.00  0.00     0.078 C 
ATOM      2  C1  UNL d   1      -1.985   1.617   3.184  0.00  0.00    -0.077 A 
ATOM      3  C2  UNL d   1      -0.659   1.548   3.625  0.00  0.00    -0.001 A 
ATOM      4  C3  UNL d   1       0.250   0.694   2.998  0.00  0.00     0.003 A 
ATOM      5  C4  UNL d   1      -0.157  -0.096   1.925  0.00  0.00    -0.005 A 
ATOM      6  C5  UNL d   1      -1.475  -0.032   1.477  0.00  0.00     0.003 A 
ATOM      7  C6  UNL d   1      -2.385   0.821   2.103  0.00  0.00    -0.001 A 
ENDROOT
TORSDOF 0
ENDMDL
