MODEL 1
REMARK minimizedAffinity -2.20051455
REMARK minimizedRMSD -1
REMARK  0 active torsions:
REMARK  status: ('A' for Active; 'I' for Inactive)
ROOT
ATOM      1  C   UNL d   1      -1.575   3.945  -5.962  0.00  0.00     0.078 C 
ATOM      2  C1  UNL d   1      -3.068   4.091  -5.967  0.00  0.00    -0.077 A 
ATOM      3  C2  UNL d   1      -3.902   2.967  -5.969  0.00  0.00    -0.001 A 
ATOM      4  C3  UNL d   1      -5.290   3.117  -5.983  0.00  0.00     0.003 A 
ATOM      5  C4  UNL d   1      -5.855   4.391  -5.997  0.00  0.00    -0.005 A 
ATOM      6  C5  UNL d   1      -5.033   5.516  -5.998  0.00  0.00     0.003 A 
ATOM      7  C6  UNL d   1      -3.645   5.367  -5.983  0.00  0.00    -0.001 A 
ENDROOT
TORSDOF 0
ENDMDL
