MODEL 1
REMARK minimizedAffinity 0.467184484
REMARK minimizedRMSD -1
REMARK  3 active torsions:
REMARK  status: ('A' for Active; 'I' for Inactive)
REMARK    1  A    between atoms: C3'_2  and  C2'_3 
REMARK    2  A    between atoms: C2'_3  and  C1'_4 
REMARK    3  A    between atoms: C1'_4  and  C1_5 
ROOT
ATOM      1  C1  N4B d   1      -1.845   0.487   0.073  0.00  0.00    -0.075 A 
ATOM      2  C2  N4B d   1      -3.123   0.038  -0.326  0.00  0.00     0.002 A 
ATOM      3  C3  N4B d   1      -4.208   0.241   0.492  0.00  0.00     0.002 A 
ATOM      4  C4  N4B d   1      -4.036   0.870   1.716  0.00  0.00    -0.004 A 
ATOM      5  C5  N4B d   1      -2.803   1.322   2.083  0.00  0.00     0.002 A 
ATOM      6  C6  N4B d   1      -1.704   1.129   1.269  0.00  0.00     0.002 A 
ENDROOT
BRANCH   1   7
ATOM      7  C1' N4B d   1      -0.615   0.212  -0.748  0.00  0.00     0.057 C 
BRANCH   7   8
ATOM      8  C2' N4B d   1      -0.610  -1.255  -1.168  0.00  0.00     0.009 C 
BRANCH   8   9
ATOM      9  C3' N4B d   1      -0.096  -2.161  -0.063  0.00  0.00     0.004 C 
ATOM     10  C4' N4B d   1      -1.201  -2.802   0.723  0.00  0.00     0.003 C 
ENDBRANCH   8   9
ENDBRANCH   7   8
ENDBRANCH   1   7
TORSDOF 3
ENDMDL
