MODEL 1
REMARK minimizedAffinity -0.446477741
REMARK minimizedRMSD -1
REMARK  3 active torsions:
REMARK  status: ('A' for Active; 'I' for Inactive)
REMARK    1  A    between atoms: C3'_2  and  C2'_3 
REMARK    2  A    between atoms: C2'_3  and  C1'_4 
REMARK    3  A    between atoms: C1'_4  and  C1_5 
ROOT
ATOM      1  C1  N4B d   1       0.949  -0.855  -0.340  0.00  0.00    -0.075 A 
ATOM      2  C2  N4B d   1       0.133   0.231  -0.724  0.00  0.00     0.002 A 
ATOM      3  C3  N4B d   1       0.370   1.483  -0.211  0.00  0.00     0.002 A 
ATOM      4  C4  N4B d   1       1.403   1.668   0.696  0.00  0.00    -0.004 A 
ATOM      5  C5  N4B d   1       2.203   0.619   1.042  0.00  0.00     0.002 A 
ATOM      6  C6  N4B d   1       1.978  -0.644   0.532  0.00  0.00     0.002 A 
ENDROOT
BRANCH   1   7
ATOM      7  C1' N4B d   1       0.674  -2.258  -0.807  0.00  0.00     0.057 C 
BRANCH   7   8
ATOM      8  C2' N4B d   1       1.986  -2.910  -1.233  0.00  0.00     0.009 C 
BRANCH   8   9
ATOM      9  C3' N4B d   1       2.323  -2.614  -2.684  0.00  0.00     0.004 C 
ATOM     10  C4' N4B d   1       3.686  -3.101  -3.076  0.00  0.00     0.003 C 
ENDBRANCH   8   9
ENDBRANCH   7   8
ENDBRANCH   1   7
TORSDOF 3
ENDMDL
