MODEL 1
REMARK minimizedAffinity 9.83400249
REMARK minimizedRMSD -1
REMARK  3 active torsions:
REMARK  status: ('A' for Active; 'I' for Inactive)
REMARK    1  A    between atoms: C3'_2  and  C2'_3 
REMARK    2  A    between atoms: C2'_3  and  C1'_4 
REMARK    3  A    between atoms: C1'_4  and  C1_5 
ROOT
ATOM      1  C1  N4B d   1      -2.046   2.009   3.185  0.00  0.00    -0.075 A 
ATOM      2  C2  N4B d   1      -2.357   3.339   3.545  0.00  0.00     0.002 A 
ATOM      3  C3  N4B d   1      -3.600   3.853   3.264  0.00  0.00     0.002 A 
ATOM      4  C4  N4B d   1      -4.536   3.066   2.610  0.00  0.00    -0.004 A 
ATOM      5  C5  N4B d   1      -4.235   1.774   2.289  0.00  0.00     0.002 A 
ATOM      6  C6  N4B d   1      -2.992   1.243   2.569  0.00  0.00     0.002 A 
ENDROOT
BRANCH   1   7
ATOM      7  C1' N4B d   1      -0.673   1.431   3.395  0.00  0.00     0.057 C 
BRANCH   7   8
ATOM      8  C2' N4B d   1       0.371   2.422   2.888  0.00  0.00     0.009 C 
BRANCH   8   9
ATOM      9  C3' N4B d   1       0.169   2.759   1.421  0.00  0.00     0.004 C 
ATOM     10  C4' N4B d   1      -0.018   4.227   1.182  0.00  0.00     0.003 C 
ENDBRANCH   8   9
ENDBRANCH   7   8
ENDBRANCH   1   7
TORSDOF 3
ENDMDL
