MODEL 1
REMARK minimizedAffinity -5.82605791
REMARK minimizedRMSD -1
REMARK  0 active torsions:
REMARK  status: ('A' for Active; 'I' for Inactive)
ROOT
ATOM      1  O1  BZF d   1      -0.750   1.231  -4.726  0.00  0.00    -0.204 OA
ATOM      2  C2  BZF d   1       0.377   1.838  -4.209  0.00  0.00     0.174 A 
ATOM      3  C3  BZF d   1       1.110   0.960  -3.495  0.00  0.00    -0.012 A 
ATOM      4  C3A BZF d   1       0.443  -0.297  -3.647  0.00  0.00    -0.107 A 
ATOM      5  C4  BZF d   1       0.697  -1.557  -3.185  0.00  0.00     0.055 A 
ATOM      6  C5  BZF d   1      -0.190  -2.550  -3.453  0.00  0.00    -0.016 A 
ATOM      7  C6  BZF d   1      -1.343  -2.319  -4.174  0.00  0.00     0.022 A 
ATOM      8  C7  BZF d   1      -1.636  -1.087  -4.657  0.00  0.00     0.029 A 
ATOM      9  C7A BZF d   1      -0.725  -0.088  -4.416  0.00  0.00     0.058 A 
ENDROOT
TORSDOF 0
ENDMDL
