MODEL 1
REMARK minimizedAffinity -6.0866394
REMARK minimizedRMSD -1
REMARK  0 active torsions:
REMARK  status: ('A' for Active; 'I' for Inactive)
ROOT
ATOM      1  O1  BZF d   1       1.682  -0.619   0.999  0.00  0.00    -0.204 OA
ATOM      2  C2  BZF d   1       1.561  -1.495  -0.063  0.00  0.00     0.174 A 
ATOM      3  C3  BZF d   1       0.292  -1.520  -0.520  0.00  0.00    -0.012 A 
ATOM      4  C3A BZF d   1      -0.404  -0.533   0.248  0.00  0.00    -0.107 A 
ATOM      5  C4  BZF d   1      -1.692  -0.080   0.248  0.00  0.00     0.055 A 
ATOM      6  C5  BZF d   1      -2.068   0.841   1.174  0.00  0.00    -0.016 A 
ATOM      7  C6  BZF d   1      -1.185   1.326   2.116  0.00  0.00     0.022 A 
ATOM      8  C7  BZF d   1       0.104   0.910   2.152  0.00  0.00     0.029 A 
ATOM      9  C7A BZF d   1       0.496   0.004   1.197  0.00  0.00     0.058 A 
ENDROOT
TORSDOF 0
ENDMDL
