MODEL 1
REMARK minimizedAffinity -2.3860836
REMARK minimizedRMSD -1
REMARK  0 active torsions:
REMARK  status: ('A' for Active; 'I' for Inactive)
ROOT
ATOM      1  O1  BZF d   1      -0.834   0.014  -1.620  0.00  0.00    -0.204 OA
ATOM      2  C2  BZF d   1       0.513  -0.008  -1.927  0.00  0.00     0.174 A 
ATOM      3  C3  BZF d   1       1.255   0.326  -0.851  0.00  0.00    -0.012 A 
ATOM      4  C3A BZF d   1       0.317   0.482   0.218  0.00  0.00    -0.107 A 
ATOM      5  C4  BZF d   1       0.446   0.794   1.541  0.00  0.00     0.055 A 
ATOM      6  C5  BZF d   1      -0.674   0.939   2.298  0.00  0.00    -0.016 A 
ATOM      7  C6  BZF d   1      -1.936   0.783   1.763  0.00  0.00     0.022 A 
ATOM      8  C7  BZF d   1      -2.114   0.468   0.457  0.00  0.00     0.029 A 
ATOM      9  C7A BZF d   1      -0.984   0.289  -0.302  0.00  0.00     0.058 A 
ENDROOT
TORSDOF 0
ENDMDL
