MODEL 1
REMARK minimizedAffinity -0.97048229
REMARK minimizedRMSD -1
REMARK  0 active torsions:
REMARK  status: ('A' for Active; 'I' for Inactive)
ROOT
ATOM      1  O1  BZF d   1      -0.629  -0.612   0.078  0.00  0.00    -0.204 OA
ATOM      2  C2  BZF d   1       0.181   0.093  -0.791  0.00  0.00     0.174 A 
ATOM      3  C3  BZF d   1       0.728   1.160  -0.176  0.00  0.00    -0.012 A 
ATOM      4  C3A BZF d   1       0.303   1.068   1.187  0.00  0.00    -0.107 A 
ATOM      5  C4  BZF d   1       0.533   1.831   2.296  0.00  0.00     0.055 A 
ATOM      6  C5  BZF d   1      -0.090   1.509   3.460  0.00  0.00    -0.016 A 
ATOM      7  C6  BZF d   1      -0.953   0.436   3.550  0.00  0.00     0.022 A 
ATOM      8  C7  BZF d   1      -1.209  -0.352   2.478  0.00  0.00     0.029 A 
ATOM      9  C7A BZF d   1      -0.555  -0.050   1.308  0.00  0.00     0.058 A 
ENDROOT
TORSDOF 0
ENDMDL
