MODEL 1
REMARK minimizedAffinity 0.0287560131
REMARK minimizedRMSD -1
REMARK  0 active torsions:
REMARK  status: ('A' for Active; 'I' for Inactive)
ROOT
ATOM      1  O1  BZF d   1      -0.665   0.849  -1.894  0.00  0.00    -0.204 OA
ATOM      2  C2  BZF d   1       0.686   0.603  -2.039  0.00  0.00     0.174 A 
ATOM      3  C3  BZF d   1       1.263   0.378  -0.841  0.00  0.00    -0.012 A 
ATOM      4  C3A BZF d   1       0.189   0.400   0.104  0.00  0.00    -0.107 A 
ATOM      5  C4  BZF d   1       0.125   0.224   1.457  0.00  0.00     0.055 A 
ATOM      6  C5  BZF d   1      -1.068   0.381   2.087  0.00  0.00    -0.016 A 
ATOM      7  C6  BZF d   1      -2.215   0.718   1.398  0.00  0.00     0.022 A 
ATOM      8  C7  BZF d   1      -2.202   0.898   0.055  0.00  0.00     0.029 A 
ATOM      9  C7A BZF d   1      -1.004   0.708  -0.590  0.00  0.00     0.058 A 
ENDROOT
TORSDOF 0
ENDMDL
