MODEL 1
REMARK minimizedAffinity -2.17916417
REMARK minimizedRMSD -1
REMARK  0 active torsions:
REMARK  status: ('A' for Active; 'I' for Inactive)
ROOT
ATOM      1  O1  BZF d   1       1.693  -0.198  -1.537  0.00  0.00    -0.204 OA
ATOM      2  C2  BZF d   1       1.081   0.032  -2.754  0.00  0.00     0.174 A 
ATOM      3  C3  BZF d   1      -0.251   0.172  -2.601  0.00  0.00    -0.012 A 
ATOM      4  C3A BZF d   1      -0.476   0.111  -1.190  0.00  0.00    -0.107 A 
ATOM      5  C4  BZF d   1      -1.596   0.204  -0.413  0.00  0.00     0.055 A 
ATOM      6  C5  BZF d   1      -1.483   0.030   0.931  0.00  0.00    -0.016 A 
ATOM      7  C6  BZF d   1      -0.271  -0.243   1.528  0.00  0.00     0.022 A 
ATOM      8  C7  BZF d   1       0.868  -0.340   0.800  0.00  0.00     0.029 A 
ATOM      9  C7A BZF d   1       0.763  -0.132  -0.554  0.00  0.00     0.058 A 
ENDROOT
TORSDOF 0
ENDMDL
