MODEL 1
REMARK minimizedAffinity 0.0538454875
REMARK minimizedRMSD -1
REMARK  0 active torsions:
REMARK  status: ('A' for Active; 'I' for Inactive)
ROOT
ATOM      1  O1  BZF d   1      -0.414   1.803  -5.069  0.00  0.00    -0.204 OA
ATOM      2  C2  BZF d   1      -1.592   1.112  -4.864  0.00  0.00     0.174 A 
ATOM      3  C3  BZF d   1      -1.422  -0.205  -5.100  0.00  0.00    -0.012 A 
ATOM      4  C3A BZF d   1      -0.029  -0.358  -5.387  0.00  0.00    -0.107 A 
ATOM      5  C4  BZF d   1       0.755  -1.436  -5.687  0.00  0.00     0.055 A 
ATOM      6  C5  BZF d   1       2.066  -1.237  -5.986  0.00  0.00    -0.016 A 
ATOM      7  C6  BZF d   1       2.624   0.025  -5.999  0.00  0.00     0.022 A 
ATOM      8  C7  BZF d   1       1.887   1.123  -5.703  0.00  0.00     0.029 A 
ATOM      9  C7A BZF d   1       0.571   0.922  -5.369  0.00  0.00     0.058 A 
ENDROOT
TORSDOF 0
ENDMDL
