MODEL 1
REMARK minimizedAffinity -4.3155303
REMARK minimizedRMSD -1
REMARK  0 active torsions:
REMARK  status: ('A' for Active; 'I' for Inactive)
ROOT
ATOM      1  O1  BZF d   1       1.604  -1.156   0.808  0.00  0.00    -0.204 OA
ATOM      2  C2  BZF d   1       1.487  -1.023  -0.562  0.00  0.00     0.174 A 
ATOM      3  C3  BZF d   1       0.307  -0.458  -0.889  0.00  0.00    -0.012 A 
ATOM      4  C3A BZF d   1      -0.316  -0.140   0.359  0.00  0.00    -0.107 A 
ATOM      5  C4  BZF d   1      -1.500   0.453   0.693  0.00  0.00     0.055 A 
ATOM      6  C5  BZF d   1      -1.844   0.549   2.005  0.00  0.00    -0.016 A 
ATOM      7  C6  BZF d   1      -1.031   0.060   3.006  0.00  0.00     0.022 A 
ATOM      8  C7  BZF d   1       0.156  -0.531   2.724  0.00  0.00     0.029 A 
ATOM      9  C7A BZF d   1       0.521  -0.601   1.402  0.00  0.00     0.058 A 
ENDROOT
TORSDOF 0
ENDMDL
