MODEL 1
REMARK minimizedAffinity -3.61712646
REMARK minimizedRMSD -1
REMARK  0 active torsions:
REMARK  status: ('A' for Active; 'I' for Inactive)
ROOT
ATOM      1  O1  BZF d   1       1.473  -0.618   1.101  0.00  0.00    -0.204 OA
ATOM      2  C2  BZF d   1       1.423  -1.124  -0.183  0.00  0.00     0.174 A 
ATOM      3  C3  BZF d   1       0.273  -0.771  -0.793  0.00  0.00    -0.012 A 
ATOM      4  C3A BZF d   1      -0.399   0.083   0.138  0.00  0.00    -0.107 A 
ATOM      5  C4  BZF d   1      -1.583   0.763   0.102  0.00  0.00     0.055 A 
ATOM      6  C5  BZF d   1      -1.985   1.447   1.205  0.00  0.00    -0.016 A 
ATOM      7  C6  BZF d   1      -1.232   1.469   2.361  0.00  0.00     0.022 A 
ATOM      8  C7  BZF d   1      -0.048   0.814   2.442  0.00  0.00     0.029 A 
ATOM      9  C7A BZF d   1       0.377   0.148   1.318  0.00  0.00     0.058 A 
ENDROOT
TORSDOF 0
ENDMDL
