MODEL 1
REMARK minimizedAffinity -3.81810164
REMARK minimizedRMSD -1
REMARK  0 active torsions:
REMARK  status: ('A' for Active; 'I' for Inactive)
ROOT
ATOM      1  O1  BZF d   1       0.693   1.237  -0.702  0.00  0.00    -0.204 OA
ATOM      2  C2  BZF d   1       0.604  -0.029  -1.249  0.00  0.00     0.174 A 
ATOM      3  C3  BZF d   1      -0.166  -0.828  -0.483  0.00  0.00    -0.012 A 
ATOM      4  C3A BZF d   1      -0.659   0.015   0.563  0.00  0.00    -0.107 A 
ATOM      5  C4  BZF d   1      -1.489  -0.197   1.627  0.00  0.00     0.055 A 
ATOM      6  C5  BZF d   1      -1.712   0.818   2.503  0.00  0.00    -0.016 A 
ATOM      7  C6  BZF d   1      -1.120   2.055   2.347  0.00  0.00     0.022 A 
ATOM      8  C7  BZF d   1      -0.294   2.314   1.304  0.00  0.00     0.029 A 
ATOM      9  C7A BZF d   1      -0.092   1.300   0.400  0.00  0.00     0.058 A 
ENDROOT
TORSDOF 0
ENDMDL
