MODEL 1
REMARK minimizedAffinity -0.228271693
REMARK minimizedRMSD -1
REMARK  2 active torsions:
REMARK  status: ('A' for Active; 'I' for Inactive)
REMARK    1  A    between atoms: C1_2  and  C2_3 
REMARK    2  A    between atoms: C2_3  and  C3_4 
ROOT
ATOM      1  C3  UNL d   1       1.687   3.867   3.382  0.00  0.00    -0.075 A 
ATOM      2  C4  UNL d   1       2.533   4.694   4.136  0.00  0.00     0.002 A 
ATOM      3  C5  UNL d   1       2.009   5.751   4.881  0.00  0.00     0.002 A 
ATOM      4  C6  UNL d   1       0.639   6.000   4.876  0.00  0.00    -0.004 A 
ATOM      5  C7  UNL d   1      -0.209   5.194   4.118  0.00  0.00     0.002 A 
ATOM      6  C8  UNL d   1       0.312   4.134   3.374  0.00  0.00     0.002 A 
ENDROOT
BRANCH   1   7
ATOM      7  C2  UNL d   1       2.244   2.704   2.596  0.00  0.00     0.056 C 
BRANCH   7   8
ATOM      8  C1  UNL d   1       3.572   3.005   1.894  0.00  0.00     0.007 C 
ATOM      9  C   UNL d   1       4.132   1.812   1.130  0.00  0.00     0.009 C 
ENDBRANCH   7   8
ENDBRANCH   1   7
TORSDOF 2
ENDMDL
