MODEL 1
REMARK minimizedAffinity 3.04056597
REMARK minimizedRMSD -1
REMARK  2 active torsions:
REMARK  status: ('A' for Active; 'I' for Inactive)
REMARK    1  A    between atoms: C1_2  and  C2_3 
REMARK    2  A    between atoms: C2_3  and  C3_4 
ROOT
ATOM      1  C3  UNL d   1       2.685   4.291   4.043  0.00  0.00    -0.075 A 
ATOM      2  C4  UNL d   1       3.412   4.883   5.086  0.00  0.00     0.002 A 
ATOM      3  C5  UNL d   1       2.780   5.728   5.999  0.00  0.00     0.002 A 
ATOM      4  C6  UNL d   1       1.419   6.000   5.874  0.00  0.00    -0.004 A 
ATOM      5  C7  UNL d   1       0.691   5.431   4.832  0.00  0.00     0.002 A 
ATOM      6  C8  UNL d   1       1.320   4.581   3.920  0.00  0.00     0.002 A 
ENDROOT
BRANCH   1   7
ATOM      7  C2  UNL d   1       3.357   3.352   3.069  0.00  0.00     0.056 C 
BRANCH   7   8
ATOM      8  C1  UNL d   1       2.828   3.458   1.635  0.00  0.00     0.007 C 
ATOM      9  C   UNL d   1       3.702   2.736   0.618  0.00  0.00     0.009 C 
ENDBRANCH   7   8
ENDBRANCH   1   7
TORSDOF 2
ENDMDL
