MODEL 1
REMARK minimizedAffinity 3.68212414
REMARK minimizedRMSD -1
REMARK  2 active torsions:
REMARK  status: ('A' for Active; 'I' for Inactive)
REMARK    1  A    between atoms: C1_2  and  C2_3 
REMARK    2  A    between atoms: C2_3  and  C3_4 
ROOT
ATOM      1  C3  UNL d   1       3.067   4.949   3.473  0.00  0.00    -0.075 A 
ATOM      2  C4  UNL d   1       1.666   4.876   3.447  0.00  0.00     0.002 A 
ATOM      3  C5  UNL d   1       0.912   5.369   4.513  0.00  0.00     0.002 A 
ATOM      4  C6  UNL d   1       1.547   5.931   5.618  0.00  0.00    -0.004 A 
ATOM      5  C7  UNL d   1       2.938   5.994   5.661  0.00  0.00     0.002 A 
ATOM      6  C8  UNL d   1       3.695   5.505   4.595  0.00  0.00     0.002 A 
ENDROOT
BRANCH   1   7
ATOM      7  C2  UNL d   1       3.888   4.444   2.310  0.00  0.00     0.056 C 
BRANCH   7   8
ATOM      8  C1  UNL d   1       3.261   3.256   1.573  0.00  0.00     0.007 C 
ATOM      9  C   UNL d   1       4.262   2.474   0.734  0.00  0.00     0.009 C 
ENDBRANCH   7   8
ENDBRANCH   1   7
TORSDOF 2
ENDMDL
