MODEL 1
REMARK minimizedAffinity 13.7483692
REMARK minimizedRMSD -1
REMARK  2 active torsions:
REMARK  status: ('A' for Active; 'I' for Inactive)
REMARK    1  A    between atoms: C1_2  and  C2_3 
REMARK    2  A    between atoms: C2_3  and  C3_4 
ROOT
ATOM      1  C3  UNL d   1      -3.713   0.964   1.283  0.00  0.00    -0.075 A 
ATOM      2  C4  UNL d   1      -3.402   1.619   0.083  0.00  0.00     0.002 A 
ATOM      3  C5  UNL d   1      -2.620   0.990  -0.886  0.00  0.00     0.002 A 
ATOM      4  C6  UNL d   1      -2.130  -0.295  -0.663  0.00  0.00    -0.004 A 
ATOM      5  C7  UNL d   1      -2.419  -0.949   0.533  0.00  0.00     0.002 A 
ATOM      6  C8  UNL d   1      -3.205  -0.324   1.502  0.00  0.00     0.002 A 
ENDROOT
BRANCH   1   7
ATOM      7  C2  UNL d   1      -4.584   1.628   2.323  0.00  0.00     0.056 C 
BRANCH   7   8
ATOM      8  C1  UNL d   1      -4.310   1.161   3.756  0.00  0.00     0.007 C 
ATOM      9  C   UNL d   1      -2.869   1.387   4.196  0.00  0.00     0.009 C 
ENDBRANCH   7   8
ENDBRANCH   1   7
TORSDOF 2
ENDMDL
