MODEL 1
REMARK minimizedAffinity 13.0188589
REMARK minimizedRMSD -1
REMARK  2 active torsions:
REMARK  status: ('A' for Active; 'I' for Inactive)
REMARK    1  A    between atoms: C1_2  and  C2_3 
REMARK    2  A    between atoms: C2_3  and  C3_4 
ROOT
ATOM      1  C3  UNL d   1       3.402   3.846   4.067  0.00  0.00    -0.075 A 
ATOM      2  C4  UNL d   1       2.632   4.192   5.187  0.00  0.00     0.002 A 
ATOM      3  C5  UNL d   1       3.003   5.266   5.997  0.00  0.00     0.002 A 
ATOM      4  C6  UNL d   1       4.150   6.000   5.704  0.00  0.00    -0.004 A 
ATOM      5  C7  UNL d   1       4.931   5.655   4.602  0.00  0.00     0.002 A 
ATOM      6  C8  UNL d   1       4.560   4.584   3.788  0.00  0.00     0.002 A 
ENDROOT
BRANCH   1   7
ATOM      7  C2  UNL d   1       2.990   2.704   3.169  0.00  0.00     0.056 C 
BRANCH   7   8
ATOM      8  C1  UNL d   1       2.968   3.058   1.679  0.00  0.00     0.007 C 
ATOM      9  C   UNL d   1       4.090   2.397   0.888  0.00  0.00     0.009 C 
ENDBRANCH   7   8
ENDBRANCH   1   7
TORSDOF 2
ENDMDL
