MODEL 1
REMARK minimizedAffinity 1.95739889
REMARK minimizedRMSD -1
REMARK  2 active torsions:
REMARK  status: ('A' for Active; 'I' for Inactive)
REMARK    1  A    between atoms: C1_2  and  C2_3 
REMARK    2  A    between atoms: C2_3  and  C3_4 
ROOT
ATOM      1  C3  UNL d   1       4.164  -3.665   2.308  0.00  0.00    -0.075 A 
ATOM      2  C4  UNL d   1       4.833  -4.173   1.185  0.00  0.00     0.002 A 
ATOM      3  C5  UNL d   1       4.435  -3.808  -0.102  0.00  0.00     0.002 A 
ATOM      4  C6  UNL d   1       3.360  -2.941  -0.282  0.00  0.00    -0.004 A 
ATOM      5  C7  UNL d   1       2.678  -2.443   0.826  0.00  0.00     0.002 A 
ATOM      6  C8  UNL d   1       3.076  -2.803   2.114  0.00  0.00     0.002 A 
ENDROOT
BRANCH   1   7
ATOM      7  C2  UNL d   1       4.608  -4.033   3.703  0.00  0.00     0.056 C 
BRANCH   7   8
ATOM      8  C1  UNL d   1       4.938  -2.829   4.591  0.00  0.00     0.007 C 
ATOM      9  C   UNL d   1       5.399  -3.221   5.989  0.00  0.00     0.009 C 
ENDBRANCH   7   8
ENDBRANCH   1   7
TORSDOF 2
ENDMDL
