MODEL 1
REMARK minimizedAffinity 3.47353458
REMARK minimizedRMSD -1
REMARK  2 active torsions:
REMARK  status: ('A' for Active; 'I' for Inactive)
REMARK    1  A    between atoms: C1_2  and  C2_3 
REMARK    2  A    between atoms: C2_3  and  C3_4 
ROOT
ATOM      1  C3  UNL d   1       2.054   4.502   3.768  0.00  0.00    -0.075 A 
ATOM      2  C4  UNL d   1       0.714   4.712   3.411  0.00  0.00     0.002 A 
ATOM      3  C5  UNL d   1      -0.130   5.454   4.237  0.00  0.00     0.002 A 
ATOM      4  C6  UNL d   1       0.349   5.987   5.431  0.00  0.00    -0.004 A 
ATOM      5  C7  UNL d   1       1.674   5.771   5.804  0.00  0.00     0.002 A 
ATOM      6  C8  UNL d   1       2.523   5.032   4.977  0.00  0.00     0.002 A 
ENDROOT
BRANCH   1   7
ATOM      7  C2  UNL d   1       2.982   3.725   2.865  0.00  0.00     0.056 C 
BRANCH   7   8
ATOM      8  C1  UNL d   1       3.008   4.227   1.417  0.00  0.00     0.007 C 
ATOM      9  C   UNL d   1       3.687   3.258   0.458  0.00  0.00     0.009 C 
ENDBRANCH   7   8
ENDBRANCH   1   7
TORSDOF 2
ENDMDL
