MODEL 1
REMARK minimizedAffinity -4.28656483
REMARK minimizedRMSD -1
REMARK  0 active torsions:
REMARK  status: ('A' for Active; 'I' for Inactive)
ROOT
ATOM      1  C1  BNZ d   1       2.730   0.046   1.129  0.00  0.00     0.000 A 
ATOM      2  C2  BNZ d   1       1.537   0.003   0.459  0.00  0.00     0.000 A 
ATOM      3  C3  BNZ d   1       0.806  -1.152   0.404  0.00  0.00     0.000 A 
ATOM      4  C4  BNZ d   1       1.289  -2.270   0.984  0.00  0.00     0.000 A 
ATOM      5  C5  BNZ d   1       2.495  -2.244   1.655  0.00  0.00     0.000 A 
ATOM      6  C6  BNZ d   1       3.208  -1.071   1.742  0.00  0.00     0.000 A 
ENDROOT
TORSDOF 0
ENDMDL
