MODEL 1
REMARK minimizedAffinity -4.76861668
REMARK minimizedRMSD -1
REMARK  0 active torsions:
REMARK  status: ('A' for Active; 'I' for Inactive)
ROOT
ATOM      1  C1  BNZ d   1       1.155   1.294   0.808  0.00  0.00     0.000 A 
ATOM      2  C2  BNZ d   1       0.184   0.353   0.593  0.00  0.00     0.000 A 
ATOM      3  C3  BNZ d   1       0.472  -0.981   0.672  0.00  0.00     0.000 A 
ATOM      4  C4  BNZ d   1       1.738  -1.372   0.925  0.00  0.00     0.000 A 
ATOM      5  C5  BNZ d   1       2.730  -0.436   1.134  0.00  0.00     0.000 A 
ATOM      6  C6  BNZ d   1       2.428   0.906   1.093  0.00  0.00     0.000 A 
ENDROOT
TORSDOF 0
ENDMDL
