MODEL 1
REMARK minimizedAffinity -5.29152632
REMARK minimizedRMSD -1
REMARK  0 active torsions:
REMARK  status: ('A' for Active; 'I' for Inactive)
ROOT
ATOM      1  C1  BNZ d   1       2.448  -2.067   1.731  0.00  0.00     0.000 A 
ATOM      2  C2  BNZ d   1       1.126  -1.987   1.381  0.00  0.00     0.000 A 
ATOM      3  C3  BNZ d   1       0.644  -0.896   0.713  0.00  0.00     0.000 A 
ATOM      4  C4  BNZ d   1       1.474   0.129   0.431  0.00  0.00     0.000 A 
ATOM      5  C5  BNZ d   1       2.807   0.067   0.786  0.00  0.00     0.000 A 
ATOM      6  C6  BNZ d   1       3.297  -1.049   1.423  0.00  0.00     0.000 A 
ENDROOT
TORSDOF 0
ENDMDL
