MODEL 1
REMARK minimizedAffinity -5.24411535
REMARK minimizedRMSD -1
REMARK  0 active torsions:
REMARK  status: ('A' for Active; 'I' for Inactive)
ROOT
ATOM      1  C1  BNZ d   1       2.874  -1.346   1.249  0.00  0.00     0.000 A 
ATOM      2  C2  BNZ d   1       2.897  -0.072   0.747  0.00  0.00     0.000 A 
ATOM      3  C3  BNZ d   1       1.741   0.557   0.380  0.00  0.00     0.000 A 
ATOM      4  C4  BNZ d   1       0.568  -0.103   0.476  0.00  0.00     0.000 A 
ATOM      5  C5  BNZ d   1       0.529  -1.391   0.971  0.00  0.00     0.000 A 
ATOM      6  C6  BNZ d   1       1.691  -2.007   1.377  0.00  0.00     0.000 A 
ENDROOT
TORSDOF 0
ENDMDL
