MODEL 1
REMARK minimizedAffinity -3.76369166
REMARK minimizedRMSD -1
REMARK  0 active torsions:
REMARK  status: ('A' for Active; 'I' for Inactive)
ROOT
ATOM      1  C1  BNZ d   1       0.652   1.341   0.253  0.00  0.00     0.000 A 
ATOM      2  C2  BNZ d   1       2.013   1.257   0.381  0.00  0.00     0.000 A 
ATOM      3  C3  BNZ d   1       2.636   0.042   0.441  0.00  0.00     0.000 A 
ATOM      4  C4  BNZ d   1       1.897  -1.085   0.413  0.00  0.00     0.000 A 
ATOM      5  C5  BNZ d   1       0.523  -1.017   0.294  0.00  0.00     0.000 A 
ATOM      6  C6  BNZ d   1      -0.098   0.207   0.195  0.00  0.00     0.000 A 
ENDROOT
TORSDOF 0
ENDMDL
