MODEL 1
REMARK minimizedAffinity -5.48738003
REMARK minimizedRMSD -1
REMARK  0 active torsions:
REMARK  status: ('A' for Active; 'I' for Inactive)
ROOT
ATOM      1  C1  BNZ d   1       2.450  -1.710   2.006  0.00  0.00     0.000 A 
ATOM      2  C2  BNZ d   1       3.358  -0.820   1.498  0.00  0.00     0.000 A 
ATOM      3  C3  BNZ d   1       2.979   0.118   0.579  0.00  0.00     0.000 A 
ATOM      4  C4  BNZ d   1       1.705   0.139   0.139  0.00  0.00     0.000 A 
ATOM      5  C5  BNZ d   1       0.780  -0.759   0.634  0.00  0.00     0.000 A 
ATOM      6  C6  BNZ d   1       1.155  -1.676   1.588  0.00  0.00     0.000 A 
ENDROOT
TORSDOF 0
ENDMDL
