MODEL 1
REMARK minimizedAffinity -3.61718106
REMARK minimizedRMSD -1
REMARK  0 active torsions:
REMARK  status: ('A' for Active; 'I' for Inactive)
ROOT
ATOM      1  C1  BNZ d   1      -2.393  -1.279  -2.095  0.00  0.00     0.000 A 
ATOM      2  C2  BNZ d   1      -2.784  -1.184  -3.404  0.00  0.00     0.000 A 
ATOM      3  C3  BNZ d   1      -2.793   0.022  -4.046  0.00  0.00     0.000 A 
ATOM      4  C4  BNZ d   1      -2.450   1.137  -3.368  0.00  0.00     0.000 A 
ATOM      5  C5  BNZ d   1      -2.063   1.058  -2.045  0.00  0.00     0.000 A 
ATOM      6  C6  BNZ d   1      -2.017  -0.163  -1.414  0.00  0.00     0.000 A 
ENDROOT
TORSDOF 0
ENDMDL
