MODEL 1
REMARK minimizedAffinity -4.21982384
REMARK minimizedRMSD -1
REMARK  0 active torsions:
REMARK  status: ('A' for Active; 'I' for Inactive)
ROOT
ATOM      1  C1  BNZ d   1      -0.016  -1.044   0.796  0.00  0.00     0.000 A 
ATOM      2  C2  BNZ d   1       0.946  -0.075   0.690  0.00  0.00     0.000 A 
ATOM      3  C3  BNZ d   1       2.119  -0.174   1.385  0.00  0.00     0.000 A 
ATOM      4  C4  BNZ d   1       2.312  -1.220   2.214  0.00  0.00     0.000 A 
ATOM      5  C5  BNZ d   1       1.348  -2.200   2.339  0.00  0.00     0.000 A 
ATOM      6  C6  BNZ d   1       0.185  -2.117   1.609  0.00  0.00     0.000 A 
ENDROOT
TORSDOF 0
ENDMDL
