MODEL 1
REMARK minimizedAffinity -4.90088034
REMARK minimizedRMSD -1
REMARK  0 active torsions:
REMARK  status: ('A' for Active; 'I' for Inactive)
ROOT
ATOM      1  C1  BNZ d   1      -0.070   1.186   0.180  0.00  0.00     0.000 A 
ATOM      2  C2  BNZ d   1       1.204   1.649   0.378  0.00  0.00     0.000 A 
ATOM      3  C3  BNZ d   1       2.183   0.822   0.854  0.00  0.00     0.000 A 
ATOM      4  C4  BNZ d   1       1.878  -0.453   1.171  0.00  0.00     0.000 A 
ATOM      5  C5  BNZ d   1       0.596  -0.932   0.986  0.00  0.00     0.000 A 
ATOM      6  C6  BNZ d   1      -0.377  -0.107   0.470  0.00  0.00     0.000 A 
ENDROOT
TORSDOF 0
ENDMDL
