MODEL 1
REMARK minimizedAffinity -0.39754346
REMARK minimizedRMSD -1
REMARK  0 active torsions:
REMARK  status: ('A' for Active; 'I' for Inactive)
ROOT
ATOM      1  C   UNL d   1      -1.847  -0.996   3.959  0.00  0.00     0.077 C 
ATOM      2  C1  UNL d   1      -0.956  -0.359   2.934  0.00  0.00    -0.074 A 
ATOM      3  C2  UNL d   1       0.337   0.058   3.265  0.00  0.00    -0.005 A 
ATOM      4  C3  UNL d   1       1.157   0.640   2.298  0.00  0.00     0.006 A 
ATOM      5  C4  UNL d   1       0.693   0.810   0.993  0.00  0.00    -0.005 A 
ATOM      6  C5  UNL d   1      -0.596   0.398   0.643  0.00  0.00    -0.074 A 
ATOM      7  C6  UNL d   1      -1.107   0.565  -0.757  0.00  0.00     0.077 C 
ATOM      8  C7  UNL d   1      -1.412  -0.192   1.618  0.00  0.00    -0.001 A 
ENDROOT
TORSDOF 0
ENDMDL
