MODEL 1
REMARK minimizedAffinity 6.99259663
REMARK minimizedRMSD -1
REMARK  0 active torsions:
REMARK  status: ('A' for Active; 'I' for Inactive)
ROOT
ATOM      1  C   UNL d   1      -1.681  -0.102  -0.131  0.00  0.00     0.077 C 
ATOM      2  C1  UNL d   1      -1.387  -0.403   1.309  0.00  0.00    -0.074 A 
ATOM      3  C2  UNL d   1      -1.719  -1.641   1.867  0.00  0.00    -0.005 A 
ATOM      4  C3  UNL d   1      -1.430  -1.910   3.205  0.00  0.00     0.006 A 
ATOM      5  C4  UNL d   1      -0.809  -0.944   3.997  0.00  0.00    -0.005 A 
ATOM      6  C5  UNL d   1      -0.469   0.300   3.456  0.00  0.00    -0.074 A 
ATOM      7  C6  UNL d   1       0.208   1.346   4.291  0.00  0.00     0.077 C 
ATOM      8  C7  UNL d   1      -0.756   0.560   2.109  0.00  0.00    -0.001 A 
ENDROOT
TORSDOF 0
ENDMDL
