MODEL 1
REMARK minimizedAffinity -2.40070891
REMARK minimizedRMSD -1
REMARK  0 active torsions:
REMARK  status: ('A' for Active; 'I' for Inactive)
ROOT
ATOM      1  C   UNL d   1      -3.678   0.105   0.638  0.00  0.00     0.077 C 
ATOM      2  C1  UNL d   1      -2.576   0.015   1.651  0.00  0.00    -0.074 A 
ATOM      3  C2  UNL d   1      -2.854   0.063   3.021  0.00  0.00    -0.005 A 
ATOM      4  C3  UNL d   1      -1.819  -0.032   3.952  0.00  0.00     0.006 A 
ATOM      5  C4  UNL d   1      -0.499  -0.176   3.523  0.00  0.00    -0.005 A 
ATOM      6  C5  UNL d   1      -0.203  -0.227   2.158  0.00  0.00    -0.074 A 
ATOM      7  C6  UNL d   1       1.210  -0.391   1.680  0.00  0.00     0.077 C 
ATOM      8  C7  UNL d   1      -1.248  -0.138   1.228  0.00  0.00    -0.001 A 
ENDROOT
TORSDOF 0
ENDMDL
