MODEL 1
REMARK minimizedAffinity 1.17074478
REMARK minimizedRMSD -1
REMARK  0 active torsions:
REMARK  status: ('A' for Active; 'I' for Inactive)
ROOT
ATOM      1  C   UNL d   1       2.015  -0.028   2.549  0.00  0.00     0.077 C 
ATOM      2  C1  UNL d   1       0.564  -0.407   2.555  0.00  0.00    -0.074 A 
ATOM      3  C2  UNL d   1       0.073  -1.357   3.456  0.00  0.00    -0.005 A 
ATOM      4  C3  UNL d   1      -1.281  -1.692   3.456  0.00  0.00     0.006 A 
ATOM      5  C4  UNL d   1      -2.156  -1.082   2.556  0.00  0.00    -0.005 A 
ATOM      6  C5  UNL d   1      -1.683  -0.130   1.648  0.00  0.00    -0.074 A 
ATOM      7  C6  UNL d   1      -2.612   0.542   0.681  0.00  0.00     0.077 C 
ATOM      8  C7  UNL d   1      -0.323   0.207   1.659  0.00  0.00    -0.001 A 
ENDROOT
TORSDOF 0
ENDMDL
