MODEL 1
REMARK minimizedAffinity 1.98124397
REMARK minimizedRMSD -1
REMARK  0 active torsions:
REMARK  status: ('A' for Active; 'I' for Inactive)
ROOT
ATOM      1  C   UNL d   1      -1.778   0.428  -0.828  0.00  0.00     0.077 C 
ATOM      2  C1  UNL d   1      -1.167   0.449   0.541  0.00  0.00    -0.074 A 
ATOM      3  C2  UNL d   1      -0.086   1.287   0.834  0.00  0.00    -0.005 A 
ATOM      4  C3  UNL d   1       0.466   1.302   2.115  0.00  0.00     0.006 A 
ATOM      5  C4  UNL d   1      -0.057   0.481   3.115  0.00  0.00    -0.005 A 
ATOM      6  C5  UNL d   1      -1.138  -0.363   2.841  0.00  0.00    -0.074 A 
ATOM      7  C6  UNL d   1      -1.717  -1.245   3.907  0.00  0.00     0.077 C 
ATOM      8  C7  UNL d   1      -1.691  -0.367   1.553  0.00  0.00    -0.001 A 
ENDROOT
TORSDOF 0
ENDMDL
