MODEL 1
REMARK minimizedAffinity 8.02985477
REMARK minimizedRMSD -1
REMARK  0 active torsions:
REMARK  status: ('A' for Active; 'I' for Inactive)
ROOT
ATOM      1  C   UNL d   1      -1.578  -1.598   3.846  0.00  0.00     0.077 C 
ATOM      2  C1  UNL d   1      -1.135  -0.571   2.846  0.00  0.00    -0.074 A 
ATOM      3  C2  UNL d   1      -0.079   0.301   3.130  0.00  0.00    -0.005 A 
ATOM      4  C3  UNL d   1       0.327   1.244   2.186  0.00  0.00     0.006 A 
ATOM      5  C4  UNL d   1      -0.317   1.325   0.951  0.00  0.00    -0.005 A 
ATOM      6  C5  UNL d   1      -1.375   0.461   0.649  0.00  0.00    -0.074 A 
ATOM      7  C6  UNL d   1      -2.072   0.528  -0.678  0.00  0.00     0.077 C 
ATOM      8  C7  UNL d   1      -1.773  -0.489   1.600  0.00  0.00    -0.001 A 
ENDROOT
TORSDOF 0
ENDMDL
