MODEL 1
REMARK minimizedAffinity -3.69566298
REMARK minimizedRMSD -1
REMARK  0 active torsions:
REMARK  status: ('A' for Active; 'I' for Inactive)
ROOT
ATOM      1  C   UNL d   1       5.999  -0.427   2.672  0.00  0.00     0.077 C 
ATOM      2  C1  UNL d   1       5.938  -1.694   3.472  0.00  0.00    -0.074 A 
ATOM      3  C2  UNL d   1       5.998  -1.666   4.869  0.00  0.00    -0.005 A 
ATOM      4  C3  UNL d   1       5.930  -2.852   5.600  0.00  0.00     0.006 A 
ATOM      5  C4  UNL d   1       5.802  -4.076   4.942  0.00  0.00    -0.005 A 
ATOM      6  C5  UNL d   1       5.740  -4.124   3.546  0.00  0.00    -0.074 A 
ATOM      7  C6  UNL d   1       5.592  -5.430   2.824  0.00  0.00     0.077 C 
ATOM      8  C7  UNL d   1       5.801  -2.927   2.819  0.00  0.00    -0.001 A 
ENDROOT
TORSDOF 0
ENDMDL
