MODEL 1
REMARK minimizedAffinity -1.18823659
REMARK minimizedRMSD -1
REMARK  0 active torsions:
REMARK  status: ('A' for Active; 'I' for Inactive)
ROOT
ATOM      1  C   UNL d   1       5.999   3.706  -4.874  0.00  0.00     0.077 C 
ATOM      2  C1  UNL d   1       4.631   3.982  -4.326  0.00  0.00    -0.074 A 
ATOM      3  C2  UNL d   1       3.738   4.815  -5.007  0.00  0.00    -0.005 A 
ATOM      4  C3  UNL d   1       2.465   5.054  -4.490  0.00  0.00     0.006 A 
ATOM      5  C4  UNL d   1       2.073   4.465  -3.288  0.00  0.00    -0.005 A 
ATOM      6  C5  UNL d   1       2.952   3.628  -2.592  0.00  0.00    -0.074 A 
ATOM      7  C6  UNL d   1       2.543   2.978  -1.304  0.00  0.00     0.077 C 
ATOM      8  C7  UNL d   1       4.227   3.387  -3.122  0.00  0.00    -0.001 A 
ENDROOT
TORSDOF 0
ENDMDL
