MODEL 1
REMARK minimizedAffinity 16.172102
REMARK minimizedRMSD -1
REMARK  0 active torsions:
REMARK  status: ('A' for Active; 'I' for Inactive)
ROOT
ATOM      1  C   UNL d   1       0.696   5.183  -4.494  0.00  0.00     0.077 C 
ATOM      2  C1  UNL d   1       1.752   4.199  -4.905  0.00  0.00    -0.074 A 
ATOM      3  C2  UNL d   1       1.418   3.042  -5.616  0.00  0.00    -0.005 A 
ATOM      4  C3  UNL d   1       2.412   2.142  -6.000  0.00  0.00     0.006 A 
ATOM      5  C4  UNL d   1       3.746   2.388  -5.675  0.00  0.00    -0.005 A 
ATOM      6  C5  UNL d   1       4.099   3.540  -4.965  0.00  0.00    -0.074 A 
ATOM      7  C6  UNL d   1       5.530   3.825  -4.617  0.00  0.00     0.077 C 
ATOM      8  C7  UNL d   1       3.096   4.444  -4.590  0.00  0.00    -0.001 A 
ENDROOT
TORSDOF 0
ENDMDL
