MODEL 1
REMARK minimizedAffinity 2.85483932
REMARK minimizedRMSD -1
REMARK  0 active torsions:
REMARK  status: ('A' for Active; 'I' for Inactive)
ROOT
ATOM      1  C   UNL d   1      -3.545  -1.471   5.444  0.00  0.00     0.077 C 
ATOM      2  C1  UNL d   1      -2.382  -0.806   4.770  0.00  0.00    -0.074 A 
ATOM      3  C2  UNL d   1      -1.301  -1.556   4.296  0.00  0.00    -0.005 A 
ATOM      4  C3  UNL d   1      -0.230  -0.924   3.663  0.00  0.00     0.006 A 
ATOM      5  C4  UNL d   1      -0.230   0.462   3.498  0.00  0.00    -0.005 A 
ATOM      6  C5  UNL d   1      -1.302   1.228   3.965  0.00  0.00    -0.074 A 
ATOM      7  C6  UNL d   1      -1.322   2.717   3.788  0.00  0.00     0.077 C 
ATOM      8  C7  UNL d   1      -2.377   0.585   4.594  0.00  0.00    -0.001 A 
ENDROOT
TORSDOF 0
ENDMDL
