MODEL 1
REMARK minimizedAffinity 5.26608467
REMARK minimizedRMSD -1
REMARK  0 active torsions:
REMARK  status: ('A' for Active; 'I' for Inactive)
ROOT
ATOM      1  C   UNL d   1       0.061   0.058   3.289  0.00  0.00     0.077 C 
ATOM      2  C1  UNL d   1      -1.173   0.266   2.462  0.00  0.00    -0.074 A 
ATOM      3  C2  UNL d   1      -2.331   0.814   3.024  0.00  0.00    -0.005 A 
ATOM      4  C3  UNL d   1      -3.468   1.010   2.240  0.00  0.00     0.006 A 
ATOM      5  C4  UNL d   1      -3.459   0.660   0.889  0.00  0.00    -0.005 A 
ATOM      6  C5  UNL d   1      -2.310   0.111   0.310  0.00  0.00    -0.074 A 
ATOM      7  C6  UNL d   1      -2.280  -0.262  -1.142  0.00  0.00     0.077 C 
ATOM      8  C7  UNL d   1      -1.169  -0.076   1.103  0.00  0.00    -0.001 A 
ENDROOT
TORSDOF 0
ENDMDL
