MODEL 1
REMARK minimizedAffinity 2.19422269
REMARK minimizedRMSD -1
REMARK  0 active torsions:
REMARK  status: ('A' for Active; 'I' for Inactive)
ROOT
ATOM      1  C   UNL d   1      -3.151   0.074   1.084  0.00  0.00     0.077 C 
ATOM      2  C1  UNL d   1      -2.263  -0.379   2.205  0.00  0.00    -0.074 A 
ATOM      3  C2  UNL d   1      -2.784  -0.634   3.477  0.00  0.00    -0.005 A 
ATOM      4  C3  UNL d   1      -1.947  -1.065   4.507  0.00  0.00     0.006 A 
ATOM      5  C4  UNL d   1      -0.583  -1.244   4.275  0.00  0.00    -0.005 A 
ATOM      6  C5  UNL d   1      -0.044  -0.995   3.008  0.00  0.00    -0.074 A 
ATOM      7  C6  UNL d   1       1.418  -1.192   2.740  0.00  0.00     0.077 C 
ATOM      8  C7  UNL d   1      -0.892  -0.569   1.977  0.00  0.00    -0.001 A 
ENDROOT
TORSDOF 0
ENDMDL
