MODEL 1
REMARK minimizedAffinity 6.80686522
REMARK minimizedRMSD -1
REMARK  0 active torsions:
REMARK  status: ('A' for Active; 'I' for Inactive)
ROOT
ATOM      1  C   UNL d   1       0.142  -3.133   3.398  0.00  0.00     0.077 C 
ATOM      2  C1  UNL d   1      -0.339  -1.765   3.015  0.00  0.00    -0.074 A 
ATOM      3  C2  UNL d   1       0.344  -0.619   3.434  0.00  0.00    -0.005 A 
ATOM      4  C3  UNL d   1      -0.110   0.646   3.063  0.00  0.00     0.006 A 
ATOM      5  C4  UNL d   1      -1.250   0.778   2.269  0.00  0.00    -0.005 A 
ATOM      6  C5  UNL d   1      -1.946  -0.356   1.840  0.00  0.00    -0.074 A 
ATOM      7  C6  UNL d   1      -3.168  -0.233   0.979  0.00  0.00     0.077 C 
ATOM      8  C7  UNL d   1      -1.479  -1.625   2.212  0.00  0.00    -0.001 A 
ENDROOT
TORSDOF 0
ENDMDL
