MODEL 1
REMARK minimizedAffinity 4.32907295
REMARK minimizedRMSD -1
REMARK  0 active torsions:
REMARK  status: ('A' for Active; 'I' for Inactive)
ROOT
ATOM      1  C   UNL d   1       1.429  -0.662   3.761  0.00  0.00     0.077 C 
ATOM      2  C1  UNL d   1       0.060  -0.734   3.154  0.00  0.00    -0.074 A 
ATOM      3  C2  UNL d   1      -1.017  -1.268   3.869  0.00  0.00    -0.005 A 
ATOM      4  C3  UNL d   1      -2.287  -1.320   3.295  0.00  0.00     0.006 A 
ATOM      5  C4  UNL d   1      -2.492  -0.840   2.001  0.00  0.00    -0.005 A 
ATOM      6  C5  UNL d   1      -1.428  -0.302   1.270  0.00  0.00    -0.074 A 
ATOM      7  C6  UNL d   1      -1.634   0.227  -0.118  0.00  0.00     0.077 C 
ATOM      8  C7  UNL d   1      -0.157  -0.247   1.857  0.00  0.00    -0.001 A 
ENDROOT
TORSDOF 0
ENDMDL
