MODEL 1
REMARK minimizedAffinity 6.16892576
REMARK minimizedRMSD -1
REMARK  0 active torsions:
REMARK  status: ('A' for Active; 'I' for Inactive)
ROOT
ATOM      1  C   UNL d   1      -0.109   0.451   3.047  0.00  0.00     0.077 C 
ATOM      2  C1  UNL d   1       0.499   0.307   1.684  0.00  0.00    -0.074 A 
ATOM      3  C2  UNL d   1       0.671   1.418   0.852  0.00  0.00    -0.005 A 
ATOM      4  C3  UNL d   1       1.246   1.271  -0.410  0.00  0.00     0.006 A 
ATOM      5  C4  UNL d   1       1.655   0.012  -0.852  0.00  0.00    -0.005 A 
ATOM      6  C5  UNL d   1       1.492  -1.111  -0.035  0.00  0.00    -0.074 A 
ATOM      7  C6  UNL d   1       1.935  -2.469  -0.491  0.00  0.00     0.077 C 
ATOM      8  C7  UNL d   1       0.920  -0.953   1.235  0.00  0.00    -0.001 A 
ENDROOT
TORSDOF 0
ENDMDL
