MODEL 1
REMARK minimizedAffinity 10.1660643
REMARK minimizedRMSD -1
REMARK  0 active torsions:
REMARK  status: ('A' for Active; 'I' for Inactive)
ROOT
ATOM      1  C   UNL d   1      -1.451   0.768   1.864  0.00  0.00     0.077 C 
ATOM      2  C1  UNL d   1      -0.122   1.391   2.172  0.00  0.00    -0.074 A 
ATOM      3  C2  UNL d   1       0.307   1.555   3.493  0.00  0.00    -0.005 A 
ATOM      4  C3  UNL d   1       1.550   2.127   3.763  0.00  0.00     0.006 A 
ATOM      5  C4  UNL d   1       2.375   2.540   2.717  0.00  0.00    -0.005 A 
ATOM      6  C5  UNL d   1       1.964   2.383   1.389  0.00  0.00    -0.074 A 
ATOM      7  C6  UNL d   1       2.843   2.813   0.253  0.00  0.00     0.077 C 
ATOM      8  C7  UNL d   1       0.716   1.801   1.126  0.00  0.00    -0.001 A 
ENDROOT
TORSDOF 0
ENDMDL
