MODEL 1
REMARK minimizedAffinity -2.21237135
REMARK minimizedRMSD -1
REMARK  0 active torsions:
REMARK  status: ('A' for Active; 'I' for Inactive)
ROOT
ATOM      1  C   UNL d   1       0.892  -1.185  -1.434  0.00  0.00     0.124 A 
ATOM      2  C1  UNL d   1       0.371   0.101  -1.396  0.00  0.00     0.062 A 
ATOM      3  C2  UNL d   1      -0.517   0.466  -0.388  0.00  0.00     0.162 A 
ATOM      4  C3  UNL d   1      -0.890  -0.456   0.590  0.00  0.00    -0.034 A 
ATOM      5  C4  UNL d   1      -0.362  -1.748   0.544  0.00  0.00     0.162 A 
ATOM      6  C5  UNL d   1       0.525  -2.108  -0.465  0.00  0.00     0.062 A 
ATOM      7  F   UNL d   1       1.027  -3.351  -0.501  0.00  0.00    -0.097 F 
ATOM      8  F1  UNL d   1      -0.699  -2.659   1.469  0.00  0.00    -0.096 F 
ATOM      9  I   UNL d   1      -2.218   0.087   2.098  0.00  0.00    -0.060 I 
ATOM     10  F2  UNL d   1      -1.005   1.716  -0.376  0.00  0.00    -0.096 F 
ATOM     11  F3  UNL d   1       0.724   0.994  -2.332  0.00  0.00    -0.097 F 
ATOM     12  F4  UNL d   1       1.746  -1.534  -2.405  0.00  0.00    -0.092 F 
ENDROOT
TORSDOF 0
ENDMDL
