MODEL 1
REMARK minimizedAffinity -2.60843325
REMARK minimizedRMSD -1
REMARK  0 active torsions:
REMARK  status: ('A' for Active; 'I' for Inactive)
ROOT
ATOM      1  C   UNL d   1      -0.337  -2.687   0.321  0.00  0.00     0.124 A 
ATOM      2  C1  UNL d   1      -1.182  -1.844   1.029  0.00  0.00     0.062 A 
ATOM      3  C2  UNL d   1      -1.165  -0.473   0.789  0.00  0.00     0.162 A 
ATOM      4  C3  UNL d   1      -0.300   0.063  -0.164  0.00  0.00    -0.034 A 
ATOM      5  C4  UNL d   1       0.548  -0.791  -0.871  0.00  0.00     0.162 A 
ATOM      6  C5  UNL d   1       0.527  -2.160  -0.628  0.00  0.00     0.062 A 
ATOM      7  F   UNL d   1       1.345  -2.973  -1.313  0.00  0.00    -0.097 F 
ATOM      8  F1  UNL d   1       1.392  -0.308  -1.795  0.00  0.00    -0.096 F 
ATOM      9  I   UNL d   1      -0.271   2.113  -0.526  0.00  0.00    -0.060 I 
ATOM     10  F2  UNL d   1      -1.993   0.318   1.488  0.00  0.00    -0.096 F 
ATOM     11  F3  UNL d   1      -2.017  -2.351   1.948  0.00  0.00    -0.097 F 
ATOM     12  F4  UNL d   1      -0.355  -4.006   0.555  0.00  0.00    -0.092 F 
ENDROOT
TORSDOF 0
ENDMDL
