MODEL 1
REMARK minimizedAffinity -0.249945134
REMARK minimizedRMSD -1
REMARK  0 active torsions:
REMARK  status: ('A' for Active; 'I' for Inactive)
ROOT
ATOM      1  C   UNL d   1       0.542   2.293  -0.649  0.00  0.00     0.124 A 
ATOM      2  C1  UNL d   1       0.225   1.397  -1.660  0.00  0.00     0.062 A 
ATOM      3  C2  UNL d   1       0.045   0.047  -1.369  0.00  0.00     0.162 A 
ATOM      4  C3  UNL d   1       0.182  -0.414  -0.060  0.00  0.00    -0.034 A 
ATOM      5  C4  UNL d   1       0.503   0.492   0.952  0.00  0.00     0.162 A 
ATOM      6  C5  UNL d   1       0.681   1.840   0.656  0.00  0.00     0.062 A 
ATOM      7  F   UNL d   1       0.988   2.704   1.634  0.00  0.00    -0.097 F 
ATOM      8  F1  UNL d   1       0.642   0.082   2.221  0.00  0.00    -0.096 F 
ATOM      9  I   UNL d   1      -0.085  -2.431   0.379  0.00  0.00    -0.060 I 
ATOM     10  F2  UNL d   1      -0.261  -0.796  -2.366  0.00  0.00    -0.096 F 
ATOM     11  F3  UNL d   1       0.091   1.831  -2.921  0.00  0.00    -0.097 F 
ATOM     12  F4  UNL d   1       0.715   3.590  -0.931  0.00  0.00    -0.092 F 
ENDROOT
TORSDOF 0
ENDMDL
