MODEL 1
REMARK minimizedAffinity -4.5205164
REMARK minimizedRMSD -1
REMARK  0 active torsions:
REMARK  status: ('A' for Active; 'I' for Inactive)
ROOT
ATOM      1  C   UNL d   1       0.356  -2.573  -0.910  0.00  0.00     0.124 A 
ATOM      2  C1  UNL d   1       0.376  -1.590  -1.890  0.00  0.00     0.062 A 
ATOM      3  C2  UNL d   1       0.338  -0.246  -1.533  0.00  0.00     0.162 A 
ATOM      4  C3  UNL d   1       0.280   0.125  -0.190  0.00  0.00    -0.034 A 
ATOM      5  C4  UNL d   1       0.259  -0.869   0.790  0.00  0.00     0.162 A 
ATOM      6  C5  UNL d   1       0.297  -2.212   0.429  0.00  0.00     0.062 A 
ATOM      7  F   UNL d   1       0.278  -3.160   1.377  0.00  0.00    -0.097 F 
ATOM      8  F1  UNL d   1       0.203  -0.548   2.091  0.00  0.00    -0.096 F 
ATOM      9  I   UNL d   1       0.222   2.135   0.348  0.00  0.00    -0.060 I 
ATOM     10  F2  UNL d   1       0.358   0.683  -2.501  0.00  0.00    -0.096 F 
ATOM     11  F3  UNL d   1       0.432  -1.937  -3.184  0.00  0.00    -0.097 F 
ATOM     12  F4  UNL d   1       0.392  -3.867  -1.256  0.00  0.00    -0.092 F 
ENDROOT
TORSDOF 0
ENDMDL
