MODEL 1
REMARK minimizedAffinity -0.628590763
REMARK minimizedRMSD -1
REMARK  0 active torsions:
REMARK  status: ('A' for Active; 'I' for Inactive)
ROOT
ATOM      1  C   UNL d   1      -0.204  -2.388  -0.165  0.00  0.00     0.124 A 
ATOM      2  C1  UNL d   1       0.528  -1.559  -1.004  0.00  0.00     0.062 A 
ATOM      3  C2  UNL d   1       0.581  -0.189  -0.762  0.00  0.00     0.162 A 
ATOM      4  C3  UNL d   1      -0.099   0.361   0.325  0.00  0.00    -0.034 A 
ATOM      5  C4  UNL d   1      -0.833  -0.479   1.164  0.00  0.00     0.162 A 
ATOM      6  C5  UNL d   1      -0.883  -1.848   0.918  0.00  0.00     0.062 A 
ATOM      7  F   UNL d   1      -1.590  -2.647   1.730  0.00  0.00    -0.097 F 
ATOM      8  F1  UNL d   1      -1.498   0.016   2.218  0.00  0.00    -0.096 F 
ATOM      9  I   UNL d   1      -0.021   2.408   0.690  0.00  0.00    -0.060 I 
ATOM     10  F2  UNL d   1       1.296   0.588  -1.589  0.00  0.00    -0.096 F 
ATOM     11  F3  UNL d   1       1.184  -2.078  -2.051  0.00  0.00    -0.097 F 
ATOM     12  F4  UNL d   1      -0.254  -3.705  -0.400  0.00  0.00    -0.092 F 
ENDROOT
TORSDOF 0
ENDMDL
