MODEL 1
REMARK minimizedAffinity -1.67864001
REMARK minimizedRMSD -1
REMARK  0 active torsions:
REMARK  status: ('A' for Active; 'I' for Inactive)
ROOT
ATOM      1  C   UNL d   1       0.164  -2.059  -0.151  0.00  0.00     0.124 A 
ATOM      2  C1  UNL d   1      -0.661  -1.597   0.865  0.00  0.00     0.062 A 
ATOM      3  C2  UNL d   1      -0.915  -0.235   0.996  0.00  0.00     0.162 A 
ATOM      4  C3  UNL d   1      -0.344   0.676   0.107  0.00  0.00    -0.034 A 
ATOM      5  C4  UNL d   1       0.486   0.204  -0.912  0.00  0.00     0.162 A 
ATOM      6  C5  UNL d   1       0.736  -1.158  -1.038  0.00  0.00     0.062 A 
ATOM      7  F   UNL d   1       1.534  -1.603  -2.020  0.00  0.00    -0.097 F 
ATOM      8  F1  UNL d   1       1.051   1.052  -1.783  0.00  0.00    -0.096 F 
ATOM      9  I   UNL d   1      -0.721   2.714   0.299  0.00  0.00    -0.060 I 
ATOM     10  F2  UNL d   1      -1.716   0.183   1.987  0.00  0.00    -0.096 F 
ATOM     11  F3  UNL d   1      -1.214  -2.465   1.724  0.00  0.00    -0.097 F 
ATOM     12  F4  UNL d   1       0.407  -3.370  -0.274  0.00  0.00    -0.092 F 
ENDROOT
TORSDOF 0
ENDMDL
