MODEL 1
REMARK minimizedAffinity 1.51255202
REMARK minimizedRMSD -1
REMARK  0 active torsions:
REMARK  status: ('A' for Active; 'I' for Inactive)
ROOT
ATOM      1  C   UNL d   1      -0.072  -1.294  -1.013  0.00  0.00     0.124 A 
ATOM      2  C1  UNL d   1      -0.851  -1.060   0.112  0.00  0.00     0.062 A 
ATOM      3  C2  UNL d   1      -0.835   0.188   0.728  0.00  0.00     0.162 A 
ATOM      4  C3  UNL d   1      -0.038   1.213   0.219  0.00  0.00    -0.034 A 
ATOM      5  C4  UNL d   1       0.743   0.971  -0.912  0.00  0.00     0.162 A 
ATOM      6  C5  UNL d   1       0.723  -0.278  -1.524  0.00  0.00     0.062 A 
ATOM      7  F   UNL d   1       1.476  -0.502  -2.611  0.00  0.00    -0.097 F 
ATOM      8  F1  UNL d   1       1.521   1.935  -1.427  0.00  0.00    -0.096 F 
ATOM      9  I   UNL d   1      -0.011   3.081   1.137  0.00  0.00    -0.060 I 
ATOM     10  F2  UNL d   1      -1.597   0.385   1.814  0.00  0.00    -0.096 F 
ATOM     11  F3  UNL d   1      -1.620  -2.040   0.609  0.00  0.00    -0.097 F 
ATOM     12  F4  UNL d   1      -0.089  -2.496  -1.603  0.00  0.00    -0.092 F 
ENDROOT
TORSDOF 0
ENDMDL
