MODEL 1
REMARK minimizedAffinity -2.31006169
REMARK minimizedRMSD -1
REMARK  0 active torsions:
REMARK  status: ('A' for Active; 'I' for Inactive)
ROOT
ATOM      1  C   UNL d   1       0.876   4.939   2.560  0.00  0.00     0.124 A 
ATOM      2  C1  UNL d   1      -0.294   4.206   2.707  0.00  0.00     0.062 A 
ATOM      3  C2  UNL d   1      -0.541   3.110   1.886  0.00  0.00     0.162 A 
ATOM      4  C3  UNL d   1       0.384   2.739   0.909  0.00  0.00    -0.034 A 
ATOM      5  C4  UNL d   1       1.557   3.481   0.766  0.00  0.00     0.162 A 
ATOM      6  C5  UNL d   1       1.800   4.576   1.590  0.00  0.00     0.062 A 
ATOM      7  F   UNL d   1       2.930   5.283   1.446  0.00  0.00    -0.097 F 
ATOM      8  F1  UNL d   1       2.468   3.153  -0.162  0.00  0.00    -0.096 F 
ATOM      9  I   UNL d   1       0.018   1.101  -0.321  0.00  0.00    -0.060 I 
ATOM     10  F2  UNL d   1      -1.679   2.419   2.050  0.00  0.00    -0.096 F 
ATOM     11  F3  UNL d   1      -1.188   4.554   3.643  0.00  0.00    -0.097 F 
ATOM     12  F4  UNL d   1       1.111   5.993   3.351  0.00  0.00    -0.092 F 
ENDROOT
TORSDOF 0
ENDMDL
