MODEL 1
REMARK minimizedAffinity -0.292149484
REMARK minimizedRMSD -1
REMARK  0 active torsions:
REMARK  status: ('A' for Active; 'I' for Inactive)
ROOT
ATOM      1  C   UNL d   1      -0.003  -2.464  -0.655  0.00  0.00     0.124 A 
ATOM      2  C1  UNL d   1       0.057  -1.534  -1.684  0.00  0.00     0.062 A 
ATOM      3  C2  UNL d   1       0.269  -0.188  -1.401  0.00  0.00     0.162 A 
ATOM      4  C3  UNL d   1       0.424   0.237  -0.082  0.00  0.00    -0.034 A 
ATOM      5  C4  UNL d   1       0.362  -0.703   0.949  0.00  0.00     0.162 A 
ATOM      6  C5  UNL d   1       0.149  -2.047   0.660  0.00  0.00     0.062 A 
ATOM      7  F   UNL d   1       0.092  -2.943   1.656  0.00  0.00    -0.097 F 
ATOM      8  F1  UNL d   1       0.506  -0.328   2.228  0.00  0.00    -0.096 F 
ATOM      9  I   UNL d   1       0.742   2.249   0.346  0.00  0.00    -0.060 I 
ATOM     10  F2  UNL d   1       0.323   0.687  -2.416  0.00  0.00    -0.096 F 
ATOM     11  F3  UNL d   1      -0.090  -1.934  -2.956  0.00  0.00    -0.097 F 
ATOM     12  F4  UNL d   1      -0.208  -3.758  -0.930  0.00  0.00    -0.092 F 
ENDROOT
TORSDOF 0
ENDMDL
