MODEL 1
REMARK minimizedAffinity -2.60653114
REMARK minimizedRMSD -1
REMARK  0 active torsions:
REMARK  status: ('A' for Active; 'I' for Inactive)
ROOT
ATOM      1  C   UNL d   1       0.501  -2.695  -1.331  0.00  0.00     0.124 A 
ATOM      2  C1  UNL d   1       0.501  -2.372   0.019  0.00  0.00     0.062 A 
ATOM      3  C2  UNL d   1       0.392  -1.043   0.420  0.00  0.00     0.162 A 
ATOM      4  C3  UNL d   1       0.281  -0.028  -0.530  0.00  0.00    -0.034 A 
ATOM      5  C4  UNL d   1       0.283  -0.361  -1.886  0.00  0.00     0.162 A 
ATOM      6  C5  UNL d   1       0.392  -1.690  -2.282  0.00  0.00     0.062 A 
ATOM      7  F   UNL d   1       0.392  -2.001  -3.586  0.00  0.00    -0.097 F 
ATOM      8  F1  UNL d   1       0.177   0.590  -2.825  0.00  0.00    -0.096 F 
ATOM      9  I   UNL d   1       0.117   1.959   0.066  0.00  0.00    -0.060 I 
ATOM     10  F2  UNL d   1       0.394  -0.760   1.731  0.00  0.00    -0.096 F 
ATOM     11  F3  UNL d   1       0.607  -3.341   0.939  0.00  0.00    -0.097 F 
ATOM     12  F4  UNL d   1       0.607  -3.974  -1.714  0.00  0.00    -0.092 F 
ENDROOT
TORSDOF 0
ENDMDL
