MODEL 1
REMARK minimizedAffinity 1.00775051
REMARK minimizedRMSD -1
REMARK  0 active torsions:
REMARK  status: ('A' for Active; 'I' for Inactive)
ROOT
ATOM      1  C   UNL d   1      -0.368  -1.985  -0.411  0.00  0.00     0.124 A 
ATOM      2  C1  UNL d   1      -0.360  -1.587   0.919  0.00  0.00     0.062 A 
ATOM      3  C2  UNL d   1      -0.160  -0.250   1.249  0.00  0.00     0.162 A 
ATOM      4  C3  UNL d   1       0.033   0.701   0.247  0.00  0.00    -0.034 A 
ATOM      5  C4  UNL d   1       0.024   0.293  -1.089  0.00  0.00     0.162 A 
ATOM      6  C5  UNL d   1      -0.176  -1.044  -1.413  0.00  0.00     0.062 A 
ATOM      7  F   UNL d   1      -0.184  -1.427  -2.698  0.00  0.00    -0.097 F 
ATOM      8  F1  UNL d   1       0.206   1.181  -2.077  0.00  0.00    -0.096 F 
ATOM      9  I   UNL d   1       0.332   2.701   0.735  0.00  0.00    -0.060 I 
ATOM     10  F2  UNL d   1      -0.156   0.105   2.542  0.00  0.00    -0.096 F 
ATOM     11  F3  UNL d   1      -0.544  -2.494   1.890  0.00  0.00    -0.097 F 
ATOM     12  F4  UNL d   1      -0.560  -3.272  -0.725  0.00  0.00    -0.092 F 
ENDROOT
TORSDOF 0
ENDMDL
