MODEL 1
REMARK minimizedAffinity -2.00660634
REMARK minimizedRMSD -1
REMARK  0 active torsions:
REMARK  status: ('A' for Active; 'I' for Inactive)
ROOT
ATOM      1  C   UNL d   1       1.029   4.581   1.125  0.00  0.00     0.124 A 
ATOM      2  C1  UNL d   1       2.151   3.931   0.631  0.00  0.00     0.062 A 
ATOM      3  C2  UNL d   1       2.017   2.730  -0.061  0.00  0.00     0.162 A 
ATOM      4  C3  UNL d   1       0.755   2.172  -0.263  0.00  0.00    -0.034 A 
ATOM      5  C4  UNL d   1      -0.369   2.831   0.238  0.00  0.00     0.162 A 
ATOM      6  C5  UNL d   1      -0.230   4.031   0.928  0.00  0.00     0.062 A 
ATOM      7  F   UNL d   1      -1.316   4.657   1.405  0.00  0.00    -0.097 F 
ATOM      8  F1  UNL d   1      -1.597   2.322   0.061  0.00  0.00    -0.096 F 
ATOM      9  I   UNL d   1       0.551   0.377  -1.297  0.00  0.00    -0.060 I 
ATOM     10  F2  UNL d   1       3.119   2.124  -0.527  0.00  0.00    -0.096 F 
ATOM     11  F3  UNL d   1       3.368   4.460   0.821  0.00  0.00    -0.097 F 
ATOM     12  F4  UNL d   1       1.160   5.735   1.791  0.00  0.00    -0.092 F 
ENDROOT
TORSDOF 0
ENDMDL
