MODEL 1
REMARK minimizedAffinity 11.1736479
REMARK minimizedRMSD -1
REMARK  1 active torsions:
REMARK  status: ('A' for Active; 'I' for Inactive)
REMARK    1  A    between atoms: N_2  and  C1_3 
ROOT
ATOM      1  C1  UNL d   1      -1.611   5.611   5.353  0.00  0.00     0.143 A 
ATOM      2  C2  UNL d   1      -1.514   5.121   4.046  0.00  0.00    -0.057 A 
ATOM      3  C3  UNL d   1      -0.272   4.980   3.415  0.00  0.00     0.033 A 
ATOM      4  C4  UNL d   1       0.896   5.354   4.071  0.00  0.00    -0.042 A 
ATOM      5  C5  UNL d   1       0.820   5.866   5.362  0.00  0.00     0.033 A 
ATOM      6  C6  UNL d   1      -0.422   5.999   5.989  0.00  0.00    -0.057 A 
ENDROOT
BRANCH   1   7
ATOM      7  N   UNL d   1      -2.823   5.867   5.999  0.00  0.00    -0.732 N 
ATOM      8  C   UNL d   1      -4.051   5.984   5.243  0.00  0.00     0.284 C 
ATOM      9  H3  UNL d   1      -2.918   5.346   6.868  0.00  0.00     0.395 HD
ENDBRANCH   1   7
TORSDOF 1
ENDMDL
