MODEL 1
REMARK minimizedAffinity 8.37782383
REMARK minimizedRMSD -1
REMARK  1 active torsions:
REMARK  status: ('A' for Active; 'I' for Inactive)
REMARK    1  A    between atoms: N_2  and  C1_3 
ROOT
ATOM      1  C1  UNL d   1       3.331   4.903  -5.759  0.00  0.00     0.143 A 
ATOM      2  C2  UNL d   1       2.493   5.999  -5.986  0.00  0.00    -0.057 A 
ATOM      3  C3  UNL d   1       1.106   5.899  -5.823  0.00  0.00     0.033 A 
ATOM      4  C4  UNL d   1       0.528   4.688  -5.457  0.00  0.00    -0.042 A 
ATOM      5  C5  UNL d   1       1.340   3.578  -5.250  0.00  0.00     0.033 A 
ATOM      6  C6  UNL d   1       2.725   3.686  -5.408  0.00  0.00    -0.057 A 
ENDROOT
BRANCH   1   7
ATOM      7  N   UNL d   1       4.707   4.913  -5.999  0.00  0.00    -0.732 N 
ATOM      8  C   UNL d   1       5.536   5.985  -5.492  0.00  0.00     0.284 C 
ATOM      9  H3  UNL d   1       5.124   3.989  -5.911  0.00  0.00     0.395 HD
ENDBRANCH   1   7
TORSDOF 1
ENDMDL
