MODEL 1
REMARK minimizedAffinity 12.4657774
REMARK minimizedRMSD -1
REMARK  1 active torsions:
REMARK  status: ('A' for Active; 'I' for Inactive)
REMARK    1  A    between atoms: N_2  and  C1_3 
ROOT
ATOM      1  C1  UNL d   1       1.644  -2.804   0.904  0.00  0.00     0.143 A 
ATOM      2  C2  UNL d   1       0.312  -2.517   1.222  0.00  0.00    -0.057 A 
ATOM      3  C3  UNL d   1      -0.017  -1.480   2.103  0.00  0.00     0.033 A 
ATOM      4  C4  UNL d   1       0.985  -0.727   2.706  0.00  0.00    -0.042 A 
ATOM      5  C5  UNL d   1       2.317  -1.011   2.424  0.00  0.00     0.033 A 
ATOM      6  C6  UNL d   1       2.639  -2.044   1.538  0.00  0.00    -0.057 A 
ENDROOT
BRANCH   1   7
ATOM      7  N   UNL d   1       2.039  -3.886   0.113  0.00  0.00    -0.732 N 
ATOM      8  C   UNL d   1       2.222  -5.198   0.696  0.00  0.00     0.284 C 
ATOM      9  H3  UNL d   1       1.575  -3.895  -0.792  0.00  0.00     0.395 HD
ENDBRANCH   1   7
TORSDOF 1
ENDMDL
