MODEL 1
REMARK minimizedAffinity 7.23540831
REMARK minimizedRMSD -1
REMARK  1 active torsions:
REMARK  status: ('A' for Active; 'I' for Inactive)
REMARK    1  A    between atoms: N_2  and  C1_3 
ROOT
ATOM      1  C1  UNL d   1       2.412   4.787  -5.756  0.00  0.00     0.143 A 
ATOM      2  C2  UNL d   1       3.144   3.595  -5.754  0.00  0.00    -0.057 A 
ATOM      3  C3  UNL d   1       4.537   3.599  -5.618  0.00  0.00     0.033 A 
ATOM      4  C4  UNL d   1       5.228   4.802  -5.510  0.00  0.00    -0.042 A 
ATOM      5  C5  UNL d   1       4.523   6.000  -5.535  0.00  0.00     0.033 A 
ATOM      6  C6  UNL d   1       3.131   5.989  -5.664  0.00  0.00    -0.057 A 
ENDROOT
BRANCH   1   7
ATOM      7  N   UNL d   1       1.035   4.854  -5.986  0.00  0.00    -0.732 N 
ATOM      8  C   UNL d   1       0.157   3.804  -5.517  0.00  0.00     0.284 C 
ATOM      9  H3  UNL d   1       0.665   5.794  -5.858  0.00  0.00     0.395 HD
ENDBRANCH   1   7
TORSDOF 1
ENDMDL
