MODEL 1
REMARK minimizedAffinity 5.05678511
REMARK minimizedRMSD -1
REMARK  1 active torsions:
REMARK  status: ('A' for Active; 'I' for Inactive)
REMARK    1  A    between atoms: N_2  and  C1_3 
ROOT
ATOM      1  C1  UNL d   1      -0.097  -1.519   2.423  0.00  0.00     0.143 A 
ATOM      2  C2  UNL d   1       0.259  -1.976   1.150  0.00  0.00    -0.057 A 
ATOM      3  C3  UNL d   1       1.557  -1.803   0.653  0.00  0.00     0.033 A 
ATOM      4  C4  UNL d   1       2.516  -1.141   1.412  0.00  0.00    -0.042 A 
ATOM      5  C5  UNL d   1       2.177  -0.656   2.670  0.00  0.00     0.033 A 
ATOM      6  C6  UNL d   1       0.881  -0.838   3.163  0.00  0.00    -0.057 A 
ENDROOT
BRANCH   1   7
ATOM      7  N   UNL d   1      -1.397  -1.573   2.933  0.00  0.00    -0.732 N 
ATOM      8  C   UNL d   1      -2.138  -2.816   2.932  0.00  0.00     0.284 C 
ATOM      9  H3  UNL d   1      -1.502  -1.028   3.786  0.00  0.00     0.395 HD
ENDBRANCH   1   7
TORSDOF 1
ENDMDL
