MODEL 1
REMARK minimizedAffinity 4.96851921
REMARK minimizedRMSD -1
REMARK  1 active torsions:
REMARK  status: ('A' for Active; 'I' for Inactive)
REMARK    1  A    between atoms: C1_2  and  C2_3 
ROOT
ATOM      1  C2  UNL d   1       0.795  -2.247  -5.504  0.00  0.00    -0.073 A 
ATOM      2  C3  UNL d   1       1.942  -3.038  -5.640  0.00  0.00    -0.002 A 
ATOM      3  C4  UNL d   1       1.829  -4.408  -5.881  0.00  0.00     0.004 A 
ATOM      4  C5  UNL d   1       0.571  -4.999  -5.997  0.00  0.00    -0.004 A 
ATOM      5  C6  UNL d   1      -0.587  -4.223  -5.876  0.00  0.00    -0.075 A 
ATOM      6  C7  UNL d   1      -1.948  -4.844  -5.996  0.00  0.00     0.076 C 
ATOM      7  C8  UNL d   1      -0.465  -2.848  -5.631  0.00  0.00     0.001 A 
ENDROOT
BRANCH   1   8
ATOM      8  C1  UNL d   1       0.912  -0.766  -5.250  0.00  0.00     0.053 C 
ATOM      9  C   UNL d   1       2.180  -0.418  -4.485  0.00  0.00     0.018 C 
ENDBRANCH   1   8
TORSDOF 1
ENDMDL
