MODEL 1
REMARK minimizedAffinity 17.002615
REMARK minimizedRMSD -1
REMARK  1 active torsions:
REMARK  status: ('A' for Active; 'I' for Inactive)
REMARK    1  A    between atoms: C1_2  and  C2_3 
ROOT
ATOM      1  C2  UNL d   1       3.278  -0.001  -4.692  0.00  0.00    -0.073 A 
ATOM      2  C3  UNL d   1       3.729  -1.326  -4.648  0.00  0.00    -0.002 A 
ATOM      3  C4  UNL d   1       2.823  -2.374  -4.485  0.00  0.00     0.004 A 
ATOM      4  C5  UNL d   1       1.458  -2.111  -4.373  0.00  0.00    -0.004 A 
ATOM      5  C6  UNL d   1       0.986  -0.795  -4.427  0.00  0.00    -0.075 A 
ATOM      6  C7  UNL d   1      -0.479  -0.495  -4.306  0.00  0.00     0.076 C 
ATOM      7  C8  UNL d   1       1.903   0.253  -4.588  0.00  0.00     0.001 A 
ENDROOT
BRANCH   1   8
ATOM      8  C1  UNL d   1       4.253   1.134  -4.874  0.00  0.00     0.053 C 
ATOM      9  C   UNL d   1       5.316   0.812  -5.912  0.00  0.00     0.018 C 
ENDBRANCH   1   8
TORSDOF 1
ENDMDL
