MODEL 1
REMARK minimizedAffinity 8.48913956
REMARK minimizedRMSD -1
REMARK  1 active torsions:
REMARK  status: ('A' for Active; 'I' for Inactive)
REMARK    1  A    between atoms: C1_2  and  C2_3 
ROOT
ATOM      1  C2  UNL d   1       0.207   0.840   3.935  0.00  0.00    -0.073 A 
ATOM      2  C3  UNL d   1      -0.402   0.425   2.745  0.00  0.00    -0.002 A 
ATOM      3  C4  UNL d   1      -0.176  -0.859   2.249  0.00  0.00     0.004 A 
ATOM      4  C5  UNL d   1       0.653  -1.743   2.939  0.00  0.00    -0.004 A 
ATOM      5  C6  UNL d   1       1.261  -1.351   4.136  0.00  0.00    -0.075 A 
ATOM      6  C7  UNL d   1       2.157  -2.289   4.890  0.00  0.00     0.076 C 
ATOM      7  C8  UNL d   1       1.031  -0.059   4.627  0.00  0.00     0.001 A 
ENDROOT
BRANCH   1   8
ATOM      8  C1  UNL d   1      -0.039   2.224   4.479  0.00  0.00     0.053 C 
ATOM      9  C   UNL d   1      -0.027   2.250   5.999  0.00  0.00     0.018 C 
ENDBRANCH   1   8
TORSDOF 1
ENDMDL
