MODEL 1
REMARK minimizedAffinity 3.98899984
REMARK minimizedRMSD -1
REMARK  1 active torsions:
REMARK  status: ('A' for Active; 'I' for Inactive)
REMARK    1  A    between atoms: C1_2  and  C2_3 
ROOT
ATOM      1  C2  UNL d   1      -1.001  -1.496   2.607  0.00  0.00    -0.073 A 
ATOM      2  C3  UNL d   1      -0.421  -0.224   2.563  0.00  0.00    -0.002 A 
ATOM      3  C4  UNL d   1       0.757   0.038   3.264  0.00  0.00     0.004 A 
ATOM      4  C5  UNL d   1       1.369  -0.970   4.009  0.00  0.00    -0.004 A 
ATOM      5  C6  UNL d   1       0.811  -2.251   4.055  0.00  0.00    -0.075 A 
ATOM      6  C7  UNL d   1       1.456  -3.346   4.854  0.00  0.00     0.076 C 
ATOM      7  C8  UNL d   1      -0.373  -2.505   3.351  0.00  0.00     0.001 A 
ENDROOT
BRANCH   1   8
ATOM      8  C1  UNL d   1      -2.270  -1.785   1.846  0.00  0.00     0.053 C 
ATOM      9  C   UNL d   1      -3.435  -2.086   2.775  0.00  0.00     0.018 C 
ENDBRANCH   1   8
TORSDOF 1
ENDMDL
