MODEL 1
REMARK minimizedAffinity 3.93234849
REMARK minimizedRMSD -1
REMARK  1 active torsions:
REMARK  status: ('A' for Active; 'I' for Inactive)
REMARK    1  A    between atoms: C3_4  and  O_7 
ROOT
ATOM      1  C   UNL d   1      -1.109  -3.578   2.116  0.00  0.00    -0.033 A 
ATOM      2  C1  UNL d   1      -1.390  -2.322   2.659  0.00  0.00     0.039 A 
ATOM      3  C2  UNL d   1      -2.158  -2.218   3.821  0.00  0.00    -0.080 A 
ATOM      4  C3  UNL d   1      -2.636  -3.375   4.429  0.00  0.00     0.150 A 
ATOM      5  C4  UNL d   1      -2.357  -4.629   3.896  0.00  0.00    -0.007 A 
ATOM      6  C5  UNL d   1      -1.591  -4.731   2.736  0.00  0.00     0.039 A 
ENDROOT
BRANCH   4   7
ATOM      7  O   UNL d   1      -3.394  -3.324   5.562  0.00  0.00    -0.526 OA
ATOM      8  H5  UNL d   1      -3.530  -2.391   5.799  0.00  0.00     0.418 HD
ENDBRANCH   4   7
TORSDOF 1
ENDMDL
