MODEL 1
REMARK minimizedAffinity 17.9478168
REMARK minimizedRMSD -1
REMARK  1 active torsions:
REMARK  status: ('A' for Active; 'I' for Inactive)
REMARK    1  A    between atoms: C3_4  and  O_7 
ROOT
ATOM      1  C   UNL d   1      -1.259   3.764   2.390  0.00  0.00    -0.033 A 
ATOM      2  C1  UNL d   1      -1.348   3.581   1.008  0.00  0.00     0.039 A 
ATOM      3  C2  UNL d   1      -2.044   2.487   0.490  0.00  0.00    -0.080 A 
ATOM      4  C3  UNL d   1      -2.647   1.585   1.363  0.00  0.00     0.150 A 
ATOM      5  C4  UNL d   1      -2.566   1.764   2.740  0.00  0.00    -0.007 A 
ATOM      6  C5  UNL d   1      -1.870   2.856   3.256  0.00  0.00     0.039 A 
ENDROOT
BRANCH   4   7
ATOM      7  O   UNL d   1      -3.334   0.500   0.905  0.00  0.00    -0.526 OA
ATOM      8  H5  UNL d   1      -3.282   0.491  -0.065  0.00  0.00     0.418 HD
ENDBRANCH   4   7
TORSDOF 1
ENDMDL
