MODEL 1
REMARK minimizedAffinity 4.34365654
REMARK minimizedRMSD -1
REMARK  1 active torsions:
REMARK  status: ('A' for Active; 'I' for Inactive)
REMARK    1  A    between atoms: C3_4  and  O_7 
ROOT
ATOM      1  C   UNL d   1      -4.143   3.408   2.618  0.00  0.00    -0.033 A 
ATOM      2  C1  UNL d   1      -4.528   4.694   2.234  0.00  0.00     0.039 A 
ATOM      3  C2  UNL d   1      -5.153   5.540   3.152  0.00  0.00    -0.080 A 
ATOM      4  C3  UNL d   1      -5.387   5.089   4.448  0.00  0.00     0.150 A 
ATOM      5  C4  UNL d   1      -5.002   3.811   4.839  0.00  0.00    -0.007 A 
ATOM      6  C5  UNL d   1      -4.378   2.967   3.921  0.00  0.00     0.039 A 
ENDROOT
BRANCH   4   7
ATOM      7  O   UNL d   1      -5.998   5.878   5.377  0.00  0.00    -0.526 OA
ATOM      8  H5  UNL d   1      -6.233   6.722   4.958  0.00  0.00     0.418 HD
ENDBRANCH   4   7
TORSDOF 1
ENDMDL
