MODEL 1
REMARK minimizedAffinity 4.33275127
REMARK minimizedRMSD -1
REMARK  1 active torsions:
REMARK  status: ('A' for Active; 'I' for Inactive)
REMARK    1  A    between atoms: C3_4  and  O_7 
ROOT
ATOM      1  C   UNL d   1      -1.468  -0.744  -0.359  0.00  0.00    -0.033 A 
ATOM      2  C1  UNL d   1      -0.814  -1.878   0.126  0.00  0.00     0.039 A 
ATOM      3  C2  UNL d   1      -1.268  -2.505   1.288  0.00  0.00    -0.080 A 
ATOM      4  C3  UNL d   1      -2.377  -1.989   1.954  0.00  0.00     0.150 A 
ATOM      5  C4  UNL d   1      -3.036  -0.862   1.474  0.00  0.00    -0.007 A 
ATOM      6  C5  UNL d   1      -2.580  -0.237   0.314  0.00  0.00     0.039 A 
ENDROOT
BRANCH   4   7
ATOM      7  O   UNL d   1      -2.854  -2.564   3.094  0.00  0.00    -0.526 OA
ATOM      8  H5  UNL d   1      -2.282  -3.316   3.323  0.00  0.00     0.418 HD
ENDBRANCH   4   7
TORSDOF 1
ENDMDL
