MODEL 1
REMARK minimizedAffinity 5.95653677
REMARK minimizedRMSD -1
REMARK  1 active torsions:
REMARK  status: ('A' for Active; 'I' for Inactive)
REMARK    1  A    between atoms: C3_4  and  O_7 
ROOT
ATOM      1  C   UNL d   1      -0.948  -1.868   2.318  0.00  0.00    -0.033 A 
ATOM      2  C1  UNL d   1      -1.582  -0.719   1.841  0.00  0.00     0.039 A 
ATOM      3  C2  UNL d   1      -1.507  -0.389   0.487  0.00  0.00    -0.080 A 
ATOM      4  C3  UNL d   1      -0.796  -1.216  -0.379  0.00  0.00     0.150 A 
ATOM      5  C4  UNL d   1      -0.166  -2.364   0.088  0.00  0.00    -0.007 A 
ATOM      6  C5  UNL d   1      -0.241  -2.691   1.441  0.00  0.00     0.039 A 
ENDROOT
BRANCH   4   7
ATOM      7  O   UNL d   1      -0.691  -0.932  -1.709  0.00  0.00    -0.526 OA
ATOM      8  H5  UNL d   1      -1.152  -0.095  -1.882  0.00  0.00     0.418 HD
ENDBRANCH   4   7
TORSDOF 1
ENDMDL
