MODEL 1
REMARK minimizedAffinity -1.18797302
REMARK minimizedRMSD -1
REMARK  1 active torsions:
REMARK  status: ('A' for Active; 'I' for Inactive)
REMARK    1  A    between atoms: C3_4  and  O_7 
ROOT
ATOM      1  C   UNL d   1      -3.861   4.463   5.677  0.00  0.00    -0.033 A 
ATOM      2  C1  UNL d   1      -3.179   3.250   5.567  0.00  0.00     0.039 A 
ATOM      3  C2  UNL d   1      -3.875   2.044   5.672  0.00  0.00    -0.080 A 
ATOM      4  C3  UNL d   1      -5.250   2.065   5.885  0.00  0.00     0.150 A 
ATOM      5  C4  UNL d   1      -5.937   3.270   5.991  0.00  0.00    -0.007 A 
ATOM      6  C5  UNL d   1      -5.241   4.473   5.887  0.00  0.00     0.039 A 
ENDROOT
BRANCH   4   7
ATOM      7  O   UNL d   1      -5.971   0.913   5.999  0.00  0.00    -0.526 OA
ATOM      8  H5  UNL d   1      -5.361   0.160   5.934  0.00  0.00     0.418 HD
ENDBRANCH   4   7
TORSDOF 1
ENDMDL
