MODEL 1
REMARK minimizedAffinity -3.17103791
REMARK minimizedRMSD -1
REMARK  1 active torsions:
REMARK  status: ('A' for Active; 'I' for Inactive)
REMARK    1  A    between atoms: C3_4  and  O_7 
ROOT
ATOM      1  C   UNL d   1      -5.976   4.922  -4.183  0.00  0.00    -0.033 A 
ATOM      2  C1  UNL d   1      -5.865   4.272  -5.414  0.00  0.00     0.039 A 
ATOM      3  C2  UNL d   1      -4.608   4.076  -5.991  0.00  0.00    -0.080 A 
ATOM      4  C3  UNL d   1      -3.473   4.532  -5.327  0.00  0.00     0.150 A 
ATOM      5  C4  UNL d   1      -3.576   5.176  -4.099  0.00  0.00    -0.007 A 
ATOM      6  C5  UNL d   1      -4.831   5.372  -3.525  0.00  0.00     0.039 A 
ENDROOT
BRANCH   4   7
ATOM      7  O   UNL d   1      -2.226   4.367  -5.853  0.00  0.00    -0.526 OA
ATOM      8  H5  UNL d   1      -2.311   3.932  -6.718  0.00  0.00     0.418 HD
ENDBRANCH   4   7
TORSDOF 1
ENDMDL
