MODEL 1
REMARK minimizedAffinity -3.43770003
REMARK minimizedRMSD -1
REMARK  1 active torsions:
REMARK  status: ('A' for Active; 'I' for Inactive)
REMARK    1  A    between atoms: C3_4  and  O_7 
ROOT
ATOM      1  C   UNL d   1       2.361   0.775   3.240  0.00  0.00    -0.033 A 
ATOM      2  C1  UNL d   1       1.086   0.955   3.782  0.00  0.00     0.039 A 
ATOM      3  C2  UNL d   1      -0.046   0.759   2.988  0.00  0.00    -0.080 A 
ATOM      4  C3  UNL d   1       0.110   0.383   1.657  0.00  0.00     0.150 A 
ATOM      5  C4  UNL d   1       1.376   0.198   1.112  0.00  0.00    -0.007 A 
ATOM      6  C5  UNL d   1       2.505   0.395   1.905  0.00  0.00     0.039 A 
ENDROOT
BRANCH   4   7
ATOM      7  O   UNL d   1      -0.965   0.185   0.842  0.00  0.00    -0.526 OA
ATOM      8  H5  UNL d   1      -1.773   0.377   1.347  0.00  0.00     0.418 HD
ENDBRANCH   4   7
TORSDOF 1
ENDMDL
