MODEL 1
REMARK minimizedAffinity 5.84577847
REMARK minimizedRMSD -1
REMARK  1 active torsions:
REMARK  status: ('A' for Active; 'I' for Inactive)
REMARK    1  A    between atoms: C3_4  and  O_7 
ROOT
ATOM      1  C   UNL d   1       4.873   2.949  -2.146  0.00  0.00    -0.033 A 
ATOM      2  C1  UNL d   1       3.813   3.843  -1.984  0.00  0.00     0.039 A 
ATOM      3  C2  UNL d   1       3.418   4.236  -0.704  0.00  0.00    -0.080 A 
ATOM      4  C3  UNL d   1       4.091   3.730   0.404  0.00  0.00     0.150 A 
ATOM      5  C4  UNL d   1       5.150   2.841   0.250  0.00  0.00    -0.007 A 
ATOM      6  C5  UNL d   1       5.543   2.449  -1.029  0.00  0.00     0.039 A 
ENDROOT
BRANCH   4   7
ATOM      7  O   UNL d   1       3.738   4.080   1.674  0.00  0.00    -0.526 OA
ATOM      8  H5  UNL d   1       2.973   4.677   1.626  0.00  0.00     0.418 HD
ENDBRANCH   4   7
TORSDOF 1
ENDMDL
