MODEL 1
REMARK minimizedAffinity 3.31232452
REMARK minimizedRMSD -1
REMARK  1 active torsions:
REMARK  status: ('A' for Active; 'I' for Inactive)
REMARK    1  A    between atoms: C3_4  and  O_7 
ROOT
ATOM      1  C   UNL d   1      -0.503  -0.283  -2.242  0.00  0.00    -0.033 A 
ATOM      2  C1  UNL d   1       0.667   0.477  -2.284  0.00  0.00     0.039 A 
ATOM      3  C2  UNL d   1       0.798   1.510  -3.214  0.00  0.00    -0.080 A 
ATOM      4  C3  UNL d   1      -0.248   1.774  -4.093  0.00  0.00     0.150 A 
ATOM      5  C4  UNL d   1      -1.419   1.024  -4.055  0.00  0.00    -0.007 A 
ATOM      6  C5  UNL d   1      -1.547  -0.009  -3.126  0.00  0.00     0.039 A 
ENDROOT
BRANCH   4   7
ATOM      7  O   UNL d   1      -0.165   2.769  -5.021  0.00  0.00    -0.526 OA
ATOM      8  H5  UNL d   1       0.711   3.184  -4.950  0.00  0.00     0.418 HD
ENDBRANCH   4   7
TORSDOF 1
ENDMDL
