MODEL 1
REMARK minimizedAffinity 8.10649967
REMARK minimizedRMSD -1
REMARK  1 active torsions:
REMARK  status: ('A' for Active; 'I' for Inactive)
REMARK    1  A    between atoms: C3_4  and  O_7 
ROOT
ATOM      1  C   UNL d   1      -5.854   5.995   3.057  0.00  0.00    -0.033 A 
ATOM      2  C1  UNL d   1      -5.248   5.510   1.896  0.00  0.00     0.039 A 
ATOM      3  C2  UNL d   1      -4.782   4.194   1.848  0.00  0.00    -0.080 A 
ATOM      4  C3  UNL d   1      -4.929   3.376   2.965  0.00  0.00     0.150 A 
ATOM      5  C4  UNL d   1      -5.535   3.852   4.123  0.00  0.00    -0.007 A 
ATOM      6  C5  UNL d   1      -5.999   5.166   4.169  0.00  0.00     0.039 A 
ENDROOT
BRANCH   4   7
ATOM      7  O   UNL d   1      -4.486   2.087   2.967  0.00  0.00    -0.526 OA
ATOM      8  H5  UNL d   1      -4.063   1.905   2.111  0.00  0.00     0.418 HD
ENDBRANCH   4   7
TORSDOF 1
ENDMDL
