MODEL 1
REMARK minimizedAffinity 1.84469867
REMARK minimizedRMSD -1
REMARK  1 active torsions:
REMARK  status: ('A' for Active; 'I' for Inactive)
REMARK    1  A    between atoms: C3_4  and  O_7 
ROOT
ATOM      1  C   UNL d   1       5.998   5.944   3.924  0.00  0.00    -0.033 A 
ATOM      2  C1  UNL d   1       5.372   4.916   3.216  0.00  0.00     0.039 A 
ATOM      3  C2  UNL d   1       4.661   3.928   3.899  0.00  0.00    -0.080 A 
ATOM      4  C3  UNL d   1       4.583   3.979   5.288  0.00  0.00     0.150 A 
ATOM      5  C4  UNL d   1       5.202   5.002   6.000  0.00  0.00    -0.007 A 
ATOM      6  C5  UNL d   1       5.912   5.987   5.316  0.00  0.00     0.039 A 
ENDROOT
BRANCH   4   7
ATOM      7  O   UNL d   1       3.905   3.034   5.999  0.00  0.00    -0.526 OA
ATOM      8  H5  UNL d   1       3.554   2.374   5.378  0.00  0.00     0.418 HD
ENDBRANCH   4   7
TORSDOF 1
ENDMDL
