MODEL 1
REMARK minimizedAffinity 6.69316435
REMARK minimizedRMSD -1
REMARK  1 active torsions:
REMARK  status: ('A' for Active; 'I' for Inactive)
REMARK    1  A    between atoms: C3_4  and  O_7 
ROOT
ATOM      1  C   UNL d   1      -1.337  -1.331   1.917  0.00  0.00    -0.033 A 
ATOM      2  C1  UNL d   1      -2.121  -0.330   1.339  0.00  0.00     0.039 A 
ATOM      3  C2  UNL d   1      -1.872   0.084   0.029  0.00  0.00    -0.080 A 
ATOM      4  C3  UNL d   1      -0.840  -0.510  -0.691  0.00  0.00     0.150 A 
ATOM      5  C4  UNL d   1      -0.058  -1.510  -0.123  0.00  0.00    -0.007 A 
ATOM      6  C5  UNL d   1      -0.307  -1.922   1.186  0.00  0.00     0.039 A 
ENDROOT
BRANCH   4   7
ATOM      7  O   UNL d   1      -0.556  -0.136  -1.971  0.00  0.00    -0.526 OA
ATOM      8  H5  UNL d   1      -1.159   0.584  -2.222  0.00  0.00     0.418 HD
ENDBRANCH   4   7
TORSDOF 1
ENDMDL
