MODEL 1
REMARK minimizedAffinity 0.760356963
REMARK minimizedRMSD -1
REMARK  1 active torsions:
REMARK  status: ('A' for Active; 'I' for Inactive)
REMARK    1  A    between atoms: C3_4  and  O_7 
ROOT
ATOM      1  C   UNL d   1      -2.810   2.090   5.618  0.00  0.00    -0.033 A 
ATOM      2  C1  UNL d   1      -2.252   3.365   5.505  0.00  0.00     0.039 A 
ATOM      3  C2  UNL d   1      -3.060   4.496   5.632  0.00  0.00    -0.080 A 
ATOM      4  C3  UNL d   1      -4.422   4.340   5.873  0.00  0.00     0.150 A 
ATOM      5  C4  UNL d   1      -4.984   3.073   5.991  0.00  0.00    -0.007 A 
ATOM      6  C5  UNL d   1      -4.176   1.944   5.863  0.00  0.00     0.039 A 
ENDROOT
BRANCH   4   7
ATOM      7  O   UNL d   1      -5.252   5.414   6.000  0.00  0.00    -0.526 OA
ATOM      8  H5  UNL d   1      -4.730   6.223   5.866  0.00  0.00     0.418 HD
ENDBRANCH   4   7
TORSDOF 1
ENDMDL
