MODEL 1
REMARK minimizedAffinity -1.70617318
REMARK minimizedRMSD -1
REMARK  1 active torsions:
REMARK  status: ('A' for Active; 'I' for Inactive)
REMARK    1  A    between atoms: C3_4  and  O_7 
ROOT
ATOM      1  C   UNL d   1      -4.510   6.000  -4.791  0.00  0.00    -0.033 A 
ATOM      2  C1  UNL d   1      -4.003   5.520  -3.581  0.00  0.00     0.039 A 
ATOM      3  C2  UNL d   1      -2.970   4.581  -3.579  0.00  0.00    -0.080 A 
ATOM      4  C3  UNL d   1      -2.453   4.130  -4.790  0.00  0.00     0.150 A 
ATOM      5  C4  UNL d   1      -2.951   4.606  -5.999  0.00  0.00    -0.007 A 
ATOM      6  C5  UNL d   1      -3.983   5.544  -5.999  0.00  0.00     0.039 A 
ENDROOT
BRANCH   4   7
ATOM      7  O   UNL d   1      -1.449   3.210  -4.838  0.00  0.00    -0.526 OA
ATOM      8  H5  UNL d   1      -1.225   2.950  -3.929  0.00  0.00     0.418 HD
ENDBRANCH   4   7
TORSDOF 1
ENDMDL
