MODEL 1
REMARK minimizedAffinity -1.65351641
REMARK minimizedRMSD -1
REMARK  1 active torsions:
REMARK  status: ('A' for Active; 'I' for Inactive)
REMARK    1  A    between atoms: C3_4  and  O_7 
ROOT
ATOM      1  C   UNL d   1      -0.399   0.446  -0.396  0.00  0.00    -0.033 A 
ATOM      2  C1  UNL d   1      -1.158  -0.076  -1.445  0.00  0.00     0.039 A 
ATOM      3  C2  UNL d   1      -1.399  -1.449  -1.518  0.00  0.00    -0.080 A 
ATOM      4  C3  UNL d   1      -0.879  -2.288  -0.536  0.00  0.00     0.150 A 
ATOM      5  C4  UNL d   1      -0.125  -1.774   0.514  0.00  0.00    -0.007 A 
ATOM      6  C5  UNL d   1       0.116  -0.402   0.584  0.00  0.00     0.039 A 
ENDROOT
BRANCH   4   7
ATOM      7  O   UNL d   1      -1.084  -3.635  -0.568  0.00  0.00    -0.526 OA
ATOM      8  H5  UNL d   1      -1.597  -3.850  -1.365  0.00  0.00     0.418 HD
ENDBRANCH   4   7
TORSDOF 1
ENDMDL
