MODEL 1
REMARK minimizedAffinity -2.69060874
REMARK minimizedRMSD -1
REMARK  1 active torsions:
REMARK  status: ('A' for Active; 'I' for Inactive)
REMARK    1  A    between atoms: N_2  and  C1_3 
ROOT
ATOM      1  C1  UNL d   1      -0.184   0.045   0.715  0.00  0.00     0.143 A 
ATOM      2  C2  UNL d   1      -0.542   0.432   2.011  0.00  0.00    -0.057 A 
ATOM      3  C3  UNL d   1       0.381   0.387   3.063  0.00  0.00     0.033 A 
ATOM      4  C4  UNL d   1       1.674  -0.075   2.843  0.00  0.00    -0.042 A 
ATOM      5  C5  UNL d   1       2.045  -0.489   1.568  0.00  0.00     0.033 A 
ATOM      6  C6  UNL d   1       1.121  -0.435   0.520  0.00  0.00    -0.057 A 
ENDROOT
BRANCH   1   7
ATOM      7  N   UNL d   1      -1.083  -0.027  -0.352  0.00  0.00    -0.732 N 
ATOM      8  C   UNL d   1      -2.375  -0.657  -0.187  0.00  0.00     0.284 C 
ATOM      9  H3  UNL d   1      -1.106   0.831  -0.899  0.00  0.00     0.395 HD
ENDBRANCH   1   7
TORSDOF 1
ENDMDL
