MODEL 1
REMARK minimizedAffinity -4.50226307
REMARK minimizedRMSD -1
REMARK  1 active torsions:
REMARK  status: ('A' for Active; 'I' for Inactive)
REMARK    1  A    between atoms: N_2  and  C1_3 
ROOT
ATOM      1  C1  UNL d   1      -0.237   0.433   2.239  0.00  0.00     0.143 A 
ATOM      2  C2  UNL d   1       0.041  -0.343   1.108  0.00  0.00    -0.057 A 
ATOM      3  C3  UNL d   1      -0.853  -0.403   0.032  0.00  0.00     0.033 A 
ATOM      4  C4  UNL d   1      -2.058   0.290   0.081  0.00  0.00    -0.042 A 
ATOM      5  C5  UNL d   1      -2.366   1.048   1.205  0.00  0.00     0.033 A 
ATOM      6  C6  UNL d   1      -1.467   1.110   2.274  0.00  0.00    -0.057 A 
ENDROOT
BRANCH   1   7
ATOM      7  N   UNL d   1       0.565   0.456   3.383  0.00  0.00    -0.732 N 
ATOM      8  C   UNL d   1       1.760  -0.357   3.462  0.00  0.00     0.284 C 
ATOM      9  H3  UNL d   1       0.675   1.394   3.761  0.00  0.00     0.395 HD
ENDBRANCH   1   7
TORSDOF 1
ENDMDL
