MODEL 1
REMARK minimizedAffinity -2.50421357
REMARK minimizedRMSD -1
REMARK  1 active torsions:
REMARK  status: ('A' for Active; 'I' for Inactive)
REMARK    1  A    between atoms: N_2  and  C1_3 
ROOT
ATOM      1  C1  UNL d   1      -0.903   0.189   1.193  0.00  0.00     0.143 A 
ATOM      2  C2  UNL d   1      -1.674   0.254   0.027  0.00  0.00    -0.057 A 
ATOM      3  C3  UNL d   1      -1.120  -0.032  -1.226  0.00  0.00     0.033 A 
ATOM      4  C4  UNL d   1       0.227  -0.362  -1.339  0.00  0.00    -0.042 A 
ATOM      5  C5  UNL d   1       1.018  -0.408  -0.197  0.00  0.00     0.033 A 
ATOM      6  C6  UNL d   1       0.457  -0.128   1.053  0.00  0.00    -0.057 A 
ENDROOT
BRANCH   1   7
ATOM      7  N   UNL d   1      -1.371   0.559   2.456  0.00  0.00    -0.732 N 
ATOM      8  C   UNL d   1      -0.497   0.515   3.609  0.00  0.00     0.284 C 
ATOM      9  H3  UNL d   1      -1.974   1.377   2.423  0.00  0.00     0.395 HD
ENDBRANCH   1   7
TORSDOF 1
ENDMDL
