MODEL 1
REMARK minimizedAffinity -5.51504326
REMARK minimizedRMSD -1
REMARK  1 active torsions:
REMARK  status: ('A' for Active; 'I' for Inactive)
REMARK    1  A    between atoms: N_2  and  C1_3 
ROOT
ATOM      1  C1  UNL d   1       0.488  -0.031   0.674  0.00  0.00     0.143 A 
ATOM      2  C2  UNL d   1      -0.763   0.559   0.884  0.00  0.00    -0.057 A 
ATOM      3  C3  UNL d   1      -1.105   1.115   2.123  0.00  0.00     0.033 A 
ATOM      4  C4  UNL d   1      -0.209   1.064   3.186  0.00  0.00    -0.042 A 
ATOM      5  C5  UNL d   1       1.031   0.460   3.007  0.00  0.00     0.033 A 
ATOM      6  C6  UNL d   1       1.369  -0.087   1.766  0.00  0.00    -0.057 A 
ENDROOT
BRANCH   1   7
ATOM      7  N   UNL d   1       0.851  -0.688  -0.505  0.00  0.00    -0.732 N 
ATOM      8  C   UNL d   1       0.732  -0.024  -1.785  0.00  0.00     0.284 C 
ATOM      9  H3  UNL d   1       1.701  -1.237  -0.398  0.00  0.00     0.395 HD
ENDBRANCH   1   7
TORSDOF 1
ENDMDL
