MODEL 1
REMARK minimizedAffinity -2.07447886
REMARK minimizedRMSD -1
REMARK  1 active torsions:
REMARK  status: ('A' for Active; 'I' for Inactive)
REMARK    1  A    between atoms: N_2  and  C1_3 
ROOT
ATOM      1  C1  UNL d   1       0.430  -0.709  -1.586  0.00  0.00     0.143 A 
ATOM      2  C2  UNL d   1      -0.279  -1.024  -2.751  0.00  0.00    -0.057 A 
ATOM      3  C3  UNL d   1       0.161  -0.590  -4.008  0.00  0.00     0.033 A 
ATOM      4  C4  UNL d   1       1.305   0.192  -4.119  0.00  0.00    -0.042 A 
ATOM      5  C5  UNL d   1       2.011   0.539  -2.972  0.00  0.00     0.033 A 
ATOM      6  C6  UNL d   1       1.571   0.097  -1.721  0.00  0.00    -0.057 A 
ENDROOT
BRANCH   1   7
ATOM      7  N   UNL d   1      -0.010  -1.026  -0.299  0.00  0.00    -0.732 N 
ATOM      8  C   UNL d   1      -0.411   0.016   0.621  0.00  0.00     0.284 C 
ATOM      9  H3  UNL d   1      -0.611  -1.847  -0.285  0.00  0.00     0.395 HD
ENDBRANCH   1   7
TORSDOF 1
ENDMDL
