MODEL 1
REMARK minimizedAffinity -4.88202953
REMARK minimizedRMSD -1
REMARK  1 active torsions:
REMARK  status: ('A' for Active; 'I' for Inactive)
REMARK    1  A    between atoms: N_2  and  C1_3 
ROOT
ATOM      1  C1  UNL d   1       0.390   0.449   1.919  0.00  0.00     0.143 A 
ATOM      2  C2  UNL d   1       0.485   0.036   0.586  0.00  0.00    -0.057 A 
ATOM      3  C3  UNL d   1      -0.655  -0.087  -0.218  0.00  0.00     0.033 A 
ATOM      4  C4  UNL d   1      -1.916   0.173   0.307  0.00  0.00    -0.042 A 
ATOM      5  C5  UNL d   1      -2.036   0.560   1.637  0.00  0.00     0.033 A 
ATOM      6  C6  UNL d   1      -0.894   0.688   2.433  0.00  0.00    -0.057 A 
ENDROOT
BRANCH   1   7
ATOM      7  N   UNL d   1       1.476   0.496   2.797  0.00  0.00    -0.732 N 
ATOM      8  C   UNL d   1       2.607  -0.389   2.619  0.00  0.00     0.284 C 
ATOM      9  H3  UNL d   1       1.729   1.448   3.052  0.00  0.00     0.395 HD
ENDBRANCH   1   7
TORSDOF 1
ENDMDL
