MODEL 1
REMARK minimizedAffinity -4.15937138
REMARK minimizedRMSD -1
REMARK  1 active torsions:
REMARK  status: ('A' for Active; 'I' for Inactive)
REMARK    1  A    between atoms: N_2  and  C1_3 
ROOT
ATOM      1  C1  UNL d   1       0.837  -0.279   1.539  0.00  0.00     0.143 A 
ATOM      2  C2  UNL d   1       0.098   0.041   0.394  0.00  0.00    -0.057 A 
ATOM      3  C3  UNL d   1      -1.095   0.767   0.479  0.00  0.00     0.033 A 
ATOM      4  C4  UNL d   1      -1.588   1.164   1.718  0.00  0.00    -0.042 A 
ATOM      5  C5  UNL d   1      -0.884   0.835   2.871  0.00  0.00     0.033 A 
ATOM      6  C6  UNL d   1       0.311   0.115   2.779  0.00  0.00    -0.057 A 
ENDROOT
BRANCH   1   7
ATOM      7  N   UNL d   1       1.979  -1.083   1.528  0.00  0.00    -0.732 N 
ATOM      8  C   UNL d   1       2.925  -1.035   2.622  0.00  0.00     0.284 C 
ATOM      9  H3  UNL d   1       1.790  -2.022   1.184  0.00  0.00     0.395 HD
ENDBRANCH   1   7
TORSDOF 1
ENDMDL
