MODEL 1
REMARK minimizedAffinity -0.746762812
REMARK minimizedRMSD -1
REMARK  1 active torsions:
REMARK  status: ('A' for Active; 'I' for Inactive)
REMARK    1  A    between atoms: N_2  and  C1_3 
ROOT
ATOM      1  C1  UNL d   1       0.772  -0.349   2.107  0.00  0.00     0.143 A 
ATOM      2  C2  UNL d   1       0.298  -0.355   0.791  0.00  0.00    -0.057 A 
ATOM      3  C3  UNL d   1      -1.045  -0.083   0.502  0.00  0.00     0.033 A 
ATOM      4  C4  UNL d   1      -1.946   0.173   1.530  0.00  0.00    -0.042 A 
ATOM      5  C5  UNL d   1      -1.502   0.161   2.848  0.00  0.00     0.033 A 
ATOM      6  C6  UNL d   1      -0.159  -0.106   3.130  0.00  0.00    -0.057 A 
ENDROOT
BRANCH   1   7
ATOM      7  N   UNL d   1       2.073  -0.709   2.467  0.00  0.00    -0.732 N 
ATOM      8  C   UNL d   1       3.046  -1.065   1.456  0.00  0.00     0.284 C 
ATOM      9  H3  UNL d   1       2.445  -0.127   3.214  0.00  0.00     0.395 HD
ENDBRANCH   1   7
TORSDOF 1
ENDMDL
