MODEL 1
REMARK minimizedAffinity -5.14823961
REMARK minimizedRMSD -1
REMARK  1 active torsions:
REMARK  status: ('A' for Active; 'I' for Inactive)
REMARK    1  A    between atoms: N_2  and  C1_3 
ROOT
ATOM      1  C1  UNL d   1       0.328  -0.103   0.726  0.00  0.00     0.143 A 
ATOM      2  C2  UNL d   1      -0.893   0.553   0.913  0.00  0.00    -0.057 A 
ATOM      3  C3  UNL d   1      -1.238   1.107   2.152  0.00  0.00     0.033 A 
ATOM      4  C4  UNL d   1      -0.375   0.990   3.237  0.00  0.00    -0.042 A 
ATOM      5  C5  UNL d   1       0.834   0.321   3.081  0.00  0.00     0.033 A 
ATOM      6  C6  UNL d   1       1.175  -0.225   1.839  0.00  0.00    -0.057 A 
ENDROOT
BRANCH   1   7
ATOM      7  N   UNL d   1       0.686  -0.760  -0.454  0.00  0.00    -0.732 N 
ATOM      8  C   UNL d   1       0.511  -0.117  -1.738  0.00  0.00     0.284 C 
ATOM      9  H3  UNL d   1       1.558  -1.276  -0.362  0.00  0.00     0.395 HD
ENDBRANCH   1   7
TORSDOF 1
ENDMDL
