MODEL 1
REMARK minimizedAffinity -4.13349819
REMARK minimizedRMSD -1
REMARK  1 active torsions:
REMARK  status: ('A' for Active; 'I' for Inactive)
REMARK    1  A    between atoms: N_2  and  C1_3 
ROOT
ATOM      1  C1  UNL d   1       0.146  -1.009   0.113  0.00  0.00     0.143 A 
ATOM      2  C2  UNL d   1      -1.030  -0.572   0.731  0.00  0.00    -0.057 A 
ATOM      3  C3  UNL d   1      -1.090  -0.362   2.114  0.00  0.00     0.033 A 
ATOM      4  C4  UNL d   1       0.022  -0.616   2.910  0.00  0.00    -0.042 A 
ATOM      5  C5  UNL d   1       1.195  -1.075   2.321  0.00  0.00     0.033 A 
ATOM      6  C6  UNL d   1       1.250  -1.275   0.939  0.00  0.00    -0.057 A 
ENDROOT
BRANCH   1   7
ATOM      7  N   UNL d   1       0.240  -1.330  -1.243  0.00  0.00    -0.732 N 
ATOM      8  C   UNL d   1       0.942  -0.458  -2.160  0.00  0.00     0.284 C 
ATOM      9  H3  UNL d   1       0.414  -2.321  -1.397  0.00  0.00     0.395 HD
ENDBRANCH   1   7
TORSDOF 1
ENDMDL
