MODEL 1
REMARK minimizedAffinity -3.75341797
REMARK minimizedRMSD -1
REMARK  0 active torsions:
REMARK  status: ('A' for Active; 'I' for Inactive)
ROOT
ATOM      1  C   UNL d   1       0.015  -0.644   0.264  0.00  0.00     0.172 C 
ATOM      2  N   UNL d   1       0.029   0.794   0.386  0.00  0.00    -0.070 N 
ATOM      3  C1  UNL d   1      -0.754   1.531   1.233  0.00  0.00    -0.004 A 
ATOM      4  C2  UNL d   1      -0.441   2.861   1.049  0.00  0.00    -0.047 A 
ATOM      5  C3  UNL d   1       0.565   2.925   0.056  0.00  0.00    -0.047 A 
ATOM      6  C4  UNL d   1       0.838   1.632  -0.337  0.00  0.00    -0.004 A 
ENDROOT
TORSDOF 0
ENDMDL
