MODEL 1
REMARK minimizedAffinity -3.50674629
REMARK minimizedRMSD -1
REMARK  0 active torsions:
REMARK  status: ('A' for Active; 'I' for Inactive)
ROOT
ATOM      1  C   UNL d   1      -0.267  -0.788   0.330  0.00  0.00     0.172 C 
ATOM      2  N   UNL d   1      -0.189   0.647   0.473  0.00  0.00    -0.070 N 
ATOM      3  C1  UNL d   1       0.281   1.519  -0.473  0.00  0.00    -0.004 A 
ATOM      4  C2  UNL d   1       0.190   2.792   0.045  0.00  0.00    -0.047 A 
ATOM      5  C3  UNL d   1      -0.353   2.682   1.348  0.00  0.00    -0.047 A 
ATOM      6  C4  UNL d   1      -0.578   1.343   1.587  0.00  0.00    -0.004 A 
ENDROOT
TORSDOF 0
ENDMDL
