MODEL 1
REMARK minimizedAffinity -2.92138958
REMARK minimizedRMSD -1
REMARK  0 active torsions:
REMARK  status: ('A' for Active; 'I' for Inactive)
ROOT
ATOM      1  C   UNL d   1      -0.735   0.441  -0.161  0.00  0.00     0.172 C 
ATOM      2  N   UNL d   1      -0.640   1.695   0.549  0.00  0.00    -0.070 N 
ATOM      3  C1  UNL d   1       0.197   2.731   0.231  0.00  0.00    -0.004 A 
ATOM      4  C2  UNL d   1      -0.015   3.741   1.145  0.00  0.00    -0.047 A 
ATOM      5  C3  UNL d   1      -1.013   3.296   2.044  0.00  0.00    -0.047 A 
ATOM      6  C4  UNL d   1      -1.382   2.027   1.652  0.00  0.00    -0.004 A 
ENDROOT
TORSDOF 0
ENDMDL
