MODEL 1
REMARK minimizedAffinity -3.57851195
REMARK minimizedRMSD -1
REMARK  0 active torsions:
REMARK  status: ('A' for Active; 'I' for Inactive)
ROOT
ATOM      1  C   UNL d   1       1.906   1.511  -0.754  0.00  0.00     0.172 C 
ATOM      2  N   UNL d   1       0.608   1.758  -0.172  0.00  0.00    -0.070 N 
ATOM      3  C1  UNL d   1       0.068   2.990   0.082  0.00  0.00    -0.004 A 
ATOM      4  C2  UNL d   1      -1.179   2.799   0.637  0.00  0.00    -0.047 A 
ATOM      5  C3  UNL d   1      -1.396   1.403   0.720  0.00  0.00    -0.047 A 
ATOM      6  C4  UNL d   1      -0.274   0.782   0.213  0.00  0.00    -0.004 A 
ENDROOT
TORSDOF 0
ENDMDL
