MODEL 1
REMARK minimizedAffinity -3.90433264
REMARK minimizedRMSD -1
REMARK  0 active torsions:
REMARK  status: ('A' for Active; 'I' for Inactive)
ROOT
ATOM      1  C   UNL d   1      -1.483   0.551   1.199  0.00  0.00     0.172 C 
ATOM      2  N   UNL d   1      -0.395   1.243   0.548  0.00  0.00    -0.070 N 
ATOM      3  C1  UNL d   1       0.707   0.652  -0.011  0.00  0.00    -0.004 A 
ATOM      4  C2  UNL d   1       1.506   1.650  -0.526  0.00  0.00    -0.047 A 
ATOM      5  C3  UNL d   1       0.862   2.883  -0.268  0.00  0.00    -0.047 A 
ATOM      6  C4  UNL d   1      -0.312   2.602   0.398  0.00  0.00    -0.004 A 
ENDROOT
TORSDOF 0
ENDMDL
