MODEL 1
REMARK minimizedAffinity -2.79650879
REMARK minimizedRMSD -1
REMARK  0 active torsions:
REMARK  status: ('A' for Active; 'I' for Inactive)
ROOT
ATOM      1  C   UNL d   1      -0.168  -0.625  -0.298  0.00  0.00     0.172 C 
ATOM      2  N   UNL d   1      -0.361   0.743   0.121  0.00  0.00    -0.070 N 
ATOM      3  C1  UNL d   1      -1.242   1.168   1.079  0.00  0.00    -0.004 A 
ATOM      4  C2  UNL d   1      -1.123   2.537   1.184  0.00  0.00    -0.047 A 
ATOM      5  C3  UNL d   1      -0.138   2.949   0.256  0.00  0.00    -0.047 A 
ATOM      6  C4  UNL d   1       0.317   1.819  -0.389  0.00  0.00    -0.004 A 
ENDROOT
TORSDOF 0
ENDMDL
