MODEL 1
REMARK minimizedAffinity -3.82723999
REMARK minimizedRMSD -1
REMARK  0 active torsions:
REMARK  status: ('A' for Active; 'I' for Inactive)
ROOT
ATOM      1  C   UNL d   1      -0.379  -0.482  -0.973  0.00  0.00     0.172 C 
ATOM      2  N   UNL d   1      -0.465   0.841  -0.401  0.00  0.00    -0.070 N 
ATOM      3  C1  UNL d   1       0.395   1.877  -0.653  0.00  0.00    -0.004 A 
ATOM      4  C2  UNL d   1      -0.027   2.964   0.082  0.00  0.00    -0.047 A 
ATOM      5  C3  UNL d   1      -1.180   2.567   0.801  0.00  0.00    -0.047 A 
ATOM      6  C4  UNL d   1      -1.428   1.248   0.484  0.00  0.00    -0.004 A 
ENDROOT
TORSDOF 0
ENDMDL
