MODEL 1
REMARK minimizedAffinity -2.19047952
REMARK minimizedRMSD -1
REMARK  0 active torsions:
REMARK  status: ('A' for Active; 'I' for Inactive)
ROOT
ATOM      1  C   UNL d   1       0.573   2.365  -1.151  0.00  0.00     0.172 C 
ATOM      2  N   UNL d   1       0.298   1.233  -0.298  0.00  0.00    -0.070 N 
ATOM      3  C1  UNL d   1       1.038   0.082  -0.235  0.00  0.00    -0.004 A 
ATOM      4  C2  UNL d   1       0.450  -0.747   0.696  0.00  0.00    -0.047 A 
ATOM      5  C3  UNL d   1      -0.682  -0.072   1.210  0.00  0.00    -0.047 A 
ATOM      6  C4  UNL d   1      -0.753   1.151   0.577  0.00  0.00    -0.004 A 
ENDROOT
TORSDOF 0
ENDMDL
