MODEL 1
REMARK minimizedAffinity -1.6743443
REMARK minimizedRMSD -1
REMARK  0 active torsions:
REMARK  status: ('A' for Active; 'I' for Inactive)
ROOT
ATOM      1  C   UNL d   1      -1.352   3.499   2.870  0.00  0.00     0.172 C 
ATOM      2  N   UNL d   1      -0.886   2.934   1.625  0.00  0.00    -0.070 N 
ATOM      3  C1  UNL d   1      -0.164   3.597   0.669  0.00  0.00    -0.004 A 
ATOM      4  C2  UNL d   1       0.084   2.714  -0.360  0.00  0.00    -0.047 A 
ATOM      5  C3  UNL d   1      -0.509   1.478  -0.010  0.00  0.00    -0.047 A 
ATOM      6  C4  UNL d   1      -1.103   1.643   1.224  0.00  0.00    -0.004 A 
ENDROOT
TORSDOF 0
ENDMDL
