MODEL 1
REMARK minimizedAffinity -4.11331606
REMARK minimizedRMSD -1
REMARK  0 active torsions:
REMARK  status: ('A' for Active; 'I' for Inactive)
ROOT
ATOM      1  C   UNL d   1       0.400  -0.701   0.111  0.00  0.00     0.172 C 
ATOM      2  N   UNL d   1       0.221   0.727   0.227  0.00  0.00    -0.070 N 
ATOM      3  C1  UNL d   1       1.115   1.680  -0.184  0.00  0.00    -0.004 A 
ATOM      4  C2  UNL d   1       0.575   2.915   0.102  0.00  0.00    -0.047 A 
ATOM      5  C3  UNL d   1      -0.686   2.697   0.707  0.00  0.00    -0.047 A 
ATOM      6  C4  UNL d   1      -0.880   1.334   0.772  0.00  0.00    -0.004 A 
ENDROOT
TORSDOF 0
ENDMDL
