MODEL 1
REMARK minimizedAffinity -3.6409018
REMARK minimizedRMSD -1
REMARK  0 active torsions:
REMARK  status: ('A' for Active; 'I' for Inactive)
ROOT
ATOM      1  C   UNL d   1       0.257  -0.823   0.135  0.00  0.00     0.172 C 
ATOM      2  N   UNL d   1      -0.048   0.588   0.186  0.00  0.00    -0.070 N 
ATOM      3  C1  UNL d   1       0.781   1.600  -0.218  0.00  0.00    -0.004 A 
ATOM      4  C2  UNL d   1       0.125   2.793  -0.008  0.00  0.00    -0.047 A 
ATOM      5  C3  UNL d   1      -1.143   2.488   0.542  0.00  0.00    -0.047 A 
ATOM      6  C4  UNL d   1      -1.224   1.116   0.652  0.00  0.00    -0.004 A 
ENDROOT
TORSDOF 0
ENDMDL
