MODEL 1
REMARK minimizedAffinity -2.56315851
REMARK minimizedRMSD -1
REMARK  0 active torsions:
REMARK  status: ('A' for Active; 'I' for Inactive)
ROOT
ATOM      1  C   UNL d   1      -0.892   2.429   1.639  0.00  0.00     0.172 C 
ATOM      2  N   UNL d   1      -0.581   1.382   0.694  0.00  0.00    -0.070 N 
ATOM      3  C1  UNL d   1       0.220   1.514  -0.409  0.00  0.00    -0.004 A 
ATOM      4  C2  UNL d   1       0.264   0.293  -1.047  0.00  0.00    -0.047 A 
ATOM      5  C3  UNL d   1      -0.540  -0.603  -0.302  0.00  0.00    -0.047 A 
ATOM      6  C4  UNL d   1      -1.051   0.098   0.770  0.00  0.00    -0.004 A 
ENDROOT
TORSDOF 0
ENDMDL
