MODEL 1
REMARK minimizedAffinity -3.15578341
REMARK minimizedRMSD -1
REMARK  0 active torsions:
REMARK  status: ('A' for Active; 'I' for Inactive)
ROOT
ATOM      1  C   UNL d   1      -0.262  -0.422  -0.867  0.00  0.00     0.172 C 
ATOM      2  N   UNL d   1      -0.462   0.769  -0.076  0.00  0.00    -0.070 N 
ATOM      3  C1  UNL d   1       0.347   1.875  -0.079  0.00  0.00    -0.004 A 
ATOM      4  C2  UNL d   1      -0.184   2.788   0.806  0.00  0.00    -0.047 A 
ATOM      5  C3  UNL d   1      -1.352   2.211   1.361  0.00  0.00    -0.047 A 
ATOM      6  C4  UNL d   1      -1.500   0.962   0.797  0.00  0.00    -0.004 A 
ENDROOT
TORSDOF 0
ENDMDL
