MODEL 1
REMARK minimizedAffinity -3.55111051
REMARK minimizedRMSD -1
REMARK  0 active torsions:
REMARK  status: ('A' for Active; 'I' for Inactive)
ROOT
ATOM      1  C   UNL d   1       1.079   3.368   0.795  0.00  0.00     0.172 C 
ATOM      2  N   UNL d   1       0.023   2.386   0.723  0.00  0.00    -0.070 N 
ATOM      3  C1  UNL d   1      -1.198   2.480   1.336  0.00  0.00    -0.004 A 
ATOM      4  C2  UNL d   1      -1.916   1.346   1.023  0.00  0.00    -0.047 A 
ATOM      5  C3  UNL d   1      -1.098   0.542   0.195  0.00  0.00    -0.047 A 
ATOM      6  C4  UNL d   1       0.097   1.210   0.025  0.00  0.00    -0.004 A 
ENDROOT
TORSDOF 0
ENDMDL
