MODEL 1
REMARK minimizedAffinity -1.70825553
REMARK minimizedRMSD -1
REMARK  0 active torsions:
REMARK  status: ('A' for Active; 'I' for Inactive)
ROOT
ATOM      1  C   UNL d   1       1.740   0.155   0.577  0.00  0.00     0.172 C 
ATOM      2  N   UNL d   1       0.466   0.833   0.618  0.00  0.00    -0.070 N 
ATOM      3  C1  UNL d   1      -0.740   0.288   0.268  0.00  0.00    -0.004 A 
ATOM      4  C2  UNL d   1      -1.708   1.254   0.447  0.00  0.00    -0.047 A 
ATOM      5  C3  UNL d   1      -1.060   2.420   0.920  0.00  0.00    -0.047 A 
ATOM      6  C4  UNL d   1       0.285   2.132   1.016  0.00  0.00    -0.004 A 
ENDROOT
TORSDOF 0
ENDMDL
