MODEL 1
REMARK minimizedAffinity -2.90126395
REMARK minimizedRMSD -1
REMARK  0 active torsions:
REMARK  status: ('A' for Active; 'I' for Inactive)
ROOT
ATOM      1  C   UNL d   1      -0.804  -0.714   1.107  0.00  0.00     0.172 C 
ATOM      2  N   UNL d   1      -0.276   0.495   0.518  0.00  0.00    -0.070 N 
ATOM      3  C1  UNL d   1       0.782   0.565  -0.347  0.00  0.00    -0.004 A 
ATOM      4  C2  UNL d   1       0.970   1.890  -0.678  0.00  0.00    -0.047 A 
ATOM      5  C3  UNL d   1      -0.009   2.642   0.014  0.00  0.00    -0.047 A 
ATOM      6  C4  UNL d   1      -0.767   1.753   0.747  0.00  0.00    -0.004 A 
ENDROOT
TORSDOF 0
ENDMDL
