MODEL 1
REMARK minimizedAffinity -2.82258272
REMARK minimizedRMSD -1
REMARK  0 active torsions:
REMARK  status: ('A' for Active; 'I' for Inactive)
ROOT
ATOM      1  C   UNL d   1      -0.054   2.820   0.778  0.00  0.00     0.172 C 
ATOM      2  N   UNL d   1       0.225   1.429   0.509  0.00  0.00    -0.070 N 
ATOM      3  C1  UNL d   1      -0.625   0.549  -0.107  0.00  0.00    -0.004 A 
ATOM      4  C2  UNL d   1       0.009  -0.673  -0.174  0.00  0.00    -0.047 A 
ATOM      5  C3  UNL d   1       1.283  -0.522   0.423  0.00  0.00    -0.047 A 
ATOM      6  C4  UNL d   1       1.390   0.789   0.837  0.00  0.00    -0.004 A 
ENDROOT
TORSDOF 0
ENDMDL
