MODEL 1
REMARK minimizedAffinity -3.35340977
REMARK minimizedRMSD -1
REMARK  0 active torsions:
REMARK  status: ('A' for Active; 'I' for Inactive)
ROOT
ATOM      1  C   UNL d   1      -1.388  -0.074   0.788  0.00  0.00     0.172 C 
ATOM      2  N   UNL d   1       0.056  -0.103   0.777  0.00  0.00    -0.070 N 
ATOM      3  C1  UNL d   1       0.874   0.951   0.469  0.00  0.00    -0.004 A 
ATOM      4  C2  UNL d   1       2.178   0.518   0.574  0.00  0.00    -0.047 A 
ATOM      5  C3  UNL d   1       2.143  -0.843   0.957  0.00  0.00    -0.047 A 
ATOM      6  C4  UNL d   1       0.817  -1.203   1.076  0.00  0.00    -0.004 A 
ENDROOT
TORSDOF 0
ENDMDL
