MODEL 1
REMARK minimizedAffinity 3.11699224
REMARK minimizedRMSD -1
REMARK  0 active torsions:
REMARK  status: ('A' for Active; 'I' for Inactive)
ROOT
ATOM      1  C   UNL d   1      -0.029  -0.133   1.588  0.00  0.00     0.020 A 
ATOM      2  C1  UNL d   1       1.273  -0.627   1.664  0.00  0.00     0.020 A 
ATOM      3  C2  UNL d   1       1.537  -1.955   1.323  0.00  0.00     0.034 A 
ATOM      4  C3  UNL d   1       0.498  -2.794   0.904  0.00  0.00     0.017 A 
ATOM      5  C4  UNL d   1      -0.808  -2.297   0.827  0.00  0.00     0.017 A 
ATOM      6  C5  UNL d   1      -1.067  -0.966   1.170  0.00  0.00     0.034 A 
ATOM      7 Cl   UNL d   1      -2.142  -3.271   0.319  0.00  0.00    -0.070 Cl
ATOM      8 Cl1  UNL d   1       0.897  -4.425   0.497  0.00  0.00    -0.070 Cl
ENDROOT
TORSDOF 0
ENDMDL
