MODEL 1
REMARK minimizedAffinity 8.98111916
REMARK minimizedRMSD -1
REMARK  0 active torsions:
REMARK  status: ('A' for Active; 'I' for Inactive)
ROOT
ATOM      1  C   UNL d   1      -3.306  -0.952  -3.867  0.00  0.00     0.020 A 
ATOM      2  C1  UNL d   1      -3.432  -0.256  -2.665  0.00  0.00     0.020 A 
ATOM      3  C2  UNL d   1      -3.055  -0.861  -1.465  0.00  0.00     0.034 A 
ATOM      4  C3  UNL d   1      -2.551  -2.167  -1.463  0.00  0.00     0.017 A 
ATOM      5  C4  UNL d   1      -2.425  -2.865  -2.669  0.00  0.00     0.017 A 
ATOM      6  C5  UNL d   1      -2.803  -2.254  -3.869  0.00  0.00     0.034 A 
ATOM      7 Cl   UNL d   1      -1.811  -4.479  -2.747  0.00  0.00    -0.070 Cl
ATOM      8 Cl1  UNL d   1      -2.104  -2.853   0.059  0.00  0.00    -0.070 Cl
ENDROOT
TORSDOF 0
ENDMDL
