MODEL 1
REMARK minimizedAffinity 12.1999846
REMARK minimizedRMSD -1
REMARK  0 active torsions:
REMARK  status: ('A' for Active; 'I' for Inactive)
ROOT
ATOM      1  C   UNL d   1      -0.436   3.113   0.607  0.00  0.00     0.020 A 
ATOM      2  C1  UNL d   1      -1.681   2.712   0.123  0.00  0.00     0.020 A 
ATOM      3  C2  UNL d   1      -2.140   1.416   0.366  0.00  0.00     0.034 A 
ATOM      4  C3  UNL d   1      -1.355   0.516   1.095  0.00  0.00     0.017 A 
ATOM      5  C4  UNL d   1      -0.106   0.918   1.580  0.00  0.00     0.017 A 
ATOM      6  C5  UNL d   1       0.350   2.217   1.334  0.00  0.00     0.034 A 
ATOM      7 Cl   UNL d   1       0.920  -0.136   2.487  0.00  0.00    -0.070 Cl
ATOM      8 Cl1  UNL d   1      -1.986  -1.071   1.357  0.00  0.00    -0.070 Cl
ENDROOT
TORSDOF 0
ENDMDL
