MODEL 1
REMARK minimizedAffinity 6.15334558
REMARK minimizedRMSD -1
REMARK  0 active torsions:
REMARK  status: ('A' for Active; 'I' for Inactive)
ROOT
ATOM      1  C   UNL d   1      -0.267  -3.706  -2.632  0.00  0.00     0.020 A 
ATOM      2  C1  UNL d   1       0.292  -4.891  -2.154  0.00  0.00     0.020 A 
ATOM      3  C2  UNL d   1      -0.326  -5.583  -1.111  0.00  0.00     0.034 A 
ATOM      4  C3  UNL d   1      -1.507  -5.092  -0.542  0.00  0.00     0.017 A 
ATOM      5  C4  UNL d   1      -2.067  -3.903  -1.022  0.00  0.00     0.017 A 
ATOM      6  C5  UNL d   1      -1.444  -3.213  -2.067  0.00  0.00     0.034 A 
ATOM      7 Cl   UNL d   1      -3.522  -3.234  -0.371  0.00  0.00    -0.070 Cl
ATOM      8 Cl1  UNL d   1      -2.217  -6.000   0.745  0.00  0.00    -0.070 Cl
ENDROOT
TORSDOF 0
ENDMDL
