MODEL 1
REMARK minimizedAffinity 0.441176951
REMARK minimizedRMSD -1
REMARK  0 active torsions:
REMARK  status: ('A' for Active; 'I' for Inactive)
ROOT
ATOM      1  C   UNL d   1      -2.555  -1.811   0.319  0.00  0.00     0.020 A 
ATOM      2  C1  UNL d   1      -3.262  -0.796  -0.325  0.00  0.00     0.020 A 
ATOM      3  C2  UNL d   1      -2.875   0.536  -0.161  0.00  0.00     0.034 A 
ATOM      4  C3  UNL d   1      -1.779   0.856   0.648  0.00  0.00     0.017 A 
ATOM      5  C4  UNL d   1      -1.070  -0.163   1.293  0.00  0.00     0.017 A 
ATOM      6  C5  UNL d   1      -1.462  -1.495   1.126  0.00  0.00     0.034 A 
ATOM      7 Cl   UNL d   1       0.293   0.154   2.308  0.00  0.00    -0.070 Cl
ATOM      8 Cl1  UNL d   1      -1.356   2.524   0.805  0.00  0.00    -0.070 Cl
ENDROOT
TORSDOF 0
ENDMDL
