MODEL 1
REMARK minimizedAffinity 2.171345
REMARK minimizedRMSD -1
REMARK  0 active torsions:
REMARK  status: ('A' for Active; 'I' for Inactive)
ROOT
ATOM      1  C   UNL d   1       2.174  -2.611  -0.417  0.00  0.00     0.020 A 
ATOM      2  C1  UNL d   1       1.035  -2.904  -1.166  0.00  0.00     0.020 A 
ATOM      3  C2  UNL d   1      -0.227  -2.555  -0.682  0.00  0.00     0.034 A 
ATOM      4  C3  UNL d   1      -0.354  -1.912   0.554  0.00  0.00     0.017 A 
ATOM      5  C4  UNL d   1       0.789  -1.618   1.305  0.00  0.00     0.017 A 
ATOM      6  C5  UNL d   1       2.051  -1.970   0.816  0.00  0.00     0.034 A 
ATOM      7 Cl   UNL d   1       0.713  -0.826   2.840  0.00  0.00    -0.070 Cl
ATOM      8 Cl1  UNL d   1      -1.947  -1.509   1.091  0.00  0.00    -0.070 Cl
ENDROOT
TORSDOF 0
ENDMDL
