MODEL 1
REMARK minimizedAffinity 7.92939949
REMARK minimizedRMSD -1
REMARK  0 active torsions:
REMARK  status: ('A' for Active; 'I' for Inactive)
ROOT
ATOM      1  C   UNL d   1      -5.068   4.181  -0.689  0.00  0.00     0.020 A 
ATOM      2  C1  UNL d   1      -5.648   5.445  -0.789  0.00  0.00     0.020 A 
ATOM      3  C2  UNL d   1      -5.928   5.987  -2.045  0.00  0.00     0.034 A 
ATOM      4  C3  UNL d   1      -5.627   5.266  -3.206  0.00  0.00     0.017 A 
ATOM      5  C4  UNL d   1      -5.044   3.998  -3.105  0.00  0.00     0.017 A 
ATOM      6  C5  UNL d   1      -4.767   3.459  -1.844  0.00  0.00     0.034 A 
ATOM      7 Cl   UNL d   1      -4.645   3.048  -4.492  0.00  0.00    -0.070 Cl
ATOM      8 Cl1  UNL d   1      -6.000   5.998  -4.726  0.00  0.00    -0.070 Cl
ENDROOT
TORSDOF 0
ENDMDL
