MODEL 1
REMARK minimizedAffinity -1.0713557
REMARK minimizedRMSD -1
REMARK  0 active torsions:
REMARK  status: ('A' for Active; 'I' for Inactive)
ROOT
ATOM      1  C   UNL d   1       6.000   5.787  -1.372  0.00  0.00     0.020 A 
ATOM      2  C1  UNL d   1       5.996   4.525  -0.778  0.00  0.00     0.020 A 
ATOM      3  C2  UNL d   1       5.993   3.379  -1.575  0.00  0.00     0.034 A 
ATOM      4  C3  UNL d   1       5.993   3.491  -2.970  0.00  0.00     0.017 A 
ATOM      5  C4  UNL d   1       5.997   4.758  -3.565  0.00  0.00     0.017 A 
ATOM      6  C5  UNL d   1       6.000   5.903  -2.762  0.00  0.00     0.034 A 
ATOM      7 Cl   UNL d   1       5.997   4.977  -5.280  0.00  0.00    -0.070 Cl
ATOM      8 Cl1  UNL d   1       5.990   2.031  -3.894  0.00  0.00    -0.070 Cl
ENDROOT
TORSDOF 0
ENDMDL
