MODEL 1
REMARK minimizedAffinity 3.70567656
REMARK minimizedRMSD -1
REMARK  0 active torsions:
REMARK  status: ('A' for Active; 'I' for Inactive)
ROOT
ATOM      1  C   UNL d   1       1.663   0.996   2.191  0.00  0.00     0.020 A 
ATOM      2  C1  UNL d   1       0.996   1.128   0.974  0.00  0.00     0.020 A 
ATOM      3  C2  UNL d   1       0.494  -0.004   0.327  0.00  0.00     0.034 A 
ATOM      4  C3  UNL d   1       0.659  -1.271   0.898  0.00  0.00     0.017 A 
ATOM      5  C4  UNL d   1       1.328  -1.402   2.120  0.00  0.00     0.017 A 
ATOM      6  C5  UNL d   1       1.828  -0.266   2.763  0.00  0.00     0.034 A 
ATOM      7 Cl   UNL d   1       1.570  -2.933   2.885  0.00  0.00    -0.070 Cl
ATOM      8 Cl1  UNL d   1       0.012  -2.627   0.043  0.00  0.00    -0.070 Cl
ENDROOT
TORSDOF 0
ENDMDL
