MODEL 1
REMARK minimizedAffinity 13.478755
REMARK minimizedRMSD -1
REMARK  0 active torsions:
REMARK  status: ('A' for Active; 'I' for Inactive)
ROOT
ATOM      1  C1  BNZ d   1       2.335   0.836  -1.929  0.00  0.00     0.000 A 
ATOM      2  C2  BNZ d   1       3.253   1.666  -1.342  0.00  0.00     0.000 A 
ATOM      3  C3  BNZ d   1       3.928   1.279  -0.218  0.00  0.00     0.000 A 
ATOM      4  C4  BNZ d   1       3.656   0.082   0.340  0.00  0.00     0.000 A 
ATOM      5  C5  BNZ d   1       2.726  -0.762  -0.235  0.00  0.00     0.000 A 
ATOM      6  C6  BNZ d   1       2.077  -0.386  -1.388  0.00  0.00     0.000 A 
ENDROOT
TORSDOF 0
ENDMDL
