MODEL 1
REMARK minimizedAffinity 6.13369513
REMARK minimizedRMSD -1
REMARK  0 active torsions:
REMARK  status: ('A' for Active; 'I' for Inactive)
ROOT
ATOM      1  C1  BNZ d   1       0.164  -2.203  -1.480  0.00  0.00     0.000 A 
ATOM      2  C2  BNZ d   1       0.987  -2.019  -0.401  0.00  0.00     0.000 A 
ATOM      3  C3  BNZ d   1       1.968  -1.067  -0.424  0.00  0.00     0.000 A 
ATOM      4  C4  BNZ d   1       2.150  -0.329  -1.539  0.00  0.00     0.000 A 
ATOM      5  C5  BNZ d   1       1.335  -0.510  -2.638  0.00  0.00     0.000 A 
ATOM      6  C6  BNZ d   1       0.323  -1.442  -2.597  0.00  0.00     0.000 A 
ENDROOT
TORSDOF 0
ENDMDL
