MODEL 1
REMARK minimizedAffinity 8.18168545
REMARK minimizedRMSD -1
REMARK  0 active torsions:
REMARK  status: ('A' for Active; 'I' for Inactive)
ROOT
ATOM      1  C1  BNZ d   1       2.486   1.117  -1.812  0.00  0.00     0.000 A 
ATOM      2  C2  BNZ d   1       3.498   1.931  -1.378  0.00  0.00     0.000 A 
ATOM      3  C3  BNZ d   1       4.550   1.422  -0.669  0.00  0.00     0.000 A 
ATOM      4  C4  BNZ d   1       4.569   0.109  -0.360  0.00  0.00     0.000 A 
ATOM      5  C5  BNZ d   1       3.551  -0.723  -0.783  0.00  0.00     0.000 A 
ATOM      6  C6  BNZ d   1       2.513  -0.214  -1.530  0.00  0.00     0.000 A 
ENDROOT
TORSDOF 0
ENDMDL
