MODEL 1
REMARK minimizedAffinity 4.2906251
REMARK minimizedRMSD -1
REMARK  0 active torsions:
REMARK  status: ('A' for Active; 'I' for Inactive)
ROOT
ATOM      1  C1  BNZ d   1       1.332  -0.882  -1.740  0.00  0.00     0.000 A 
ATOM      2  C2  BNZ d   1       0.508  -1.975  -1.721  0.00  0.00     0.000 A 
ATOM      3  C3  BNZ d   1       0.929  -3.160  -1.185  0.00  0.00     0.000 A 
ATOM      4  C4  BNZ d   1       2.186  -3.261  -0.706  0.00  0.00     0.000 A 
ATOM      5  C5  BNZ d   1       3.032  -2.171  -0.727  0.00  0.00     0.000 A 
ATOM      6  C6  BNZ d   1       2.591  -0.969  -1.232  0.00  0.00     0.000 A 
ENDROOT
TORSDOF 0
ENDMDL
