MODEL 1
REMARK minimizedAffinity 3.84596562
REMARK minimizedRMSD -1
REMARK  0 active torsions:
REMARK  status: ('A' for Active; 'I' for Inactive)
ROOT
ATOM      1  C1  BNZ d   1       1.271  -2.905  -1.173  0.00  0.00     0.000 A 
ATOM      2  C2  BNZ d   1       0.785  -1.841  -1.885  0.00  0.00     0.000 A 
ATOM      3  C3  BNZ d   1       1.525  -0.702  -2.035  0.00  0.00     0.000 A 
ATOM      4  C4  BNZ d   1       2.733  -0.613  -1.440  0.00  0.00     0.000 A 
ATOM      5  C5  BNZ d   1       3.233  -1.674  -0.712  0.00  0.00     0.000 A 
ATOM      6  C6  BNZ d   1       2.501  -2.833  -0.595  0.00  0.00     0.000 A 
ENDROOT
TORSDOF 0
ENDMDL
