MODEL 1
REMARK minimizedAffinity 14.91189
REMARK minimizedRMSD -1
REMARK  0 active torsions:
REMARK  status: ('A' for Active; 'I' for Inactive)
ROOT
ATOM      1  C1  BNZ d   1       0.435  -5.014  -1.706  0.00  0.00     0.000 A 
ATOM      2  C2  BNZ d   1       0.319  -5.999  -2.649  0.00  0.00     0.000 A 
ATOM      3  C3  BNZ d   1      -0.720  -6.000  -3.537  0.00  0.00     0.000 A 
ATOM      4  C4  BNZ d   1      -1.662  -5.038  -3.456  0.00  0.00     0.000 A 
ATOM      5  C5  BNZ d   1      -1.565  -4.043  -2.504  0.00  0.00     0.000 A 
ATOM      6  C6  BNZ d   1      -0.496  -4.024  -1.636  0.00  0.00     0.000 A 
ENDROOT
TORSDOF 0
ENDMDL
