MODEL 1
REMARK minimizedAffinity 8.20508194
REMARK minimizedRMSD -1
REMARK  0 active torsions:
REMARK  status: ('A' for Active; 'I' for Inactive)
ROOT
ATOM      1  C1  BNZ d   1       4.144   1.012   0.055  0.00  0.00     0.000 A 
ATOM      2  C2  BNZ d   1       2.993   1.328  -0.617  0.00  0.00     0.000 A 
ATOM      3  C3  BNZ d   1       2.055   0.371  -0.887  0.00  0.00     0.000 A 
ATOM      4  C4  BNZ d   1       2.286  -0.907  -0.521  0.00  0.00     0.000 A 
ATOM      5  C5  BNZ d   1       3.446  -1.242   0.149  0.00  0.00     0.000 A 
ATOM      6  C6  BNZ d   1       4.370  -0.269   0.453  0.00  0.00     0.000 A 
ENDROOT
TORSDOF 0
ENDMDL
