MODEL 1
REMARK minimizedAffinity 8.54979992
REMARK minimizedRMSD -1
REMARK  0 active torsions:
REMARK  status: ('A' for Active; 'I' for Inactive)
ROOT
ATOM      1  C1  BNZ d   1      -5.111  -0.483   3.094  0.00  0.00     0.000 A 
ATOM      2  C2  BNZ d   1      -4.683   0.607   2.384  0.00  0.00     0.000 A 
ATOM      3  C3  BNZ d   1      -3.669   1.394   2.853  0.00  0.00     0.000 A 
ATOM      4  C4  BNZ d   1      -3.112   1.114   4.050  0.00  0.00     0.000 A 
ATOM      5  C5  BNZ d   1      -3.539   0.024   4.782  0.00  0.00     0.000 A 
ATOM      6  C6  BNZ d   1      -4.534  -0.788   4.288  0.00  0.00     0.000 A 
ENDROOT
TORSDOF 0
ENDMDL
