MODEL 1
REMARK minimizedAffinity 8.11182404
REMARK minimizedRMSD -1
REMARK  0 active torsions:
REMARK  status: ('A' for Active; 'I' for Inactive)
ROOT
ATOM      1  C1  BNZ d   1       1.125   1.160   3.526  0.00  0.00     0.000 A 
ATOM      2  C2  BNZ d   1       1.828   0.822   4.651  0.00  0.00     0.000 A 
ATOM      3  C3  BNZ d   1       1.393   1.204   5.889  0.00  0.00     0.000 A 
ATOM      4  C4  BNZ d   1       0.279   1.956   5.997  0.00  0.00     0.000 A 
ATOM      5  C5  BNZ d   1      -0.436   2.313   4.871  0.00  0.00     0.000 A 
ATOM      6  C6  BNZ d   1      -0.016   1.894   3.630  0.00  0.00     0.000 A 
ENDROOT
TORSDOF 0
ENDMDL
