MODEL 1
REMARK minimizedAffinity 15.4684401
REMARK minimizedRMSD -1
REMARK  0 active torsions:
REMARK  status: ('A' for Active; 'I' for Inactive)
ROOT
ATOM      1  C1  BNZ d   1       2.916  -3.639  -0.353  0.00  0.00     0.000 A 
ATOM      2  C2  BNZ d   1       2.216  -4.816  -0.336  0.00  0.00     0.000 A 
ATOM      3  C3  BNZ d   1       2.826  -5.999  -0.648  0.00  0.00     0.000 A 
ATOM      4  C4  BNZ d   1       4.124  -5.998  -1.015  0.00  0.00     0.000 A 
ATOM      5  C5  BNZ d   1       4.841  -4.819  -1.046  0.00  0.00     0.000 A 
ATOM      6  C6  BNZ d   1       4.234  -3.636  -0.694  0.00  0.00     0.000 A 
ENDROOT
TORSDOF 0
ENDMDL
