MODEL 1
REMARK minimizedAffinity 5.38467264
REMARK minimizedRMSD -1
REMARK  0 active torsions:
REMARK  status: ('A' for Active; 'I' for Inactive)
ROOT
ATOM      1  C1  BNZ d   1       1.865  -0.578  -1.915  0.00  0.00     0.000 A 
ATOM      2  C2  BNZ d   1       0.725  -1.322  -1.761  0.00  0.00     0.000 A 
ATOM      3  C3  BNZ d   1       0.657  -2.310  -0.819  0.00  0.00     0.000 A 
ATOM      4  C4  BNZ d   1       1.739  -2.579  -0.060  0.00  0.00     0.000 A 
ATOM      5  C5  BNZ d   1       2.898  -1.844  -0.210  0.00  0.00     0.000 A 
ATOM      6  C6  BNZ d   1       2.950  -0.824  -1.132  0.00  0.00     0.000 A 
ENDROOT
TORSDOF 0
ENDMDL
