MODEL 1
REMARK minimizedAffinity 9.86043167
REMARK minimizedRMSD -1
REMARK  0 active torsions:
REMARK  status: ('A' for Active; 'I' for Inactive)
ROOT
ATOM      1  C1  BNZ d   1       1.842   0.332  -2.183  0.00  0.00     0.000 A 
ATOM      2  C2  BNZ d   1       1.320  -0.888  -2.522  0.00  0.00     0.000 A 
ATOM      3  C3  BNZ d   1       0.765  -1.701  -1.573  0.00  0.00     0.000 A 
ATOM      4  C4  BNZ d   1       0.770  -1.311  -0.282  0.00  0.00     0.000 A 
ATOM      5  C5  BNZ d   1       1.301  -0.089   0.077  0.00  0.00     0.000 A 
ATOM      6  C6  BNZ d   1       1.823   0.744  -0.886  0.00  0.00     0.000 A 
ENDROOT
TORSDOF 0
ENDMDL
