MODEL 1
REMARK minimizedAffinity 6.67956448
REMARK minimizedRMSD -1
REMARK  0 active torsions:
REMARK  status: ('A' for Active; 'I' for Inactive)
ROOT
ATOM      1  C1  BNZ d   1      -1.294   1.448   4.194  0.00  0.00     0.000 A 
ATOM      2  C2  BNZ d   1      -2.659   1.339   4.229  0.00  0.00     0.000 A 
ATOM      3  C3  BNZ d   1      -3.387   1.296   3.073  0.00  0.00     0.000 A 
ATOM      4  C4  BNZ d   1      -2.754   1.402   1.887  0.00  0.00     0.000 A 
ATOM      5  C5  BNZ d   1      -1.380   1.522   1.835  0.00  0.00     0.000 A 
ATOM      6  C6  BNZ d   1      -0.647   1.525   3.000  0.00  0.00     0.000 A 
ENDROOT
TORSDOF 0
ENDMDL
