MODEL 1
REMARK minimizedAffinity 0.0521045029
REMARK minimizedRMSD -1
REMARK  1 active torsions:
REMARK  status: ('A' for Active; 'I' for Inactive)
REMARK    1  A    between atoms: C1_2  and  C2_3 
ROOT
ATOM      1  C2  UNL d   1       4.956  -2.157   5.140  0.00  0.00    -0.081 A 
ATOM      2  C3  UNL d   1       4.458  -2.085   3.833  0.00  0.00     0.006 A 
ATOM      3  C4  UNL d   1       4.733  -0.975   3.031  0.00  0.00     0.002 A 
ATOM      4  C5  UNL d   1       5.516   0.077   3.519  0.00  0.00    -0.080 A 
ATOM      5  C6  UNL d   1       5.844   1.260   2.658  0.00  0.00     0.076 C 
ATOM      6  C7  UNL d   1       5.999   0.013   4.830  0.00  0.00     0.002 A 
ATOM      7  C8  UNL d   1       5.724  -1.097   5.633  0.00  0.00     0.006 A 
ENDROOT
BRANCH   1   8
ATOM      8  C1  UNL d   1       4.715  -3.382   5.985  0.00  0.00     0.054 C 
ATOM      9  C   UNL d   1       5.935  -4.293   6.000  0.00  0.00     0.018 C 
ENDBRANCH   1   8
TORSDOF 1
ENDMDL
