MODEL 1
REMARK minimizedAffinity 2.56558824
REMARK minimizedRMSD -1
REMARK  1 active torsions:
REMARK  status: ('A' for Active; 'I' for Inactive)
REMARK    1  A    between atoms: C1_2  and  C2_3 
ROOT
ATOM      1  C2  UNL d   1       5.976  -0.833  -3.890  0.00  0.00    -0.081 A 
ATOM      2  C3  UNL d   1       5.945  -0.861  -5.290  0.00  0.00     0.006 A 
ATOM      3  C4  UNL d   1       5.913  -2.079  -5.973  0.00  0.00     0.002 A 
ATOM      4  C5  UNL d   1       5.902  -3.288  -5.268  0.00  0.00    -0.080 A 
ATOM      5  C6  UNL d   1       5.836  -4.602  -5.989  0.00  0.00     0.076 C 
ATOM      6  C7  UNL d   1       5.950  -3.260  -3.871  0.00  0.00     0.002 A 
ATOM      7  C8  UNL d   1       5.983  -2.043  -3.187  0.00  0.00     0.006 A 
ENDROOT
BRANCH   1   8
ATOM      8  C1  UNL d   1       5.945   0.479  -3.149  0.00  0.00     0.054 C 
ATOM      9  C   UNL d   1       5.849   1.655  -4.110  0.00  0.00     0.018 C 
ENDBRANCH   1   8
TORSDOF 1
ENDMDL
