MODEL 1
REMARK minimizedAffinity -4.97566748
REMARK minimizedRMSD -1
REMARK  1 active torsions:
REMARK  status: ('A' for Active; 'I' for Inactive)
REMARK    1  A    between atoms: C1_2  and  C2_3 
ROOT
ATOM      1  C2  UNL d   1      -3.346   1.691   4.805  0.00  0.00    -0.081 A 
ATOM      2  C3  UNL d   1      -3.414   2.379   3.588  0.00  0.00     0.006 A 
ATOM      3  C4  UNL d   1      -3.504   3.773   3.567  0.00  0.00     0.002 A 
ATOM      4  C5  UNL d   1      -3.519   4.502   4.762  0.00  0.00    -0.080 A 
ATOM      5  C6  UNL d   1      -3.584   6.000   4.753  0.00  0.00     0.076 C 
ATOM      6  C7  UNL d   1      -3.468   3.812   5.978  0.00  0.00     0.002 A 
ATOM      7  C8  UNL d   1      -3.379   2.419   6.000  0.00  0.00     0.006 A 
ENDROOT
BRANCH   1   8
ATOM      8  C1  UNL d   1      -3.184   0.192   4.830  0.00  0.00     0.054 C 
ATOM      9  C   UNL d   1      -4.061  -0.476   3.781  0.00  0.00     0.018 C 
ENDBRANCH   1   8
TORSDOF 1
ENDMDL
