MODEL 1
REMARK minimizedAffinity 11.6885729
REMARK minimizedRMSD -1
REMARK  1 active torsions:
REMARK  status: ('A' for Active; 'I' for Inactive)
REMARK    1  A    between atoms: C1_2  and  C2_3 
ROOT
ATOM      1  C2  UNL d   1       0.938  -0.804  -2.878  0.00  0.00    -0.081 A 
ATOM      2  C3  UNL d   1       0.954   0.418  -3.562  0.00  0.00     0.006 A 
ATOM      3  C4  UNL d   1       0.810   1.620  -2.866  0.00  0.00     0.002 A 
ATOM      4  C5  UNL d   1       0.657   1.622  -1.475  0.00  0.00    -0.080 A 
ATOM      5  C6  UNL d   1       0.532   2.907  -0.713  0.00  0.00     0.076 C 
ATOM      6  C7  UNL d   1       0.624   0.400  -0.794  0.00  0.00     0.002 A 
ATOM      7  C8  UNL d   1       0.767  -0.803  -1.490  0.00  0.00     0.006 A 
ENDROOT
BRANCH   1   8
ATOM      8  C1  UNL d   1       1.158  -2.099  -3.618  0.00  0.00     0.054 C 
ATOM      9  C   UNL d   1       0.572  -3.279  -2.855  0.00  0.00     0.018 C 
ENDBRANCH   1   8
TORSDOF 1
ENDMDL
