MODEL 1
REMARK minimizedAffinity 10.7028093
REMARK minimizedRMSD -1
REMARK  1 active torsions:
REMARK  status: ('A' for Active; 'I' for Inactive)
REMARK    1  A    between atoms: C1_2  and  C2_3 
ROOT
ATOM      1  C2  UNL d   1      -0.096  -1.019  -0.735  0.00  0.00    -0.081 A 
ATOM      2  C3  UNL d   1       0.258  -2.213  -1.375  0.00  0.00     0.006 A 
ATOM      3  C4  UNL d   1       0.849  -2.190  -2.641  0.00  0.00     0.002 A 
ATOM      4  C5  UNL d   1       1.103  -0.974  -3.284  0.00  0.00    -0.080 A 
ATOM      5  C6  UNL d   1       1.764  -0.935  -4.629  0.00  0.00     0.076 C 
ATOM      6  C7  UNL d   1       0.733   0.218  -2.652  0.00  0.00     0.002 A 
ATOM      7  C8  UNL d   1       0.142   0.196  -1.387  0.00  0.00     0.006 A 
ENDROOT
BRANCH   1   8
ATOM      8  C1  UNL d   1      -0.674  -1.037   0.657  0.00  0.00     0.054 C 
ATOM      9  C   UNL d   1      -0.978  -2.458   1.111  0.00  0.00     0.018 C 
ENDBRANCH   1   8
TORSDOF 1
ENDMDL
