MODEL 1
REMARK minimizedAffinity 7.20958614
REMARK minimizedRMSD -1
REMARK  1 active torsions:
REMARK  status: ('A' for Active; 'I' for Inactive)
REMARK    1  A    between atoms: C1_2  and  C2_3 
ROOT
ATOM      1  C2  UNL d   1       1.420  -0.211  -2.258  0.00  0.00    -0.081 A 
ATOM      2  C3  UNL d   1       2.740   0.239  -2.134  0.00  0.00     0.006 A 
ATOM      3  C4  UNL d   1       3.080   1.176  -1.155  0.00  0.00     0.002 A 
ATOM      4  C5  UNL d   1       2.108   1.670  -0.279  0.00  0.00    -0.080 A 
ATOM      5  C6  UNL d   1       2.465   2.653   0.797  0.00  0.00     0.076 C 
ATOM      6  C7  UNL d   1       0.786   1.233  -0.414  0.00  0.00     0.002 A 
ATOM      7  C8  UNL d   1       0.446   0.298  -1.393  0.00  0.00     0.006 A 
ENDROOT
BRANCH   1   8
ATOM      8  C1  UNL d   1       1.064  -1.269  -3.271  0.00  0.00     0.054 C 
ATOM      9  C   UNL d   1       1.105  -2.661  -2.656  0.00  0.00     0.018 C 
ENDBRANCH   1   8
TORSDOF 1
ENDMDL
