MODEL 1
REMARK minimizedAffinity 0.237587705
REMARK minimizedRMSD -1
REMARK  1 active torsions:
REMARK  status: ('A' for Active; 'I' for Inactive)
REMARK    1  A    between atoms: C1_2  and  C2_3 
ROOT
ATOM      1  C2  UNL d   1      -4.040   1.787   5.427  0.00  0.00    -0.081 A 
ATOM      2  C3  UNL d   1      -2.835   2.203   4.847  0.00  0.00     0.006 A 
ATOM      3  C4  UNL d   1      -2.478   3.553   4.848  0.00  0.00     0.002 A 
ATOM      4  C5  UNL d   1      -3.315   4.508   5.436  0.00  0.00    -0.080 A 
ATOM      5  C6  UNL d   1      -2.929   5.957   5.470  0.00  0.00     0.076 C 
ATOM      6  C7  UNL d   1      -4.526   4.095   6.000  0.00  0.00     0.002 A 
ATOM      7  C8  UNL d   1      -4.884   2.745   5.999  0.00  0.00     0.006 A 
ENDROOT
BRANCH   1   8
ATOM      8  C1  UNL d   1      -4.397   0.323   5.485  0.00  0.00     0.054 C 
ATOM      9  C   UNL d   1      -3.752  -0.449   4.344  0.00  0.00     0.018 C 
ENDBRANCH   1   8
TORSDOF 1
ENDMDL
