MODEL 1
REMARK minimizedAffinity 13.7059774
REMARK minimizedRMSD -1
REMARK  1 active torsions:
REMARK  status: ('A' for Active; 'I' for Inactive)
REMARK    1  A    between atoms: C1_2  and  C2_3 
ROOT
ATOM      1  C2  UNL d   1       5.127   0.875  -5.196  0.00  0.00    -0.081 A 
ATOM      2  C3  UNL d   1       3.843   0.817  -5.750  0.00  0.00     0.006 A 
ATOM      3  C4  UNL d   1       3.060   1.970  -5.846  0.00  0.00     0.002 A 
ATOM      4  C5  UNL d   1       3.551   3.200  -5.397  0.00  0.00    -0.080 A 
ATOM      5  C6  UNL d   1       2.732   4.451  -5.521  0.00  0.00     0.076 C 
ATOM      6  C7  UNL d   1       4.827   3.256  -4.827  0.00  0.00     0.002 A 
ATOM      7  C8  UNL d   1       5.610   2.103  -4.731  0.00  0.00     0.006 A 
ENDROOT
BRANCH   1   8
ATOM      8  C1  UNL d   1       5.999  -0.354  -5.151  0.00  0.00     0.054 C 
ATOM      9  C   UNL d   1       5.417  -1.476  -5.998  0.00  0.00     0.018 C 
ENDBRANCH   1   8
TORSDOF 1
ENDMDL
