MODEL 1
REMARK minimizedAffinity 2.29805851
REMARK minimizedRMSD -1
REMARK  1 active torsions:
REMARK  status: ('A' for Active; 'I' for Inactive)
REMARK    1  A    between atoms: C1_2  and  C2_3 
ROOT
ATOM      1  C2  UNL d   1       5.034   1.645  -5.531  0.00  0.00    -0.081 A 
ATOM      2  C3  UNL d   1       5.999   2.619  -5.246  0.00  0.00     0.006 A 
ATOM      3  C4  UNL d   1       5.619   3.870  -4.756  0.00  0.00     0.002 A 
ATOM      4  C5  UNL d   1       4.270   4.166  -4.535  0.00  0.00    -0.080 A 
ATOM      5  C6  UNL d   1       3.850   5.495  -3.981  0.00  0.00     0.076 C 
ATOM      6  C7  UNL d   1       3.304   3.199  -4.836  0.00  0.00     0.002 A 
ATOM      7  C8  UNL d   1       3.684   1.948  -5.327  0.00  0.00     0.006 A 
ENDROOT
BRANCH   1   8
ATOM      8  C1  UNL d   1       5.446   0.272  -5.998  0.00  0.00     0.054 C 
ATOM      9  C   UNL d   1       6.000  -0.560  -4.850  0.00  0.00     0.018 C 
ENDBRANCH   1   8
TORSDOF 1
ENDMDL
