MODEL 1
REMARK minimizedAffinity 12.7335396
REMARK minimizedRMSD -1
REMARK  1 active torsions:
REMARK  status: ('A' for Active; 'I' for Inactive)
REMARK    1  A    between atoms: C1_2  and  C2_3 
ROOT
ATOM      1  C2  UNL d   1       3.109   4.554  -5.301  0.00  0.00    -0.081 A 
ATOM      2  C3  UNL d   1       3.751   4.789  -4.079  0.00  0.00     0.006 A 
ATOM      3  C4  UNL d   1       4.665   3.862  -3.571  0.00  0.00     0.002 A 
ATOM      4  C5  UNL d   1       4.957   2.692  -4.278  0.00  0.00    -0.080 A 
ATOM      5  C6  UNL d   1       5.959   1.704  -3.758  0.00  0.00     0.076 C 
ATOM      6  C7  UNL d   1       4.303   2.449  -5.491  0.00  0.00     0.002 A 
ATOM      7  C8  UNL d   1       3.389   3.375  -6.000  0.00  0.00     0.006 A 
ENDROOT
BRANCH   1   8
ATOM      8  C1  UNL d   1       2.172   5.582  -5.884  0.00  0.00     0.054 C 
ATOM      9  C   UNL d   1       0.738   5.072  -5.908  0.00  0.00     0.018 C 
ENDBRANCH   1   8
TORSDOF 1
ENDMDL
