MODEL 1
REMARK minimizedAffinity 12.8304758
REMARK minimizedRMSD -1
REMARK  1 active torsions:
REMARK  status: ('A' for Active; 'I' for Inactive)
REMARK    1  A    between atoms: C1_2  and  C2_3 
ROOT
ATOM      1  C2  UNL d   1      -0.518  -1.914   1.042  0.00  0.00    -0.081 A 
ATOM      2  C3  UNL d   1      -1.914  -2.005   1.100  0.00  0.00     0.006 A 
ATOM      3  C4  UNL d   1      -2.592  -1.735   2.291  0.00  0.00     0.002 A 
ATOM      4  C5  UNL d   1      -1.887  -1.363   3.441  0.00  0.00    -0.080 A 
ATOM      5  C6  UNL d   1      -2.606  -1.041   4.717  0.00  0.00     0.076 C 
ATOM      6  C7  UNL d   1      -0.491  -1.289   3.387  0.00  0.00     0.002 A 
ATOM      7  C8  UNL d   1       0.188  -1.559   2.197  0.00  0.00     0.006 A 
ENDROOT
BRANCH   1   8
ATOM      8  C1  UNL d   1       0.212  -2.141  -0.257  0.00  0.00     0.054 C 
ATOM      9  C   UNL d   1       0.146  -0.911  -1.151  0.00  0.00     0.018 C 
ENDBRANCH   1   8
TORSDOF 1
ENDMDL
