MODEL 1
REMARK minimizedAffinity 0.0251978766
REMARK minimizedRMSD -1
REMARK  1 active torsions:
REMARK  status: ('A' for Active; 'I' for Inactive)
REMARK    1  A    between atoms: C1_2  and  C2_3 
ROOT
ATOM      1  C2  UNL d   1       0.740  -0.715  -0.559  0.00  0.00    -0.081 A 
ATOM      2  C3  UNL d   1       1.919  -0.245   0.032  0.00  0.00     0.006 A 
ATOM      3  C4  UNL d   1       2.339   1.072  -0.175  0.00  0.00     0.002 A 
ATOM      4  C5  UNL d   1       1.583   1.941  -0.969  0.00  0.00    -0.080 A 
ATOM      5  C6  UNL d   1       2.007   3.365  -1.174  0.00  0.00     0.076 C 
ATOM      6  C7  UNL d   1       0.414   1.467  -1.573  0.00  0.00     0.002 A 
ATOM      7  C8  UNL d   1      -0.006   0.151  -1.367  0.00  0.00     0.006 A 
ENDROOT
BRANCH   1   8
ATOM      8  C1  UNL d   1       0.251  -2.114  -0.285  0.00  0.00     0.054 C 
ATOM      9  C   UNL d   1       0.723  -2.609   1.074  0.00  0.00     0.018 C 
ENDBRANCH   1   8
TORSDOF 1
ENDMDL
