MODEL 1
REMARK minimizedAffinity -4.68035889
REMARK minimizedRMSD -1
REMARK  1 active torsions:
REMARK  status: ('A' for Active; 'I' for Inactive)
REMARK    1  A    between atoms: C1_2  and  C2_3 
ROOT
ATOM      1  C2  UNL d   1       1.324   1.311  -0.550  0.00  0.00    -0.081 A 
ATOM      2  C3  UNL d   1       1.494   1.872  -1.821  0.00  0.00     0.006 A 
ATOM      3  C4  UNL d   1       1.631   3.254  -1.973  0.00  0.00     0.002 A 
ATOM      4  C5  UNL d   1       1.610   4.097  -0.856  0.00  0.00    -0.080 A 
ATOM      5  C6  UNL d   1       1.787   5.579  -1.002  0.00  0.00     0.076 C 
ATOM      6  C7  UNL d   1       1.423   3.538   0.413  0.00  0.00     0.002 A 
ATOM      7  C8  UNL d   1       1.284   2.156   0.565  0.00  0.00     0.006 A 
ENDROOT
BRANCH   1   8
ATOM      8  C1  UNL d   1       1.240  -0.184  -0.377  0.00  0.00     0.054 C 
ATOM      9  C   UNL d   1       0.804  -0.866  -1.665  0.00  0.00     0.018 C 
ENDBRANCH   1   8
TORSDOF 1
ENDMDL
