MODEL 1
REMARK minimizedAffinity -3.87843943
REMARK minimizedRMSD -1
REMARK  1 active torsions:
REMARK  status: ('A' for Active; 'I' for Inactive)
REMARK    1  A    between atoms: C1_2  and  C2_3 
ROOT
ATOM      1  C2  UNL d   1       1.145   3.787  -0.266  0.00  0.00    -0.081 A 
ATOM      2  C3  UNL d   1       0.813   2.909   0.773  0.00  0.00     0.006 A 
ATOM      3  C4  UNL d   1       0.829   1.528   0.566  0.00  0.00     0.002 A 
ATOM      4  C5  UNL d   1       1.184   1.001  -0.681  0.00  0.00    -0.080 A 
ATOM      5  C6  UNL d   1       1.235  -0.480  -0.908  0.00  0.00     0.076 C 
ATOM      6  C7  UNL d   1       1.499   1.879  -1.724  0.00  0.00     0.002 A 
ATOM      7  C8  UNL d   1       1.482   3.260  -1.517  0.00  0.00     0.006 A 
ENDROOT
BRANCH   1   8
ATOM      8  C1  UNL d   1       1.191   5.274  -0.027  0.00  0.00     0.054 C 
ATOM      9  C   UNL d   1       1.885   5.997  -1.172  0.00  0.00     0.018 C 
ENDBRANCH   1   8
TORSDOF 1
ENDMDL
