MODEL 1
REMARK minimizedAffinity -5.40276003
REMARK minimizedRMSD -1
REMARK  1 active torsions:
REMARK  status: ('A' for Active; 'I' for Inactive)
REMARK    1  A    between atoms: C1_2  and  C2_3 
ROOT
ATOM      1  C2  UNL d   1       1.339  -0.928  -1.111  0.00  0.00    -0.081 A 
ATOM      2  C3  UNL d   1       1.494  -0.601   0.242  0.00  0.00     0.006 A 
ATOM      3  C4  UNL d   1       1.281   0.707   0.683  0.00  0.00     0.002 A 
ATOM      4  C5  UNL d   1       0.902   1.707  -0.219  0.00  0.00    -0.080 A 
ATOM      5  C6  UNL d   1       0.640   3.109   0.246  0.00  0.00     0.076 C 
ATOM      6  C7  UNL d   1       0.764   1.384  -1.573  0.00  0.00     0.002 A 
ATOM      7  C8  UNL d   1       0.978   0.077  -2.015  0.00  0.00     0.006 A 
ENDROOT
BRANCH   1   8
ATOM      8  C1  UNL d   1       1.505  -2.352  -1.579  0.00  0.00     0.054 C 
ATOM      9  C   UNL d   1       0.214  -3.140  -1.421  0.00  0.00     0.018 C 
ENDBRANCH   1   8
TORSDOF 1
ENDMDL
