MODEL 1
REMARK minimizedAffinity 7.26255131
REMARK minimizedRMSD -1
REMARK  1 active torsions:
REMARK  status: ('A' for Active; 'I' for Inactive)
REMARK    1  A    between atoms: C1_2  and  C2_3 
ROOT
ATOM      1  C2  UNL d   1       0.987   1.492  -0.954  0.00  0.00    -0.081 A 
ATOM      2  C3  UNL d   1       0.927   2.339   0.159  0.00  0.00     0.006 A 
ATOM      3  C4  UNL d   1       1.093   1.828   1.448  0.00  0.00     0.002 A 
ATOM      4  C5  UNL d   1       1.329   0.463   1.645  0.00  0.00    -0.080 A 
ATOM      5  C6  UNL d   1       1.539  -0.095   3.021  0.00  0.00     0.076 C 
ATOM      6  C7  UNL d   1       1.371  -0.387   0.534  0.00  0.00     0.002 A 
ATOM      7  C8  UNL d   1       1.204   0.124  -0.755  0.00  0.00     0.006 A 
ENDROOT
BRANCH   1   8
ATOM      8  C1  UNL d   1       0.873   2.051  -2.350  0.00  0.00     0.054 C 
ATOM      9  C   UNL d   1       1.225   3.531  -2.383  0.00  0.00     0.018 C 
ENDBRANCH   1   8
TORSDOF 1
ENDMDL
