MODEL 1
REMARK minimizedAffinity 0.897735715
REMARK minimizedRMSD -1
REMARK  1 active torsions:
REMARK  status: ('A' for Active; 'I' for Inactive)
REMARK    1  A    between atoms: C1_2  and  C2_3 
ROOT
ATOM      1  C2  UNL d   1       0.878   1.946  -2.154  0.00  0.00    -0.081 A 
ATOM      2  C3  UNL d   1       0.471   1.108  -1.109  0.00  0.00     0.006 A 
ATOM      3  C4  UNL d   1       0.495   1.561   0.212  0.00  0.00     0.002 A 
ATOM      4  C5  UNL d   1       0.919   2.861   0.509  0.00  0.00    -0.080 A 
ATOM      5  C6  UNL d   1       0.922   3.370   1.920  0.00  0.00     0.076 C 
ATOM      6  C7  UNL d   1       1.343   3.692  -0.533  0.00  0.00     0.002 A 
ATOM      7  C8  UNL d   1       1.319   3.240  -1.854  0.00  0.00     0.006 A 
ENDROOT
BRANCH   1   8
ATOM      8  C1  UNL d   1       0.792   1.483  -3.586  0.00  0.00     0.054 C 
ATOM      9  C   UNL d   1       1.333   0.069  -3.744  0.00  0.00     0.018 C 
ENDBRANCH   1   8
TORSDOF 1
ENDMDL
