MODEL 1
REMARK minimizedAffinity -2.11086297
REMARK minimizedRMSD -1
REMARK  1 active torsions:
REMARK  status: ('A' for Active; 'I' for Inactive)
REMARK    1  A    between atoms: C1_2  and  C2_3 
ROOT
ATOM      1  C2  UNL d   1       1.399   0.226  -0.748  0.00  0.00    -0.081 A 
ATOM      2  C3  UNL d   1       1.711   1.196  -1.709  0.00  0.00     0.006 A 
ATOM      3  C4  UNL d   1       1.657   2.554  -1.388  0.00  0.00     0.002 A 
ATOM      4  C5  UNL d   1       1.298   2.965  -0.100  0.00  0.00    -0.080 A 
ATOM      5  C6  UNL d   1       1.265   4.419   0.267  0.00  0.00     0.076 C 
ATOM      6  C7  UNL d   1       0.969   1.997   0.856  0.00  0.00     0.002 A 
ATOM      7  C8  UNL d   1       1.022   0.639   0.535  0.00  0.00     0.006 A 
ENDROOT
BRANCH   1   8
ATOM      8  C1  UNL d   1       1.519  -1.241  -1.072  0.00  0.00     0.054 C 
ATOM      9  C   UNL d   1       0.348  -2.031  -0.504  0.00  0.00     0.018 C 
ENDBRANCH   1   8
TORSDOF 1
ENDMDL
