MODEL 1
REMARK minimizedAffinity -2.20633078
REMARK minimizedRMSD -1
REMARK  1 active torsions:
REMARK  status: ('A' for Active; 'I' for Inactive)
REMARK    1  A    between atoms: C1_2  and  C2_3 
ROOT
ATOM      1  C2  UNL d   1       1.641   3.650  -1.152  0.00  0.00    -0.081 A 
ATOM      2  C3  UNL d   1       1.613   3.314   0.207  0.00  0.00     0.006 A 
ATOM      3  C4  UNL d   1       1.375   1.997   0.607  0.00  0.00     0.002 A 
ATOM      4  C5  UNL d   1       1.170   0.993  -0.345  0.00  0.00    -0.080 A 
ATOM      5  C6  UNL d   1       0.944  -0.431   0.070  0.00  0.00     0.076 C 
ATOM      6  C7  UNL d   1       1.180   1.331  -1.702  0.00  0.00     0.002 A 
ATOM      7  C8  UNL d   1       1.417   2.647  -2.103  0.00  0.00     0.006 A 
ENDROOT
BRANCH   1   8
ATOM      8  C1  UNL d   1       1.961   5.057  -1.588  0.00  0.00     0.054 C 
ATOM      9  C   UNL d   1       2.552   5.869  -0.445  0.00  0.00     0.018 C 
ENDBRANCH   1   8
TORSDOF 1
ENDMDL
