MODEL 1
REMARK minimizedAffinity -3.61254787
REMARK minimizedRMSD -1
REMARK  1 active torsions:
REMARK  status: ('A' for Active; 'I' for Inactive)
REMARK    1  A    between atoms: C1_2  and  C2_3 
ROOT
ATOM      1  C2  UNL d   1       1.595   3.287  -1.433  0.00  0.00    -0.081 A 
ATOM      2  C3  UNL d   1       1.291   2.942  -0.110  0.00  0.00     0.006 A 
ATOM      3  C4  UNL d   1       1.067   1.609   0.240  0.00  0.00     0.002 A 
ATOM      4  C5  UNL d   1       1.152   0.598  -0.723  0.00  0.00    -0.080 A 
ATOM      5  C6  UNL d   1       0.944  -0.841  -0.354  0.00  0.00     0.076 C 
ATOM      6  C7  UNL d   1       1.439   0.944  -2.048  0.00  0.00     0.002 A 
ATOM      7  C8  UNL d   1       1.662   2.277  -2.399  0.00  0.00     0.006 A 
ENDROOT
BRANCH   1   8
ATOM      8  C1  UNL d   1       1.901   4.716  -1.801  0.00  0.00     0.054 C 
ATOM      9  C   UNL d   1       1.831   5.628  -0.585  0.00  0.00     0.018 C 
ENDBRANCH   1   8
TORSDOF 1
ENDMDL
