MODEL 1
REMARK minimizedAffinity -1.24129581
REMARK minimizedRMSD -1
REMARK  1 active torsions:
REMARK  status: ('A' for Active; 'I' for Inactive)
REMARK    1  A    between atoms: C1_2  and  C2_3 
ROOT
ATOM      1  C2  UNL d   1       1.623   3.756  -0.580  0.00  0.00    -0.081 A 
ATOM      2  C3  UNL d   1       1.426   3.412  -1.923  0.00  0.00     0.006 A 
ATOM      3  C4  UNL d   1       1.025   2.120  -2.271  0.00  0.00     0.002 A 
ATOM      4  C5  UNL d   1       0.808   1.153  -1.283  0.00  0.00    -0.080 A 
ATOM      5  C6  UNL d   1       0.349  -0.229  -1.641  0.00  0.00     0.076 C 
ATOM      6  C7  UNL d   1       1.023   1.493   0.057  0.00  0.00     0.002 A 
ATOM      7  C8  UNL d   1       1.424   2.784   0.406  0.00  0.00     0.006 A 
ENDROOT
BRANCH   1   8
ATOM      8  C1  UNL d   1       1.992   5.167  -0.197  0.00  0.00     0.054 C 
ATOM      9  C   UNL d   1       2.340   6.000  -1.423  0.00  0.00     0.018 C 
ENDBRANCH   1   8
TORSDOF 1
ENDMDL
