MODEL 1
REMARK minimizedAffinity -5.53049612
REMARK minimizedRMSD -1
REMARK  1 active torsions:
REMARK  status: ('A' for Active; 'I' for Inactive)
REMARK    1  A    between atoms: C1_2  and  C2_3 
ROOT
ATOM      1  C2  UNL d   1       1.288   0.275  -1.025  0.00  0.00    -0.081 A 
ATOM      2  C3  UNL d   1       1.336   1.531  -1.642  0.00  0.00     0.006 A 
ATOM      3  C4  UNL d   1       1.221   2.698  -0.882  0.00  0.00     0.002 A 
ATOM      4  C5  UNL d   1       1.063   2.628   0.506  0.00  0.00    -0.080 A 
ATOM      5  C6  UNL d   1       0.968   3.873   1.337  0.00  0.00     0.076 C 
ATOM      6  C7  UNL d   1       0.998   1.373   1.120  0.00  0.00     0.002 A 
ATOM      7  C8  UNL d   1       1.113   0.206   0.361  0.00  0.00     0.006 A 
ENDROOT
BRANCH   1   8
ATOM      8  C1  UNL d   1       1.478  -0.984  -1.833  0.00  0.00     0.054 C 
ATOM      9  C   UNL d   1       1.915  -2.146  -0.953  0.00  0.00     0.018 C 
ENDBRANCH   1   8
TORSDOF 1
ENDMDL
