MODEL 1
REMARK minimizedAffinity 0.277495354
REMARK minimizedRMSD -1
REMARK  1 active torsions:
REMARK  status: ('A' for Active; 'I' for Inactive)
REMARK    1  A    between atoms: C1_2  and  C2_3 
ROOT
ATOM      1  C2  UNL d   1       2.258   3.579  -1.116  0.00  0.00    -0.081 A 
ATOM      2  C3  UNL d   1       2.137   3.344   0.259  0.00  0.00     0.006 A 
ATOM      3  C4  UNL d   1       1.747   2.088   0.731  0.00  0.00     0.002 A 
ATOM      4  C5  UNL d   1       1.480   1.046  -0.162  0.00  0.00    -0.080 A 
ATOM      5  C6  UNL d   1       1.089  -0.315   0.333  0.00  0.00     0.076 C 
ATOM      6  C7  UNL d   1       1.583   1.285  -1.537  0.00  0.00     0.002 A 
ATOM      7  C8  UNL d   1       1.973   2.541  -2.009  0.00  0.00     0.006 A 
ENDROOT
BRANCH   1   8
ATOM      8  C1  UNL d   1       2.741   4.913  -1.626  0.00  0.00     0.054 C 
ATOM      9  C   UNL d   1       2.576   6.000  -0.574  0.00  0.00     0.018 C 
ENDBRANCH   1   8
TORSDOF 1
ENDMDL
