MODEL 1
REMARK minimizedAffinity -4.47429705
REMARK minimizedRMSD -1
REMARK  1 active torsions:
REMARK  status: ('A' for Active; 'I' for Inactive)
REMARK    1  A    between atoms: C1_2  and  C2_3 
ROOT
ATOM      1  C2  UNL d   1       1.334   0.239  -0.937  0.00  0.00    -0.081 A 
ATOM      2  C3  UNL d   1       1.702   1.156  -1.930  0.00  0.00     0.006 A 
ATOM      3  C4  UNL d   1       1.615   2.530  -1.691  0.00  0.00     0.002 A 
ATOM      4  C5  UNL d   1       1.169   3.009  -0.455  0.00  0.00    -0.080 A 
ATOM      5  C6  UNL d   1       1.100   4.481  -0.176  0.00  0.00     0.076 C 
ATOM      6  C7  UNL d   1       0.785   2.093   0.530  0.00  0.00     0.002 A 
ATOM      7  C8  UNL d   1       0.870   0.720   0.292  0.00  0.00     0.006 A 
ENDROOT
BRANCH   1   8
ATOM      8  C1  UNL d   1       1.487  -1.243  -1.168  0.00  0.00     0.054 C 
ATOM      9  C   UNL d   1       2.595  -1.826  -0.303  0.00  0.00     0.018 C 
ENDBRANCH   1   8
TORSDOF 1
ENDMDL
