MODEL 1
REMARK minimizedAffinity -3.6990087
REMARK minimizedRMSD -1
REMARK  0 active torsions:
REMARK  status: ('A' for Active; 'I' for Inactive)
ROOT
ATOM      1  C1  DEN d   1       1.906   4.051  -4.533  0.00  0.00     0.130 A 
ATOM      2  C2  DEN d   1       1.157   5.056  -5.281  0.00  0.00    -0.031 A 
ATOM      3  C3  DEN d   1       2.125   6.000  -5.875  0.00  0.00     0.027 A 
ATOM      4  C4  DEN d   1       4.699   5.999  -5.711  0.00  0.00     0.027 A 
ATOM      5  C5  DEN d   1       5.790   5.351  -5.175  0.00  0.00    -0.003 A 
ATOM      6  C6  DEN d   1       5.662   4.253  -4.366  0.00  0.00     0.001 A 
ATOM      7  C7  DEN d   1       4.417   3.743  -4.106  0.00  0.00     0.017 A 
ATOM      8  C8  DEN d   1       3.312   4.396  -4.637  0.00  0.00    -0.094 A 
ATOM      9  C9  DEN d   1       3.463   5.497  -5.463  0.00  0.00    -0.072 A 
ENDROOT
TORSDOF 0
ENDMDL
