MODEL 1
REMARK minimizedAffinity 1.71428561
REMARK minimizedRMSD -1
REMARK  0 active torsions:
REMARK  status: ('A' for Active; 'I' for Inactive)
ROOT
ATOM      1  C1  DEN d   1       0.839   5.898  -5.991  0.00  0.00     0.130 A 
ATOM      2  C2  DEN d   1       2.222   5.934  -5.524  0.00  0.00    -0.031 A 
ATOM      3  C3  DEN d   1       2.206   5.982  -4.049  0.00  0.00     0.027 A 
ATOM      4  C4  DEN d   1       0.183   5.999  -2.448  0.00  0.00     0.027 A 
ATOM      5  C5  DEN d   1      -1.193   5.992  -2.378  0.00  0.00    -0.003 A 
ATOM      6  C6  DEN d   1      -1.981   5.987  -3.498  0.00  0.00     0.001 A 
ATOM      7  C7  DEN d   1      -1.399   5.944  -4.737  0.00  0.00     0.017 A 
ATOM      8  C8  DEN d   1      -0.013   5.959  -4.817  0.00  0.00    -0.094 A 
ATOM      9  C9  DEN d   1       0.767   5.951  -3.673  0.00  0.00    -0.072 A 
ENDROOT
TORSDOF 0
ENDMDL
