MODEL 1
REMARK minimizedAffinity -1.95483625
REMARK minimizedRMSD -1
REMARK  0 active torsions:
REMARK  status: ('A' for Active; 'I' for Inactive)
ROOT
ATOM      1  C1  DEN d   1       2.345   5.999  -6.000  0.00  0.00     0.130 A 
ATOM      2  C2  DEN d   1       1.335   5.082  -5.478  0.00  0.00    -0.031 A 
ATOM      3  C3  DEN d   1       2.034   3.950  -4.837  0.00  0.00     0.027 A 
ATOM      4  C4  DEN d   1       4.568   3.532  -4.599  0.00  0.00     0.027 A 
ATOM      5  C5  DEN d   1       5.819   4.025  -4.894  0.00  0.00    -0.003 A 
ATOM      6  C6  DEN d   1       5.999   5.184  -5.602  0.00  0.00     0.001 A 
ATOM      7  C7  DEN d   1       4.909   5.913  -6.000  0.00  0.00     0.017 A 
ATOM      8  C8  DEN d   1       3.644   5.418  -5.713  0.00  0.00    -0.094 A 
ATOM      9  C9  DEN d   1       3.483   4.250  -4.986  0.00  0.00    -0.072 A 
ENDROOT
TORSDOF 0
ENDMDL
