MODEL 1
REMARK minimizedAffinity 2.13156652
REMARK minimizedRMSD -1
REMARK  0 active torsions:
REMARK  status: ('A' for Active; 'I' for Inactive)
ROOT
ATOM      1  C1  DEN d   1      -0.522   5.960  -4.873  0.00  0.00     0.130 A 
ATOM      2  C2  DEN d   1       0.578   5.984  -3.912  0.00  0.00    -0.031 A 
ATOM      3  C3  DEN d   1      -0.003   6.000  -2.554  0.00  0.00     0.027 A 
ATOM      4  C4  DEN d   1      -2.485   5.986  -1.851  0.00  0.00     0.027 A 
ATOM      5  C5  DEN d   1      -3.782   5.979  -2.313  0.00  0.00    -0.003 A 
ATOM      6  C6  DEN d   1      -4.082   6.000  -3.649  0.00  0.00     0.001 A 
ATOM      7  C7  DEN d   1      -3.070   5.983  -4.572  0.00  0.00     0.017 A 
ATOM      8  C8  DEN d   1      -1.759   5.997  -4.114  0.00  0.00    -0.094 A 
ATOM      9  C9  DEN d   1      -1.477   5.963  -2.759  0.00  0.00    -0.072 A 
ENDROOT
TORSDOF 0
ENDMDL
