MODEL 1
REMARK minimizedAffinity 0.448072195
REMARK minimizedRMSD -1
REMARK  0 active torsions:
REMARK  status: ('A' for Active; 'I' for Inactive)
ROOT
ATOM      1  C1  DEN d   1      -0.318   5.921  -5.951  0.00  0.00     0.130 A 
ATOM      2  C2  DEN d   1       1.094   5.952  -5.581  0.00  0.00    -0.031 A 
ATOM      3  C3  DEN d   1       1.179   5.990  -4.107  0.00  0.00     0.027 A 
ATOM      4  C4  DEN d   1      -0.729   6.000  -2.372  0.00  0.00     0.027 A 
ATOM      5  C5  DEN d   1      -2.097   5.995  -2.207  0.00  0.00    -0.003 A 
ATOM      6  C6  DEN d   1      -2.961   5.999  -3.270  0.00  0.00     0.001 A 
ATOM      7  C7  DEN d   1      -2.465   5.963  -4.547  0.00  0.00     0.017 A 
ATOM      8  C8  DEN d   1      -1.088   5.975  -4.721  0.00  0.00    -0.094 A 
ATOM      9  C9  DEN d   1      -0.231   5.959  -3.633  0.00  0.00    -0.072 A 
ENDROOT
TORSDOF 0
ENDMDL
