MODEL 1
REMARK minimizedAffinity 5.87779808
REMARK minimizedRMSD -1
REMARK  0 active torsions:
REMARK  status: ('A' for Active; 'I' for Inactive)
ROOT
ATOM      1  C1  DEN d   1       0.647   3.094   0.200  0.00  0.00     0.130 A 
ATOM      2  C2  DEN d   1       0.726   3.668  -1.140  0.00  0.00    -0.031 A 
ATOM      3  C3  DEN d   1       1.210   2.618  -2.059  0.00  0.00     0.027 A 
ATOM      4  C4  DEN d   1       1.836   0.170  -1.540  0.00  0.00     0.027 A 
ATOM      5  C5  DEN d   1       1.942  -0.774  -0.542  0.00  0.00    -0.003 A 
ATOM      6  C6  DEN d   1       1.659  -0.488   0.767  0.00  0.00     0.001 A 
ATOM      7  C7  DEN d   1       1.212   0.761   1.108  0.00  0.00     0.017 A 
ATOM      8  C8  DEN d   1       1.110   1.720   0.109  0.00  0.00    -0.094 A 
ATOM      9  C9  DEN d   1       1.388   1.408  -1.211  0.00  0.00    -0.072 A 
ENDROOT
TORSDOF 0
ENDMDL
