MODEL 1
REMARK minimizedAffinity 3.06122327
REMARK minimizedRMSD -1
REMARK  0 active torsions:
REMARK  status: ('A' for Active; 'I' for Inactive)
ROOT
ATOM      1  C1  DEN d   1      -1.874   5.954  -2.681  0.00  0.00     0.130 A 
ATOM      2  C2  DEN d   1      -3.125   5.980  -3.435  0.00  0.00    -0.031 A 
ATOM      3  C3  DEN d   1      -2.790   5.999  -4.873  0.00  0.00     0.027 A 
ATOM      4  C4  DEN d   1      -0.470   5.987  -6.000  0.00  0.00     0.027 A 
ATOM      5  C5  DEN d   1       0.889   5.980  -5.772  0.00  0.00    -0.003 A 
ATOM      6  C6  DEN d   1       1.417   5.998  -4.508  0.00  0.00     0.001 A 
ATOM      7  C7  DEN d   1       0.582   5.978  -3.423  0.00  0.00     0.017 A 
ATOM      8  C8  DEN d   1      -0.789   5.993  -3.644  0.00  0.00    -0.094 A 
ATOM      9  C9  DEN d   1      -1.304   5.963  -4.929  0.00  0.00    -0.072 A 
ENDROOT
TORSDOF 0
ENDMDL
