MODEL 1
REMARK minimizedAffinity 1.31302226
REMARK minimizedRMSD -1
REMARK  0 active torsions:
REMARK  status: ('A' for Active; 'I' for Inactive)
ROOT
ATOM      1  C1  DEN d   1       1.492   1.704  -1.662  0.00  0.00     0.130 A 
ATOM      2  C2  DEN d   1       1.907   2.982  -1.091  0.00  0.00    -0.031 A 
ATOM      3  C3  DEN d   1       1.560   2.975   0.345  0.00  0.00     0.027 A 
ATOM      4  C4  DEN d   1       0.430   1.116   1.731  0.00  0.00     0.027 A 
ATOM      5  C5  DEN d   1      -0.115  -0.147   1.681  0.00  0.00    -0.003 A 
ATOM      6  C6  DEN d   1      -0.194  -0.863   0.516  0.00  0.00     0.001 A 
ATOM      7  C7  DEN d   1       0.322  -0.338  -0.639  0.00  0.00     0.017 A 
ATOM      8  C8  DEN d   1       0.867   0.939  -0.598  0.00  0.00    -0.094 A 
ATOM      9  C9  DEN d   1       0.949   1.641   0.592  0.00  0.00    -0.072 A 
ENDROOT
TORSDOF 0
ENDMDL
