MODEL 1
REMARK minimizedAffinity 5.93259621
REMARK minimizedRMSD -1
REMARK  0 active torsions:
REMARK  status: ('A' for Active; 'I' for Inactive)
ROOT
ATOM      1  C1  DEN d   1      -0.218  -0.541   0.960  0.00  0.00     0.130 A 
ATOM      2  C2  DEN d   1      -0.113  -0.036   2.326  0.00  0.00    -0.031 A 
ATOM      3  C3  DEN d   1       0.571   1.271   2.278  0.00  0.00     0.027 A 
ATOM      4  C4  DEN d   1       1.470   2.558   0.231  0.00  0.00     0.027 A 
ATOM      5  C5  DEN d   1       1.623   2.525  -1.137  0.00  0.00    -0.003 A 
ATOM      6  C6  DEN d   1       1.207   1.461  -1.893  0.00  0.00     0.001 A 
ATOM      7  C7  DEN d   1       0.576   0.405  -1.289  0.00  0.00     0.017 A 
ATOM      8  C8  DEN d   1       0.425   0.428   0.091  0.00  0.00    -0.094 A 
ATOM      9  C9  DEN d   1       0.842   1.519   0.836  0.00  0.00    -0.072 A 
ENDROOT
TORSDOF 0
ENDMDL
