MODEL 1
REMARK minimizedAffinity 3.55418825
REMARK minimizedRMSD -1
REMARK  0 active torsions:
REMARK  status: ('A' for Active; 'I' for Inactive)
ROOT
ATOM      1  C1  DEN d   1       2.695   0.709   1.834  0.00  0.00     0.130 A 
ATOM      2  C2  DEN d   1       3.574   1.704   1.227  0.00  0.00    -0.031 A 
ATOM      3  C3  DEN d   1       2.742   2.612   0.412  0.00  0.00     0.027 A 
ATOM      4  C4  DEN d   1       0.191   2.576   0.037  0.00  0.00     0.027 A 
ATOM      5  C5  DEN d   1      -0.978   1.911   0.335  0.00  0.00    -0.003 A 
ATOM      6  C6  DEN d   1      -1.000   0.788   1.120  0.00  0.00     0.001 A 
ATOM      7  C7  DEN d   1       0.164   0.322   1.670  0.00  0.00     0.017 A 
ATOM      8  C8  DEN d   1       1.348   0.982   1.368  0.00  0.00    -0.094 A 
ATOM      9  C9  DEN d   1       1.347   2.123   0.583  0.00  0.00    -0.072 A 
ENDROOT
TORSDOF 0
ENDMDL
