MODEL 1
REMARK minimizedAffinity -4.44102716
REMARK minimizedRMSD -1
REMARK  0 active torsions:
REMARK  status: ('A' for Active; 'I' for Inactive)
ROOT
ATOM      1  C1  DEN d   1       1.340   5.998  -3.800  0.00  0.00     0.130 A 
ATOM      2  C2  DEN d   1       1.693   5.957  -5.216  0.00  0.00    -0.031 A 
ATOM      3  C3  DEN d   1       0.441   5.939  -5.999  0.00  0.00     0.027 A 
ATOM      4  C4  DEN d   1      -1.998   5.974  -5.159  0.00  0.00     0.027 A 
ATOM      5  C5  DEN d   1      -2.799   5.996  -4.039  0.00  0.00    -0.003 A 
ATOM      6  C6  DEN d   1      -2.282   5.987  -2.771  0.00  0.00     0.001 A 
ATOM      7  C7  DEN d   1      -0.924   5.999  -2.592  0.00  0.00     0.017 A 
ATOM      8  C8  DEN d   1      -0.109   5.969  -3.716  0.00  0.00    -0.094 A 
ATOM      9  C9  DEN d   1      -0.651   5.991  -4.990  0.00  0.00    -0.072 A 
ENDROOT
TORSDOF 0
ENDMDL
