MODEL 1
REMARK minimizedAffinity 2.56245494
REMARK minimizedRMSD -1
REMARK  0 active torsions:
REMARK  status: ('A' for Active; 'I' for Inactive)
ROOT
ATOM      1  C1  DEN d   1       2.012   5.648  -5.999  0.00  0.00     0.130 A 
ATOM      2  C2  DEN d   1       1.119   4.504  -5.836  0.00  0.00    -0.031 A 
ATOM      3  C3  DEN d   1       1.878   3.422  -5.178  0.00  0.00     0.027 A 
ATOM      4  C4  DEN d   1       4.336   3.408  -4.395  0.00  0.00     0.027 A 
ATOM      5  C5  DEN d   1       5.497   4.146  -4.329  0.00  0.00    -0.003 A 
ATOM      6  C6  DEN d   1       5.587   5.413  -4.841  0.00  0.00     0.001 A 
ATOM      7  C7  DEN d   1       4.483   5.999  -5.402  0.00  0.00     0.017 A 
ATOM      8  C8  DEN d   1       3.310   5.258  -5.479  0.00  0.00    -0.094 A 
ATOM      9  C9  DEN d   1       3.236   3.983  -4.945  0.00  0.00    -0.072 A 
ENDROOT
TORSDOF 0
ENDMDL
