MODEL 1
REMARK minimizedAffinity -2.50109076
REMARK minimizedRMSD -1
REMARK  0 active torsions:
REMARK  status: ('A' for Active; 'I' for Inactive)
ROOT
ATOM      1  C1  DEN d   1       2.100   4.124  -4.476  0.00  0.00     0.130 A 
ATOM      2  C2  DEN d   1       1.358   5.113  -5.253  0.00  0.00    -0.031 A 
ATOM      3  C3  DEN d   1       2.335   6.000  -5.915  0.00  0.00     0.027 A 
ATOM      4  C4  DEN d   1       4.912   5.935  -5.819  0.00  0.00     0.027 A 
ATOM      5  C5  DEN d   1       5.999   5.282  -5.280  0.00  0.00    -0.003 A 
ATOM      6  C6  DEN d   1       5.863   4.228  -4.416  0.00  0.00     0.001 A 
ATOM      7  C7  DEN d   1       4.613   3.766  -4.100  0.00  0.00     0.017 A 
ATOM      8  C8  DEN d   1       3.512   4.423  -4.633  0.00  0.00    -0.094 A 
ATOM      9  C9  DEN d   1       3.670   5.479  -5.515  0.00  0.00    -0.072 A 
ENDROOT
TORSDOF 0
ENDMDL
