MODEL 1
REMARK minimizedAffinity 1.55218947
REMARK minimizedRMSD -1
REMARK  0 active torsions:
REMARK  status: ('A' for Active; 'I' for Inactive)
ROOT
ATOM      1  C1  DEN d   1      -1.218   5.957  -4.633  0.00  0.00     0.130 A 
ATOM      2  C2  DEN d   1       0.212   5.981  -4.336  0.00  0.00    -0.031 A 
ATOM      3  C3  DEN d   1       0.373   5.998  -2.868  0.00  0.00     0.027 A 
ATOM      4  C4  DEN d   1      -1.443   5.986  -1.036  0.00  0.00     0.027 A 
ATOM      5  C5  DEN d   1      -2.800   5.980  -0.801  0.00  0.00    -0.003 A 
ATOM      6  C6  DEN d   1      -3.717   5.999  -1.818  0.00  0.00     0.001 A 
ATOM      7  C7  DEN d   1      -3.289   5.981  -3.119  0.00  0.00     0.017 A 
ATOM      8  C8  DEN d   1      -1.922   5.995  -3.364  0.00  0.00    -0.094 A 
ATOM      9  C9  DEN d   1      -1.011   5.962  -2.322  0.00  0.00    -0.072 A 
ENDROOT
TORSDOF 0
ENDMDL
