MODEL 1
REMARK minimizedAffinity 0.370632619
REMARK minimizedRMSD -1
REMARK  0 active torsions:
REMARK  status: ('A' for Active; 'I' for Inactive)
ROOT
ATOM      1  C1  DEN d   1       0.995   6.000  -3.788  0.00  0.00     0.130 A 
ATOM      2  C2  DEN d   1       0.175   5.642  -4.942  0.00  0.00    -0.031 A 
ATOM      3  C3  DEN d   1       1.072   5.135  -6.000  0.00  0.00     0.027 A 
ATOM      4  C4  DEN d   1       3.637   4.864  -5.960  0.00  0.00     0.027 A 
ATOM      5  C5  DEN d   1       4.773   5.045  -5.202  0.00  0.00    -0.003 A 
ATOM      6  C6  DEN d   1       4.733   5.584  -3.944  0.00  0.00     0.001 A 
ATOM      7  C7  DEN d   1       3.528   5.920  -3.387  0.00  0.00     0.017 A 
ATOM      8  C8  DEN d   1       2.378   5.747  -4.147  0.00  0.00    -0.094 A 
ATOM      9  C9  DEN d   1       2.438   5.189  -5.413  0.00  0.00    -0.072 A 
ENDROOT
TORSDOF 0
ENDMDL
