MODEL 1
REMARK minimizedAffinity 4.16227055
REMARK minimizedRMSD -1
REMARK  0 active torsions:
REMARK  status: ('A' for Active; 'I' for Inactive)
ROOT
ATOM      1  C1  DEN d   1       4.247   5.741  -5.972  0.00  0.00     0.130 A 
ATOM      2  C2  DEN d   1       5.140   4.937  -5.142  0.00  0.00    -0.031 A 
ATOM      3  C3  DEN d   1       4.311   4.157  -4.202  0.00  0.00     0.027 A 
ATOM      4  C4  DEN d   1       1.744   4.113  -3.954  0.00  0.00     0.027 A 
ATOM      5  C5  DEN d   1       0.561   4.636  -4.428  0.00  0.00    -0.003 A 
ATOM      6  C6  DEN d   1       0.526   5.581  -5.419  0.00  0.00     0.001 A 
ATOM      7  C7  DEN d   1       1.694   6.000  -5.999  0.00  0.00     0.017 A 
ATOM      8  C8  DEN d   1       2.891   5.483  -5.521  0.00  0.00    -0.094 A 
ATOM      9  C9  DEN d   1       2.905   4.519  -4.527  0.00  0.00    -0.072 A 
ENDROOT
TORSDOF 0
ENDMDL
