MODEL 1
REMARK minimizedAffinity -1.66230166
REMARK minimizedRMSD -1
REMARK  0 active torsions:
REMARK  status: ('A' for Active; 'I' for Inactive)
ROOT
ATOM      1  C1  BNZ d   1      -3.915  -4.695   2.066  0.00  0.00     0.000 A 
ATOM      2  C2  BNZ d   1      -4.732  -5.399   1.222  0.00  0.00     0.000 A 
ATOM      3  C3  BNZ d   1      -4.269  -5.858   0.021  0.00  0.00     0.000 A 
ATOM      4  C4  BNZ d   1      -3.003  -5.580  -0.352  0.00  0.00     0.000 A 
ATOM      5  C5  BNZ d   1      -2.170  -4.864   0.483  0.00  0.00     0.000 A 
ATOM      6  C6  BNZ d   1      -2.628  -4.436   1.709  0.00  0.00     0.000 A 
ENDROOT
TORSDOF 0
ENDMDL
