MODEL 1
REMARK minimizedAffinity -4.52598715
REMARK minimizedRMSD -1
REMARK  0 active torsions:
REMARK  status: ('A' for Active; 'I' for Inactive)
ROOT
ATOM      1  C1  BNZ d   1      -0.683  -1.163   1.678  0.00  0.00     0.000 A 
ATOM      2  C2  BNZ d   1       0.289  -2.051   2.053  0.00  0.00     0.000 A 
ATOM      3  C3  BNZ d   1       1.490  -2.091   1.401  0.00  0.00     0.000 A 
ATOM      4  C4  BNZ d   1       1.701  -1.272   0.350  0.00  0.00     0.000 A 
ATOM      5  C5  BNZ d   1       0.726  -0.378  -0.046  0.00  0.00     0.000 A 
ATOM      6  C6  BNZ d   1      -0.466  -0.313   0.638  0.00  0.00     0.000 A 
ENDROOT
TORSDOF 0
ENDMDL
