MODEL 1
REMARK minimizedAffinity -4.54027319
REMARK minimizedRMSD -1
REMARK  0 active torsions:
REMARK  status: ('A' for Active; 'I' for Inactive)
ROOT
ATOM      1  C1  BNZ d   1      -1.112  -0.105   0.692  0.00  0.00     0.000 A 
ATOM      2  C2  BNZ d   1      -0.886  -1.311   1.299  0.00  0.00     0.000 A 
ATOM      3  C3  BNZ d   1       0.306  -1.961   1.143  0.00  0.00     0.000 A 
ATOM      4  C4  BNZ d   1       1.255  -1.423   0.348  0.00  0.00     0.000 A 
ATOM      5  C5  BNZ d   1       1.038  -0.212  -0.278  0.00  0.00     0.000 A 
ATOM      6  C6  BNZ d   1      -0.149   0.457  -0.087  0.00  0.00     0.000 A 
ENDROOT
TORSDOF 0
ENDMDL
