MODEL 1
REMARK minimizedAffinity -3.4854362
REMARK minimizedRMSD -1
REMARK  0 active torsions:
REMARK  status: ('A' for Active; 'I' for Inactive)
ROOT
ATOM      1  C1  BNZ d   1      -0.021   0.509  -0.152  0.00  0.00     0.000 A 
ATOM      2  C2  BNZ d   1       1.258   0.024  -0.215  0.00  0.00     0.000 A 
ATOM      3  C3  BNZ d   1       1.631  -1.066   0.521  0.00  0.00     0.000 A 
ATOM      4  C4  BNZ d   1       0.736  -1.644   1.349  0.00  0.00     0.000 A 
ATOM      5  C5  BNZ d   1      -0.554  -1.161   1.431  0.00  0.00     0.000 A 
ATOM      6  C6  BNZ d   1      -0.937  -0.088   0.658  0.00  0.00     0.000 A 
ENDROOT
TORSDOF 0
ENDMDL
