MODEL 1
REMARK minimizedAffinity -3.28173137
REMARK minimizedRMSD -1
REMARK  0 active torsions:
REMARK  status: ('A' for Active; 'I' for Inactive)
ROOT
ATOM      1  C1  BNZ d   1      -0.028  -2.079   0.955  0.00  0.00     0.000 A 
ATOM      2  C2  BNZ d   1      -0.444  -0.889   0.420  0.00  0.00     0.000 A 
ATOM      3  C3  BNZ d   1       0.462   0.029  -0.033  0.00  0.00     0.000 A 
ATOM      4  C4  BNZ d   1       1.781  -0.226   0.087  0.00  0.00     0.000 A 
ATOM      5  C5  BNZ d   1       2.216  -1.417   0.633  0.00  0.00     0.000 A 
ATOM      6  C6  BNZ d   1       1.301  -2.356   1.052  0.00  0.00     0.000 A 
ENDROOT
TORSDOF 0
ENDMDL
