MODEL 1
REMARK minimizedAffinity -4.83658886
REMARK minimizedRMSD -1
REMARK  0 active torsions:
REMARK  status: ('A' for Active; 'I' for Inactive)
ROOT
ATOM      1  C1  BNZ d   1      -0.540  -0.811   1.055  0.00  0.00     0.000 A 
ATOM      2  C2  BNZ d   1       0.026  -1.845   1.751  0.00  0.00     0.000 A 
ATOM      3  C3  BNZ d   1       1.214  -2.390   1.352  0.00  0.00     0.000 A 
ATOM      4  C4  BNZ d   1       1.814  -1.928   0.236  0.00  0.00     0.000 A 
ATOM      5  C5  BNZ d   1       1.251  -0.891  -0.482  0.00  0.00     0.000 A 
ATOM      6  C6  BNZ d   1       0.075  -0.319  -0.055  0.00  0.00     0.000 A 
ENDROOT
TORSDOF 0
ENDMDL
