MODEL 1
REMARK minimizedAffinity -4.3200798
REMARK minimizedRMSD -1
REMARK  0 active torsions:
REMARK  status: ('A' for Active; 'I' for Inactive)
ROOT
ATOM      1  C1  BNZ d   1       1.167   0.381  -0.435  0.00  0.00     0.000 A 
ATOM      2  C2  BNZ d   1       1.324  -0.898   0.028  0.00  0.00     0.000 A 
ATOM      3  C3  BNZ d   1       0.326  -1.516   0.729  0.00  0.00     0.000 A 
ATOM      4  C4  BNZ d   1      -0.810  -0.841   1.000  0.00  0.00     0.000 A 
ATOM      5  C5  BNZ d   1      -0.979   0.452   0.548  0.00  0.00     0.000 A 
ATOM      6  C6  BNZ d   1       0.012   1.057  -0.191  0.00  0.00     0.000 A 
ENDROOT
TORSDOF 0
ENDMDL
