MODEL 1
REMARK minimizedAffinity -0.385866135
REMARK minimizedRMSD -1
REMARK  0 active torsions:
REMARK  status: ('A' for Active; 'I' for Inactive)
ROOT
ATOM      1  C1  BNZ d   1      -1.005   0.779   0.366  0.00  0.00     0.000 A 
ATOM      2  C2  BNZ d   1      -0.152  -0.217   0.763  0.00  0.00     0.000 A 
ATOM      3  C3  BNZ d   1       0.940  -0.545   0.010  0.00  0.00     0.000 A 
ATOM      4  C4  BNZ d   1       1.156   0.095  -1.158  0.00  0.00     0.000 A 
ATOM      5  C5  BNZ d   1       0.301   1.094  -1.576  0.00  0.00     0.000 A 
ATOM      6  C6  BNZ d   1      -0.776   1.449  -0.796  0.00  0.00     0.000 A 
ENDROOT
TORSDOF 0
ENDMDL
