MODEL 1
REMARK minimizedAffinity -4.95723343
REMARK minimizedRMSD -1
REMARK  0 active torsions:
REMARK  status: ('A' for Active; 'I' for Inactive)
ROOT
ATOM      1  C1  BNZ d   1       1.382   0.458  -0.515  0.00  0.00     0.000 A 
ATOM      2  C2  BNZ d   1       1.629  -0.805  -0.046  0.00  0.00     0.000 A 
ATOM      3  C3  BNZ d   1       0.656  -1.513   0.604  0.00  0.00     0.000 A 
ATOM      4  C4  BNZ d   1      -0.547  -0.943   0.818  0.00  0.00     0.000 A 
ATOM      5  C5  BNZ d   1      -0.809   0.333   0.358  0.00  0.00     0.000 A 
ATOM      6  C6  BNZ d   1       0.160   1.027  -0.329  0.00  0.00     0.000 A 
ENDROOT
TORSDOF 0
ENDMDL
