MODEL 1
REMARK minimizedAffinity -4.39978504
REMARK minimizedRMSD -1
REMARK  0 active torsions:
REMARK  status: ('A' for Active; 'I' for Inactive)
ROOT
ATOM      1  C1  BNZ d   1       0.108  -2.438   2.382  0.00  0.00     0.000 A 
ATOM      2  C2  BNZ d   1       1.423  -2.538   2.014  0.00  0.00     0.000 A 
ATOM      3  C3  BNZ d   1       1.929  -1.765   1.007  0.00  0.00     0.000 A 
ATOM      4  C4  BNZ d   1       1.112  -0.923   0.342  0.00  0.00     0.000 A 
ATOM      5  C5  BNZ d   1      -0.219  -0.817   0.695  0.00  0.00     0.000 A 
ATOM      6  C6  BNZ d   1      -0.716  -1.568   1.735  0.00  0.00     0.000 A 
ENDROOT
TORSDOF 0
ENDMDL
