MODEL 1
REMARK minimizedAffinity -3.81126833
REMARK minimizedRMSD -1
REMARK  0 active torsions:
REMARK  status: ('A' for Active; 'I' for Inactive)
ROOT
ATOM      1  C1  BNZ d   1       0.143  -2.839   2.632  0.00  0.00     0.000 A 
ATOM      2  C2  BNZ d   1       1.263  -3.026   1.867  0.00  0.00     0.000 A 
ATOM      3  C3  BNZ d   1       1.482  -2.270   0.749  0.00  0.00     0.000 A 
ATOM      4  C4  BNZ d   1       0.563  -1.356   0.377  0.00  0.00     0.000 A 
ATOM      5  C5  BNZ d   1      -0.576  -1.162   1.132  0.00  0.00     0.000 A 
ATOM      6  C6  BNZ d   1      -0.775  -1.899   2.278  0.00  0.00     0.000 A 
ENDROOT
TORSDOF 0
ENDMDL
