MODEL 1
REMARK minimizedAffinity -4.42386627
REMARK minimizedRMSD -1
REMARK  0 active torsions:
REMARK  status: ('A' for Active; 'I' for Inactive)
ROOT
ATOM      1  C1  BNZ d   1       1.087  -2.829   1.613  0.00  0.00     0.000 A 
ATOM      2  C2  BNZ d   1       1.471  -2.292   0.413  0.00  0.00     0.000 A 
ATOM      3  C3  BNZ d   1       0.858  -1.175  -0.082  0.00  0.00     0.000 A 
ATOM      4  C4  BNZ d   1      -0.164  -0.621   0.602  0.00  0.00     0.000 A 
ATOM      5  C5  BNZ d   1      -0.569  -1.157   1.809  0.00  0.00     0.000 A 
ATOM      6  C6  BNZ d   1       0.077  -2.258   2.323  0.00  0.00     0.000 A 
ENDROOT
TORSDOF 0
ENDMDL
