MODEL 1
REMARK minimizedAffinity -3.51331806
REMARK minimizedRMSD -1
REMARK  0 active torsions:
REMARK  status: ('A' for Active; 'I' for Inactive)
ROOT
ATOM      1  C1  BNZ d   1      -0.473  -0.632   0.361  0.00  0.00     0.000 A 
ATOM      2  C2  BNZ d   1       0.785  -1.023  -0.015  0.00  0.00     0.000 A 
ATOM      3  C3  BNZ d   1       1.456  -1.987   0.684  0.00  0.00     0.000 A 
ATOM      4  C4  BNZ d   1       0.886  -2.531   1.779  0.00  0.00     0.000 A 
ATOM      5  C5  BNZ d   1      -0.377  -2.140   2.176  0.00  0.00     0.000 A 
ATOM      6  C6  BNZ d   1      -1.066  -1.197   1.448  0.00  0.00     0.000 A 
ENDROOT
TORSDOF 0
ENDMDL
