MODEL 1
REMARK minimizedAffinity -4.22933578
REMARK minimizedRMSD -1
REMARK  0 active torsions:
REMARK  status: ('A' for Active; 'I' for Inactive)
ROOT
ATOM      1  C1  BNZ d   1      -0.019  -1.195   0.787  0.00  0.00     0.000 A 
ATOM      2  C2  BNZ d   1      -0.511  -1.646   1.982  0.00  0.00     0.000 A 
ATOM      3  C3  BNZ d   1      -0.032  -2.794   2.548  0.00  0.00     0.000 A 
ATOM      4  C4  BNZ d   1       0.910  -3.510   1.900  0.00  0.00     0.000 A 
ATOM      5  C5  BNZ d   1       1.410  -3.073   0.689  0.00  0.00     0.000 A 
ATOM      6  C6  BNZ d   1       0.952  -1.897   0.141  0.00  0.00     0.000 A 
ENDROOT
TORSDOF 0
ENDMDL
