MODEL 1
REMARK minimizedAffinity -4.34048653
REMARK minimizedRMSD -1
REMARK  0 active torsions:
REMARK  status: ('A' for Active; 'I' for Inactive)
ROOT
ATOM      1  C1  BNZ d   1      -0.997  -1.416   1.481  0.00  0.00     0.000 A 
ATOM      2  C2  BNZ d   1      -0.289  -2.208   2.345  0.00  0.00     0.000 A 
ATOM      3  C3  BNZ d   1       1.031  -2.485   2.119  0.00  0.00     0.000 A 
ATOM      4  C4  BNZ d   1       1.629  -2.002   1.011  0.00  0.00     0.000 A 
ATOM      5  C5  BNZ d   1       0.926  -1.210   0.126  0.00  0.00     0.000 A 
ATOM      6  C6  BNZ d   1      -0.391  -0.902   0.376  0.00  0.00     0.000 A 
ENDROOT
TORSDOF 0
ENDMDL
