MODEL 1
REMARK minimizedAffinity -4.40692186
REMARK minimizedRMSD -1
REMARK  0 active torsions:
REMARK  status: ('A' for Active; 'I' for Inactive)
ROOT
ATOM      1  C1  BNZ d   1      -1.093  -0.365   0.839  0.00  0.00     0.000 A 
ATOM      2  C2  BNZ d   1      -0.818  -1.537   1.491  0.00  0.00     0.000 A 
ATOM      3  C3  BNZ d   1       0.376  -2.176   1.308  0.00  0.00     0.000 A 
ATOM      4  C4  BNZ d   1       1.277  -1.664   0.445  0.00  0.00     0.000 A 
ATOM      5  C5  BNZ d   1       1.011  -0.488  -0.227  0.00  0.00     0.000 A 
ATOM      6  C6  BNZ d   1      -0.176   0.173  -0.011  0.00  0.00     0.000 A 
ENDROOT
TORSDOF 0
ENDMDL
