MODEL 1
REMARK minimizedAffinity -4.68086576
REMARK minimizedRMSD -1
REMARK  0 active torsions:
REMARK  status: ('A' for Active; 'I' for Inactive)
ROOT
ATOM      1  C1  BNZ d   1       1.722  -2.606   1.417  0.00  0.00     0.000 A 
ATOM      2  C2  BNZ d   1       2.360  -1.937   0.406  0.00  0.00     0.000 A 
ATOM      3  C3  BNZ d   1       1.730  -0.932  -0.274  0.00  0.00     0.000 A 
ATOM      4  C4  BNZ d   1       0.452  -0.626   0.029  0.00  0.00     0.000 A 
ATOM      5  C5  BNZ d   1      -0.208  -1.298   1.038  0.00  0.00     0.000 A 
ATOM      6  C6  BNZ d   1       0.442  -2.282   1.748  0.00  0.00     0.000 A 
ENDROOT
TORSDOF 0
ENDMDL
