MODEL 1
REMARK minimizedAffinity -4.10122919
REMARK minimizedRMSD -1
REMARK  0 active torsions:
REMARK  status: ('A' for Active; 'I' for Inactive)
ROOT
ATOM      1  C1  BNZ d   1       1.393   0.478  -0.470  0.00  0.00     0.000 A 
ATOM      2  C2  BNZ d   1       1.750  -0.733   0.060  0.00  0.00     0.000 A 
ATOM      3  C3  BNZ d   1       0.806  -1.580   0.570  0.00  0.00     0.000 A 
ATOM      4  C4  BNZ d   1      -0.487  -1.198   0.585  0.00  0.00     0.000 A 
ATOM      5  C5  BNZ d   1      -0.863   0.024   0.063  0.00  0.00     0.000 A 
ATOM      6  C6  BNZ d   1       0.086   0.857  -0.484  0.00  0.00     0.000 A 
ENDROOT
TORSDOF 0
ENDMDL
