MODEL 1
REMARK minimizedAffinity -0.708694041
REMARK minimizedRMSD -1
REMARK  0 active torsions:
REMARK  status: ('A' for Active; 'I' for Inactive)
ROOT
ATOM      1  C   UNL d   1      -0.175   2.723   1.896  0.00  0.00     0.078 C 
ATOM      2  C1  UNL d   1       0.381   1.431   1.377  0.00  0.00    -0.077 A 
ATOM      3  C2  UNL d   1       1.589   0.918   1.865  0.00  0.00    -0.001 A 
ATOM      4  C3  UNL d   1       2.100  -0.281   1.366  0.00  0.00     0.003 A 
ATOM      5  C4  UNL d   1       1.410  -0.977   0.376  0.00  0.00    -0.005 A 
ATOM      6  C5  UNL d   1       0.208  -0.474  -0.118  0.00  0.00     0.003 A 
ATOM      7  C6  UNL d   1      -0.304   0.725   0.380  0.00  0.00    -0.001 A 
ENDROOT
TORSDOF 0
ENDMDL
