MODEL 1
REMARK minimizedAffinity -3.90906453
REMARK minimizedRMSD -1
REMARK  0 active torsions:
REMARK  status: ('A' for Active; 'I' for Inactive)
ROOT
ATOM      1  C   UNL d   1      -0.702   2.139   2.761  0.00  0.00     0.078 C 
ATOM      2  C1  UNL d   1      -0.062   1.298   1.696  0.00  0.00    -0.077 A 
ATOM      3  C2  UNL d   1      -0.805   0.825   0.608  0.00  0.00    -0.001 A 
ATOM      4  C3  UNL d   1      -0.199   0.035  -0.371  0.00  0.00     0.003 A 
ATOM      5  C4  UNL d   1       1.153  -0.288  -0.271  0.00  0.00    -0.005 A 
ATOM      6  C5  UNL d   1       1.900   0.177   0.810  0.00  0.00     0.003 A 
ATOM      7  C6  UNL d   1       1.295   0.966   1.789  0.00  0.00    -0.001 A 
ENDROOT
TORSDOF 0
ENDMDL
