MODEL 1
REMARK minimizedAffinity -3.47844338
REMARK minimizedRMSD -1
REMARK  0 active torsions:
REMARK  status: ('A' for Active; 'I' for Inactive)
ROOT
ATOM      1  C   UNL d   1      -0.760   1.516   2.560  0.00  0.00     0.078 C 
ATOM      2  C1  UNL d   1      -0.135   0.586   1.564  0.00  0.00    -0.077 A 
ATOM      3  C2  UNL d   1      -0.806   0.233   0.386  0.00  0.00    -0.001 A 
ATOM      4  C3  UNL d   1      -0.215  -0.641  -0.527  0.00  0.00     0.003 A 
ATOM      5  C4  UNL d   1       1.048  -1.172  -0.273  0.00  0.00    -0.005 A 
ATOM      6  C5  UNL d   1       1.722  -0.828   0.897  0.00  0.00     0.003 A 
ATOM      7  C6  UNL d   1       1.134   0.046   1.812  0.00  0.00    -0.001 A 
ENDROOT
TORSDOF 0
ENDMDL
