MODEL 1
REMARK minimizedAffinity -4.56741571
REMARK minimizedRMSD -1
REMARK  0 active torsions:
REMARK  status: ('A' for Active; 'I' for Inactive)
ROOT
ATOM      1  O1  BZF d   1       0.135  -2.923  -0.717  0.00  0.00    -0.204 OA
ATOM      2  C2  BZF d   1      -0.441  -3.524   0.385  0.00  0.00     0.174 A 
ATOM      3  C3  BZF d   1      -0.960  -2.599   1.218  0.00  0.00    -0.012 A 
ATOM      4  C3A BZF d   1      -0.772  -1.346   0.554  0.00  0.00    -0.107 A 
ATOM      5  C4  BZF d   1      -1.093  -0.058   0.872  0.00  0.00     0.055 A 
ATOM      6  C5  BZF d   1      -0.705   0.944   0.040  0.00  0.00    -0.016 A 
ATOM      7  C6  BZF d   1       0.009   0.694  -1.114  0.00  0.00     0.022 A 
ATOM      8  C7  BZF d   1       0.345  -0.568  -1.474  0.00  0.00     0.029 A 
ATOM      9  C7A BZF d   1      -0.074  -1.586  -0.652  0.00  0.00     0.058 A 
ENDROOT
TORSDOF 0
ENDMDL
