MODEL 1
REMARK minimizedAffinity 1.45800436
REMARK minimizedRMSD -1
REMARK  0 active torsions:
REMARK  status: ('A' for Active; 'I' for Inactive)
ROOT
ATOM      1  O1  BZF d   1       1.019  -0.777  -2.210  0.00  0.00    -0.204 OA
ATOM      2  C2  BZF d   1       0.933  -2.074  -1.742  0.00  0.00     0.174 A 
ATOM      3  C3  BZF d   1       0.508  -2.093  -0.462  0.00  0.00    -0.012 A 
ATOM      4  C3A BZF d   1       0.228  -0.728  -0.138  0.00  0.00    -0.107 A 
ATOM      5  C4  BZF d   1      -0.240  -0.107   0.985  0.00  0.00     0.055 A 
ATOM      6  C5  BZF d   1      -0.331   1.249   1.000  0.00  0.00    -0.016 A 
ATOM      7  C6  BZF d   1       0.042   2.014  -0.086  0.00  0.00     0.022 A 
ATOM      8  C7  BZF d   1       0.508   1.443  -1.223  0.00  0.00     0.029 A 
ATOM      9  C7A BZF d   1       0.570   0.071  -1.253  0.00  0.00     0.058 A 
ENDROOT
TORSDOF 0
ENDMDL
