MODEL 1
REMARK minimizedAffinity -5.047616
REMARK minimizedRMSD -1
REMARK  0 active torsions:
REMARK  status: ('A' for Active; 'I' for Inactive)
ROOT
ATOM      1  O1  BZF d   1      -0.702  -2.721   1.241  0.00  0.00    -0.204 OA
ATOM      2  C2  BZF d   1       0.155  -3.474   0.461  0.00  0.00     0.174 A 
ATOM      3  C3  BZF d   1       0.771  -2.701  -0.456  0.00  0.00    -0.012 A 
ATOM      4  C3A BZF d   1       0.338  -1.367  -0.176  0.00  0.00    -0.107 A 
ATOM      5  C4  BZF d   1       0.616  -0.152  -0.735  0.00  0.00     0.055 A 
ATOM      6  C5  BZF d   1      -0.030   0.951  -0.274  0.00  0.00    -0.016 A 
ATOM      7  C6  BZF d   1      -0.963   0.875   0.740  0.00  0.00     0.022 A 
ATOM      8  C7  BZF d   1      -1.269  -0.307   1.329  0.00  0.00     0.029 A 
ATOM      9  C7A BZF d   1      -0.593  -1.418   0.887  0.00  0.00     0.058 A 
ENDROOT
TORSDOF 0
ENDMDL
