MODEL 1
REMARK minimizedAffinity -5.86591053
REMARK minimizedRMSD -1
REMARK  0 active torsions:
REMARK  status: ('A' for Active; 'I' for Inactive)
ROOT
ATOM      1  O1  BZF d   1       0.729  -0.767  -1.855  0.00  0.00    -0.204 OA
ATOM      2  C2  BZF d   1       0.313   0.546  -1.962  0.00  0.00     0.174 A 
ATOM      3  C3  BZF d   1      -0.400   0.912  -0.878  0.00  0.00    -0.012 A 
ATOM      4  C3A BZF d   1      -0.353  -0.216   0.002  0.00  0.00    -0.107 A 
ATOM      5  C4  BZF d   1      -0.862  -0.458   1.245  0.00  0.00     0.055 A 
ATOM      6  C5  BZF d   1      -0.699  -1.689   1.797  0.00  0.00    -0.016 A 
ATOM      7  C6  BZF d   1      -0.038  -2.701   1.132  0.00  0.00     0.022 A 
ATOM      8  C7  BZF d   1       0.489  -2.507  -0.101  0.00  0.00     0.029 A 
ATOM      9  C7A BZF d   1       0.354  -1.254  -0.648  0.00  0.00     0.058 A 
ENDROOT
TORSDOF 0
ENDMDL
