MODEL 1
REMARK minimizedAffinity -4.6495924
REMARK minimizedRMSD -1
REMARK  0 active torsions:
REMARK  status: ('A' for Active; 'I' for Inactive)
ROOT
ATOM      1  O1  BZF d   1      -1.319   0.359   0.599  0.00  0.00    -0.204 OA
ATOM      2  C2  BZF d   1      -0.777   1.241  -0.316  0.00  0.00     0.174 A 
ATOM      3  C3  BZF d   1       0.283   0.689  -0.942  0.00  0.00    -0.012 A 
ATOM      4  C3A BZF d   1       0.354  -0.653  -0.449  0.00  0.00    -0.107 A 
ATOM      5  C4  BZF d   1       1.186  -1.705  -0.707  0.00  0.00     0.055 A 
ATOM      6  C5  BZF d   1       1.031  -2.857  -0.003  0.00  0.00    -0.016 A 
ATOM      7  C6  BZF d   1       0.060  -2.990   0.968  0.00  0.00     0.022 A 
ATOM      8  C7  BZF d   1      -0.792  -1.976   1.255  0.00  0.00     0.029 A 
ATOM      9  C7A BZF d   1      -0.659  -0.821   0.523  0.00  0.00     0.058 A 
ENDROOT
TORSDOF 0
ENDMDL
