MODEL 1
REMARK minimizedAffinity -3.38331127
REMARK minimizedRMSD -1
REMARK  0 active torsions:
REMARK  status: ('A' for Active; 'I' for Inactive)
ROOT
ATOM      1  O1  BZF d   1      -0.725  -2.594   1.315  0.00  0.00    -0.204 OA
ATOM      2  C2  BZF d   1       0.058  -3.460   0.577  0.00  0.00     0.174 A 
ATOM      3  C3  BZF d   1       0.744  -2.793  -0.374  0.00  0.00    -0.012 A 
ATOM      4  C3A BZF d   1       0.438  -1.412  -0.160  0.00  0.00    -0.107 A 
ATOM      5  C4  BZF d   1       0.829  -0.258  -0.775  0.00  0.00     0.055 A 
ATOM      6  C5  BZF d   1       0.290   0.922  -0.369  0.00  0.00    -0.016 A 
ATOM      7  C6  BZF d   1      -0.646   0.983   0.643  0.00  0.00     0.022 A 
ATOM      8  C7  BZF d   1      -1.061  -0.135   1.286  0.00  0.00     0.029 A 
ATOM      9  C7A BZF d   1      -0.494  -1.325   0.901  0.00  0.00     0.058 A 
ENDROOT
TORSDOF 0
ENDMDL
