MODEL 1
REMARK minimizedAffinity -2.84076619
REMARK minimizedRMSD -1
REMARK  0 active torsions:
REMARK  status: ('A' for Active; 'I' for Inactive)
ROOT
ATOM      1  O1  BZF d   1       0.323   0.139  -1.338  0.00  0.00    -0.204 OA
ATOM      2  C2  BZF d   1       0.028   1.361  -0.763  0.00  0.00     0.174 A 
ATOM      3  C3  BZF d   1      -0.495   1.196   0.469  0.00  0.00    -0.012 A 
ATOM      4  C3A BZF d   1      -0.444  -0.213   0.714  0.00  0.00    -0.107 A 
ATOM      5  C4  BZF d   1      -0.806  -0.995   1.773  0.00  0.00     0.055 A 
ATOM      6  C5  BZF d   1      -0.694  -2.345   1.666  0.00  0.00    -0.016 A 
ATOM      7  C6  BZF d   1      -0.231  -2.946   0.514  0.00  0.00     0.022 A 
ATOM      8  C7  BZF d   1       0.145  -2.211  -0.561  0.00  0.00     0.029 A 
ATOM      9  C7A BZF d   1       0.064  -0.845  -0.444  0.00  0.00     0.058 A 
ENDROOT
TORSDOF 0
ENDMDL
