MODEL 1
REMARK minimizedAffinity -1.97135639
REMARK minimizedRMSD -1
REMARK  0 active torsions:
REMARK  status: ('A' for Active; 'I' for Inactive)
ROOT
ATOM      1  O1  BZF d   1       1.342  -0.006   0.758  0.00  0.00    -0.204 OA
ATOM      2  C2  BZF d   1       0.203  -0.404   0.085  0.00  0.00     0.174 A 
ATOM      3  C3  BZF d   1      -0.471   0.665  -0.387  0.00  0.00    -0.012 A 
ATOM      4  C3A BZF d   1       0.342   1.796  -0.062  0.00  0.00    -0.107 A 
ATOM      5  C4  BZF d   1       0.216   3.138  -0.283  0.00  0.00     0.055 A 
ATOM      6  C5  BZF d   1       1.151   3.982   0.226  0.00  0.00    -0.016 A 
ATOM      7  C6  BZF d   1       2.221   3.521   0.964  0.00  0.00     0.022 A 
ATOM      8  C7  BZF d   1       2.391   2.198   1.206  0.00  0.00     0.029 A 
ATOM      9  C7A BZF d   1       1.466   1.339   0.664  0.00  0.00     0.058 A 
ENDROOT
TORSDOF 0
ENDMDL
