MODEL 1
REMARK minimizedAffinity -3.07802939
REMARK minimizedRMSD -1
REMARK  0 active torsions:
REMARK  status: ('A' for Active; 'I' for Inactive)
ROOT
ATOM      1  O1  BZF d   1      -0.752  -1.905   1.081  0.00  0.00    -0.204 OA
ATOM      2  C2  BZF d   1       0.270  -2.516   0.380  0.00  0.00     0.174 A 
ATOM      3  C3  BZF d   1       0.880  -1.635  -0.440  0.00  0.00    -0.012 A 
ATOM      4  C3A BZF d   1       0.257  -0.376  -0.170  0.00  0.00    -0.107 A 
ATOM      5  C4  BZF d   1       0.441   0.886  -0.659  0.00  0.00     0.055 A 
ATOM      6  C5  BZF d   1      -0.382   1.883  -0.240  0.00  0.00    -0.016 A 
ATOM      7  C6  BZF d   1      -1.402   1.652   0.661  0.00  0.00     0.022 A 
ATOM      8  C7  BZF d   1      -1.620   0.418   1.176  0.00  0.00     0.029 A 
ATOM      9  C7A BZF d   1      -0.769  -0.584   0.780  0.00  0.00     0.058 A 
ENDROOT
TORSDOF 0
ENDMDL
