MODEL 1
REMARK minimizedAffinity -2.53799129
REMARK minimizedRMSD -1
REMARK  0 active torsions:
REMARK  status: ('A' for Active; 'I' for Inactive)
ROOT
ATOM      1  O1  BZF d   1      -0.726   1.339   0.694  0.00  0.00    -0.204 OA
ATOM      2  C2  BZF d   1       0.114   2.003  -0.179  0.00  0.00     0.174 A 
ATOM      3  C3  BZF d   1       0.927   1.134  -0.814  0.00  0.00    -0.012 A 
ATOM      4  C3A BZF d   1       0.511  -0.162  -0.374  0.00  0.00    -0.107 A 
ATOM      5  C4  BZF d   1       0.926  -1.430  -0.664  0.00  0.00     0.055 A 
ATOM      6  C5  BZF d   1       0.360  -2.477  -0.008  0.00  0.00    -0.016 A 
ATOM      7  C6  BZF d   1      -0.619  -2.292   0.946  0.00  0.00     0.022 A 
ATOM      8  C7  BZF d   1      -1.068  -1.053   1.264  0.00  0.00     0.029 A 
ATOM      9  C7A BZF d   1      -0.521   0.005   0.579  0.00  0.00     0.058 A 
ENDROOT
TORSDOF 0
ENDMDL
