MODEL 1
REMARK minimizedAffinity -3.59729362
REMARK minimizedRMSD -1
REMARK  0 active torsions:
REMARK  status: ('A' for Active; 'I' for Inactive)
ROOT
ATOM      1  O1  BZF d   1       0.443   1.439   1.255  0.00  0.00    -0.204 OA
ATOM      2  C2  BZF d   1       0.680   1.940  -0.010  0.00  0.00     0.174 A 
ATOM      3  C3  BZF d   1       0.504   0.984  -0.944  0.00  0.00    -0.012 A 
ATOM      4  C3A BZF d   1       0.044  -0.164  -0.225  0.00  0.00    -0.107 A 
ATOM      5  C4  BZF d   1      -0.320  -1.425  -0.603  0.00  0.00     0.055 A 
ATOM      6  C5  BZF d   1      -0.651  -2.332   0.353  0.00  0.00    -0.016 A 
ATOM      7  C6  BZF d   1      -0.625  -2.014   1.695  0.00  0.00     0.022 A 
ATOM      8  C7  BZF d   1      -0.277  -0.774   2.118  0.00  0.00     0.029 A 
ATOM      9  C7A BZF d   1       0.027   0.154   1.152  0.00  0.00     0.058 A 
ENDROOT
TORSDOF 0
ENDMDL
