MODEL 1
REMARK minimizedAffinity -2.23060083
REMARK minimizedRMSD -1
REMARK  0 active torsions:
REMARK  status: ('A' for Active; 'I' for Inactive)
ROOT
ATOM      1  O1  BZF d   1       1.158   0.302  -0.572  0.00  0.00    -0.204 OA
ATOM      2  C2  BZF d   1       0.711   1.430   0.088  0.00  0.00     0.174 A 
ATOM      3  C3  BZF d   1      -0.337   1.135   0.883  0.00  0.00    -0.012 A 
ATOM      4  C3A BZF d   1      -0.501  -0.283   0.779  0.00  0.00    -0.107 A 
ATOM      5  C4  BZF d   1      -1.368  -1.172   1.347  0.00  0.00     0.055 A 
ATOM      6  C5  BZF d   1      -1.309  -2.479   0.979  0.00  0.00    -0.016 A 
ATOM      7  C6  BZF d   1      -0.401  -2.929   0.043  0.00  0.00     0.022 A 
ATOM      8  C7  BZF d   1       0.482  -2.085  -0.544  0.00  0.00     0.029 A 
ATOM      9  C7A BZF d   1       0.447  -0.770  -0.150  0.00  0.00     0.058 A 
ENDROOT
TORSDOF 0
ENDMDL
