MODEL 1
REMARK minimizedAffinity -1.68327069
REMARK minimizedRMSD -1
REMARK  0 active torsions:
REMARK  status: ('A' for Active; 'I' for Inactive)
ROOT
ATOM      1  O1  BZF d   1       0.867   0.427  -0.859  0.00  0.00    -0.204 OA
ATOM      2  C2  BZF d   1       0.481   1.675  -0.411  0.00  0.00     0.174 A 
ATOM      3  C3  BZF d   1      -0.410   1.567   0.596  0.00  0.00    -0.012 A 
ATOM      4  C3A BZF d   1      -0.522   0.163   0.851  0.00  0.00    -0.107 A 
ATOM      5  C4  BZF d   1      -1.241  -0.574   1.747  0.00  0.00     0.055 A 
ATOM      6  C5  BZF d   1      -1.182  -1.930   1.685  0.00  0.00    -0.016 A 
ATOM      7  C6  BZF d   1      -0.418  -2.581   0.739  0.00  0.00     0.022 A 
ATOM      8  C7  BZF d   1       0.317  -1.892  -0.168  0.00  0.00     0.029 A 
ATOM      9  C7A BZF d   1       0.285  -0.522  -0.087  0.00  0.00     0.058 A 
ENDROOT
TORSDOF 0
ENDMDL
