MODEL 1
REMARK minimizedAffinity -3.69489717
REMARK minimizedRMSD -1
REMARK  0 active torsions:
REMARK  status: ('A' for Active; 'I' for Inactive)
ROOT
ATOM      1  O1  BZF d   1       0.617   0.378  -1.305  0.00  0.00    -0.204 OA
ATOM      2  C2  BZF d   1       0.030   1.602  -1.050  0.00  0.00     0.174 A 
ATOM      3  C3  BZF d   1      -0.850   1.508  -0.032  0.00  0.00    -0.012 A 
ATOM      4  C3A BZF d   1      -0.742   0.159   0.435  0.00  0.00    -0.107 A 
ATOM      5  C4  BZF d   1      -1.352  -0.538   1.438  0.00  0.00     0.055 A 
ATOM      6  C5  BZF d   1      -1.077  -1.861   1.583  0.00  0.00    -0.016 A 
ATOM      7  C6  BZF d   1      -0.203  -2.518   0.742  0.00  0.00     0.022 A 
ATOM      8  C7  BZF d   1       0.430  -1.867  -0.264  0.00  0.00     0.029 A 
ATOM      9  C7A BZF d   1       0.179  -0.523  -0.393  0.00  0.00     0.058 A 
ENDROOT
TORSDOF 0
ENDMDL
