MODEL 1
REMARK minimizedAffinity 0.245386869
REMARK minimizedRMSD -1
REMARK  0 active torsions:
REMARK  status: ('A' for Active; 'I' for Inactive)
ROOT
ATOM      1  O1  BZF d   1       0.624   1.846  -0.952  0.00  0.00    -0.204 OA
ATOM      2  C2  BZF d   1       0.876   2.843  -0.029  0.00  0.00     0.174 A 
ATOM      3  C3  BZF d   1       0.672   2.395   1.227  0.00  0.00    -0.012 A 
ATOM      4  C3A BZF d   1       0.356   1.007   1.084  0.00  0.00    -0.107 A 
ATOM      5  C4  BZF d   1       0.068   0.013   1.976  0.00  0.00     0.055 A 
ATOM      6  C5  BZF d   1      -0.267  -1.218   1.508  0.00  0.00    -0.016 A 
ATOM      7  C6  BZF d   1      -0.328  -1.489   0.156  0.00  0.00     0.022 A 
ATOM      8  C7  BZF d   1      -0.045  -0.537  -0.766  0.00  0.00     0.029 A 
ATOM      9  C7A BZF d   1       0.325   0.699  -0.296  0.00  0.00     0.058 A 
ENDROOT
TORSDOF 0
ENDMDL
