MODEL 1
REMARK minimizedAffinity -1.70497859
REMARK minimizedRMSD -1
REMARK  0 active torsions:
REMARK  status: ('A' for Active; 'I' for Inactive)
ROOT
ATOM      1  C   UNL d   1      -0.994  -1.353   1.722  0.00  0.00     0.020 A 
ATOM      2  C1  UNL d   1      -1.054  -2.344   0.743  0.00  0.00     0.020 A 
ATOM      3  C2  UNL d   1      -0.638  -2.064  -0.560  0.00  0.00     0.034 A 
ATOM      4  C3  UNL d   1      -0.161  -0.789  -0.888  0.00  0.00     0.017 A 
ATOM      5  C4  UNL d   1      -0.102   0.205   0.096  0.00  0.00     0.017 A 
ATOM      6  C5  UNL d   1      -0.519  -0.082   1.399  0.00  0.00     0.034 A 
ATOM      7 Cl   UNL d   1       0.475   1.800  -0.233  0.00  0.00    -0.070 Cl
ATOM      8 Cl1  UNL d   1       0.337  -0.512  -2.519  0.00  0.00    -0.070 Cl
ENDROOT
TORSDOF 0
ENDMDL
