MODEL 1
REMARK minimizedAffinity -2.95251703
REMARK minimizedRMSD -1
REMARK  0 active torsions:
REMARK  status: ('A' for Active; 'I' for Inactive)
ROOT
ATOM      1  C   UNL d   1      -1.142  -3.545   0.000  0.00  0.00     0.020 A 
ATOM      2  C1  UNL d   1       0.010  -4.083  -0.573  0.00  0.00     0.020 A 
ATOM      3  C2  UNL d   1       1.087  -3.251  -0.887  0.00  0.00     0.034 A 
ATOM      4  C3  UNL d   1       1.014  -1.877  -0.629  0.00  0.00     0.017 A 
ATOM      5  C4  UNL d   1      -0.143  -1.339  -0.053  0.00  0.00     0.017 A 
ATOM      6  C5  UNL d   1      -1.218  -2.176   0.260  0.00  0.00     0.034 A 
ATOM      7 Cl   UNL d   1      -0.307   0.346   0.295  0.00  0.00    -0.070 Cl
ATOM      8 Cl1  UNL d   1       2.383  -0.908  -1.043  0.00  0.00    -0.070 Cl
ENDROOT
TORSDOF 0
ENDMDL
