MODEL 1
REMARK minimizedAffinity -2.80153441
REMARK minimizedRMSD -1
REMARK  0 active torsions:
REMARK  status: ('A' for Active; 'I' for Inactive)
ROOT
ATOM      1  C   UNL d   1      -1.737   0.213   0.779  0.00  0.00     0.020 A 
ATOM      2  C1  UNL d   1      -1.799  -0.740   1.795  0.00  0.00     0.020 A 
ATOM      3  C2  UNL d   1      -1.041  -1.909   1.704  0.00  0.00     0.034 A 
ATOM      4  C3  UNL d   1      -0.216  -2.128   0.594  0.00  0.00     0.017 A 
ATOM      5  C4  UNL d   1      -0.155  -1.171  -0.426  0.00  0.00     0.017 A 
ATOM      6  C5  UNL d   1      -0.916  -0.003  -0.329  0.00  0.00     0.034 A 
ATOM      7 Cl   UNL d   1       0.839  -1.371  -1.825  0.00  0.00    -0.070 Cl
ATOM      8 Cl1  UNL d   1       0.695  -3.595   0.547  0.00  0.00    -0.070 Cl
ENDROOT
TORSDOF 0
ENDMDL
