MODEL 1
REMARK minimizedAffinity -4.20637465
REMARK minimizedRMSD -1
REMARK  0 active torsions:
REMARK  status: ('A' for Active; 'I' for Inactive)
ROOT
ATOM      1  C   UNL d   1      -0.717  -1.861   1.998  0.00  0.00     0.020 A 
ATOM      2  C1  UNL d   1      -0.215  -2.898   1.212  0.00  0.00     0.020 A 
ATOM      3  C2  UNL d   1       0.255  -2.633  -0.076  0.00  0.00     0.034 A 
ATOM      4  C3  UNL d   1       0.223  -1.329  -0.583  0.00  0.00     0.017 A 
ATOM      5  C4  UNL d   1      -0.281  -0.289   0.206  0.00  0.00     0.017 A 
ATOM      6  C5  UNL d   1      -0.750  -0.559   1.496  0.00  0.00     0.034 A 
ATOM      7 Cl   UNL d   1      -0.352   1.346  -0.350  0.00  0.00    -0.070 Cl
ATOM      8 Cl1  UNL d   1       0.821  -1.074  -2.184  0.00  0.00    -0.070 Cl
ENDROOT
TORSDOF 0
ENDMDL
