MODEL 1
REMARK minimizedAffinity -1.76616585
REMARK minimizedRMSD -1
REMARK  0 active torsions:
REMARK  status: ('A' for Active; 'I' for Inactive)
ROOT
ATOM      1  C   UNL d   1      -0.378  -2.757   1.078  0.00  0.00     0.020 A 
ATOM      2  C1  UNL d   1      -0.587  -1.659   1.911  0.00  0.00     0.020 A 
ATOM      3  C2  UNL d   1      -0.273  -0.374   1.463  0.00  0.00     0.034 A 
ATOM      4  C3  UNL d   1       0.251  -0.184   0.180  0.00  0.00     0.017 A 
ATOM      5  C4  UNL d   1       0.460  -1.287  -0.656  0.00  0.00     0.017 A 
ATOM      6  C5  UNL d   1       0.144  -2.572  -0.203  0.00  0.00     0.034 A 
ATOM      7 Cl   UNL d   1       1.103  -1.132  -2.253  0.00  0.00    -0.070 Cl
ATOM      8 Cl1  UNL d   1       0.616   1.433  -0.308  0.00  0.00    -0.070 Cl
ENDROOT
TORSDOF 0
ENDMDL
