MODEL 1
REMARK minimizedAffinity -3.60953045
REMARK minimizedRMSD -1
REMARK  0 active torsions:
REMARK  status: ('A' for Active; 'I' for Inactive)
ROOT
ATOM      1  C   UNL d   1      -0.526   0.906   0.239  0.00  0.00     0.020 A 
ATOM      2  C1  UNL d   1      -0.987   0.096   1.275  0.00  0.00     0.020 A 
ATOM      3  C2  UNL d   1      -0.698  -1.270   1.275  0.00  0.00     0.034 A 
ATOM      4  C3  UNL d   1       0.055  -1.830   0.236  0.00  0.00     0.017 A 
ATOM      5  C4  UNL d   1       0.518  -1.015  -0.804  0.00  0.00     0.017 A 
ATOM      6  C5  UNL d   1       0.225   0.352  -0.798  0.00  0.00     0.034 A 
ATOM      7 Cl   UNL d   1       1.453  -1.634  -2.120  0.00  0.00    -0.070 Cl
ATOM      8 Cl1  UNL d   1       0.376  -3.527   0.300  0.00  0.00    -0.070 Cl
ENDROOT
TORSDOF 0
ENDMDL
