MODEL 1
REMARK minimizedAffinity -3.46726871
REMARK minimizedRMSD -1
REMARK  0 active torsions:
REMARK  status: ('A' for Active; 'I' for Inactive)
ROOT
ATOM      1  C   UNL d   1      -1.375  -0.121   1.415  0.00  0.00     0.020 A 
ATOM      2  C1  UNL d   1      -0.876   0.732   0.431  0.00  0.00     0.020 A 
ATOM      3  C2  UNL d   1       0.053   0.259  -0.497  0.00  0.00     0.034 A 
ATOM      4  C3  UNL d   1       0.487  -1.071  -0.444  0.00  0.00     0.017 A 
ATOM      5  C4  UNL d   1      -0.015  -1.926   0.544  0.00  0.00     0.017 A 
ATOM      6  C5  UNL d   1      -0.945  -1.447   1.471  0.00  0.00     0.034 A 
ATOM      7 Cl   UNL d   1       0.473  -3.580   0.673  0.00  0.00    -0.070 Cl
ATOM      8 Cl1  UNL d   1       1.637  -1.589  -1.624  0.00  0.00    -0.070 Cl
ENDROOT
TORSDOF 0
ENDMDL
