MODEL 1
REMARK minimizedAffinity -4.93149662
REMARK minimizedRMSD -1
REMARK  0 active torsions:
REMARK  status: ('A' for Active; 'I' for Inactive)
ROOT
ATOM      1  C   UNL d   1      -0.697  -2.099   1.600  0.00  0.00     0.020 A 
ATOM      2  C1  UNL d   1      -0.412  -3.072   0.643  0.00  0.00     0.020 A 
ATOM      3  C2  UNL d   1       0.035  -2.695  -0.625  0.00  0.00     0.034 A 
ATOM      4  C3  UNL d   1       0.199  -1.341  -0.940  0.00  0.00     0.017 A 
ATOM      5  C4  UNL d   1      -0.088  -0.365   0.021  0.00  0.00     0.017 A 
ATOM      6  C5  UNL d   1      -0.535  -0.748   1.289  0.00  0.00     0.034 A 
ATOM      7 Cl   UNL d   1       0.089   1.326  -0.293  0.00  0.00    -0.070 Cl
ATOM      8 Cl1  UNL d   1       0.756  -0.946  -2.527  0.00  0.00    -0.070 Cl
ENDROOT
TORSDOF 0
ENDMDL
