MODEL 1
REMARK minimizedAffinity -2.65069914
REMARK minimizedRMSD -1
REMARK  0 active torsions:
REMARK  status: ('A' for Active; 'I' for Inactive)
ROOT
ATOM      1  C   UNL d   1      -0.004   1.149  -0.058  0.00  0.00     0.020 A 
ATOM      2  C1  UNL d   1      -0.439   0.532   1.114  0.00  0.00     0.020 A 
ATOM      3  C2  UNL d   1      -0.485  -0.861   1.195  0.00  0.00     0.034 A 
ATOM      4  C3  UNL d   1      -0.096  -1.642   0.101  0.00  0.00     0.017 A 
ATOM      5  C4  UNL d   1       0.340  -1.022  -1.076  0.00  0.00     0.017 A 
ATOM      6  C5  UNL d   1       0.384   0.373  -1.151  0.00  0.00     0.034 A 
ATOM      7 Cl   UNL d   1       0.837  -1.920  -2.467  0.00  0.00    -0.070 Cl
ATOM      8 Cl1  UNL d   1      -0.178  -3.360   0.270  0.00  0.00    -0.070 Cl
ENDROOT
TORSDOF 0
ENDMDL
