MODEL 1
REMARK minimizedAffinity -2.1927731
REMARK minimizedRMSD -1
REMARK  0 active torsions:
REMARK  status: ('A' for Active; 'I' for Inactive)
ROOT
ATOM      1  C   UNL d   1       0.096  -0.810   0.267  0.00  0.00     0.020 A 
ATOM      2  C1  UNL d   1      -1.078  -0.292   0.814  0.00  0.00     0.020 A 
ATOM      3  C2  UNL d   1      -1.190   1.080   1.052  0.00  0.00     0.034 A 
ATOM      4  C3  UNL d   1      -0.128   1.937   0.743  0.00  0.00     0.017 A 
ATOM      5  C4  UNL d   1       1.049   1.416   0.195  0.00  0.00     0.017 A 
ATOM      6  C5  UNL d   1       1.157   0.042  -0.041  0.00  0.00     0.034 A 
ATOM      7 Cl   UNL d   1       2.403   2.411  -0.212  0.00  0.00    -0.070 Cl
ATOM      8 Cl1  UNL d   1      -0.337   3.622   1.064  0.00  0.00    -0.070 Cl
ENDROOT
TORSDOF 0
ENDMDL
