MODEL 1
REMARK minimizedAffinity -3.5417738
REMARK minimizedRMSD -1
REMARK  0 active torsions:
REMARK  status: ('A' for Active; 'I' for Inactive)
ROOT
ATOM      1  C   UNL d   1      -0.282  -2.295   1.130  0.00  0.00     0.020 A 
ATOM      2  C1  UNL d   1       0.469  -2.943   0.150  0.00  0.00     0.020 A 
ATOM      3  C2  UNL d   1       0.780  -2.284  -1.042  0.00  0.00     0.034 A 
ATOM      4  C3  UNL d   1       0.339  -0.973  -1.256  0.00  0.00     0.017 A 
ATOM      5  C4  UNL d   1      -0.414  -0.323  -0.272  0.00  0.00     0.017 A 
ATOM      6  C5  UNL d   1      -0.723  -0.988   0.919  0.00  0.00     0.034 A 
ATOM      7 Cl   UNL d   1      -0.993   1.294  -0.464  0.00  0.00    -0.070 Cl
ATOM      8 Cl1  UNL d   1       0.761  -0.218  -2.752  0.00  0.00    -0.070 Cl
ENDROOT
TORSDOF 0
ENDMDL
