MODEL 1
REMARK minimizedAffinity -3.18954706
REMARK minimizedRMSD -1
REMARK  0 active torsions:
REMARK  status: ('A' for Active; 'I' for Inactive)
ROOT
ATOM      1  C   UNL d   1      -3.199  -3.688  -1.936  0.00  0.00     0.020 A 
ATOM      2  C1  UNL d   1      -3.302  -3.569  -0.550  0.00  0.00     0.020 A 
ATOM      3  C2  UNL d   1      -2.202  -3.144   0.198  0.00  0.00     0.034 A 
ATOM      4  C3  UNL d   1      -0.994  -2.838  -0.439  0.00  0.00     0.017 A 
ATOM      5  C4  UNL d   1      -0.891  -2.958  -1.830  0.00  0.00     0.017 A 
ATOM      6  C5  UNL d   1      -1.996  -3.384  -2.574  0.00  0.00     0.034 A 
ATOM      7 Cl   UNL d   1       0.566  -2.598  -2.687  0.00  0.00    -0.070 Cl
ATOM      8 Cl1  UNL d   1       0.326  -2.319   0.548  0.00  0.00    -0.070 Cl
ENDROOT
TORSDOF 0
ENDMDL
