MODEL 1
REMARK minimizedAffinity -1.01636684
REMARK minimizedRMSD -1
REMARK  0 active torsions:
REMARK  status: ('A' for Active; 'I' for Inactive)
ROOT
ATOM      1  C   UNL d   1       1.286  -1.472   2.579  0.00  0.00     0.172 C 
ATOM      2  N   UNL d   1       0.896  -1.097   1.240  0.00  0.00    -0.070 N 
ATOM      3  C1  UNL d   1       1.706  -1.121   0.136  0.00  0.00    -0.004 A 
ATOM      4  C2  UNL d   1       0.962  -0.694  -0.943  0.00  0.00    -0.047 A 
ATOM      5  C3  UNL d   1      -0.340  -0.402  -0.470  0.00  0.00    -0.047 A 
ATOM      6  C4  UNL d   1      -0.353  -0.660   0.884  0.00  0.00    -0.004 A 
ENDROOT
TORSDOF 0
ENDMDL
