MODEL 1
REMARK minimizedAffinity 1.45923686
REMARK minimizedRMSD -1
REMARK  0 active torsions:
REMARK  status: ('A' for Active; 'I' for Inactive)
ROOT
ATOM      1  C   UNL d   1       1.817  -3.379   1.129  0.00  0.00     0.172 C 
ATOM      2  N   UNL d   1       0.682  -2.985   1.929  0.00  0.00    -0.070 N 
ATOM      3  C1  UNL d   1       0.317  -1.698   2.219  0.00  0.00    -0.004 A 
ATOM      4  C2  UNL d   1      -0.815  -1.746   3.003  0.00  0.00    -0.047 A 
ATOM      5  C3  UNL d   1      -1.142  -3.110   3.192  0.00  0.00    -0.047 A 
ATOM      6  C4  UNL d   1      -0.199  -3.855   2.516  0.00  0.00    -0.004 A 
ENDROOT
TORSDOF 0
ENDMDL
