MODEL 1
REMARK minimizedAffinity -2.26713538
REMARK minimizedRMSD -1
REMARK  0 active torsions:
REMARK  status: ('A' for Active; 'I' for Inactive)
ROOT
ATOM      1  C   UNL d   1       1.862  -3.397   1.536  0.00  0.00     0.172 C 
ATOM      2  N   UNL d   1       0.822  -2.475   1.927  0.00  0.00    -0.070 N 
ATOM      3  C1  UNL d   1       0.470  -1.336   1.253  0.00  0.00    -0.004 A 
ATOM      4  C2  UNL d   1      -0.560  -0.737   1.946  0.00  0.00    -0.047 A 
ATOM      5  C3  UNL d   1      -0.836  -1.543   3.076  0.00  0.00    -0.047 A 
ATOM      6  C4  UNL d   1       0.034  -2.612   3.040  0.00  0.00    -0.004 A 
ENDROOT
TORSDOF 0
ENDMDL
