MODEL 1
REMARK minimizedAffinity -1.84032142
REMARK minimizedRMSD -1
REMARK  0 active torsions:
REMARK  status: ('A' for Active; 'I' for Inactive)
ROOT
ATOM      1  C   UNL d   1       5.684   6.000   2.249  0.00  0.00     0.172 C 
ATOM      2  N   UNL d   1       4.510   5.350   2.783  0.00  0.00    -0.070 N 
ATOM      3  C1  UNL d   1       4.270   4.002   2.775  0.00  0.00    -0.004 A 
ATOM      4  C2  UNL d   1       3.049   3.787   3.377  0.00  0.00    -0.047 A 
ATOM      5  C3  UNL d   1       2.537   5.049   3.759  0.00  0.00    -0.047 A 
ATOM      6  C4  UNL d   1       3.462   6.000   3.380  0.00  0.00    -0.004 A 
ENDROOT
TORSDOF 0
ENDMDL
