MODEL 1
REMARK minimizedAffinity -1.90853989
REMARK minimizedRMSD -1
REMARK  0 active torsions:
REMARK  status: ('A' for Active; 'I' for Inactive)
ROOT
ATOM      1  C   UNL d   1      -1.769  -0.291   0.718  0.00  0.00     0.172 C 
ATOM      2  N   UNL d   1      -0.550  -0.923   1.167  0.00  0.00    -0.070 N 
ATOM      3  C1  UNL d   1       0.544  -1.190   0.389  0.00  0.00    -0.004 A 
ATOM      4  C2  UNL d   1       1.492  -1.794   1.187  0.00  0.00    -0.047 A 
ATOM      5  C3  UNL d   1       0.947  -1.895   2.489  0.00  0.00    -0.047 A 
ATOM      6  C4  UNL d   1      -0.318  -1.348   2.449  0.00  0.00    -0.004 A 
ENDROOT
TORSDOF 0
ENDMDL
