MODEL 1
REMARK minimizedAffinity -2.70292711
REMARK minimizedRMSD -1
REMARK  0 active torsions:
REMARK  status: ('A' for Active; 'I' for Inactive)
ROOT
ATOM      1  C   UNL d   1       5.845   5.551   1.501  0.00  0.00     0.172 C 
ATOM      2  N   UNL d   1       5.020   5.600   2.685  0.00  0.00    -0.070 N 
ATOM      3  C1  UNL d   1       3.685   5.300   2.741  0.00  0.00    -0.004 A 
ATOM      4  C2  UNL d   1       3.268   5.468   4.044  0.00  0.00    -0.047 A 
ATOM      5  C3  UNL d   1       4.392   5.885   4.797  0.00  0.00    -0.047 A 
ATOM      6  C4  UNL d   1       5.462   5.959   3.931  0.00  0.00    -0.004 A 
ENDROOT
TORSDOF 0
ENDMDL
