MODEL 1
REMARK minimizedAffinity -0.0193071906
REMARK minimizedRMSD -1
REMARK  0 active torsions:
REMARK  status: ('A' for Active; 'I' for Inactive)
ROOT
ATOM      1  C   UNL d   1       4.032   5.995   2.841  0.00  0.00     0.172 C 
ATOM      2  N   UNL d   1       3.033   5.945   3.882  0.00  0.00    -0.070 N 
ATOM      3  C1  UNL d   1       1.681   5.837   3.687  0.00  0.00    -0.004 A 
ATOM      4  C2  UNL d   1       1.076   5.822   4.925  0.00  0.00    -0.047 A 
ATOM      5  C3  UNL d   1       2.099   5.924   5.898  0.00  0.00    -0.047 A 
ATOM      6  C4  UNL d   1       3.300   5.999   5.224  0.00  0.00    -0.004 A 
ENDROOT
TORSDOF 0
ENDMDL
