MODEL 1
REMARK minimizedAffinity -2.27246261
REMARK minimizedRMSD -1
REMARK  0 active torsions:
REMARK  status: ('A' for Active; 'I' for Inactive)
ROOT
ATOM      1  C   UNL d   1       0.062  -2.457   2.664  0.00  0.00     0.172 C 
ATOM      2  N   UNL d   1       0.029  -1.423   1.657  0.00  0.00    -0.070 N 
ATOM      3  C1  UNL d   1       1.038  -1.133   0.777  0.00  0.00    -0.004 A 
ATOM      4  C2  UNL d   1       0.619  -0.087  -0.016  0.00  0.00    -0.047 A 
ATOM      5  C3  UNL d   1      -0.686   0.265   0.403  0.00  0.00    -0.047 A 
ATOM      6  C4  UNL d   1      -1.027  -0.578   1.440  0.00  0.00    -0.004 A 
ENDROOT
TORSDOF 0
ENDMDL
