MODEL 1
REMARK minimizedAffinity 0.307207137
REMARK minimizedRMSD -1
REMARK  0 active torsions:
REMARK  status: ('A' for Active; 'I' for Inactive)
ROOT
ATOM      1  C   UNL d   1       1.357   0.357   0.362  0.00  0.00     0.172 C 
ATOM      2  N   UNL d   1       0.092  -0.050   0.928  0.00  0.00    -0.070 N 
ATOM      3  C1  UNL d   1      -1.137   0.143   0.357  0.00  0.00    -0.004 A 
ATOM      4  C2  UNL d   1      -2.085  -0.385   1.206  0.00  0.00    -0.047 A 
ATOM      5  C3  UNL d   1      -1.401  -0.913   2.328  0.00  0.00    -0.047 A 
ATOM      6  C4  UNL d   1      -0.055  -0.691   2.130  0.00  0.00    -0.004 A 
ENDROOT
TORSDOF 0
ENDMDL
