MODEL 1
REMARK minimizedAffinity 8.42718601
REMARK minimizedRMSD -1
REMARK  3 active torsions:
REMARK  status: ('A' for Active; 'I' for Inactive)
REMARK    1  A    between atoms: C3'_2  and  C2'_3 
REMARK    2  A    between atoms: C2'_3  and  C1'_4 
REMARK    3  A    between atoms: C1'_4  and  C1_5 
ROOT
ATOM      1  C1  N4B d   1      -0.305   3.708  -0.881  0.00  0.00    -0.075 A 
ATOM      2  C2  N4B d   1       0.408   4.906  -0.651  0.00  0.00     0.002 A 
ATOM      3  C3  N4B d   1       0.188   6.000  -1.452  0.00  0.00     0.002 A 
ATOM      4  C4  N4B d   1      -0.721   5.914  -2.495  0.00  0.00    -0.004 A 
ATOM      5  C5  N4B d   1      -1.424   4.762  -2.695  0.00  0.00     0.002 A 
ATOM      6  C6  N4B d   1      -1.216   3.656  -1.896  0.00  0.00     0.002 A 
ENDROOT
BRANCH   1   7
ATOM      7  C1' N4B d   1      -0.036   2.459  -0.086  0.00  0.00     0.057 C 
BRANCH   7   8
ATOM      8  C2' N4B d   1      -0.480   2.679   1.357  0.00  0.00     0.009 C 
BRANCH   8   9
ATOM      9  C3' N4B d   1       0.281   1.791   2.327  0.00  0.00     0.004 C 
ATOM     10  C4' N4B d   1       1.380   2.519   3.042  0.00  0.00     0.003 C 
ENDBRANCH   8   9
ENDBRANCH   7   8
ENDBRANCH   1   7
TORSDOF 3
ENDMDL
