MODEL 1
REMARK minimizedAffinity 6.0889039
REMARK minimizedRMSD -1
REMARK  3 active torsions:
REMARK  status: ('A' for Active; 'I' for Inactive)
REMARK    1  A    between atoms: C3'_2  and  C2'_3 
REMARK    2  A    between atoms: C2'_3  and  C1'_4 
REMARK    3  A    between atoms: C1'_4  and  C1_5 
ROOT
ATOM      1  C1  N4B d   1      -3.960  -2.127   4.053  0.00  0.00    -0.075 A 
ATOM      2  C2  N4B d   1      -3.244  -2.709   5.122  0.00  0.00     0.002 A 
ATOM      3  C3  N4B d   1      -3.883  -3.553   5.997  0.00  0.00     0.002 A 
ATOM      4  C4  N4B d   1      -5.235  -3.815   5.835  0.00  0.00    -0.004 A 
ATOM      5  C5  N4B d   1      -5.913  -3.269   4.784  0.00  0.00     0.002 A 
ATOM      6  C6  N4B d   1      -5.283  -2.422   3.895  0.00  0.00     0.002 A 
ENDROOT
BRANCH   1   7
ATOM      7  C1' N4B d   1      -3.326  -1.131   3.121  0.00  0.00     0.057 C 
BRANCH   7   8
ATOM      8  C2' N4B d   1      -4.189  -0.994   1.871  0.00  0.00     0.009 C 
BRANCH   8   9
ATOM      9  C3' N4B d   1      -3.410  -0.415   0.703  0.00  0.00     0.004 C 
ATOM     10  C4' N4B d   1      -4.299   0.149  -0.366  0.00  0.00     0.003 C 
ENDBRANCH   8   9
ENDBRANCH   7   8
ENDBRANCH   1   7
TORSDOF 3
ENDMDL
