MODEL 1
REMARK minimizedAffinity 1.60189402
REMARK minimizedRMSD -1
REMARK  3 active torsions:
REMARK  status: ('A' for Active; 'I' for Inactive)
REMARK    1  A    between atoms: C3'_2  and  C2'_3 
REMARK    2  A    between atoms: C2'_3  and  C1'_4 
REMARK    3  A    between atoms: C1'_4  and  C1_5 
ROOT
ATOM      1  C1  N4B d   1      -5.419  -1.987   3.726  0.00  0.00    -0.075 A 
ATOM      2  C2  N4B d   1      -4.507  -1.888   2.653  0.00  0.00     0.002 A 
ATOM      3  C3  N4B d   1      -4.217  -0.661   2.109  0.00  0.00     0.002 A 
ATOM      4  C4  N4B d   1      -4.839   0.474   2.607  0.00  0.00    -0.004 A 
ATOM      5  C5  N4B d   1      -5.699   0.373   3.660  0.00  0.00     0.002 A 
ATOM      6  C6  N4B d   1      -5.997  -0.853   4.220  0.00  0.00     0.002 A 
ENDROOT
BRANCH   1   7
ATOM      7  C1' N4B d   1      -5.833  -3.316   4.297  0.00  0.00     0.057 C 
BRANCH   7   8
ATOM      8  C2' N4B d   1      -5.456  -3.365   5.775  0.00  0.00     0.009 C 
BRANCH   8   9
ATOM      9  C3' N4B d   1      -4.132  -4.075   6.000  0.00  0.00     0.004 C 
ATOM     10  C4' N4B d   1      -2.956  -3.280   5.513  0.00  0.00     0.003 C 
ENDBRANCH   8   9
ENDBRANCH   7   8
ENDBRANCH   1   7
TORSDOF 3
ENDMDL
