MODEL 1
REMARK minimizedAffinity 9.12161541
REMARK minimizedRMSD -1
REMARK  3 active torsions:
REMARK  status: ('A' for Active; 'I' for Inactive)
REMARK    1  A    between atoms: C3'_2  and  C2'_3 
REMARK    2  A    between atoms: C2'_3  and  C1'_4 
REMARK    3  A    between atoms: C1'_4  and  C1_5 
ROOT
ATOM      1  C1  N4B d   1      -0.426   5.101  -1.271  0.00  0.00    -0.075 A 
ATOM      2  C2  N4B d   1      -0.195   3.765  -0.878  0.00  0.00     0.002 A 
ATOM      3  C3  N4B d   1       1.056   3.378  -0.464  0.00  0.00     0.002 A 
ATOM      4  C4  N4B d   1       2.091   4.301  -0.453  0.00  0.00    -0.004 A 
ATOM      5  C5  N4B d   1       1.853   5.596  -0.811  0.00  0.00     0.002 A 
ATOM      6  C6  N4B d   1       0.600   6.000  -1.225  0.00  0.00     0.002 A 
ENDROOT
BRANCH   1   7
ATOM      7  C1' N4B d   1      -1.756   5.551  -1.813  0.00  0.00     0.057 C 
BRANCH   7   8
ATOM      8  C2' N4B d   1      -2.143   4.661  -2.991  0.00  0.00     0.009 C 
BRANCH   8   9
ATOM      9  C3' N4B d   1      -3.347   3.791  -2.673  0.00  0.00     0.004 C 
ATOM     10  C4' N4B d   1      -4.534   4.585  -2.216  0.00  0.00     0.003 C 
ENDBRANCH   8   9
ENDBRANCH   7   8
ENDBRANCH   1   7
TORSDOF 3
ENDMDL
