MODEL 1
REMARK minimizedAffinity 14.7168741
REMARK minimizedRMSD -1
REMARK  3 active torsions:
REMARK  status: ('A' for Active; 'I' for Inactive)
REMARK    1  A    between atoms: C3'_2  and  C2'_3 
REMARK    2  A    between atoms: C2'_3  and  C1'_4 
REMARK    3  A    between atoms: C1'_4  and  C1_5 
ROOT
ATOM      1  C1  N4B d   1      -1.180   2.990  -1.875  0.00  0.00    -0.075 A 
ATOM      2  C2  N4B d   1       0.055   3.408  -1.334  0.00  0.00     0.002 A 
ATOM      3  C3  N4B d   1       0.515   2.856  -0.164  0.00  0.00     0.002 A 
ATOM      4  C4  N4B d   1      -0.249   1.902   0.491  0.00  0.00    -0.004 A 
ATOM      5  C5  N4B d   1      -1.429   1.484  -0.051  0.00  0.00     0.002 A 
ATOM      6  C6  N4B d   1      -1.902   2.028  -1.229  0.00  0.00     0.002 A 
ENDROOT
BRANCH   1   7
ATOM      7  C1' N4B d   1      -1.765   3.626  -3.106  0.00  0.00     0.057 C 
BRANCH   7   8
ATOM      8  C2' N4B d   1      -0.910   4.825  -3.504  0.00  0.00     0.009 C 
BRANCH   8   9
ATOM      9  C3' N4B d   1      -0.372   4.695  -4.919  0.00  0.00     0.004 C 
ATOM     10  C4' N4B d   1       0.421   5.892  -5.351  0.00  0.00     0.003 C 
ENDBRANCH   8   9
ENDBRANCH   7   8
ENDBRANCH   1   7
TORSDOF 3
ENDMDL
