MODEL 1
REMARK minimizedAffinity 12.0352917
REMARK minimizedRMSD -1
REMARK  1 active torsions:
REMARK  status: ('A' for Active; 'I' for Inactive)
REMARK    1  A    between atoms: C1_2  and  C2_3 
ROOT
ATOM      1  C2  UNL d   1      -3.627   5.506   4.845  0.00  0.00    -0.077 A 
ATOM      2  C3  UNL d   1      -4.764   5.294   5.637  0.00  0.00     0.002 A 
ATOM      3  C4  UNL d   1      -5.945   4.817   5.063  0.00  0.00     0.002 A 
ATOM      4  C5  UNL d   1      -5.998   4.545   3.698  0.00  0.00    -0.004 A 
ATOM      5  C6  UNL d   1      -4.873   4.755   2.902  0.00  0.00     0.002 A 
ATOM      6  C7  UNL d   1      -3.692   5.232   3.473  0.00  0.00     0.002 A 
ENDROOT
BRANCH   1   7
ATOM      7  C1  UNL d   1      -2.338   5.973   5.470  0.00  0.00     0.055 C 
ATOM      8  C   UNL d   1      -1.152   5.711   4.553  0.00  0.00     0.019 C 
ENDBRANCH   1   7
TORSDOF 1
ENDMDL
