MODEL 1
REMARK minimizedAffinity 5.83975124
REMARK minimizedRMSD -1
REMARK  1 active torsions:
REMARK  status: ('A' for Active; 'I' for Inactive)
REMARK    1  A    between atoms: C1_2  and  C2_3 
ROOT
ATOM      1  C2  UNL d   1       3.717   0.804  -1.064  0.00  0.00    -0.077 A 
ATOM      2  C3  UNL d   1       4.068   1.081   0.265  0.00  0.00     0.002 A 
ATOM      3  C4  UNL d   1       3.362   0.496   1.318  0.00  0.00     0.002 A 
ATOM      4  C5  UNL d   1       2.304  -0.371   1.054  0.00  0.00    -0.004 A 
ATOM      5  C6  UNL d   1       1.946  -0.651  -0.264  0.00  0.00     0.002 A 
ATOM      6  C7  UNL d   1       2.649  -0.067  -1.318  0.00  0.00     0.002 A 
ENDROOT
BRANCH   1   7
ATOM      7  C1  UNL d   1       4.508   1.394  -2.201  0.00  0.00     0.055 C 
ATOM      8  C   UNL d   1       5.907   1.793  -1.754  0.00  0.00     0.019 C 
ENDBRANCH   1   7
TORSDOF 1
ENDMDL
