MODEL 1
REMARK minimizedAffinity 4.89201641
REMARK minimizedRMSD -1
REMARK  1 active torsions:
REMARK  status: ('A' for Active; 'I' for Inactive)
REMARK    1  A    between atoms: C1_2  and  C2_3 
ROOT
ATOM      1  C2  UNL d   1       1.349   0.729  -0.808  0.00  0.00    -0.077 A 
ATOM      2  C3  UNL d   1       1.628   0.543   0.554  0.00  0.00     0.002 A 
ATOM      3  C4  UNL d   1       2.910   0.179   0.969  0.00  0.00     0.002 A 
ATOM      4  C5  UNL d   1       3.925   0.002   0.030  0.00  0.00    -0.004 A 
ATOM      5  C6  UNL d   1       3.657   0.182  -1.326  0.00  0.00     0.002 A 
ATOM      6  C7  UNL d   1       2.375   0.545  -1.743  0.00  0.00     0.002 A 
ENDROOT
BRANCH   1   7
ATOM      7  C1  UNL d   1      -0.021   1.169  -1.253  0.00  0.00     0.055 C 
ATOM      8  C   UNL d   1      -0.951  -0.020  -1.441  0.00  0.00     0.019 C 
ENDBRANCH   1   7
TORSDOF 1
ENDMDL
