MODEL 1
REMARK minimizedAffinity 8.22093678
REMARK minimizedRMSD -1
REMARK  1 active torsions:
REMARK  status: ('A' for Active; 'I' for Inactive)
REMARK    1  A    between atoms: C1_2  and  C2_3 
ROOT
ATOM      1  C2  UNL d   1      -5.332   4.842   3.240  0.00  0.00    -0.077 A 
ATOM      2  C3  UNL d   1      -5.341   5.978   4.062  0.00  0.00     0.002 A 
ATOM      3  C4  UNL d   1      -5.673   5.869   5.413  0.00  0.00     0.002 A 
ATOM      4  C5  UNL d   1      -5.995   4.626   5.955  0.00  0.00    -0.004 A 
ATOM      5  C6  UNL d   1      -5.992   3.491   5.145  0.00  0.00     0.002 A 
ATOM      6  C7  UNL d   1      -5.661   3.599   3.794  0.00  0.00     0.002 A 
ENDROOT
BRANCH   1   7
ATOM      7  C1  UNL d   1      -4.926   4.950   1.793  0.00  0.00     0.055 C 
ATOM      8  C   UNL d   1      -4.272   3.666   1.304  0.00  0.00     0.019 C 
ENDBRANCH   1   7
TORSDOF 1
ENDMDL
