MODEL 1
REMARK minimizedAffinity 3.04890466
REMARK minimizedRMSD -1
REMARK  1 active torsions:
REMARK  status: ('A' for Active; 'I' for Inactive)
REMARK    1  A    between atoms: C1_2  and  C2_3 
ROOT
ATOM      1  C2  UNL d   1       3.055   0.135  -0.685  0.00  0.00    -0.077 A 
ATOM      2  C3  UNL d   1       3.395  -0.126   0.650  0.00  0.00     0.002 A 
ATOM      3  C4  UNL d   1       3.106  -1.366   1.222  0.00  0.00     0.002 A 
ATOM      4  C5  UNL d   1       2.480  -2.355   0.467  0.00  0.00    -0.004 A 
ATOM      5  C6  UNL d   1       2.136  -2.104  -0.861  0.00  0.00     0.002 A 
ATOM      6  C7  UNL d   1       2.423  -0.865  -1.434  0.00  0.00     0.002 A 
ENDROOT
BRANCH   1   7
ATOM      7  C1  UNL d   1       3.410   1.455  -1.319  0.00  0.00     0.055 C 
ATOM      8  C   UNL d   1       4.662   1.338  -2.176  0.00  0.00     0.019 C 
ENDBRANCH   1   7
TORSDOF 1
ENDMDL
