MODEL 1
REMARK minimizedAffinity 7.76389551
REMARK minimizedRMSD -1
REMARK  1 active torsions:
REMARK  status: ('A' for Active; 'I' for Inactive)
REMARK    1  A    between atoms: C1_2  and  C2_3 
ROOT
ATOM      1  C2  UNL d   1      -3.542   0.757  -5.061  0.00  0.00    -0.077 A 
ATOM      2  C3  UNL d   1      -3.590   2.084  -5.511  0.00  0.00     0.002 A 
ATOM      3  C4  UNL d   1      -4.815   2.741  -5.642  0.00  0.00     0.002 A 
ATOM      4  C5  UNL d   1      -5.999   2.082  -5.321  0.00  0.00    -0.004 A 
ATOM      5  C6  UNL d   1      -5.962   0.762  -4.874  0.00  0.00     0.002 A 
ATOM      6  C7  UNL d   1      -4.740   0.103  -4.743  0.00  0.00     0.002 A 
ENDROOT
BRANCH   1   7
ATOM      7  C1  UNL d   1      -2.219   0.062  -4.872  0.00  0.00     0.055 C 
ATOM      8  C   UNL d   1      -1.816   0.029  -3.405  0.00  0.00     0.019 C 
ENDBRANCH   1   7
TORSDOF 1
ENDMDL
