MODEL 1
REMARK minimizedAffinity 2.64461374
REMARK minimizedRMSD -1
REMARK  1 active torsions:
REMARK  status: ('A' for Active; 'I' for Inactive)
REMARK    1  A    between atoms: C1_2  and  C2_3 
ROOT
ATOM      1  C2  UNL d   1      -4.859   5.258   4.844  0.00  0.00    -0.077 A 
ATOM      2  C3  UNL d   1      -5.360   3.958   4.999  0.00  0.00     0.002 A 
ATOM      3  C4  UNL d   1      -5.928   3.285   3.915  0.00  0.00     0.002 A 
ATOM      4  C5  UNL d   1      -5.996   3.903   2.668  0.00  0.00    -0.004 A 
ATOM      5  C6  UNL d   1      -5.503   5.197   2.504  0.00  0.00     0.002 A 
ATOM      6  C7  UNL d   1      -4.936   5.871   3.587  0.00  0.00     0.002 A 
ENDROOT
BRANCH   1   7
ATOM      7  C1  UNL d   1      -4.202   5.966   6.000  0.00  0.00     0.055 C 
ATOM      8  C   UNL d   1      -2.689   5.996   5.842  0.00  0.00     0.019 C 
ENDBRANCH   1   7
TORSDOF 1
ENDMDL
