MODEL 1
REMARK minimizedAffinity 16.0513077
REMARK minimizedRMSD -1
REMARK  0 active torsions:
REMARK  status: ('A' for Active; 'I' for Inactive)
ROOT
ATOM      1  C1  DEN d   1      -0.635  -2.527   0.890  0.00  0.00     0.130 A 
ATOM      2  C2  DEN d   1      -1.581  -1.745   0.099  0.00  0.00    -0.031 A 
ATOM      3  C3  DEN d   1      -2.803  -2.554  -0.081  0.00  0.00     0.027 A 
ATOM      4  C4  DEN d   1      -3.321  -4.927   0.787  0.00  0.00     0.027 A 
ATOM      5  C5  DEN d   1      -2.820  -5.997   1.496  0.00  0.00    -0.003 A 
ATOM      6  C6  DEN d   1      -1.555  -5.998   2.020  0.00  0.00     0.001 A 
ATOM      7  C7  DEN d   1      -0.761  -4.890   1.880  0.00  0.00     0.017 A 
ATOM      8  C8  DEN d   1      -1.256  -3.811   1.161  0.00  0.00    -0.094 A 
ATOM      9  C9  DEN d   1      -2.543  -3.824   0.650  0.00  0.00    -0.072 A 
ENDROOT
TORSDOF 0
ENDMDL
