MODEL 1
REMARK minimizedAffinity 19.6921902
REMARK minimizedRMSD -1
REMARK  0 active torsions:
REMARK  status: ('A' for Active; 'I' for Inactive)
ROOT
ATOM      1  C1  DEN d   1      -0.741  -1.215   0.962  0.00  0.00     0.130 A 
ATOM      2  C2  DEN d   1      -1.475  -2.477   0.918  0.00  0.00    -0.031 A 
ATOM      3  C3  DEN d   1      -1.702  -2.921   2.308  0.00  0.00     0.027 A 
ATOM      4  C4  DEN d   1      -0.998  -1.780   4.512  0.00  0.00     0.027 A 
ATOM      5  C5  DEN d   1      -0.344  -0.697   5.056  0.00  0.00    -0.003 A 
ATOM      6  C6  DEN d   1       0.248   0.264   4.279  0.00  0.00     0.001 A 
ATOM      7  C7  DEN d   1       0.159   0.184   2.915  0.00  0.00     0.017 A 
ATOM      8  C8  DEN d   1      -0.492  -0.909   2.359  0.00  0.00    -0.094 A 
ATOM      9  C9  DEN d   1      -1.095  -1.864   3.161  0.00  0.00    -0.072 A 
ENDROOT
TORSDOF 0
ENDMDL
