MODEL 1
REMARK minimizedAffinity 18.6939545
REMARK minimizedRMSD -1
REMARK  0 active torsions:
REMARK  status: ('A' for Active; 'I' for Inactive)
ROOT
ATOM      1  C1  DEN d   1       4.153   4.048  -2.372  0.00  0.00     0.130 A 
ATOM      2  C2  DEN d   1       3.821   2.634  -2.219  0.00  0.00    -0.031 A 
ATOM      3  C3  DEN d   1       2.947   2.246  -3.344  0.00  0.00     0.027 A 
ATOM      4  C4  DEN d   1       2.086   3.689  -5.301  0.00  0.00     0.027 A 
ATOM      5  C5  DEN d   1       2.091   4.951  -5.853  0.00  0.00    -0.003 A 
ATOM      6  C6  DEN d   1       2.750   6.000  -5.269  0.00  0.00     0.001 A 
ATOM      7  C7  DEN d   1       3.470   5.795  -4.122  0.00  0.00     0.017 A 
ATOM      8  C8  DEN d   1       3.464   4.527  -3.556  0.00  0.00    -0.094 A 
ATOM      9  C9  DEN d   1       2.801   3.477  -4.168  0.00  0.00    -0.072 A 
ENDROOT
TORSDOF 0
ENDMDL
