MODEL 1
REMARK minimizedAffinity 11.2460394
REMARK minimizedRMSD -1
REMARK  0 active torsions:
REMARK  status: ('A' for Active; 'I' for Inactive)
ROOT
ATOM      1  C1  DEN d   1      -2.488  -2.586  -3.088  0.00  0.00     0.130 A 
ATOM      2  C2  DEN d   1      -1.175  -2.839  -3.675  0.00  0.00    -0.031 A 
ATOM      3  C3  DEN d   1      -0.182  -2.859  -2.582  0.00  0.00     0.027 A 
ATOM      4  C4  DEN d   1      -0.549  -2.527  -0.051  0.00  0.00     0.027 A 
ATOM      5  C5  DEN d   1      -1.489  -2.272   0.923  0.00  0.00    -0.003 A 
ATOM      6  C6  DEN d   1      -2.812  -2.072   0.627  0.00  0.00     0.001 A 
ATOM      7  C7  DEN d   1      -3.239  -2.168  -0.671  0.00  0.00     0.017 A 
ATOM      8  C8  DEN d   1      -2.296  -2.417  -1.659  0.00  0.00    -0.094 A 
ATOM      9  C9  DEN d   1      -0.966  -2.629  -1.338  0.00  0.00    -0.072 A 
ENDROOT
TORSDOF 0
ENDMDL
