MODEL 1
REMARK minimizedAffinity 10.6383486
REMARK minimizedRMSD -1
REMARK  0 active torsions:
REMARK  status: ('A' for Active; 'I' for Inactive)
ROOT
ATOM      1  C1  DEN d   1      -4.203  -4.628  -2.238  0.00  0.00     0.130 A 
ATOM      2  C2  DEN d   1      -3.741  -3.289  -2.592  0.00  0.00    -0.031 A 
ATOM      3  C3  DEN d   1      -3.028  -2.729  -1.426  0.00  0.00     0.027 A 
ATOM      4  C4  DEN d   1      -2.594  -3.801   0.879  0.00  0.00     0.027 A 
ATOM      5  C5  DEN d   1      -2.804  -4.920   1.653  0.00  0.00    -0.003 A 
ATOM      6  C6  DEN d   1      -3.519  -5.998   1.201  0.00  0.00     0.001 A 
ATOM      7  C7  DEN d   1      -4.011  -5.998  -0.077  0.00  0.00     0.017 A 
ATOM      8  C8  DEN d   1      -3.809  -4.870  -0.862  0.00  0.00    -0.094 A 
ATOM      9  C9  DEN d   1      -3.074  -3.796  -0.391  0.00  0.00    -0.072 A 
ENDROOT
TORSDOF 0
ENDMDL
