MODEL 1
REMARK minimizedAffinity 10.0039043
REMARK minimizedRMSD -1
REMARK  0 active torsions:
REMARK  status: ('A' for Active; 'I' for Inactive)
ROOT
ATOM      1  C1  DEN d   1      -0.934  -1.736   0.014  0.00  0.00     0.130 A 
ATOM      2  C2  DEN d   1      -1.733  -2.277   1.110  0.00  0.00    -0.031 A 
ATOM      3  C3  DEN d   1      -2.888  -2.988   0.526  0.00  0.00     0.027 A 
ATOM      4  C4  DEN d   1      -3.509  -3.307  -1.957  0.00  0.00     0.027 A 
ATOM      5  C5  DEN d   1      -3.140  -3.019  -3.253  0.00  0.00    -0.003 A 
ATOM      6  C6  DEN d   1      -2.038  -2.261  -3.547  0.00  0.00     0.001 A 
ATOM      7  C7  DEN d   1      -1.240  -1.802  -2.532  0.00  0.00     0.017 A 
ATOM      8  C8  DEN d   1      -1.609  -2.082  -1.223  0.00  0.00    -0.094 A 
ATOM      9  C9  DEN d   1      -2.720  -2.861  -0.947  0.00  0.00    -0.072 A 
ENDROOT
TORSDOF 0
ENDMDL
