MODEL 1
REMARK minimizedAffinity 4.76580334
REMARK minimizedRMSD -1
REMARK  0 active torsions:
REMARK  status: ('A' for Active; 'I' for Inactive)
ROOT
ATOM      1  C1  DEN d   1       5.999  -0.007  -0.099  0.00  0.00     0.130 A 
ATOM      2  C2  DEN d   1       5.588  -0.886   0.992  0.00  0.00    -0.031 A 
ATOM      3  C3  DEN d   1       4.515  -0.207   1.746  0.00  0.00     0.027 A 
ATOM      4  C4  DEN d   1       3.452   2.106   1.329  0.00  0.00     0.027 A 
ATOM      5  C5  DEN d   1       3.480   3.226   0.527  0.00  0.00    -0.003 A 
ATOM      6  C6  DEN d   1       4.364   3.360  -0.510  0.00  0.00     0.001 A 
ATOM      7  C7  DEN d   1       5.229   2.338  -0.802  0.00  0.00     0.017 A 
ATOM      8  C8  DEN d   1       5.212   1.209   0.007  0.00  0.00    -0.094 A 
ATOM      9  C9  DEN d   1       4.302   1.087   1.043  0.00  0.00    -0.072 A 
ENDROOT
TORSDOF 0
ENDMDL
