MODEL 1
REMARK minimizedAffinity 12.2270632
REMARK minimizedRMSD -1
REMARK  0 active torsions:
REMARK  status: ('A' for Active; 'I' for Inactive)
ROOT
ATOM      1  C1  DEN d   1       5.925   1.217  -2.674  0.00  0.00     0.130 A 
ATOM      2  C2  DEN d   1       4.877   2.179  -2.347  0.00  0.00    -0.031 A 
ATOM      3  C3  DEN d   1       3.684   1.846  -3.152  0.00  0.00     0.027 A 
ATOM      4  C4  DEN d   1       3.360  -0.060  -4.860  0.00  0.00     0.027 A 
ATOM      5  C5  DEN d   1       3.971  -1.126  -5.481  0.00  0.00    -0.003 A 
ATOM      6  C6  DEN d   1       5.277  -1.463  -5.237  0.00  0.00     0.001 A 
ATOM      7  C7  DEN d   1       6.000  -0.753  -4.316  0.00  0.00     0.017 A 
ATOM      8  C8  DEN d   1       5.393   0.328  -3.691  0.00  0.00    -0.094 A 
ATOM      9  C9  DEN d   1       4.068   0.645  -3.941  0.00  0.00    -0.072 A 
ENDROOT
TORSDOF 0
ENDMDL
