MODEL 1
REMARK minimizedAffinity 5.46747637
REMARK minimizedRMSD -1
REMARK  0 active torsions:
REMARK  status: ('A' for Active; 'I' for Inactive)
ROOT
ATOM      1  C1  DEN d   1       4.140  -0.843   2.553  0.00  0.00     0.130 A 
ATOM      2  C2  DEN d   1       5.307  -0.558   1.724  0.00  0.00    -0.031 A 
ATOM      3  C3  DEN d   1       5.011   0.642   0.916  0.00  0.00     0.027 A 
ATOM      4  C4  DEN d   1       2.872   2.082   0.872  0.00  0.00     0.027 A 
ATOM      5  C5  DEN d   1       1.605   2.226   1.393  0.00  0.00    -0.003 A 
ATOM      6  C6  DEN d   1       1.086   1.346   2.305  0.00  0.00     0.001 A 
ATOM      7  C7  DEN d   1       1.854   0.306   2.758  0.00  0.00     0.017 A 
ATOM      8  C8  DEN d   1       3.130   0.149   2.231  0.00  0.00    -0.094 A 
ATOM      9  C9  DEN d   1       3.641   1.057   1.319  0.00  0.00    -0.072 A 
ENDROOT
TORSDOF 0
ENDMDL
