MODEL 1
REMARK minimizedAffinity 6.6187005
REMARK minimizedRMSD -1
REMARK  0 active torsions:
REMARK  status: ('A' for Active; 'I' for Inactive)
ROOT
ATOM      1  C1  DEN d   1       2.947   2.849   0.377  0.00  0.00     0.130 A 
ATOM      2  C2  DEN d   1       2.219   2.287   1.511  0.00  0.00    -0.031 A 
ATOM      3  C3  DEN d   1       2.912   1.053   1.932  0.00  0.00     0.027 A 
ATOM      4  C4  DEN d   1       5.033  -0.034   0.947  0.00  0.00     0.027 A 
ATOM      5  C5  DEN d   1       5.998   0.071  -0.031  0.00  0.00    -0.003 A 
ATOM      6  C6  DEN d   1       5.994   1.082  -0.955  0.00  0.00     0.001 A 
ATOM      7  C7  DEN d   1       5.031   2.055  -0.892  0.00  0.00     0.017 A 
ATOM      8  C8  DEN d   1       4.051   1.951   0.086  0.00  0.00    -0.094 A 
ATOM      9  C9  DEN d   1       4.079   0.928   1.018  0.00  0.00    -0.072 A 
ENDROOT
TORSDOF 0
ENDMDL
