MODEL 1
REMARK minimizedAffinity 20.81674
REMARK minimizedRMSD -1
REMARK  0 active torsions:
REMARK  status: ('A' for Active; 'I' for Inactive)
ROOT
ATOM      1  C1  DEN d   1       2.654   1.459   0.813  0.00  0.00     0.130 A 
ATOM      2  C2  DEN d   1       3.746   0.535   1.106  0.00  0.00    -0.031 A 
ATOM      3  C3  DEN d   1       3.518  -0.029   2.451  0.00  0.00     0.027 A 
ATOM      4  C4  DEN d   1       1.589   0.433   4.099  0.00  0.00     0.027 A 
ATOM      5  C5  DEN d   1       0.432   1.153   4.299  0.00  0.00    -0.003 A 
ATOM      6  C6  DEN d   1      -0.044   2.043   3.373  0.00  0.00     0.001 A 
ATOM      7  C7  DEN d   1       0.617   2.204   2.184  0.00  0.00     0.017 A 
ATOM      8  C8  DEN d   1       1.789   1.487   1.978  0.00  0.00    -0.094 A 
ATOM      9  C9  DEN d   1       2.246   0.582   2.921  0.00  0.00    -0.072 A 
ENDROOT
TORSDOF 0
ENDMDL
