MODEL 1
REMARK minimizedAffinity 16.8201275
REMARK minimizedRMSD -1
REMARK  0 active torsions:
REMARK  status: ('A' for Active; 'I' for Inactive)
ROOT
ATOM      1  C1  DEN d   1       3.122   2.685  -1.386  0.00  0.00     0.130 A 
ATOM      2  C2  DEN d   1       4.419   2.261  -1.907  0.00  0.00    -0.031 A 
ATOM      3  C3  DEN d   1       4.864   1.089  -1.126  0.00  0.00     0.027 A 
ATOM      4  C4  DEN d   1       3.675  -0.106   0.826  0.00  0.00     0.027 A 
ATOM      5  C5  DEN d   1       2.557  -0.103   1.631  0.00  0.00    -0.003 A 
ATOM      6  C6  DEN d   1       1.574   0.843   1.510  0.00  0.00     0.001 A 
ATOM      7  C7  DEN d   1       1.667   1.798   0.533  0.00  0.00     0.017 A 
ATOM      8  C8  DEN d   1       2.795   1.806  -0.278  0.00  0.00    -0.094 A 
ATOM      9  C9  DEN d   1       3.772   0.834  -0.148  0.00  0.00    -0.072 A 
ENDROOT
TORSDOF 0
ENDMDL
