MODEL 1
REMARK minimizedAffinity 19.0315742
REMARK minimizedRMSD -1
REMARK  0 active torsions:
REMARK  status: ('A' for Active; 'I' for Inactive)
ROOT
ATOM      1  C1  DEN d   1      -3.023  -2.554   0.508  0.00  0.00     0.130 A 
ATOM      2  C2  DEN d   1      -1.647  -2.216   0.864  0.00  0.00    -0.031 A 
ATOM      3  C3  DEN d   1      -0.841  -2.225  -0.373  0.00  0.00     0.027 A 
ATOM      4  C4  DEN d   1      -1.585  -2.720  -2.792  0.00  0.00     0.027 A 
ATOM      5  C5  DEN d   1      -2.653  -3.068  -3.589  0.00  0.00    -0.003 A 
ATOM      6  C6  DEN d   1      -3.902  -3.301  -3.076  0.00  0.00     0.001 A 
ATOM      7  C7  DEN d   1      -4.124  -3.144  -1.733  0.00  0.00     0.017 A 
ATOM      8  C8  DEN d   1      -3.050  -2.800  -0.922  0.00  0.00    -0.094 A 
ATOM      9  C9  DEN d   1      -1.798  -2.558  -1.462  0.00  0.00    -0.072 A 
ENDROOT
TORSDOF 0
ENDMDL
