MODEL 1
REMARK minimizedAffinity 17.0456676
REMARK minimizedRMSD -1
REMARK  0 active torsions:
REMARK  status: ('A' for Active; 'I' for Inactive)
ROOT
ATOM      1  C1  DEN d   1       2.233   2.259  -4.023  0.00  0.00     0.130 A 
ATOM      2  C2  DEN d   1       1.765   2.703  -2.712  0.00  0.00    -0.031 A 
ATOM      3  C3  DEN d   1       2.834   2.431  -1.730  0.00  0.00     0.027 A 
ATOM      4  C4  DEN d   1       5.156   1.374  -2.110  0.00  0.00     0.027 A 
ATOM      5  C5  DEN d   1       6.000   0.827  -3.051  0.00  0.00    -0.003 A 
ATOM      6  C6  DEN d   1       5.637   0.688  -4.364  0.00  0.00     0.001 A 
ATOM      7  C7  DEN d   1       4.415   1.143  -4.782  0.00  0.00     0.017 A 
ATOM      8  C8  DEN d   1       3.556   1.690  -3.838  0.00  0.00    -0.094 A 
ATOM      9  C9  DEN d   1       3.946   1.833  -2.518  0.00  0.00    -0.072 A 
ENDROOT
TORSDOF 0
ENDMDL
