MODEL 1
REMARK minimizedAffinity -1.73707521
REMARK minimizedRMSD -1
REMARK  0 active torsions:
REMARK  status: ('A' for Active; 'I' for Inactive)
ROOT
ATOM      1  C   UNL d   1       0.393   3.665  -0.220  0.00  0.00     0.078 C 
ATOM      2  C1  UNL d   1      -0.630   3.703   0.876  0.00  0.00    -0.077 A 
ATOM      3  C2  UNL d   1      -1.761   4.522   0.779  0.00  0.00    -0.001 A 
ATOM      4  C3  UNL d   1      -2.700   4.554   1.811  0.00  0.00     0.003 A 
ATOM      5  C4  UNL d   1      -2.516   3.771   2.949  0.00  0.00    -0.005 A 
ATOM      6  C5  UNL d   1      -1.392   2.954   3.055  0.00  0.00     0.003 A 
ATOM      7  C6  UNL d   1      -0.452   2.921   2.024  0.00  0.00    -0.001 A 
ENDROOT
TORSDOF 0
ENDMDL
