MODEL 1
REMARK minimizedAffinity 7.5713768
REMARK minimizedRMSD -1
REMARK  0 active torsions:
REMARK  status: ('A' for Active; 'I' for Inactive)
ROOT
ATOM      1  C   UNL d   1      -3.104   6.000   1.123  0.00  0.00     0.078 C 
ATOM      2  C1  UNL d   1      -2.005   5.016   0.852  0.00  0.00    -0.077 A 
ATOM      3  C2  UNL d   1      -1.041   5.265  -0.133  0.00  0.00    -0.001 A 
ATOM      4  C3  UNL d   1      -0.030   4.336  -0.381  0.00  0.00     0.003 A 
ATOM      5  C4  UNL d   1       0.027   3.151   0.350  0.00  0.00    -0.005 A 
ATOM      6  C5  UNL d   1      -0.929   2.894   1.331  0.00  0.00     0.003 A 
ATOM      7  C6  UNL d   1      -1.941   3.822   1.580  0.00  0.00    -0.001 A 
ENDROOT
TORSDOF 0
ENDMDL
