MODEL 1
REMARK minimizedAffinity -3.73351288
REMARK minimizedRMSD -1
REMARK  0 active torsions:
REMARK  status: ('A' for Active; 'I' for Inactive)
ROOT
ATOM      1  C   UNL d   1      -5.627   2.534  -1.490  0.00  0.00     0.078 C 
ATOM      2  C1  UNL d   1      -5.506   3.590  -2.547  0.00  0.00    -0.077 A 
ATOM      3  C2  UNL d   1      -6.000   3.376  -3.840  0.00  0.00    -0.001 A 
ATOM      4  C3  UNL d   1      -5.872   4.364  -4.817  0.00  0.00     0.003 A 
ATOM      5  C4  UNL d   1      -5.249   5.573  -4.513  0.00  0.00    -0.005 A 
ATOM      6  C5  UNL d   1      -4.752   5.794  -3.230  0.00  0.00     0.003 A 
ATOM      7  C6  UNL d   1      -4.879   4.807  -2.251  0.00  0.00    -0.001 A 
ENDROOT
TORSDOF 0
ENDMDL
