MODEL 1
REMARK minimizedAffinity -3.25349903
REMARK minimizedRMSD -1
REMARK  0 active torsions:
REMARK  status: ('A' for Active; 'I' for Inactive)
ROOT
ATOM      1  C   UNL d   1      -5.042   4.513  -5.997  0.00  0.00     0.078 C 
ATOM      2  C1  UNL d   1      -5.041   4.020  -4.581  0.00  0.00    -0.077 A 
ATOM      3  C2  UNL d   1      -4.115   3.061  -4.152  0.00  0.00    -0.001 A 
ATOM      4  C3  UNL d   1      -4.132   2.603  -2.833  0.00  0.00     0.003 A 
ATOM      5  C4  UNL d   1      -5.073   3.099  -1.933  0.00  0.00    -0.005 A 
ATOM      6  C5  UNL d   1      -5.999   4.052  -2.351  0.00  0.00     0.003 A 
ATOM      7  C6  UNL d   1      -5.984   4.510  -3.669  0.00  0.00    -0.001 A 
ENDROOT
TORSDOF 0
ENDMDL
