MODEL 1
REMARK minimizedAffinity -0.141488299
REMARK minimizedRMSD -1
REMARK  0 active torsions:
REMARK  status: ('A' for Active; 'I' for Inactive)
ROOT
ATOM      1  C   UNL d   1      -5.999   1.983  -2.207  0.00  0.00     0.078 C 
ATOM      2  C1  UNL d   1      -5.413   2.841  -3.288  0.00  0.00    -0.077 A 
ATOM      3  C2  UNL d   1      -6.000   2.901  -4.558  0.00  0.00    -0.001 A 
ATOM      4  C3  UNL d   1      -5.438   3.697  -5.558  0.00  0.00     0.003 A 
ATOM      5  C4  UNL d   1      -4.287   4.438  -5.298  0.00  0.00    -0.005 A 
ATOM      6  C5  UNL d   1      -3.695   4.382  -4.038  0.00  0.00     0.003 A 
ATOM      7  C6  UNL d   1      -4.255   3.587  -3.037  0.00  0.00    -0.001 A 
ENDROOT
TORSDOF 0
ENDMDL
