MODEL 1
REMARK minimizedAffinity -4.01940155
REMARK minimizedRMSD -1
REMARK  0 active torsions:
REMARK  status: ('A' for Active; 'I' for Inactive)
ROOT
ATOM      1  C   UNL d   1      -6.000   4.987  -5.962  0.00  0.00     0.078 C 
ATOM      2  C1  UNL d   1      -5.617   4.351  -4.660  0.00  0.00    -0.077 A 
ATOM      3  C2  UNL d   1      -4.867   5.052  -3.707  0.00  0.00    -0.001 A 
ATOM      4  C3  UNL d   1      -4.510   4.443  -2.503  0.00  0.00     0.003 A 
ATOM      5  C4  UNL d   1      -4.896   3.131  -2.241  0.00  0.00    -0.005 A 
ATOM      6  C5  UNL d   1      -5.640   2.424  -3.183  0.00  0.00     0.003 A 
ATOM      7  C6  UNL d   1      -5.999   3.031  -4.388  0.00  0.00    -0.001 A 
ENDROOT
TORSDOF 0
ENDMDL
