MODEL 1
REMARK minimizedAffinity -4.66309118
REMARK minimizedRMSD -1
REMARK  0 active torsions:
REMARK  status: ('A' for Active; 'I' for Inactive)
ROOT
ATOM      1  C   UNL d   1      -4.830   4.046  -3.967  0.00  0.00     0.078 C 
ATOM      2  C1  UNL d   1      -4.787   2.671  -4.564  0.00  0.00    -0.077 A 
ATOM      3  C2  UNL d   1      -3.632   2.196  -5.199  0.00  0.00    -0.001 A 
ATOM      4  C3  UNL d   1      -3.610   0.918  -5.759  0.00  0.00     0.003 A 
ATOM      5  C4  UNL d   1      -4.739   0.104  -5.692  0.00  0.00    -0.005 A 
ATOM      6  C5  UNL d   1      -5.893   0.569  -5.064  0.00  0.00     0.003 A 
ATOM      7  C6  UNL d   1      -5.918   1.847  -4.504  0.00  0.00    -0.001 A 
ENDROOT
TORSDOF 0
ENDMDL
