MODEL 1
REMARK minimizedAffinity -2.80811143
REMARK minimizedRMSD -1
REMARK  1 active torsions:
REMARK  status: ('A' for Active; 'I' for Inactive)
REMARK    1  A    between atoms: C1_2  and  C2_3 
ROOT
ATOM      1  C2  UNL d   1       0.201  -0.680  -0.619  0.00  0.00    -0.077 A 
ATOM      2  C3  UNL d   1       1.353  -0.975   0.122  0.00  0.00     0.002 A 
ATOM      3  C4  UNL d   1       1.377  -0.772   1.503  0.00  0.00     0.002 A 
ATOM      4  C5  UNL d   1       0.249  -0.277   2.155  0.00  0.00    -0.004 A 
ATOM      5  C6  UNL d   1      -0.902   0.021   1.427  0.00  0.00     0.002 A 
ATOM      6  C7  UNL d   1      -0.926  -0.180   0.046  0.00  0.00     0.002 A 
ENDROOT
BRANCH   1   7
ATOM      7  C1  UNL d   1       0.157  -0.945  -2.101  0.00  0.00     0.055 C 
ATOM      8  C   UNL d   1       1.074   0.004  -2.860  0.00  0.00     0.019 C 
ENDBRANCH   1   7
TORSDOF 1
ENDMDL
