MODEL 1
REMARK minimizedAffinity -2.28317428
REMARK minimizedRMSD -1
REMARK  1 active torsions:
REMARK  status: ('A' for Active; 'I' for Inactive)
REMARK    1  A    between atoms: C1_2  and  C2_3 
ROOT
ATOM      1  C2  UNL d   1      -0.406   0.261   1.817  0.00  0.00    -0.077 A 
ATOM      2  C3  UNL d   1       0.783  -0.037   1.137  0.00  0.00     0.002 A 
ATOM      3  C4  UNL d   1       1.941  -0.360   1.848  0.00  0.00     0.002 A 
ATOM      4  C5  UNL d   1       1.919  -0.392   3.241  0.00  0.00    -0.004 A 
ATOM      5  C6  UNL d   1       0.742  -0.096   3.926  0.00  0.00     0.002 A 
ATOM      6  C7  UNL d   1      -0.416   0.229   3.218  0.00  0.00     0.002 A 
ENDROOT
BRANCH   1   7
ATOM      7  C1  UNL d   1      -1.668   0.562   1.052  0.00  0.00     0.055 C 
ATOM      8  C   UNL d   1      -1.682  -0.150  -0.294  0.00  0.00     0.019 C 
ENDBRANCH   1   7
TORSDOF 1
ENDMDL
