MODEL 1
REMARK minimizedAffinity -4.9958787
REMARK minimizedRMSD -1
REMARK  1 active torsions:
REMARK  status: ('A' for Active; 'I' for Inactive)
REMARK    1  A    between atoms: C1_2  and  C2_3 
ROOT
ATOM      1  C2  UNL d   1       0.711  -0.710  -1.167  0.00  0.00    -0.077 A 
ATOM      2  C3  UNL d   1      -0.540  -0.351  -0.645  0.00  0.00     0.002 A 
ATOM      3  C4  UNL d   1      -0.699  -0.145   0.727  0.00  0.00     0.002 A 
ATOM      4  C5  UNL d   1       0.387  -0.291   1.587  0.00  0.00    -0.004 A 
ATOM      5  C6  UNL d   1       1.635  -0.650   1.077  0.00  0.00     0.002 A 
ATOM      6  C7  UNL d   1       1.796  -0.857  -0.293  0.00  0.00     0.002 A 
ENDROOT
BRANCH   1   7
ATOM      7  C1  UNL d   1       0.897  -0.884  -2.651  0.00  0.00     0.055 C 
ATOM      8  C   UNL d   1       1.771   0.217  -3.233  0.00  0.00     0.019 C 
ENDBRANCH   1   7
TORSDOF 1
ENDMDL
