MODEL 1
REMARK minimizedAffinity -3.80060554
REMARK minimizedRMSD -1
REMARK  1 active torsions:
REMARK  status: ('A' for Active; 'I' for Inactive)
REMARK    1  A    between atoms: C1_2  and  C2_3 
ROOT
ATOM      1  C2  UNL d   1       0.391  -0.351   0.593  0.00  0.00    -0.077 A 
ATOM      2  C3  UNL d   1       1.048  -0.270   1.828  0.00  0.00     0.002 A 
ATOM      3  C4  UNL d   1       0.439   0.366   2.912  0.00  0.00     0.002 A 
ATOM      4  C5  UNL d   1      -0.831   0.922   2.772  0.00  0.00    -0.004 A 
ATOM      5  C6  UNL d   1      -1.492   0.848   1.546  0.00  0.00     0.002 A 
ATOM      6  C7  UNL d   1      -0.884   0.213   0.462  0.00  0.00     0.002 A 
ENDROOT
BRANCH   1   7
ATOM      7  C1  UNL d   1       1.025  -1.080  -0.563  0.00  0.00     0.055 C 
ATOM      8  C   UNL d   1       0.806  -0.337  -1.873  0.00  0.00     0.019 C 
ENDBRANCH   1   7
TORSDOF 1
ENDMDL
