MODEL 1
REMARK minimizedAffinity -3.07354999
REMARK minimizedRMSD -1
REMARK  1 active torsions:
REMARK  status: ('A' for Active; 'I' for Inactive)
REMARK    1  A    between atoms: C1_2  and  C2_3 
ROOT
ATOM      1  C2  UNL d   1      -0.134  -0.100   2.467  0.00  0.00    -0.077 A 
ATOM      2  C3  UNL d   1       0.397  -0.223   1.175  0.00  0.00     0.002 A 
ATOM      3  C4  UNL d   1      -0.320   0.239   0.070  0.00  0.00     0.002 A 
ATOM      4  C5  UNL d   1      -1.569   0.830   0.244  0.00  0.00    -0.004 A 
ATOM      5  C6  UNL d   1      -2.107   0.955   1.525  0.00  0.00     0.002 A 
ATOM      6  C7  UNL d   1      -1.393   0.493   2.631  0.00  0.00     0.002 A 
ENDROOT
BRANCH   1   7
ATOM      7  C1  UNL d   1       0.659  -0.552   3.665  0.00  0.00     0.055 C 
ATOM      8  C   UNL d   1       2.122  -0.770   3.310  0.00  0.00     0.019 C 
ENDBRANCH   1   7
TORSDOF 1
ENDMDL
