MODEL 1
REMARK minimizedAffinity -2.63565087
REMARK minimizedRMSD -1
REMARK  1 active torsions:
REMARK  status: ('A' for Active; 'I' for Inactive)
REMARK    1  A    between atoms: C1_2  and  C2_3 
ROOT
ATOM      1  C2  UNL d   1       0.054  -0.286  -1.587  0.00  0.00    -0.077 A 
ATOM      2  C3  UNL d   1       0.790  -0.809  -0.515  0.00  0.00     0.002 A 
ATOM      3  C4  UNL d   1       0.332  -0.661   0.796  0.00  0.00     0.002 A 
ATOM      4  C5  UNL d   1      -0.866   0.005   1.046  0.00  0.00    -0.004 A 
ATOM      5  C6  UNL d   1      -1.604   0.531  -0.014  0.00  0.00     0.002 A 
ATOM      6  C7  UNL d   1      -1.147   0.385  -1.324  0.00  0.00     0.002 A 
ENDROOT
BRANCH   1   7
ATOM      7  C1  UNL d   1       0.521  -0.488  -3.005  0.00  0.00     0.055 C 
ATOM      8  C   UNL d   1       1.159   0.776  -3.562  0.00  0.00     0.019 C 
ENDBRANCH   1   7
TORSDOF 1
ENDMDL
