MODEL 1
REMARK minimizedAffinity -1.22829044
REMARK minimizedRMSD -1
REMARK  0 active torsions:
REMARK  status: ('A' for Active; 'I' for Inactive)
ROOT
ATOM      1  C   UNL d   1       4.338   0.756  -2.913  0.00  0.00     0.078 C 
ATOM      2  C1  UNL d   1       3.755   1.180  -1.598  0.00  0.00    -0.077 A 
ATOM      3  C2  UNL d   1       3.266   0.235  -0.688  0.00  0.00    -0.001 A 
ATOM      4  C3  UNL d   1       2.717   0.644   0.528  0.00  0.00     0.003 A 
ATOM      5  C4  UNL d   1       2.650   2.000   0.845  0.00  0.00    -0.005 A 
ATOM      6  C5  UNL d   1       3.132   2.947  -0.055  0.00  0.00     0.003 A 
ATOM      7  C6  UNL d   1       3.682   2.540  -1.272  0.00  0.00    -0.001 A 
ENDROOT
TORSDOF 0
ENDMDL
