MODEL 1
REMARK minimizedAffinity -4.24493456
REMARK minimizedRMSD -1
REMARK  0 active torsions:
REMARK  status: ('A' for Active; 'I' for Inactive)
ROOT
ATOM      1  C   UNL d   1      -0.343   0.601  -0.918  0.00  0.00     0.078 C 
ATOM      2  C1  UNL d   1      -0.761   0.330   0.496  0.00  0.00    -0.077 A 
ATOM      3  C2  UNL d   1       0.093  -0.331   1.387  0.00  0.00    -0.001 A 
ATOM      4  C3  UNL d   1      -0.313  -0.585   2.698  0.00  0.00     0.003 A 
ATOM      5  C4  UNL d   1      -1.575  -0.182   3.130  0.00  0.00    -0.005 A 
ATOM      6  C5  UNL d   1      -2.433   0.475   2.250  0.00  0.00     0.003 A 
ATOM      7  C6  UNL d   1      -2.028   0.730   0.939  0.00  0.00    -0.001 A 
ENDROOT
TORSDOF 0
ENDMDL
