MODEL 1
REMARK minimizedAffinity -2.62905335
REMARK minimizedRMSD -1
REMARK  0 active torsions:
REMARK  status: ('A' for Active; 'I' for Inactive)
ROOT
ATOM      1  C   UNL d   1      -1.534   0.396   2.986  0.00  0.00     0.078 C 
ATOM      2  C1  UNL d   1      -1.024  -0.339   1.782  0.00  0.00    -0.077 A 
ATOM      3  C2  UNL d   1      -1.875  -0.653   0.715  0.00  0.00    -0.001 A 
ATOM      4  C3  UNL d   1      -1.390  -1.346  -0.395  0.00  0.00     0.003 A 
ATOM      5  C4  UNL d   1      -0.052  -1.733  -0.448  0.00  0.00    -0.005 A 
ATOM      6  C5  UNL d   1       0.802  -1.427   0.610  0.00  0.00     0.003 A 
ATOM      7  C6  UNL d   1       0.318  -0.734   1.721  0.00  0.00    -0.001 A 
ENDROOT
TORSDOF 0
ENDMDL
