MODEL 1
REMARK minimizedAffinity -0.479860723
REMARK minimizedRMSD -1
REMARK  0 active torsions:
REMARK  status: ('A' for Active; 'I' for Inactive)
ROOT
ATOM      1  C   UNL d   1       1.396  -0.677   1.050  0.00  0.00     0.078 C 
ATOM      2  C1  UNL d   1      -0.075  -0.466   0.848  0.00  0.00    -0.077 A 
ATOM      3  C2  UNL d   1      -0.695  -0.819  -0.357  0.00  0.00    -0.001 A 
ATOM      4  C3  UNL d   1      -2.064  -0.608  -0.534  0.00  0.00     0.003 A 
ATOM      5  C4  UNL d   1      -2.823  -0.042   0.488  0.00  0.00    -0.005 A 
ATOM      6  C5  UNL d   1      -2.213   0.315   1.690  0.00  0.00     0.003 A 
ATOM      7  C6  UNL d   1      -0.845   0.104   1.869  0.00  0.00    -0.001 A 
ENDROOT
TORSDOF 0
ENDMDL
