MODEL 1
REMARK minimizedAffinity 0.553245306
REMARK minimizedRMSD -1
REMARK  0 active torsions:
REMARK  status: ('A' for Active; 'I' for Inactive)
ROOT
ATOM      1  C   UNL d   1       1.786  -0.675   1.075  0.00  0.00     0.078 C 
ATOM      2  C1  UNL d   1       0.317  -0.440   0.889  0.00  0.00    -0.077 A 
ATOM      3  C2  UNL d   1      -0.223  -0.228  -0.386  0.00  0.00    -0.001 A 
ATOM      4  C3  UNL d   1      -1.591  -0.001  -0.543  0.00  0.00     0.003 A 
ATOM      5  C4  UNL d   1      -2.430   0.017   0.569  0.00  0.00    -0.005 A 
ATOM      6  C5  UNL d   1      -1.901  -0.191   1.841  0.00  0.00     0.003 A 
ATOM      7  C6  UNL d   1      -0.534  -0.419   2.001  0.00  0.00    -0.001 A 
ENDROOT
TORSDOF 0
ENDMDL
