MODEL 1
REMARK minimizedAffinity -1.61250591
REMARK minimizedRMSD -1
REMARK  1 active torsions:
REMARK  status: ('A' for Active; 'I' for Inactive)
REMARK    1  A    between atoms: C1_2  and  C2_3 
ROOT
ATOM      1  C2  UNL d   1      -1.654   0.064   1.122  0.00  0.00    -0.077 A 
ATOM      2  C3  UNL d   1      -2.429   0.172  -0.041  0.00  0.00     0.002 A 
ATOM      3  C4  UNL d   1      -1.896  -0.188  -1.280  0.00  0.00     0.002 A 
ATOM      4  C5  UNL d   1      -0.589  -0.662  -1.367  0.00  0.00    -0.004 A 
ATOM      5  C6  UNL d   1       0.191  -0.770  -0.216  0.00  0.00     0.002 A 
ATOM      6  C7  UNL d   1      -0.340  -0.410   1.023  0.00  0.00     0.002 A 
ENDROOT
BRANCH   1   7
ATOM      7  C1  UNL d   1      -2.243   0.406   2.466  0.00  0.00     0.055 C 
ATOM      8  C   UNL d   1      -3.268  -0.632   2.901  0.00  0.00     0.019 C 
ENDBRANCH   1   7
TORSDOF 1
ENDMDL
