MODEL 1
REMARK minimizedAffinity -0.917359173
REMARK minimizedRMSD -1
REMARK  1 active torsions:
REMARK  status: ('A' for Active; 'I' for Inactive)
REMARK    1  A    between atoms: C1_2  and  C2_3 
ROOT
ATOM      1  C2  UNL d   1       0.650  -0.691   2.577  0.00  0.00    -0.077 A 
ATOM      2  C3  UNL d   1      -0.537  -0.245   3.176  0.00  0.00     0.002 A 
ATOM      3  C4  UNL d   1      -1.648   0.071   2.391  0.00  0.00     0.002 A 
ATOM      4  C5  UNL d   1      -1.584  -0.059   1.006  0.00  0.00    -0.004 A 
ATOM      5  C6  UNL d   1      -0.408  -0.500   0.401  0.00  0.00     0.002 A 
ATOM      6  C7  UNL d   1       0.704  -0.815   1.183  0.00  0.00     0.002 A 
ENDROOT
BRANCH   1   7
ATOM      7  C1  UNL d   1       1.834  -1.079   3.425  0.00  0.00     0.055 C 
ATOM      8  C   UNL d   1       1.393  -1.603   4.784  0.00  0.00     0.019 C 
ENDBRANCH   1   7
TORSDOF 1
ENDMDL
