MODEL 1
REMARK minimizedAffinity -1.17329502
REMARK minimizedRMSD -1
REMARK  1 active torsions:
REMARK  status: ('A' for Active; 'I' for Inactive)
REMARK    1  A    between atoms: C1_2  and  C2_3 
ROOT
ATOM      1  C2  UNL d   1       0.139  -0.625   1.528  0.00  0.00    -0.077 A 
ATOM      2  C3  UNL d   1      -1.028  -0.161   2.153  0.00  0.00     0.002 A 
ATOM      3  C4  UNL d   1      -2.191   0.048   1.409  0.00  0.00     0.002 A 
ATOM      4  C5  UNL d   1      -2.200  -0.208   0.040  0.00  0.00    -0.004 A 
ATOM      5  C6  UNL d   1      -1.044  -0.667  -0.591  0.00  0.00     0.002 A 
ATOM      6  C7  UNL d   1       0.120  -0.875   0.151  0.00  0.00     0.002 A 
ENDROOT
BRANCH   1   7
ATOM      7  C1  UNL d   1       1.381  -0.898   2.337  0.00  0.00     0.055 C 
ATOM      8  C   UNL d   1       1.037  -1.257   3.775  0.00  0.00     0.019 C 
ENDBRANCH   1   7
TORSDOF 1
ENDMDL
