MODEL 1
REMARK minimizedAffinity -1.32831192
REMARK minimizedRMSD -1
REMARK  1 active torsions:
REMARK  status: ('A' for Active; 'I' for Inactive)
REMARK    1  A    between atoms: C1_2  and  C2_3 
ROOT
ATOM      1  C2  UNL d   1      -1.113  -1.196   3.594  0.00  0.00    -0.077 A 
ATOM      2  C3  UNL d   1      -1.188  -0.063   2.771  0.00  0.00     0.002 A 
ATOM      3  C4  UNL d   1      -2.361   0.224   2.070  0.00  0.00     0.002 A 
ATOM      4  C5  UNL d   1      -3.468  -0.614   2.188  0.00  0.00    -0.004 A 
ATOM      5  C6  UNL d   1      -3.403  -1.743   3.003  0.00  0.00     0.002 A 
ATOM      6  C7  UNL d   1      -2.231  -2.033   3.703  0.00  0.00     0.002 A 
ENDROOT
BRANCH   1   7
ATOM      7  C1  UNL d   1       0.134  -1.481   4.389  0.00  0.00     0.055 C 
ATOM      8  C   UNL d   1       1.387  -1.232   3.561  0.00  0.00     0.019 C 
ENDBRANCH   1   7
TORSDOF 1
ENDMDL
