MODEL 1
REMARK minimizedAffinity 1.92901647
REMARK minimizedRMSD -1
REMARK  1 active torsions:
REMARK  status: ('A' for Active; 'I' for Inactive)
REMARK    1  A    between atoms: C1_2  and  C2_3 
ROOT
ATOM      1  C2  UNL d   1      -0.037  -0.692   0.418  0.00  0.00    -0.077 A 
ATOM      2  C3  UNL d   1      -0.723  -0.058   1.464  0.00  0.00     0.002 A 
ATOM      3  C4  UNL d   1      -2.119  -0.038   1.483  0.00  0.00     0.002 A 
ATOM      4  C5  UNL d   1      -2.841  -0.652   0.462  0.00  0.00    -0.004 A 
ATOM      5  C6  UNL d   1      -2.168  -1.284  -0.584  0.00  0.00     0.002 A 
ATOM      6  C7  UNL d   1      -0.773  -1.304  -0.605  0.00  0.00     0.002 A 
ENDROOT
BRANCH   1   7
ATOM      7  C1  UNL d   1       1.468  -0.758   0.421  0.00  0.00     0.055 C 
ATOM      8  C   UNL d   1       2.080   0.549  -0.058  0.00  0.00     0.019 C 
ENDBRANCH   1   7
TORSDOF 1
ENDMDL
