MODEL 1
REMARK minimizedAffinity 3.82613349
REMARK minimizedRMSD -1
REMARK  1 active torsions:
REMARK  status: ('A' for Active; 'I' for Inactive)
REMARK    1  A    between atoms: C1_2  and  C2_3 
ROOT
ATOM      1  C2  UNL d   1      -0.300  -0.688   3.018  0.00  0.00    -0.077 A 
ATOM      2  C3  UNL d   1      -1.621  -0.276   2.790  0.00  0.00     0.002 A 
ATOM      3  C4  UNL d   1      -2.064  -0.009   1.493  0.00  0.00     0.002 A 
ATOM      4  C5  UNL d   1      -1.194  -0.155   0.414  0.00  0.00    -0.004 A 
ATOM      5  C6  UNL d   1       0.122  -0.562   0.631  0.00  0.00     0.002 A 
ATOM      6  C7  UNL d   1       0.567  -0.828   1.926  0.00  0.00     0.002 A 
ENDROOT
BRANCH   1   7
ATOM      7  C1  UNL d   1       0.165  -1.023   4.411  0.00  0.00     0.055 C 
ATOM      8  C   UNL d   1       1.517  -1.723   4.389  0.00  0.00     0.019 C 
ENDBRANCH   1   7
TORSDOF 1
ENDMDL
