MODEL 1
REMARK minimizedAffinity -2.08222222
REMARK minimizedRMSD -1
REMARK  1 active torsions:
REMARK  status: ('A' for Active; 'I' for Inactive)
REMARK    1  A    between atoms: C1_2  and  C2_3 
ROOT
ATOM      1  C2  UNL d   1      -0.148  -0.473   0.476  0.00  0.00    -0.077 A 
ATOM      2  C3  UNL d   1      -1.010   0.122   1.408  0.00  0.00     0.002 A 
ATOM      3  C4  UNL d   1      -2.370   0.264   1.122  0.00  0.00     0.002 A 
ATOM      4  C5  UNL d   1      -2.879  -0.189  -0.093  0.00  0.00    -0.004 A 
ATOM      5  C6  UNL d   1      -2.030  -0.780  -1.027  0.00  0.00     0.002 A 
ATOM      6  C7  UNL d   1      -0.671  -0.922  -0.744  0.00  0.00     0.002 A 
ENDROOT
BRANCH   1   7
ATOM      7  C1  UNL d   1       1.309  -0.672   0.802  0.00  0.00     0.055 C 
ATOM      8  C   UNL d   1       2.178   0.370   0.114  0.00  0.00     0.019 C 
ENDBRANCH   1   7
TORSDOF 1
ENDMDL
