MODEL 1
REMARK minimizedAffinity 1.43037498
REMARK minimizedRMSD -1
REMARK  1 active torsions:
REMARK  status: ('A' for Active; 'I' for Inactive)
REMARK    1  A    between atoms: C1_2  and  C2_3 
ROOT
ATOM      1  C2  UNL d   1      -0.124  -0.148   0.711  0.00  0.00    -0.077 A 
ATOM      2  C3  UNL d   1      -0.630  -0.473  -0.555  0.00  0.00     0.002 A 
ATOM      3  C4  UNL d   1      -1.986  -0.298  -0.840  0.00  0.00     0.002 A 
ATOM      4  C5  UNL d   1      -2.845   0.208   0.135  0.00  0.00    -0.004 A 
ATOM      5  C6  UNL d   1      -2.351   0.532   1.397  0.00  0.00     0.002 A 
ATOM      6  C7  UNL d   1      -0.996   0.356   1.684  0.00  0.00     0.002 A 
ENDROOT
BRANCH   1   7
ATOM      7  C1  UNL d   1       1.347  -0.290   1.005  0.00  0.00     0.055 C 
ATOM      8  C   UNL d   1       2.113   0.965   0.613  0.00  0.00     0.019 C 
ENDBRANCH   1   7
TORSDOF 1
ENDMDL
