MODEL 1
REMARK minimizedAffinity -0.153331116
REMARK minimizedRMSD -1
REMARK  1 active torsions:
REMARK  status: ('A' for Active; 'I' for Inactive)
REMARK    1  A    between atoms: C3_4  and  O_7 
ROOT
ATOM      1  C   UNL d   1       1.701  -3.947   4.592  0.00  0.00    -0.033 A 
ATOM      2  C1  UNL d   1       2.647  -2.998   4.986  0.00  0.00     0.039 A 
ATOM      3  C2  UNL d   1       2.794  -1.814   4.262  0.00  0.00    -0.080 A 
ATOM      4  C3  UNL d   1       1.989  -1.590   3.148  0.00  0.00     0.150 A 
ATOM      5  C4  UNL d   1       1.043  -2.529   2.752  0.00  0.00    -0.007 A 
ATOM      6  C5  UNL d   1       0.898  -3.711   3.476  0.00  0.00     0.039 A 
ENDROOT
BRANCH   4   7
ATOM      7  O   UNL d   1       2.100  -0.451   2.407  0.00  0.00    -0.526 OA
ATOM      8  H5  UNL d   1       2.814   0.092   2.781  0.00  0.00     0.418 HD
ENDBRANCH   4   7
TORSDOF 1
ENDMDL
