MODEL 1
REMARK minimizedAffinity 3.42403007
REMARK minimizedRMSD -1
REMARK  1 active torsions:
REMARK  status: ('A' for Active; 'I' for Inactive)
REMARK    1  A    between atoms: C3_4  and  O_7 
ROOT
ATOM      1  C   UNL d   1       4.452  -5.996  -2.667  0.00  0.00    -0.033 A 
ATOM      2  C1  UNL d   1       3.114  -5.996  -2.267  0.00  0.00     0.039 A 
ATOM      3  C2  UNL d   1       2.097  -5.979  -3.223  0.00  0.00    -0.080 A 
ATOM      4  C3  UNL d   1       2.431  -5.964  -4.575  0.00  0.00     0.150 A 
ATOM      5  C4  UNL d   1       3.761  -5.968  -4.981  0.00  0.00    -0.007 A 
ATOM      6  C5  UNL d   1       4.775  -5.983  -4.024  0.00  0.00     0.039 A 
ENDROOT
BRANCH   4   7
ATOM      7  O   UNL d   1       1.473  -5.943  -5.545  0.00  0.00    -0.526 OA
ATOM      8  H5  UNL d   1       0.601  -5.913  -5.116  0.00  0.00     0.418 HD
ENDBRANCH   4   7
TORSDOF 1
ENDMDL
