MODEL 1
REMARK minimizedAffinity 6.04584026
REMARK minimizedRMSD -1
REMARK  1 active torsions:
REMARK  status: ('A' for Active; 'I' for Inactive)
REMARK    1  A    between atoms: C3_4  and  O_7 
ROOT
ATOM      1  C   UNL d   1      -5.479  -2.948  -1.829  0.00  0.00    -0.033 A 
ATOM      2  C1  UNL d   1      -6.000  -1.652  -1.826  0.00  0.00     0.039 A 
ATOM      3  C2  UNL d   1      -5.209  -0.580  -2.243  0.00  0.00    -0.080 A 
ATOM      4  C3  UNL d   1      -3.902  -0.816  -2.660  0.00  0.00     0.150 A 
ATOM      5  C4  UNL d   1      -3.379  -2.104  -2.669  0.00  0.00    -0.007 A 
ATOM      6  C5  UNL d   1      -4.169  -3.174  -2.251  0.00  0.00     0.039 A 
ENDROOT
BRANCH   4   7
ATOM      7  O   UNL d   1      -3.091   0.200  -3.071  0.00  0.00    -0.526 OA
ATOM      8  H5  UNL d   1      -3.578   1.037  -2.984  0.00  0.00     0.418 HD
ENDBRANCH   4   7
TORSDOF 1
ENDMDL
