MODEL 1
REMARK minimizedAffinity 3.13482857
REMARK minimizedRMSD -1
REMARK  1 active torsions:
REMARK  status: ('A' for Active; 'I' for Inactive)
REMARK    1  A    between atoms: C3_4  and  O_7 
ROOT
ATOM      1  C   UNL d   1      -2.857   3.289  -0.633  0.00  0.00    -0.033 A 
ATOM      2  C1  UNL d   1      -4.095   3.928  -0.543  0.00  0.00     0.039 A 
ATOM      3  C2  UNL d   1      -4.996   3.571   0.462  0.00  0.00    -0.080 A 
ATOM      4  C3  UNL d   1      -4.646   2.576   1.371  0.00  0.00     0.150 A 
ATOM      5  C4  UNL d   1      -3.412   1.938   1.290  0.00  0.00    -0.007 A 
ATOM      6  C5  UNL d   1      -2.515   2.295   0.285  0.00  0.00     0.039 A 
ENDROOT
BRANCH   4   7
ATOM      7  O   UNL d   1      -5.494   2.190   2.366  0.00  0.00    -0.526 OA
ATOM      8  H5  UNL d   1      -6.319   2.696   2.281  0.00  0.00     0.418 HD
ENDBRANCH   4   7
TORSDOF 1
ENDMDL
