MODEL 1
REMARK minimizedAffinity -0.857418776
REMARK minimizedRMSD -1
REMARK  1 active torsions:
REMARK  status: ('A' for Active; 'I' for Inactive)
REMARK    1  A    between atoms: C3_4  and  O_7 
ROOT
ATOM      1  C   UNL d   1       1.542  -3.191   3.411  0.00  0.00    -0.033 A 
ATOM      2  C1  UNL d   1       2.182  -4.119   4.234  0.00  0.00     0.039 A 
ATOM      3  C2  UNL d   1       3.533  -3.960   4.551  0.00  0.00    -0.080 A 
ATOM      4  C3  UNL d   1       4.231  -2.870   4.040  0.00  0.00     0.150 A 
ATOM      5  C4  UNL d   1       3.598  -1.938   3.222  0.00  0.00    -0.007 A 
ATOM      6  C5  UNL d   1       2.250  -2.099   2.907  0.00  0.00     0.039 A 
ENDROOT
BRANCH   4   7
ATOM      7  O   UNL d   1       5.551  -2.675   4.317  0.00  0.00    -0.526 OA
ATOM      8  H5  UNL d   1       5.862  -3.412   4.869  0.00  0.00     0.418 HD
ENDBRANCH   4   7
TORSDOF 1
ENDMDL
