MODEL 1
REMARK minimizedAffinity 6.87617731
REMARK minimizedRMSD -1
REMARK  1 active torsions:
REMARK  status: ('A' for Active; 'I' for Inactive)
REMARK    1  A    between atoms: C3_4  and  O_7 
ROOT
ATOM      1  C   UNL d   1       1.050  -2.153   2.545  0.00  0.00    -0.033 A 
ATOM      2  C1  UNL d   1       2.190  -1.349   2.492  0.00  0.00     0.039 A 
ATOM      3  C2  UNL d   1       3.345  -1.725   3.181  0.00  0.00    -0.080 A 
ATOM      4  C3  UNL d   1       3.346  -2.907   3.918  0.00  0.00     0.150 A 
ATOM      5  C4  UNL d   1       2.215  -3.715   3.972  0.00  0.00    -0.007 A 
ATOM      6  C5  UNL d   1       1.063  -3.337   3.283  0.00  0.00     0.039 A 
ENDROOT
BRANCH   4   7
ATOM      7  O   UNL d   1       4.448  -3.313   4.610  0.00  0.00    -0.526 OA
ATOM      8  H5  UNL d   1       5.143  -2.642   4.505  0.00  0.00     0.418 HD
ENDBRANCH   4   7
TORSDOF 1
ENDMDL
