MODEL 1
REMARK minimizedAffinity 1.30623126
REMARK minimizedRMSD -1
REMARK  1 active torsions:
REMARK  status: ('A' for Active; 'I' for Inactive)
REMARK    1  A    between atoms: C3_4  and  O_7 
ROOT
ATOM      1  C   UNL d   1       3.745  -5.959  -1.864  0.00  0.00    -0.033 A 
ATOM      2  C1  UNL d   1       2.647  -5.980  -2.726  0.00  0.00     0.039 A 
ATOM      3  C2  UNL d   1       2.843  -5.995  -4.109  0.00  0.00    -0.080 A 
ATOM      4  C3  UNL d   1       4.139  -5.990  -4.616  0.00  0.00     0.150 A 
ATOM      5  C4  UNL d   1       5.238  -5.974  -3.763  0.00  0.00    -0.007 A 
ATOM      6  C5  UNL d   1       5.041  -5.958  -2.383  0.00  0.00     0.039 A 
ENDROOT
BRANCH   4   7
ATOM      7  O   UNL d   1       4.380  -6.000  -5.957  0.00  0.00    -0.526 OA
ATOM      8  H5  UNL d   1       3.527  -5.982  -6.423  0.00  0.00     0.418 HD
ENDBRANCH   4   7
TORSDOF 1
ENDMDL
