MODEL 1
REMARK minimizedAffinity 6.99737978
REMARK minimizedRMSD -1
REMARK  1 active torsions:
REMARK  status: ('A' for Active; 'I' for Inactive)
REMARK    1  A    between atoms: C3_4  and  O_7 
ROOT
ATOM      1  C   UNL d   1       1.800  -2.067   2.571  0.00  0.00    -0.033 A 
ATOM      2  C1  UNL d   1       1.365  -3.348   2.225  0.00  0.00     0.039 A 
ATOM      3  C2  UNL d   1       1.948  -4.469   2.820  0.00  0.00    -0.080 A 
ATOM      4  C3  UNL d   1       2.961  -4.295   3.759  0.00  0.00     0.150 A 
ATOM      5  C4  UNL d   1       3.396  -3.021   4.111  0.00  0.00    -0.007 A 
ATOM      6  C5  UNL d   1       2.814  -1.903   3.515  0.00  0.00     0.039 A 
ENDROOT
BRANCH   4   7
ATOM      7  O   UNL d   1       3.563  -5.358   4.363  0.00  0.00    -0.526 OA
ATOM      8  H5  UNL d   1       3.181  -6.175   4.000  0.00  0.00     0.418 HD
ENDBRANCH   4   7
TORSDOF 1
ENDMDL
