MODEL 1
REMARK minimizedAffinity 0.449504465
REMARK minimizedRMSD -1
REMARK  1 active torsions:
REMARK  status: ('A' for Active; 'I' for Inactive)
REMARK    1  A    between atoms: C3_4  and  O_7 
ROOT
ATOM      1  C   UNL d   1       2.610  -5.989  -5.449  0.00  0.00    -0.033 A 
ATOM      2  C1  UNL d   1       1.657  -5.998  -4.430  0.00  0.00     0.039 A 
ATOM      3  C2  UNL d   1       2.061  -6.000  -3.093  0.00  0.00    -0.080 A 
ATOM      4  C3  UNL d   1       3.420  -5.992  -2.791  0.00  0.00     0.150 A 
ATOM      5  C4  UNL d   1       4.375  -5.980  -3.801  0.00  0.00    -0.007 A 
ATOM      6  C5  UNL d   1       3.969  -5.979  -5.135  0.00  0.00     0.039 A 
ENDROOT
BRANCH   4   7
ATOM      7  O   UNL d   1       3.863  -5.999  -1.501  0.00  0.00    -0.526 OA
ATOM      8  H5  UNL d   1       3.092  -6.037  -0.911  0.00  0.00     0.418 HD
ENDBRANCH   4   7
TORSDOF 1
ENDMDL
