MODEL 1
REMARK minimizedAffinity 6.98084116
REMARK minimizedRMSD -1
REMARK  0 active torsions:
REMARK  status: ('A' for Active; 'I' for Inactive)
ROOT
ATOM      1  N1  IND d   1       2.346  -4.448  -4.945  0.00  0.00    -0.196 N 
ATOM      2  C2  IND d   1       2.706  -3.647  -5.993  0.00  0.00     0.054 A 
ATOM      3  C3  IND d   1       4.044  -3.454  -5.999  0.00  0.00    -0.031 A 
ATOM      4  C4  IND d   1       5.846  -4.440  -4.447  0.00  0.00     0.051 A 
ATOM      5  C5  IND d   1       6.000  -5.198  -3.320  0.00  0.00    -0.031 A 
ATOM      6  C6  IND d   1       4.922  -5.759  -2.666  0.00  0.00     0.015 A 
ATOM      7  C7  IND d   1       3.646  -5.591  -3.123  0.00  0.00    -0.016 A 
ATOM      8  C8  IND d   1       3.485  -4.815  -4.263  0.00  0.00    -0.047 A 
ATOM      9  C9  IND d   1       4.571  -4.208  -4.906  0.00  0.00    -0.096 A 
ATOM     10  HN1 IND d   1       1.543  -4.683  -4.746  0.00  0.00     0.298 HD
ENDROOT
TORSDOF 0
ENDMDL
