MODEL 1
REMARK minimizedAffinity 3.55179715
REMARK minimizedRMSD -1
REMARK  0 active torsions:
REMARK  status: ('A' for Active; 'I' for Inactive)
ROOT
ATOM      1  N1  IND d   1      -1.822  -2.077  -1.428  0.00  0.00    -0.196 N 
ATOM      2  C2  IND d   1      -0.650  -2.540  -1.960  0.00  0.00     0.054 A 
ATOM      3  C3  IND d   1      -0.698  -3.883  -2.107  0.00  0.00    -0.031 A 
ATOM      4  C4  IND d   1      -2.635  -5.512  -1.634  0.00  0.00     0.051 A 
ATOM      5  C5  IND d   1      -3.895  -5.563  -1.106  0.00  0.00    -0.031 A 
ATOM      6  C6  IND d   1      -4.542  -4.432  -0.651  0.00  0.00     0.015 A 
ATOM      7  C7  IND d   1      -3.955  -3.200  -0.719  0.00  0.00    -0.016 A 
ATOM      8  C8  IND d   1      -2.673  -3.145  -1.248  0.00  0.00    -0.047 A 
ATOM      9  C9  IND d   1      -1.995  -4.295  -1.672  0.00  0.00    -0.096 A 
ATOM     10  HN1 IND d   1      -1.997  -1.257  -1.237  0.00  0.00     0.298 HD
ENDROOT
TORSDOF 0
ENDMDL
