MODEL 1
REMARK minimizedAffinity 5.25838089
REMARK minimizedRMSD -1
REMARK  0 active torsions:
REMARK  status: ('A' for Active; 'I' for Inactive)
ROOT
ATOM      1  N1  IND d   1      -1.730  -1.754  -1.515  0.00  0.00    -0.196 N 
ATOM      2  C2  IND d   1      -0.679  -2.153  -2.293  0.00  0.00     0.054 A 
ATOM      3  C3  IND d   1      -0.815  -3.454  -2.636  0.00  0.00    -0.031 A 
ATOM      4  C4  IND d   1      -2.732  -5.091  -2.115  0.00  0.00     0.051 A 
ATOM      5  C5  IND d   1      -3.895  -5.197  -1.406  0.00  0.00    -0.031 A 
ATOM      6  C6  IND d   1      -4.408  -4.138  -0.685  0.00  0.00     0.015 A 
ATOM      7  C7  IND d   1      -3.780  -2.926  -0.655  0.00  0.00    -0.016 A 
ATOM      8  C8  IND d   1      -2.594  -2.817  -1.368  0.00  0.00    -0.047 A 
ATOM      9  C9  IND d   1      -2.047  -3.900  -2.067  0.00  0.00    -0.096 A 
ATOM     10  HN1 IND d   1      -1.834  -0.971  -1.175  0.00  0.00     0.298 HD
ENDROOT
TORSDOF 0
ENDMDL
