MODEL 1
REMARK minimizedAffinity 5.18602324
REMARK minimizedRMSD -1
REMARK  0 active torsions:
REMARK  status: ('A' for Active; 'I' for Inactive)
ROOT
ATOM      1  N1  IND d   1       3.825  -5.995  -2.472  0.00  0.00    -0.196 N 
ATOM      2  C2  IND d   1       2.731  -5.260  -2.108  0.00  0.00     0.054 A 
ATOM      3  C3  IND d   1       2.520  -4.261  -2.994  0.00  0.00    -0.031 A 
ATOM      4  C4  IND d   1       3.784  -3.708  -5.167  0.00  0.00     0.051 A 
ATOM      5  C5  IND d   1       4.877  -4.074  -5.901  0.00  0.00    -0.031 A 
ATOM      6  C6  IND d   1       5.691  -5.123  -5.522  0.00  0.00     0.015 A 
ATOM      7  C7  IND d   1       5.433  -5.854  -4.398  0.00  0.00    -0.016 A 
ATOM      8  C8  IND d   1       4.328  -5.480  -3.647  0.00  0.00    -0.047 A 
ATOM      9  C9  IND d   1       3.523  -4.390  -4.003  0.00  0.00    -0.096 A 
ATOM     10  HN1 IND d   1       4.146  -6.665  -2.039  0.00  0.00     0.298 HD
ENDROOT
TORSDOF 0
ENDMDL
