MODEL 1
REMARK minimizedAffinity 7.33889866
REMARK minimizedRMSD -1
REMARK  0 active torsions:
REMARK  status: ('A' for Active; 'I' for Inactive)
ROOT
ATOM      1  N1  IND d   1       3.687  -2.922  -3.696  0.00  0.00    -0.196 N 
ATOM      2  C2  IND d   1       3.366  -2.272  -4.855  0.00  0.00     0.054 A 
ATOM      3  C3  IND d   1       3.921  -2.899  -5.916  0.00  0.00    -0.031 A 
ATOM      4  C4  IND d   1       5.310  -5.065  -5.992  0.00  0.00     0.051 A 
ATOM      5  C5  IND d   1       5.895  -5.999  -5.184  0.00  0.00    -0.031 A 
ATOM      6  C6  IND d   1       5.769  -5.955  -3.810  0.00  0.00     0.015 A 
ATOM      7  C7  IND d   1       5.041  -4.979  -3.192  0.00  0.00    -0.016 A 
ATOM      8  C8  IND d   1       4.451  -4.025  -4.010  0.00  0.00    -0.047 A 
ATOM      9  C9  IND d   1       4.611  -4.039  -5.402  0.00  0.00    -0.096 A 
ATOM     10  HN1 IND d   1       3.452  -2.683  -2.905  0.00  0.00     0.298 HD
ENDROOT
TORSDOF 0
ENDMDL
