MODEL 1
REMARK minimizedAffinity 8.03007507
REMARK minimizedRMSD -1
REMARK  0 active torsions:
REMARK  status: ('A' for Active; 'I' for Inactive)
ROOT
ATOM      1  N1  IND d   1       2.645  -3.340  -5.406  0.00  0.00    -0.196 N 
ATOM      2  C2  IND d   1       1.919  -4.343  -5.987  0.00  0.00     0.054 A 
ATOM      3  C3  IND d   1       2.620  -5.499  -5.975  0.00  0.00    -0.031 A 
ATOM      4  C4  IND d   1       4.934  -5.998  -4.965  0.00  0.00     0.051 A 
ATOM      5  C5  IND d   1       5.999  -5.391  -4.361  0.00  0.00    -0.031 A 
ATOM      6  C6  IND d   1       6.000  -4.043  -4.066  0.00  0.00     0.015 A 
ATOM      7  C7  IND d   1       4.925  -3.250  -4.356  0.00  0.00    -0.016 A 
ATOM      8  C8  IND d   1       3.845  -3.861  -4.975  0.00  0.00    -0.047 A 
ATOM      9  C9  IND d   1       3.856  -5.220  -5.315  0.00  0.00    -0.096 A 
ATOM     10  HN1 IND d   1       2.394  -2.522  -5.324  0.00  0.00     0.298 HD
ENDROOT
TORSDOF 0
ENDMDL
