MODEL 1
REMARK minimizedAffinity 8.70760632
REMARK minimizedRMSD -1
REMARK  0 active torsions:
REMARK  status: ('A' for Active; 'I' for Inactive)
ROOT
ATOM      1  N1  IND d   1       4.752  -5.987  -5.340  0.00  0.00    -0.196 N 
ATOM      2  C2  IND d   1       5.999  -5.507  -5.054  0.00  0.00     0.054 A 
ATOM      3  C3  IND d   1       6.000  -4.155  -5.078  0.00  0.00    -0.031 A 
ATOM      4  C4  IND d   1       4.045  -2.525  -5.462  0.00  0.00     0.051 A 
ATOM      5  C5  IND d   1       2.721  -2.491  -5.797  0.00  0.00    -0.031 A 
ATOM      6  C6  IND d   1       1.990  -3.644  -5.999  0.00  0.00     0.015 A 
ATOM      7  C7  IND d   1       2.557  -4.880  -5.861  0.00  0.00    -0.016 A 
ATOM      8  C8  IND d   1       3.903  -4.918  -5.527  0.00  0.00    -0.047 A 
ATOM      9  C9  IND d   1       4.660  -3.750  -5.363  0.00  0.00    -0.096 A 
ATOM     10  HN1 IND d   1       4.533  -6.817  -5.394  0.00  0.00     0.298 HD
ENDROOT
TORSDOF 0
ENDMDL
