MODEL 1
REMARK minimizedAffinity 9.4472723
REMARK minimizedRMSD -1
REMARK  0 active torsions:
REMARK  status: ('A' for Active; 'I' for Inactive)
ROOT
ATOM      1  N1  IND d   1       5.990  -2.268   2.879  0.00  0.00    -0.196 N 
ATOM      2  C2  IND d   1       5.982  -1.093   3.579  0.00  0.00     0.054 A 
ATOM      3  C3  IND d   1       5.989  -0.040   2.731  0.00  0.00    -0.031 A 
ATOM      4  C4  IND d   1       5.912  -0.012   0.158  0.00  0.00     0.051 A 
ATOM      5  C5  IND d   1       5.946  -0.839  -0.930  0.00  0.00    -0.031 A 
ATOM      6  C6  IND d   1       5.995  -2.212  -0.801  0.00  0.00     0.015 A 
ATOM      7  C7  IND d   1       6.000  -2.813   0.426  0.00  0.00    -0.016 A 
ATOM      8  C8  IND d   1       5.972  -1.976   1.533  0.00  0.00    -0.047 A 
ATOM      9  C9  IND d   1       5.966  -0.581   1.409  0.00  0.00    -0.096 A 
ATOM     10  HN1 IND d   1       6.004  -3.056   3.222  0.00  0.00     0.298 HD
ENDROOT
TORSDOF 0
ENDMDL
