MODEL 1
REMARK minimizedAffinity 3.42653322
REMARK minimizedRMSD -1
REMARK  0 active torsions:
REMARK  status: ('A' for Active; 'I' for Inactive)
ROOT
ATOM      1  N1  IND d   1       4.456  -2.207  -4.148  0.00  0.00    -0.196 N 
ATOM      2  C2  IND d   1       3.529  -1.849  -5.088  0.00  0.00     0.054 A 
ATOM      3  C3  IND d   1       3.338  -2.856  -5.969  0.00  0.00    -0.031 A 
ATOM      4  C4  IND d   1       4.363  -5.218  -6.000  0.00  0.00     0.051 A 
ATOM      5  C5  IND d   1       5.289  -5.999  -5.367  0.00  0.00    -0.031 A 
ATOM      6  C6  IND d   1       5.997  -5.547  -4.272  0.00  0.00     0.015 A 
ATOM      7  C7  IND d   1       5.796  -4.297  -3.759  0.00  0.00    -0.016 A 
ATOM      8  C8  IND d   1       4.862  -3.499  -4.404  0.00  0.00    -0.047 A 
ATOM      9  C9  IND d   1       4.171  -3.936  -5.542  0.00  0.00    -0.096 A 
ATOM     10  HN1 IND d   1       4.737  -1.710  -3.506  0.00  0.00     0.298 HD
ENDROOT
TORSDOF 0
ENDMDL
