MODEL 1
REMARK minimizedAffinity 8.48937225
REMARK minimizedRMSD -1
REMARK  0 active torsions:
REMARK  status: ('A' for Active; 'I' for Inactive)
ROOT
ATOM      1  N1  IND d   1       3.760  -3.657  -5.593  0.00  0.00    -0.196 N 
ATOM      2  C2  IND d   1       4.136  -4.907  -5.999  0.00  0.00     0.054 A 
ATOM      3  C3  IND d   1       5.050  -5.423  -5.146  0.00  0.00    -0.031 A 
ATOM      4  C4  IND d   1       5.994  -4.434  -2.965  0.00  0.00     0.051 A 
ATOM      5  C5  IND d   1       5.977  -3.302  -2.200  0.00  0.00    -0.031 A 
ATOM      6  C6  IND d   1       5.204  -2.209  -2.532  0.00  0.00     0.015 A 
ATOM      7  C7  IND d   1       4.405  -2.212  -3.641  0.00  0.00    -0.016 A 
ATOM      8  C8  IND d   1       4.424  -3.357  -4.423  0.00  0.00    -0.047 A 
ATOM      9  C9  IND d   1       5.240  -4.454  -4.114  0.00  0.00    -0.096 A 
ATOM     10  HN1 IND d   1       3.203  -3.144  -5.999  0.00  0.00     0.298 HD
ENDROOT
TORSDOF 0
ENDMDL
