MODEL 1
REMARK minimizedAffinity 6.354527
REMARK minimizedRMSD -1
REMARK  0 active torsions:
REMARK  status: ('A' for Active; 'I' for Inactive)
ROOT
ATOM      1  N1  IND d   1      -1.264   0.258  -0.486  0.00  0.00    -0.196 N 
ATOM      2  C2  IND d   1       0.021   0.317  -0.951  0.00  0.00     0.054 A 
ATOM      3  C3  IND d   1       0.896   0.120   0.060  0.00  0.00    -0.031 A 
ATOM      4  C4  IND d   1       0.441  -0.418   2.536  0.00  0.00     0.051 A 
ATOM      5  C5  IND d   1      -0.574  -0.538   3.444  0.00  0.00    -0.031 A 
ATOM      6  C6  IND d   1      -1.898  -0.399   3.079  0.00  0.00     0.015 A 
ATOM      7  C7  IND d   1      -2.258  -0.144   1.786  0.00  0.00    -0.016 A 
ATOM      8  C8  IND d   1      -1.229  -0.015   0.864  0.00  0.00    -0.047 A 
ATOM      9  C9  IND d   1       0.118  -0.113   1.235  0.00  0.00    -0.096 A 
ATOM     10  HN1 IND d   1      -1.973   0.373  -0.958  0.00  0.00     0.298 HD
ENDROOT
TORSDOF 0
ENDMDL
