MODEL 1
REMARK minimizedAffinity 8.6839962
REMARK minimizedRMSD -1
REMARK  0 active torsions:
REMARK  status: ('A' for Active; 'I' for Inactive)
ROOT
ATOM      1  N1  IND d   1       4.426  -2.626  -5.985  0.00  0.00    -0.196 N 
ATOM      2  C2  IND d   1       3.593  -2.035  -5.077  0.00  0.00     0.054 A 
ATOM      3  C3  IND d   1       3.467  -2.813  -3.978  0.00  0.00    -0.031 A 
ATOM      4  C4  IND d   1       4.619  -5.046  -3.415  0.00  0.00     0.051 A 
ATOM      5  C5  IND d   1       5.439  -5.999  -3.949  0.00  0.00    -0.031 A 
ATOM      6  C6  IND d   1       5.977  -5.873  -5.213  0.00  0.00     0.015 A 
ATOM      7  C7  IND d   1       5.723  -4.778  -5.990  0.00  0.00    -0.016 A 
ATOM      8  C8  IND d   1       4.884  -3.811  -5.454  0.00  0.00    -0.047 A 
ATOM      9  C9  IND d   1       4.301  -3.954  -4.188  0.00  0.00    -0.096 A 
ATOM     10  HN1 IND d   1       4.631  -2.309  -6.758  0.00  0.00     0.298 HD
ENDROOT
TORSDOF 0
ENDMDL
