MODEL 1
REMARK minimizedAffinity 14.8930635
REMARK minimizedRMSD -1
REMARK  0 active torsions:
REMARK  status: ('A' for Active; 'I' for Inactive)
ROOT
ATOM      1  N1  IND d   1      -3.412  -0.253   4.387  0.00  0.00    -0.196 N 
ATOM      2  C2  IND d   1      -2.578  -0.623   3.369  0.00  0.00     0.054 A 
ATOM      3  C3  IND d   1      -2.882   0.058   2.241  0.00  0.00    -0.031 A 
ATOM      4  C4  IND d   1      -4.642   1.898   1.865  0.00  0.00     0.051 A 
ATOM      5  C5  IND d   1      -5.668   2.551   2.489  0.00  0.00    -0.031 A 
ATOM      6  C6  IND d   1      -6.000   2.299   3.804  0.00  0.00     0.015 A 
ATOM      7  C7  IND d   1      -5.307   1.390   4.552  0.00  0.00    -0.016 A 
ATOM      8  C8  IND d   1      -4.269   0.720   3.920  0.00  0.00    -0.047 A 
ATOM      9  C9  IND d   1      -3.955   0.940   2.573  0.00  0.00    -0.096 A 
ATOM     10  HN1 IND d   1      -3.404  -0.574   5.185  0.00  0.00     0.298 HD
ENDROOT
TORSDOF 0
ENDMDL
