MODEL 1
REMARK minimizedAffinity 10.5359278
REMARK minimizedRMSD -1
REMARK  0 active torsions:
REMARK  status: ('A' for Active; 'I' for Inactive)
ROOT
ATOM      1  N1  IND d   1       3.000  -3.418  -4.969  0.00  0.00    -0.196 N 
ATOM      2  C2  IND d   1       3.736  -2.878  -5.987  0.00  0.00     0.054 A 
ATOM      3  C3  IND d   1       4.984  -3.399  -5.991  0.00  0.00    -0.031 A 
ATOM      4  C4  IND d   1       6.000  -5.224  -4.486  0.00  0.00     0.051 A 
ATOM      5  C5  IND d   1       5.725  -5.993  -3.390  0.00  0.00    -0.031 A 
ATOM      6  C6  IND d   1       4.502  -5.944  -2.753  0.00  0.00     0.015 A 
ATOM      7  C7  IND d   1       3.500  -5.128  -3.198  0.00  0.00    -0.016 A 
ATOM      8  C8  IND d   1       3.778  -4.341  -4.306  0.00  0.00    -0.047 A 
ATOM      9  C9  IND d   1       5.032  -4.355  -4.931  0.00  0.00    -0.096 A 
ATOM     10  HN1 IND d   1       2.187  -3.214  -4.776  0.00  0.00     0.298 HD
ENDROOT
TORSDOF 0
ENDMDL
