MODEL 1
REMARK minimizedAffinity 11.1434498
REMARK minimizedRMSD -1
REMARK  0 active torsions:
REMARK  status: ('A' for Active; 'I' for Inactive)
ROOT
ATOM      1  N1  IND d   1       1.509   6.000   2.616  0.00  0.00    -0.196 N 
ATOM      2  C2  IND d   1       0.187   5.868   2.939  0.00  0.00     0.054 A 
ATOM      3  C3  IND d   1      -0.378   4.880   2.209  0.00  0.00    -0.031 A 
ATOM      4  C4  IND d   1       0.701   3.285   0.501  0.00  0.00     0.051 A 
ATOM      5  C5  IND d   1       1.876   3.042  -0.153  0.00  0.00    -0.031 A 
ATOM      6  C6  IND d   1       3.013   3.786   0.090  0.00  0.00     0.015 A 
ATOM      7  C7  IND d   1       3.020   4.798   1.008  0.00  0.00    -0.016 A 
ATOM      8  C8  IND d   1       1.826   5.052   1.669  0.00  0.00    -0.047 A 
ATOM      9  C9  IND d   1       0.658   4.328   1.396  0.00  0.00    -0.096 A 
ATOM     10  HN1 IND d   1       2.051   6.578   2.949  0.00  0.00     0.298 HD
ENDROOT
TORSDOF 0
ENDMDL
