MODEL 1
REMARK minimizedAffinity 10.0161667
REMARK minimizedRMSD -1
REMARK  0 active torsions:
REMARK  status: ('A' for Active; 'I' for Inactive)
ROOT
ATOM      1  N1  IND d   1      -0.672   1.904  -1.329  0.00  0.00    -0.196 N 
ATOM      2  C2  IND d   1      -1.489   1.212  -0.480  0.00  0.00     0.054 A 
ATOM      3  C3  IND d   1      -0.881   0.079  -0.061  0.00  0.00    -0.031 A 
ATOM      4  C4  IND d   1       1.491  -0.785  -0.563  0.00  0.00     0.051 A 
ATOM      5  C5  IND d   1       2.599  -0.516  -1.317  0.00  0.00    -0.031 A 
ATOM      6  C6  IND d   1       2.676   0.598  -2.127  0.00  0.00     0.015 A 
ATOM      7  C7  IND d   1       1.647   1.494  -2.206  0.00  0.00    -0.016 A 
ATOM      8  C8  IND d   1       0.518   1.220  -1.447  0.00  0.00    -0.047 A 
ATOM      9  C9  IND d   1       0.418   0.069  -0.656  0.00  0.00    -0.096 A 
ATOM     10  HN1 IND d   1      -0.868   2.643  -1.723  0.00  0.00     0.298 HD
ENDROOT
TORSDOF 0
ENDMDL
