MODEL 1
REMARK minimizedAffinity -0.689446986
REMARK minimizedRMSD -1
REMARK  0 active torsions:
REMARK  status: ('A' for Active; 'I' for Inactive)
ROOT
ATOM      1  N1  IND d   1       5.305  -2.404  -5.999  0.00  0.00    -0.196 N 
ATOM      2  C2  IND d   1       4.562  -1.642  -5.141  0.00  0.00     0.054 A 
ATOM      3  C3  IND d   1       4.129  -2.390  -4.102  0.00  0.00    -0.031 A 
ATOM      4  C4  IND d   1       4.607  -4.860  -3.554  0.00  0.00     0.051 A 
ATOM      5  C5  IND d   1       5.206  -5.979  -4.060  0.00  0.00    -0.031 A 
ATOM      6  C6  IND d   1       5.885  -5.963  -5.262  0.00  0.00     0.015 A 
ATOM      7  C7  IND d   1       6.000  -4.818  -5.999  0.00  0.00    -0.016 A 
ATOM      8  C8  IND d   1       5.387  -3.682  -5.492  0.00  0.00    -0.047 A 
ATOM      9  C9  IND d   1       4.660  -3.702  -4.294  0.00  0.00    -0.096 A 
ATOM     10  HN1 IND d   1       5.661  -2.130  -6.733  0.00  0.00     0.298 HD
ENDROOT
TORSDOF 0
ENDMDL
