MODEL 1
REMARK minimizedAffinity -6.10738087
REMARK minimizedRMSD -1
REMARK  3 active torsions:
REMARK  status: ('A' for Active; 'I' for Inactive)
REMARK    1  A    between atoms: C3'_2  and  C2'_3 
REMARK    2  A    between atoms: C2'_3  and  C1'_4 
REMARK    3  A    between atoms: C1'_4  and  C1_5 
ROOT
ATOM      1  C1  N4B d   1      -0.083  -0.026   0.075  0.00  0.00    -0.075 A 
ATOM      2  C2  N4B d   1       0.532  -1.153   0.663  0.00  0.00     0.002 A 
ATOM      3  C3  N4B d   1       1.864  -1.113   0.995  0.00  0.00     0.002 A 
ATOM      4  C4  N4B d   1       2.602   0.031   0.731  0.00  0.00    -0.004 A 
ATOM      5  C5  N4B d   1       1.994   1.124   0.187  0.00  0.00     0.002 A 
ATOM      6  C6  N4B d   1       0.655   1.099  -0.148  0.00  0.00     0.002 A 
ENDROOT
BRANCH   1   7
ATOM      7  C1' N4B d   1      -1.516  -0.053  -0.383  0.00  0.00     0.057 C 
BRANCH   7   8
ATOM      8  C2' N4B d   1      -1.553  -0.147  -1.905  0.00  0.00     0.009 C 
BRANCH   8   9
ATOM      9  C3' N4B d   1      -2.809   0.484  -2.483  0.00  0.00     0.004 C 
ATOM     10  C4' N4B d   1      -2.607   1.011  -3.872  0.00  0.00     0.003 C 
ENDBRANCH   8   9
ENDBRANCH   7   8
ENDBRANCH   1   7
TORSDOF 3
ENDMDL
