MODEL 1
REMARK minimizedAffinity -1.16929889
REMARK minimizedRMSD -1
REMARK  3 active torsions:
REMARK  status: ('A' for Active; 'I' for Inactive)
REMARK    1  A    between atoms: C3'_2  and  C2'_3 
REMARK    2  A    between atoms: C2'_3  and  C1'_4 
REMARK    3  A    between atoms: C1'_4  and  C1_5 
ROOT
ATOM      1  C1  N4B d   1       1.441  -1.119   0.272  0.00  0.00    -0.075 A 
ATOM      2  C2  N4B d   1       0.722  -2.182   0.862  0.00  0.00     0.002 A 
ATOM      3  C3  N4B d   1      -0.631  -2.066   1.065  0.00  0.00     0.002 A 
ATOM      4  C4  N4B d   1      -1.281  -0.894   0.704  0.00  0.00    -0.004 A 
ATOM      5  C5  N4B d   1      -0.583   0.117   0.112  0.00  0.00     0.002 A 
ATOM      6  C6  N4B d   1       0.777   0.013  -0.101  0.00  0.00     0.002 A 
ENDROOT
BRANCH   1   7
ATOM      7  C1' N4B d   1       2.936  -1.166   0.109  0.00  0.00     0.057 C 
BRANCH   7   8
ATOM      8  C2' N4B d   1       3.593  -0.525   1.328  0.00  0.00     0.009 C 
BRANCH   8   9
ATOM      9  C3' N4B d   1       2.862   0.730   1.774  0.00  0.00     0.004 C 
ATOM     10  C4' N4B d   1       2.543   0.726   3.240  0.00  0.00     0.003 C 
ENDBRANCH   8   9
ENDBRANCH   7   8
ENDBRANCH   1   7
TORSDOF 3
ENDMDL
