MODEL 1
REMARK minimizedAffinity -5.14588642
REMARK minimizedRMSD -1
REMARK  3 active torsions:
REMARK  status: ('A' for Active; 'I' for Inactive)
REMARK    1  A    between atoms: C3'_2  and  C2'_3 
REMARK    2  A    between atoms: C2'_3  and  C1'_4 
REMARK    3  A    between atoms: C1'_4  and  C1_5 
ROOT
ATOM      1  C1  N4B d   1       0.027  -0.276   0.403  0.00  0.00    -0.075 A 
ATOM      2  C2  N4B d   1       0.676   0.978   0.445  0.00  0.00     0.002 A 
ATOM      3  C3  N4B d   1       2.036   1.041   0.629  0.00  0.00     0.002 A 
ATOM      4  C4  N4B d   1       2.761  -0.129   0.791  0.00  0.00    -0.004 A 
ATOM      5  C5  N4B d   1       2.130  -1.337   0.724  0.00  0.00     0.002 A 
ATOM      6  C6  N4B d   1       0.765  -1.416   0.536  0.00  0.00     0.002 A 
ENDROOT
BRANCH   1   7
ATOM      7  C1' N4B d   1      -1.468  -0.392   0.290  0.00  0.00     0.057 C 
BRANCH   7   8
ATOM      8  C2' N4B d   1      -1.911   0.140  -1.069  0.00  0.00     0.009 C 
BRANCH   8   9
ATOM      9  C3' N4B d   1      -1.711  -0.884  -2.173  0.00  0.00     0.004 C 
ATOM     10  C4' N4B d   1      -2.463  -0.542  -3.425  0.00  0.00     0.003 C 
ENDBRANCH   8   9
ENDBRANCH   7   8
ENDBRANCH   1   7
TORSDOF 3
ENDMDL
