MODEL 1
REMARK minimizedAffinity -3.07401156
REMARK minimizedRMSD -1
REMARK  0 active torsions:
REMARK  status: ('A' for Active; 'I' for Inactive)
ROOT
ATOM      1  C1  BNZ d   1      -0.590   0.789   2.265  0.00  0.00     0.000 A 
ATOM      2  C2  BNZ d   1      -0.186  -0.423   1.773  0.00  0.00     0.000 A 
ATOM      3  C3  BNZ d   1       0.495  -0.507   0.591  0.00  0.00     0.000 A 
ATOM      4  C4  BNZ d   1       0.736   0.616  -0.117  0.00  0.00     0.000 A 
ATOM      5  C5  BNZ d   1       0.326   1.845   0.362  0.00  0.00     0.000 A 
ATOM      6  C6  BNZ d   1      -0.325   1.929   1.571  0.00  0.00     0.000 A 
ENDROOT
TORSDOF 0
ENDMDL
