MODEL 1
REMARK minimizedAffinity -3.31683564
REMARK minimizedRMSD -1
REMARK  0 active torsions:
REMARK  status: ('A' for Active; 'I' for Inactive)
ROOT
ATOM      1  C1  BNZ d   1       0.493  -0.301   1.889  0.00  0.00     0.000 A 
ATOM      2  C2  BNZ d   1       1.149  -0.535   0.709  0.00  0.00     0.000 A 
ATOM      3  C3  BNZ d   1       0.463  -0.602  -0.471  0.00  0.00     0.000 A 
ATOM      4  C4  BNZ d   1      -0.880  -0.474  -0.466  0.00  0.00     0.000 A 
ATOM      5  C5  BNZ d   1      -1.556  -0.247   0.716  0.00  0.00     0.000 A 
ATOM      6  C6  BNZ d   1      -0.858  -0.142   1.897  0.00  0.00     0.000 A 
ENDROOT
TORSDOF 0
ENDMDL
