MODEL 1
REMARK minimizedAffinity -2.38013196
REMARK minimizedRMSD -1
REMARK  0 active torsions:
REMARK  status: ('A' for Active; 'I' for Inactive)
ROOT
ATOM      1  C1  BNZ d   1       1.503  -1.149  -2.106  0.00  0.00     0.000 A 
ATOM      2  C2  BNZ d   1       1.284  -0.048  -1.322  0.00  0.00     0.000 A 
ATOM      3  C3  BNZ d   1       0.322  -0.060  -0.352  0.00  0.00     0.000 A 
ATOM      4  C4  BNZ d   1      -0.447  -1.157  -0.194  0.00  0.00     0.000 A 
ATOM      5  C5  BNZ d   1      -0.245  -2.271  -0.983  0.00  0.00     0.000 A 
ATOM      6  C6  BNZ d   1       0.751  -2.270  -1.932  0.00  0.00     0.000 A 
ENDROOT
TORSDOF 0
ENDMDL
