MODEL 1
REMARK minimizedAffinity -0.00994775258
REMARK minimizedRMSD -1
REMARK  0 active torsions:
REMARK  status: ('A' for Active; 'I' for Inactive)
ROOT
ATOM      1  C1  BNZ d   1       1.379  -4.117  -1.448  0.00  0.00     0.000 A 
ATOM      2  C2  BNZ d   1       0.990  -3.934  -2.748  0.00  0.00     0.000 A 
ATOM      3  C3  BNZ d   1       0.756  -2.680  -3.239  0.00  0.00     0.000 A 
ATOM      4  C4  BNZ d   1       0.871  -1.615  -2.419  0.00  0.00     0.000 A 
ATOM      5  C5  BNZ d   1       1.252  -1.784  -1.103  0.00  0.00     0.000 A 
ATOM      6  C6  BNZ d   1       1.526  -3.045  -0.623  0.00  0.00     0.000 A 
ENDROOT
TORSDOF 0
ENDMDL
