MODEL 1
REMARK minimizedAffinity -2.67638922
REMARK minimizedRMSD -1
REMARK  0 active torsions:
REMARK  status: ('A' for Active; 'I' for Inactive)
ROOT
ATOM      1  C1  BNZ d   1      -0.021   1.708   0.158  0.00  0.00     0.000 A 
ATOM      2  C2  BNZ d   1       0.512   0.471  -0.089  0.00  0.00     0.000 A 
ATOM      3  C3  BNZ d   1       0.221  -0.591   0.720  0.00  0.00     0.000 A 
ATOM      4  C4  BNZ d   1      -0.570  -0.407   1.797  0.00  0.00     0.000 A 
ATOM      5  C5  BNZ d   1      -1.108   0.836   2.065  0.00  0.00     0.000 A 
ATOM      6  C6  BNZ d   1      -0.844   1.894   1.226  0.00  0.00     0.000 A 
ENDROOT
TORSDOF 0
ENDMDL
