MODEL 1
REMARK minimizedAffinity -0.560763299
REMARK minimizedRMSD -1
REMARK  0 active torsions:
REMARK  status: ('A' for Active; 'I' for Inactive)
ROOT
ATOM      1  C1  BNZ d   1       0.160   1.023   1.309  0.00  0.00     0.000 A 
ATOM      2  C2  BNZ d   1       0.639   0.256   0.281  0.00  0.00     0.000 A 
ATOM      3  C3  BNZ d   1      -0.060  -0.830  -0.167  0.00  0.00     0.000 A 
ATOM      4  C4  BNZ d   1      -1.215  -1.171   0.439  0.00  0.00     0.000 A 
ATOM      5  C5  BNZ d   1      -1.707  -0.413   1.483  0.00  0.00     0.000 A 
ATOM      6  C6  BNZ d   1      -1.021   0.702   1.906  0.00  0.00     0.000 A 
ENDROOT
TORSDOF 0
ENDMDL
