MODEL 1
REMARK minimizedAffinity -0.893292248
REMARK minimizedRMSD -1
REMARK  0 active torsions:
REMARK  status: ('A' for Active; 'I' for Inactive)
ROOT
ATOM      1  C1  BNZ d   1      -0.052  -1.276   1.332  0.00  0.00     0.000 A 
ATOM      2  C2  BNZ d   1      -0.847  -0.237   1.737  0.00  0.00     0.000 A 
ATOM      3  C3  BNZ d   1      -0.784   0.977   1.112  0.00  0.00     0.000 A 
ATOM      4  C4  BNZ d   1       0.099   1.162   0.110  0.00  0.00     0.000 A 
ATOM      5  C5  BNZ d   1       0.914   0.127  -0.304  0.00  0.00     0.000 A 
ATOM      6  C6  BNZ d   1       0.821  -1.105   0.302  0.00  0.00     0.000 A 
ENDROOT
TORSDOF 0
ENDMDL
