MODEL 1
REMARK minimizedAffinity -3.52548862
REMARK minimizedRMSD -1
REMARK  0 active torsions:
REMARK  status: ('A' for Active; 'I' for Inactive)
ROOT
ATOM      1  C1  BNZ d   1      -1.503   2.830   1.919  0.00  0.00     0.000 A 
ATOM      2  C2  BNZ d   1      -1.592   1.502   2.241  0.00  0.00     0.000 A 
ATOM      3  C3  BNZ d   1      -1.017   0.549   1.448  0.00  0.00     0.000 A 
ATOM      4  C4  BNZ d   1      -0.389   0.921   0.314  0.00  0.00     0.000 A 
ATOM      5  C5  BNZ d   1      -0.299   2.255  -0.030  0.00  0.00     0.000 A 
ATOM      6  C6  BNZ d   1      -0.845   3.215   0.792  0.00  0.00     0.000 A 
ENDROOT
TORSDOF 0
ENDMDL
