MODEL 1
REMARK minimizedAffinity -3.42514062
REMARK minimizedRMSD -1
REMARK  0 active torsions:
REMARK  status: ('A' for Active; 'I' for Inactive)
ROOT
ATOM      1  C1  BNZ d   1      -0.186   1.052  -0.318  0.00  0.00     0.000 A 
ATOM      2  C2  BNZ d   1      -1.031   1.029   0.759  0.00  0.00     0.000 A 
ATOM      3  C3  BNZ d   1      -1.496   2.190   1.309  0.00  0.00     0.000 A 
ATOM      4  C4  BNZ d   1      -1.086   3.373   0.808  0.00  0.00     0.000 A 
ATOM      5  C5  BNZ d   1      -0.227   3.413  -0.272  0.00  0.00     0.000 A 
ATOM      6  C6  BNZ d   1       0.209   2.242  -0.848  0.00  0.00     0.000 A 
ENDROOT
TORSDOF 0
ENDMDL
