MODEL 1
REMARK minimizedAffinity -4.03347778
REMARK minimizedRMSD -1
REMARK  0 active torsions:
REMARK  status: ('A' for Active; 'I' for Inactive)
ROOT
ATOM      1  C1  BNZ d   1      -0.764   0.450   1.799  0.00  0.00     0.000 A 
ATOM      2  C2  BNZ d   1      -1.450   1.536   2.275  0.00  0.00     0.000 A 
ATOM      3  C3  BNZ d   1      -1.552   2.679   1.533  0.00  0.00     0.000 A 
ATOM      4  C4  BNZ d   1      -0.936   2.749   0.335  0.00  0.00     0.000 A 
ATOM      5  C5  BNZ d   1      -0.233   1.666  -0.154  0.00  0.00     0.000 A 
ATOM      6  C6  BNZ d   1      -0.165   0.504   0.578  0.00  0.00     0.000 A 
ENDROOT
TORSDOF 0
ENDMDL
