MODEL 1
REMARK minimizedAffinity -2.40245175
REMARK minimizedRMSD -1
REMARK  0 active torsions:
REMARK  status: ('A' for Active; 'I' for Inactive)
ROOT
ATOM      1  C1  BNZ d   1      -0.501  -0.874   1.347  0.00  0.00     0.000 A 
ATOM      2  C2  BNZ d   1      -1.006   0.252   1.942  0.00  0.00     0.000 A 
ATOM      3  C3  BNZ d   1      -0.576   1.494   1.568  0.00  0.00     0.000 A 
ATOM      4  C4  BNZ d   1       0.385   1.608   0.629  0.00  0.00     0.000 A 
ATOM      5  C5  BNZ d   1       0.910   0.483   0.026  0.00  0.00     0.000 A 
ATOM      6  C6  BNZ d   1       0.447  -0.765   0.377  0.00  0.00     0.000 A 
ENDROOT
TORSDOF 0
ENDMDL
