MODEL 1
REMARK minimizedAffinity -4.28180456
REMARK minimizedRMSD -1
REMARK  0 active torsions:
REMARK  status: ('A' for Active; 'I' for Inactive)
ROOT
ATOM      1  C1  BNZ d   1       0.006   1.833   0.780  0.00  0.00     0.000 A 
ATOM      2  C2  BNZ d   1      -0.834   1.557   1.825  0.00  0.00     0.000 A 
ATOM      3  C3  BNZ d   1      -1.053   0.269   2.227  0.00  0.00     0.000 A 
ATOM      4  C4  BNZ d   1      -0.463  -0.743   1.558  0.00  0.00     0.000 A 
ATOM      5  C5  BNZ d   1       0.380  -0.481   0.496  0.00  0.00     0.000 A 
ATOM      6  C6  BNZ d   1       0.628   0.819   0.119  0.00  0.00     0.000 A 
ENDROOT
TORSDOF 0
ENDMDL
