MODEL 1
REMARK minimizedAffinity -3.94731283
REMARK minimizedRMSD -1
REMARK  0 active torsions:
REMARK  status: ('A' for Active; 'I' for Inactive)
ROOT
ATOM      1  C1  BNZ d   1       0.323   1.186  -0.201  0.00  0.00     0.000 A 
ATOM      2  C2  BNZ d   1      -0.119  -0.036   0.230  0.00  0.00     0.000 A 
ATOM      3  C3  BNZ d   1      -0.989  -0.135   1.280  0.00  0.00     0.000 A 
ATOM      4  C4  BNZ d   1      -1.382   0.984   1.923  0.00  0.00     0.000 A 
ATOM      5  C5  BNZ d   1      -0.937   2.223   1.506  0.00  0.00     0.000 A 
ATOM      6  C6  BNZ d   1      -0.093   2.321   0.423  0.00  0.00     0.000 A 
ENDROOT
TORSDOF 0
ENDMDL
