MODEL 1
REMARK minimizedAffinity -2.25422907
REMARK minimizedRMSD -1
REMARK  0 active torsions:
REMARK  status: ('A' for Active; 'I' for Inactive)
ROOT
ATOM      1  C1  BNZ d   1      -0.193  -0.438   1.672  0.00  0.00     0.000 A 
ATOM      2  C2  BNZ d   1      -0.767   0.657   2.262  0.00  0.00     0.000 A 
ATOM      3  C3  BNZ d   1      -0.903   1.831   1.575  0.00  0.00     0.000 A 
ATOM      4  C4  BNZ d   1      -0.429   1.921   0.316  0.00  0.00     0.000 A 
ATOM      5  C5  BNZ d   1       0.160   0.829  -0.289  0.00  0.00     0.000 A 
ATOM      6  C6  BNZ d   1       0.260  -0.362   0.392  0.00  0.00     0.000 A 
ENDROOT
TORSDOF 0
ENDMDL
