MODEL 1
REMARK minimizedAffinity -1.04916835
REMARK minimizedRMSD -1
REMARK  1 active torsions:
REMARK  status: ('A' for Active; 'I' for Inactive)
REMARK    1  A    between atoms: C3_4  and  O_7 
ROOT
ATOM      1  C   UNL d   1       3.749  -0.705  -1.475  0.00  0.00    -0.033 A 
ATOM      2  C1  UNL d   1       2.388  -0.998  -1.582  0.00  0.00     0.039 A 
ATOM      3  C2  UNL d   1       1.483   0.001  -1.944  0.00  0.00    -0.080 A 
ATOM      4  C3  UNL d   1       1.950   1.288  -2.198  0.00  0.00     0.150 A 
ATOM      5  C4  UNL d   1       3.305   1.586  -2.097  0.00  0.00    -0.007 A 
ATOM      6  C5  UNL d   1       4.208   0.587  -1.734  0.00  0.00     0.039 A 
ENDROOT
BRANCH   4   7
ATOM      7  O   UNL d   1       1.104   2.297  -2.550  0.00  0.00    -0.526 OA
ATOM      8  H5  UNL d   1       0.196   1.951  -2.551  0.00  0.00     0.418 HD
ENDBRANCH   4   7
TORSDOF 1
ENDMDL
