MODEL 1
REMARK minimizedAffinity 6.33086014
REMARK minimizedRMSD -1
REMARK  1 active torsions:
REMARK  status: ('A' for Active; 'I' for Inactive)
REMARK    1  A    between atoms: C3_4  and  O_7 
ROOT
ATOM      1  C   UNL d   1       1.753  -1.162  -1.775  0.00  0.00    -0.033 A 
ATOM      2  C1  UNL d   1       2.793  -1.589  -0.948  0.00  0.00     0.039 A 
ATOM      3  C2  UNL d   1       2.532  -2.462   0.110  0.00  0.00    -0.080 A 
ATOM      4  C3  UNL d   1       1.229  -2.900   0.329  0.00  0.00     0.150 A 
ATOM      5  C4  UNL d   1       0.188  -2.482  -0.494  0.00  0.00    -0.007 A 
ATOM      6  C5  UNL d   1       0.451  -1.609  -1.549  0.00  0.00     0.039 A 
ENDROOT
BRANCH   4   7
ATOM      7  O   UNL d   1       0.925  -3.749   1.352  0.00  0.00    -0.526 OA
ATOM      8  H5  UNL d   1       1.737  -3.930   1.853  0.00  0.00     0.418 HD
ENDBRANCH   4   7
TORSDOF 1
ENDMDL
