MODEL 1
REMARK minimizedAffinity 3.59163213
REMARK minimizedRMSD -1
REMARK  1 active torsions:
REMARK  status: ('A' for Active; 'I' for Inactive)
REMARK    1  A    between atoms: C3_4  and  O_7 
ROOT
ATOM      1  C   UNL d   1       3.416   0.136  -2.641  0.00  0.00    -0.033 A 
ATOM      2  C1  UNL d   1       2.615  -0.758  -1.928  0.00  0.00     0.039 A 
ATOM      3  C2  UNL d   1       1.405  -0.329  -1.379  0.00  0.00    -0.080 A 
ATOM      4  C3  UNL d   1       1.009   0.995  -1.550  0.00  0.00     0.150 A 
ATOM      5  C4  UNL d   1       1.801   1.890  -2.262  0.00  0.00    -0.007 A 
ATOM      6  C5  UNL d   1       3.009   1.459  -2.809  0.00  0.00     0.039 A 
ENDROOT
BRANCH   4   7
ATOM      7  O   UNL d   1      -0.161   1.461  -1.028  0.00  0.00    -0.526 OA
ATOM      8  H5  UNL d   1      -0.589   0.739  -0.538  0.00  0.00     0.418 HD
ENDBRANCH   4   7
TORSDOF 1
ENDMDL
