MODEL 1
REMARK minimizedAffinity -0.448313087
REMARK minimizedRMSD -1
REMARK  1 active torsions:
REMARK  status: ('A' for Active; 'I' for Inactive)
REMARK    1  A    between atoms: C3_4  and  O_7 
ROOT
ATOM      1  C   UNL d   1      -6.000   0.344   5.822  0.00  0.00    -0.033 A 
ATOM      2  C1  UNL d   1      -5.952   1.154   4.686  0.00  0.00     0.039 A 
ATOM      3  C2  UNL d   1      -4.959   0.954   3.725  0.00  0.00    -0.080 A 
ATOM      4  C3  UNL d   1      -4.021  -0.058   3.912  0.00  0.00     0.150 A 
ATOM      5  C4  UNL d   1      -4.065  -0.871   5.040  0.00  0.00    -0.007 A 
ATOM      6  C5  UNL d   1      -5.057  -0.669   5.999  0.00  0.00     0.039 A 
ENDROOT
BRANCH   4   7
ATOM      7  O   UNL d   1      -3.030  -0.288   3.005  0.00  0.00    -0.526 OA
ATOM      8  H5  UNL d   1      -3.107   0.368   2.292  0.00  0.00     0.418 HD
ENDBRANCH   4   7
TORSDOF 1
ENDMDL
