MODEL 1
REMARK minimizedAffinity 2.5503211
REMARK minimizedRMSD -1
REMARK  1 active torsions:
REMARK  status: ('A' for Active; 'I' for Inactive)
REMARK    1  A    between atoms: C3_4  and  O_7 
ROOT
ATOM      1  C   UNL d   1      -6.000  -1.873   0.751  0.00  0.00    -0.033 A 
ATOM      2  C1  UNL d   1      -5.896  -0.848  -0.191  0.00  0.00     0.039 A 
ATOM      3  C2  UNL d   1      -4.677  -0.193  -0.380  0.00  0.00    -0.080 A 
ATOM      4  C3  UNL d   1      -3.572  -0.573   0.377  0.00  0.00     0.150 A 
ATOM      5  C4  UNL d   1      -3.668  -1.596   1.314  0.00  0.00    -0.007 A 
ATOM      6  C5  UNL d   1      -4.886  -2.248   1.502  0.00  0.00     0.039 A 
ENDROOT
BRANCH   4   7
ATOM      7  O   UNL d   1      -2.364   0.041   0.230  0.00  0.00    -0.526 OA
ATOM      8  H5  UNL d   1      -2.455   0.747  -0.431  0.00  0.00     0.418 HD
ENDBRANCH   4   7
TORSDOF 1
ENDMDL
