MODEL 1
REMARK minimizedAffinity 0.75282681
REMARK minimizedRMSD -1
REMARK  1 active torsions:
REMARK  status: ('A' for Active; 'I' for Inactive)
REMARK    1  A    between atoms: C3_4  and  O_7 
ROOT
ATOM      1  C   UNL d   1       1.281   1.580  -4.744  0.00  0.00    -0.033 A 
ATOM      2  C1  UNL d   1       1.691   1.642  -3.411  0.00  0.00     0.039 A 
ATOM      3  C2  UNL d   1       1.978   2.876  -2.825  0.00  0.00    -0.080 A 
ATOM      4  C3  UNL d   1       1.852   4.038  -3.581  0.00  0.00     0.150 A 
ATOM      5  C4  UNL d   1       1.440   3.983  -4.908  0.00  0.00    -0.007 A 
ATOM      6  C5  UNL d   1       1.154   2.750  -5.493  0.00  0.00     0.039 A 
ENDROOT
BRANCH   4   7
ATOM      7  O   UNL d   1       2.126   5.265  -3.053  0.00  0.00    -0.526 OA
ATOM      8  H5  UNL d   1       2.426   5.146  -2.137  0.00  0.00     0.418 HD
ENDBRANCH   4   7
TORSDOF 1
ENDMDL
