MODEL 1
REMARK minimizedAffinity 2.57033134
REMARK minimizedRMSD -1
REMARK  1 active torsions:
REMARK  status: ('A' for Active; 'I' for Inactive)
REMARK    1  A    between atoms: C3_4  and  O_7 
ROOT
ATOM      1  C   UNL d   1       1.934  -3.175  -0.581  0.00  0.00    -0.033 A 
ATOM      2  C1  UNL d   1       2.923  -2.296  -0.136  0.00  0.00     0.039 A 
ATOM      3  C2  UNL d   1       3.142  -1.091  -0.805  0.00  0.00    -0.080 A 
ATOM      4  C3  UNL d   1       2.364  -0.776  -1.916  0.00  0.00     0.150 A 
ATOM      5  C4  UNL d   1       1.374  -1.645  -2.363  0.00  0.00    -0.007 A 
ATOM      6  C5  UNL d   1       1.158  -2.849  -1.694  0.00  0.00     0.039 A 
ENDROOT
BRANCH   4   7
ATOM      7  O   UNL d   1       2.543   0.387  -2.605  0.00  0.00    -0.526 OA
ATOM      8  H5  UNL d   1       3.280   0.874  -2.199  0.00  0.00     0.418 HD
ENDBRANCH   4   7
TORSDOF 1
ENDMDL
