MODEL 1
REMARK minimizedAffinity -2.71823788
REMARK minimizedRMSD -1
REMARK  1 active torsions:
REMARK  status: ('A' for Active; 'I' for Inactive)
REMARK    1  A    between atoms: C3_4  and  O_7 
ROOT
ATOM      1  C   UNL d   1       0.663   1.910  -1.930  0.00  0.00    -0.033 A 
ATOM      2  C1  UNL d   1      -0.349   1.999  -0.972  0.00  0.00     0.039 A 
ATOM      3  C2  UNL d   1      -0.026   2.187   0.373  0.00  0.00    -0.080 A 
ATOM      4  C3  UNL d   1       1.312   2.285   0.747  0.00  0.00     0.150 A 
ATOM      5  C4  UNL d   1       2.325   2.201  -0.202  0.00  0.00    -0.007 A 
ATOM      6  C5  UNL d   1       2.000   2.012  -1.545  0.00  0.00     0.039 A 
ENDROOT
BRANCH   4   7
ATOM      7  O   UNL d   1       1.677   2.463   2.048  0.00  0.00    -0.526 OA
ATOM      8  H5  UNL d   1       0.873   2.474   2.594  0.00  0.00     0.418 HD
ENDBRANCH   4   7
TORSDOF 1
ENDMDL
