MODEL 1
REMARK minimizedAffinity 4.28136969
REMARK minimizedRMSD -1
REMARK  1 active torsions:
REMARK  status: ('A' for Active; 'I' for Inactive)
REMARK    1  A    between atoms: C3_4  and  O_7 
ROOT
ATOM      1  C   UNL d   1       0.214  -1.138  -1.111  0.00  0.00    -0.033 A 
ATOM      2  C1  UNL d   1       1.557  -1.309  -1.451  0.00  0.00     0.039 A 
ATOM      3  C2  UNL d   1       2.293  -0.237  -1.961  0.00  0.00    -0.080 A 
ATOM      4  C3  UNL d   1       1.674   0.999  -2.124  0.00  0.00     0.150 A 
ATOM      5  C4  UNL d   1       0.338   1.178  -1.783  0.00  0.00    -0.007 A 
ATOM      6  C5  UNL d   1      -0.395   0.107  -1.275  0.00  0.00     0.039 A 
ENDROOT
BRANCH   4   7
ATOM      7  O   UNL d   1       2.350   2.074  -2.622  0.00  0.00    -0.526 OA
ATOM      8  H5  UNL d   1       3.255   1.794  -2.840  0.00  0.00     0.418 HD
ENDBRANCH   4   7
TORSDOF 1
ENDMDL
