MODEL 1
REMARK minimizedAffinity 3.87771916
REMARK minimizedRMSD -1
REMARK  1 active torsions:
REMARK  status: ('A' for Active; 'I' for Inactive)
REMARK    1  A    between atoms: C3_4  and  O_7 
ROOT
ATOM      1  C   UNL d   1       2.350  -0.390  -2.486  0.00  0.00    -0.033 A 
ATOM      2  C1  UNL d   1       1.217  -1.088  -2.064  0.00  0.00     0.039 A 
ATOM      3  C2  UNL d   1       0.082  -0.392  -1.644  0.00  0.00    -0.080 A 
ATOM      4  C3  UNL d   1       0.092   1.000  -1.653  0.00  0.00     0.150 A 
ATOM      5  C4  UNL d   1       1.216   1.702  -2.077  0.00  0.00    -0.007 A 
ATOM      6  C5  UNL d   1       2.349   1.005  -2.494  0.00  0.00     0.039 A 
ENDROOT
BRANCH   4   7
ATOM      7  O   UNL d   1      -0.990   1.723  -1.248  0.00  0.00    -0.526 OA
ATOM      8  H5  UNL d   1      -1.681   1.105  -0.956  0.00  0.00     0.418 HD
ENDBRANCH   4   7
TORSDOF 1
ENDMDL
