MODEL 1
REMARK minimizedAffinity 0.628053427
REMARK minimizedRMSD -1
REMARK  1 active torsions:
REMARK  status: ('A' for Active; 'I' for Inactive)
REMARK    1  A    between atoms: C3_4  and  O_7 
ROOT
ATOM      1  C   UNL d   1       0.387   1.135  -1.890  0.00  0.00    -0.033 A 
ATOM      2  C1  UNL d   1      -0.462   1.605  -0.886  0.00  0.00     0.039 A 
ATOM      3  C2  UNL d   1       0.069   2.060   0.323  0.00  0.00    -0.080 A 
ATOM      4  C3  UNL d   1       1.448   2.041   0.514  0.00  0.00     0.150 A 
ATOM      5  C4  UNL d   1       2.299   1.578  -0.484  0.00  0.00    -0.007 A 
ATOM      6  C5  UNL d   1       1.768   1.123  -1.689  0.00  0.00     0.039 A 
ENDROOT
BRANCH   4   7
ATOM      7  O   UNL d   1       2.011   2.471   1.679  0.00  0.00    -0.526 OA
ATOM      8  H5  UNL d   1       1.300   2.734   2.286  0.00  0.00     0.418 HD
ENDBRANCH   4   7
TORSDOF 1
ENDMDL
