MODEL 1
REMARK minimizedAffinity 0.320588946
REMARK minimizedRMSD -1
REMARK  1 active torsions:
REMARK  status: ('A' for Active; 'I' for Inactive)
REMARK    1  A    between atoms: C3_4  and  O_7 
ROOT
ATOM      1  C   UNL d   1       2.150   2.111  -2.782  0.00  0.00    -0.033 A 
ATOM      2  C1  UNL d   1       1.178   1.650  -1.892  0.00  0.00     0.039 A 
ATOM      3  C2  UNL d   1       1.241   0.343  -1.403  0.00  0.00    -0.080 A 
ATOM      4  C3  UNL d   1       2.279  -0.490  -1.810  0.00  0.00     0.150 A 
ATOM      5  C4  UNL d   1       3.253  -0.035  -2.693  0.00  0.00    -0.007 A 
ATOM      6  C5  UNL d   1       3.189   1.270  -3.181  0.00  0.00     0.039 A 
ENDROOT
BRANCH   4   7
ATOM      7  O   UNL d   1       2.380  -1.774  -1.364  0.00  0.00    -0.526 OA
ATOM      8  H5  UNL d   1       1.622  -1.958  -0.784  0.00  0.00     0.418 HD
ENDBRANCH   4   7
TORSDOF 1
ENDMDL
