MODEL 1
REMARK minimizedAffinity 1.08542061
REMARK minimizedRMSD -1
REMARK  1 active torsions:
REMARK  status: ('A' for Active; 'I' for Inactive)
REMARK    1  A    between atoms: C3_4  and  O_7 
ROOT
ATOM      1  C   UNL d   1       1.483   1.822  -3.177  0.00  0.00    -0.033 A 
ATOM      2  C1  UNL d   1       1.794   0.746  -2.343  0.00  0.00     0.039 A 
ATOM      3  C2  UNL d   1       1.237   0.668  -1.065  0.00  0.00    -0.080 A 
ATOM      4  C3  UNL d   1       0.372   1.670  -0.634  0.00  0.00     0.150 A 
ATOM      5  C4  UNL d   1       0.055   2.743  -1.461  0.00  0.00    -0.007 A 
ATOM      6  C5  UNL d   1       0.613   2.820  -2.737  0.00  0.00     0.039 A 
ENDROOT
BRANCH   4   7
ATOM      7  O   UNL d   1      -0.192   1.640   0.607  0.00  0.00    -0.526 OA
ATOM      8  H5  UNL d   1       0.141   0.857   1.077  0.00  0.00     0.418 HD
ENDBRANCH   4   7
TORSDOF 1
ENDMDL
