MODEL 1
REMARK minimizedAffinity -4.08418417
REMARK minimizedRMSD -1
REMARK  1 active torsions:
REMARK  status: ('A' for Active; 'I' for Inactive)
REMARK    1  A    between atoms: N_2  and  C1_3 
ROOT
ATOM      1  C1  UNL d   1      -0.770   0.294  -1.304  0.00  0.00     0.143 A 
ATOM      2  C2  UNL d   1       0.312  -0.149  -2.073  0.00  0.00    -0.057 A 
ATOM      3  C3  UNL d   1       1.500  -0.584  -1.472  0.00  0.00     0.033 A 
ATOM      4  C4  UNL d   1       1.637  -0.557  -0.088  0.00  0.00    -0.042 A 
ATOM      5  C5  UNL d   1       0.584  -0.097   0.695  0.00  0.00     0.033 A 
ATOM      6  C6  UNL d   1      -0.602   0.330   0.089  0.00  0.00    -0.057 A 
ENDROOT
BRANCH   1   7
ATOM      7  N   UNL d   1      -1.940   0.831  -1.845  0.00  0.00    -0.732 N 
ATOM      8  C   UNL d   1      -1.956   1.354  -3.195  0.00  0.00     0.284 C 
ATOM      9  H3  UNL d   1      -2.766   0.290  -1.600  0.00  0.00     0.395 HD
ENDBRANCH   1   7
TORSDOF 1
ENDMDL
