MODEL 1
REMARK minimizedAffinity -3.47379661
REMARK minimizedRMSD -1
REMARK  1 active torsions:
REMARK  status: ('A' for Active; 'I' for Inactive)
REMARK    1  A    between atoms: N_2  and  C1_3 
ROOT
ATOM      1  C1  UNL d   1      -0.297  -0.237  -0.605  0.00  0.00     0.143 A 
ATOM      2  C2  UNL d   1      -0.411  -0.472   0.769  0.00  0.00    -0.057 A 
ATOM      3  C3  UNL d   1       0.585  -1.160   1.474  0.00  0.00     0.033 A 
ATOM      4  C4  UNL d   1       1.703  -1.652   0.807  0.00  0.00    -0.042 A 
ATOM      5  C5  UNL d   1       1.825  -1.451  -0.563  0.00  0.00     0.033 A 
ATOM      6  C6  UNL d   1       0.830  -0.758  -1.259  0.00  0.00    -0.057 A 
ENDROOT
BRANCH   1   7
ATOM      7  N   UNL d   1      -1.299   0.354  -1.379  0.00  0.00    -0.732 N 
ATOM      8  C   UNL d   1      -1.203   1.743  -1.774  0.00  0.00     0.284 C 
ATOM      9  H3  UNL d   1      -1.639  -0.265  -2.112  0.00  0.00     0.395 HD
ENDBRANCH   1   7
TORSDOF 1
ENDMDL
