MODEL 1
REMARK minimizedAffinity -1.84263813
REMARK minimizedRMSD -1
REMARK  1 active torsions:
REMARK  status: ('A' for Active; 'I' for Inactive)
REMARK    1  A    between atoms: N_2  and  C1_3 
ROOT
ATOM      1  C1  UNL d   1      -1.121   0.443  -1.527  0.00  0.00     0.143 A 
ATOM      2  C2  UNL d   1      -0.146  -0.388  -2.087  0.00  0.00    -0.057 A 
ATOM      3  C3  UNL d   1       0.984  -0.777  -1.357  0.00  0.00     0.033 A 
ATOM      4  C4  UNL d   1       1.173  -0.315  -0.058  0.00  0.00    -0.042 A 
ATOM      5  C5  UNL d   1       0.228   0.532   0.510  0.00  0.00     0.033 A 
ATOM      6  C6  UNL d   1      -0.901   0.911  -0.222  0.00  0.00    -0.057 A 
ENDROOT
BRANCH   1   7
ATOM      7  N   UNL d   1      -2.217   0.944  -2.235  0.00  0.00    -0.732 N 
ATOM      8  C   UNL d   1      -2.125   2.205  -2.938  0.00  0.00     0.284 C 
ATOM      9  H3  UNL d   1      -2.714   0.218  -2.746  0.00  0.00     0.395 HD
ENDBRANCH   1   7
TORSDOF 1
ENDMDL
