MODEL 1
REMARK minimizedAffinity -4.18218994
REMARK minimizedRMSD -1
REMARK  1 active torsions:
REMARK  status: ('A' for Active; 'I' for Inactive)
REMARK    1  A    between atoms: N_2  and  C1_3 
ROOT
ATOM      1  C1  UNL d   1      -1.158   0.006  -1.591  0.00  0.00     0.143 A 
ATOM      2  C2  UNL d   1      -0.046  -0.634  -2.149  0.00  0.00    -0.057 A 
ATOM      3  C3  UNL d   1       1.176  -0.693  -1.468  0.00  0.00     0.033 A 
ATOM      4  C4  UNL d   1       1.316  -0.084  -0.225  0.00  0.00    -0.042 A 
ATOM      5  C5  UNL d   1       0.232   0.580   0.337  0.00  0.00     0.033 A 
ATOM      6  C6  UNL d   1      -0.988   0.629  -0.344  0.00  0.00    -0.057 A 
ENDROOT
BRANCH   1   7
ATOM      7  N   UNL d   1      -2.371   0.184  -2.260  0.00  0.00    -0.732 N 
ATOM      8  C   UNL d   1      -3.140   1.396  -2.083  0.00  0.00     0.284 C 
ATOM      9  H3  UNL d   1      -2.337  -0.151  -3.221  0.00  0.00     0.395 HD
ENDBRANCH   1   7
TORSDOF 1
ENDMDL
