MODEL 1
REMARK minimizedAffinity -2.99909782
REMARK minimizedRMSD -1
REMARK  1 active torsions:
REMARK  status: ('A' for Active; 'I' for Inactive)
REMARK    1  A    between atoms: N_2  and  C1_3 
ROOT
ATOM      1  C1  UNL d   1      -0.149   0.277  -0.209  0.00  0.00     0.143 A 
ATOM      2  C2  UNL d   1       0.945  -0.017  -1.031  0.00  0.00    -0.057 A 
ATOM      3  C3  UNL d   1       1.932  -0.925  -0.630  0.00  0.00     0.033 A 
ATOM      4  C4  UNL d   1       1.858  -1.536   0.617  0.00  0.00    -0.042 A 
ATOM      5  C5  UNL d   1       0.793  -1.240   1.461  0.00  0.00     0.033 A 
ATOM      6  C6  UNL d   1      -0.193  -0.338   1.052  0.00  0.00    -0.057 A 
ENDROOT
BRANCH   1   7
ATOM      7  N   UNL d   1      -1.111   1.244  -0.509  0.00  0.00    -0.732 N 
ATOM      8  C   UNL d   1      -1.812   1.218  -1.775  0.00  0.00     0.284 C 
ATOM      9  H3  UNL d   1      -1.701   1.465   0.289  0.00  0.00     0.395 HD
ENDBRANCH   1   7
TORSDOF 1
ENDMDL
