MODEL 1
REMARK minimizedAffinity 2.58716249
REMARK minimizedRMSD -1
REMARK  1 active torsions:
REMARK  status: ('A' for Active; 'I' for Inactive)
REMARK    1  A    between atoms: N_2  and  C1_3 
ROOT
ATOM      1  C1  UNL d   1      -1.081   3.871  -1.875  0.00  0.00     0.143 A 
ATOM      2  C2  UNL d   1      -1.500   5.205  -1.920  0.00  0.00    -0.057 A 
ATOM      3  C3  UNL d   1      -1.520   5.999  -0.767  0.00  0.00     0.033 A 
ATOM      4  C4  UNL d   1      -1.148   5.463   0.461  0.00  0.00    -0.042 A 
ATOM      5  C5  UNL d   1      -0.751   4.132   0.534  0.00  0.00     0.033 A 
ATOM      6  C6  UNL d   1      -0.727   3.346  -0.622  0.00  0.00    -0.057 A 
ENDROOT
BRANCH   1   7
ATOM      7  N   UNL d   1      -1.132   3.002  -2.968  0.00  0.00    -0.732 N 
ATOM      8  C   UNL d   1      -2.083   1.912  -2.999  0.00  0.00     0.284 C 
ATOM      9  H3  UNL d   1      -1.027   3.488  -3.856  0.00  0.00     0.395 HD
ENDBRANCH   1   7
TORSDOF 1
ENDMDL
