MODEL 1
REMARK minimizedAffinity -3.71003056
REMARK minimizedRMSD -1
REMARK  1 active torsions:
REMARK  status: ('A' for Active; 'I' for Inactive)
REMARK    1  A    between atoms: N_2  and  C1_3 
ROOT
ATOM      1  C1  UNL d   1      -1.354   0.398  -1.357  0.00  0.00     0.143 A 
ATOM      2  C2  UNL d   1      -0.771  -0.856  -1.569  0.00  0.00    -0.057 A 
ATOM      3  C3  UNL d   1       0.433  -1.211  -0.950  0.00  0.00     0.033 A 
ATOM      4  C4  UNL d   1       1.093  -0.304  -0.127  0.00  0.00    -0.042 A 
ATOM      5  C5  UNL d   1       0.544   0.957   0.079  0.00  0.00     0.033 A 
ATOM      6  C6  UNL d   1      -0.662   1.303  -0.537  0.00  0.00    -0.057 A 
ENDROOT
BRANCH   1   7
ATOM      7  N   UNL d   1      -2.499   0.846  -2.021  0.00  0.00    -0.732 N 
ATOM      8  C   UNL d   1      -2.388   1.670  -3.206  0.00  0.00     0.284 C 
ATOM      9  H3  UNL d   1      -3.220   0.131  -2.078  0.00  0.00     0.395 HD
ENDBRANCH   1   7
TORSDOF 1
ENDMDL
