MODEL 1
REMARK minimizedAffinity -1.41137481
REMARK minimizedRMSD -1
REMARK  1 active torsions:
REMARK  status: ('A' for Active; 'I' for Inactive)
REMARK    1  A    between atoms: N_2  and  C1_3 
ROOT
ATOM      1  C1  UNL d   1       0.286   0.699  -0.561  0.00  0.00     0.143 A 
ATOM      2  C2  UNL d   1       1.444   0.887   0.200  0.00  0.00    -0.057 A 
ATOM      3  C3  UNL d   1       2.339  -0.164   0.433  0.00  0.00     0.033 A 
ATOM      4  C4  UNL d   1       2.074  -1.434  -0.069  0.00  0.00    -0.042 A 
ATOM      5  C5  UNL d   1       0.916  -1.650  -0.808  0.00  0.00     0.033 A 
ATOM      6  C6  UNL d   1       0.030  -0.594  -1.042  0.00  0.00    -0.057 A 
ENDROOT
BRANCH   1   7
ATOM      7  N   UNL d   1      -0.692   1.680  -0.744  0.00  0.00    -0.732 N 
ATOM      8  C   UNL d   1      -1.578   1.633  -1.887  0.00  0.00     0.284 C 
ATOM      9  H3  UNL d   1      -1.150   1.940   0.126  0.00  0.00     0.395 HD
ENDBRANCH   1   7
TORSDOF 1
ENDMDL
