MODEL 1
REMARK minimizedAffinity -4.32669067
REMARK minimizedRMSD -1
REMARK  1 active torsions:
REMARK  status: ('A' for Active; 'I' for Inactive)
REMARK    1  A    between atoms: N_2  and  C1_3 
ROOT
ATOM      1  C1  UNL d   1      -0.822   0.237  -2.163  0.00  0.00     0.143 A 
ATOM      2  C2  UNL d   1       0.198  -0.693  -2.392  0.00  0.00    -0.057 A 
ATOM      3  C3  UNL d   1       1.238  -0.872  -1.471  0.00  0.00     0.033 A 
ATOM      4  C4  UNL d   1       1.291  -0.101  -0.315  0.00  0.00    -0.042 A 
ATOM      5  C5  UNL d   1       0.302   0.847  -0.079  0.00  0.00     0.033 A 
ATOM      6  C6  UNL d   1      -0.737   1.016  -0.999  0.00  0.00    -0.057 A 
ENDROOT
BRANCH   1   7
ATOM      7  N   UNL d   1      -1.828   0.531  -3.086  0.00  0.00    -0.732 N 
ATOM      8  C   UNL d   1      -2.647   1.714  -2.932  0.00  0.00     0.284 C 
ATOM      9  H3  UNL d   1      -1.542   0.345  -4.045  0.00  0.00     0.395 HD
ENDBRANCH   1   7
TORSDOF 1
ENDMDL
