MODEL 1
REMARK minimizedAffinity -1.51333368
REMARK minimizedRMSD -1
REMARK  1 active torsions:
REMARK  status: ('A' for Active; 'I' for Inactive)
REMARK    1  A    between atoms: N_2  and  C1_3 
ROOT
ATOM      1  C1  UNL d   1      -0.138   0.239  -1.091  0.00  0.00     0.143 A 
ATOM      2  C2  UNL d   1      -0.727   0.579   0.131  0.00  0.00    -0.057 A 
ATOM      3  C3  UNL d   1      -1.761   1.521   0.202  0.00  0.00     0.033 A 
ATOM      4  C4  UNL d   1      -2.205   2.163  -0.949  0.00  0.00    -0.042 A 
ATOM      5  C5  UNL d   1      -1.617   1.859  -2.172  0.00  0.00     0.033 A 
ATOM      6  C6  UNL d   1      -0.590   0.913  -2.237  0.00  0.00    -0.057 A 
ENDROOT
BRANCH   1   7
ATOM      7  N   UNL d   1       0.959  -0.616  -1.215  0.00  0.00    -0.732 N 
ATOM      8  C   UNL d   1       1.954  -0.695  -0.166  0.00  0.00     0.284 C 
ATOM      9  H3  UNL d   1       0.707  -1.516  -1.617  0.00  0.00     0.395 HD
ENDBRANCH   1   7
TORSDOF 1
ENDMDL
