MODEL 1
REMARK minimizedAffinity 5.40067911
REMARK minimizedRMSD -1
REMARK  1 active torsions:
REMARK  status: ('A' for Active; 'I' for Inactive)
REMARK    1  A    between atoms: N_2  and  C1_3 
ROOT
ATOM      1  C1  UNL d   1      -2.378  -1.088  -0.424  0.00  0.00     0.143 A 
ATOM      2  C2  UNL d   1      -1.628  -1.083   0.757  0.00  0.00    -0.057 A 
ATOM      3  C3  UNL d   1      -1.434   0.095   1.489  0.00  0.00     0.033 A 
ATOM      4  C4  UNL d   1      -1.965   1.298   1.035  0.00  0.00    -0.042 A 
ATOM      5  C5  UNL d   1      -2.693   1.321  -0.149  0.00  0.00     0.033 A 
ATOM      6  C6  UNL d   1      -2.889   0.140  -0.872  0.00  0.00    -0.057 A 
ENDROOT
BRANCH   1   7
ATOM      7  N   UNL d   1      -2.524  -2.207  -1.248  0.00  0.00    -0.732 N 
ATOM      8  C   UNL d   1      -1.410  -3.101  -1.481  0.00  0.00     0.284 C 
ATOM      9  H3  UNL d   1      -3.414  -2.680  -1.107  0.00  0.00     0.395 HD
ENDBRANCH   1   7
TORSDOF 1
ENDMDL
