MODEL 1
REMARK minimizedAffinity 2.06428409
REMARK minimizedRMSD -1
REMARK  0 active torsions:
REMARK  status: ('A' for Active; 'I' for Inactive)
ROOT
ATOM      1  C   UNL d   1      -4.908   0.981  -6.000  0.00  0.00     0.023 A 
ATOM      2  C1  UNL d   1      -5.914   0.451  -5.192  0.00  0.00     0.003 A 
ATOM      3  C2  UNL d   1      -5.583  -0.366  -4.108  0.00  0.00     0.048 A 
ATOM      4  C3  UNL d   1      -4.244  -0.647  -3.839  0.00  0.00     0.023 A 
ATOM      5  C4  UNL d   1      -3.235  -0.118  -4.644  0.00  0.00     0.048 A 
ATOM      6  C5  UNL d   1      -3.570   0.697  -5.727  0.00  0.00     0.003 A 
ATOM      7  I   UNL d   1      -3.749  -1.862  -2.227  0.00  0.00    -0.146 I 
ENDROOT
TORSDOF 0
ENDMDL
