MODEL 1
REMARK minimizedAffinity 1.23744488
REMARK minimizedRMSD -1
REMARK  0 active torsions:
REMARK  status: ('A' for Active; 'I' for Inactive)
ROOT
ATOM      1  C   UNL d   1      -5.890   0.640  -4.582  0.00  0.00     0.023 A 
ATOM      2  C1  UNL d   1      -5.525  -0.448  -3.790  0.00  0.00     0.003 A 
ATOM      3  C2  UNL d   1      -4.326  -1.120  -4.035  0.00  0.00     0.048 A 
ATOM      4  C3  UNL d   1      -3.496  -0.699  -5.073  0.00  0.00     0.023 A 
ATOM      5  C4  UNL d   1      -3.857   0.390  -5.868  0.00  0.00     0.048 A 
ATOM      6  C5  UNL d   1      -5.057   1.059  -5.620  0.00  0.00     0.003 A 
ATOM      7  I   UNL d   1      -1.711  -1.698  -5.439  0.00  0.00    -0.146 I 
ENDROOT
TORSDOF 0
ENDMDL
