MODEL 1
REMARK minimizedAffinity 5.23160315
REMARK minimizedRMSD -1
REMARK  0 active torsions:
REMARK  status: ('A' for Active; 'I' for Inactive)
ROOT
ATOM      1  C   UNL d   1      -4.289   2.741  -3.986  0.00  0.00     0.023 A 
ATOM      2  C1  UNL d   1      -3.804   2.073  -2.862  0.00  0.00     0.003 A 
ATOM      3  C2  UNL d   1      -3.231   0.807  -2.994  0.00  0.00     0.048 A 
ATOM      4  C3  UNL d   1      -3.144   0.215  -4.254  0.00  0.00     0.023 A 
ATOM      5  C4  UNL d   1      -3.627   0.880  -5.382  0.00  0.00     0.048 A 
ATOM      6  C5  UNL d   1      -4.201   2.146  -5.245  0.00  0.00     0.003 A 
ATOM      7  I   UNL d   1      -2.291  -1.670  -4.453  0.00  0.00    -0.146 I 
ENDROOT
TORSDOF 0
ENDMDL
