MODEL 1
REMARK minimizedAffinity 4.20151854
REMARK minimizedRMSD -1
REMARK  0 active torsions:
REMARK  status: ('A' for Active; 'I' for Inactive)
ROOT
ATOM      1  C   UNL d   1      -2.696  -1.199  -5.065  0.00  0.00     0.023 A 
ATOM      2  C1  UNL d   1      -3.044  -1.059  -3.721  0.00  0.00     0.003 A 
ATOM      3  C2  UNL d   1      -3.336   0.203  -3.202  0.00  0.00     0.048 A 
ATOM      4  C3  UNL d   1      -3.280   1.322  -4.032  0.00  0.00     0.023 A 
ATOM      5  C4  UNL d   1      -2.933   1.188  -5.377  0.00  0.00     0.048 A 
ATOM      6  C5  UNL d   1      -2.640  -0.077  -5.892  0.00  0.00     0.003 A 
ATOM      7  I   UNL d   1      -3.715   3.203  -3.261  0.00  0.00    -0.146 I 
ENDROOT
TORSDOF 0
ENDMDL
