MODEL 1
REMARK minimizedAffinity 8.73572922
REMARK minimizedRMSD -1
REMARK  0 active torsions:
REMARK  status: ('A' for Active; 'I' for Inactive)
ROOT
ATOM      1  C   UNL d   1       5.040   1.483   0.019  0.00  0.00     0.023 A 
ATOM      2  C1  UNL d   1       5.651   0.290   0.405  0.00  0.00     0.003 A 
ATOM      3  C2  UNL d   1       4.880  -0.855   0.615  0.00  0.00     0.048 A 
ATOM      4  C3  UNL d   1       3.498  -0.801   0.436  0.00  0.00     0.023 A 
ATOM      5  C4  UNL d   1       2.882   0.391   0.050  0.00  0.00     0.048 A 
ATOM      6  C5  UNL d   1       3.657   1.533  -0.158  0.00  0.00     0.003 A 
ATOM      7  I   UNL d   1       2.349  -2.504   0.748  0.00  0.00    -0.146 I 
ENDROOT
TORSDOF 0
ENDMDL
