MODEL 1
REMARK minimizedAffinity 2.96024251
REMARK minimizedRMSD -1
REMARK  0 active torsions:
REMARK  status: ('A' for Active; 'I' for Inactive)
ROOT
ATOM      1  C   UNL d   1      -4.887   1.564  -5.999  0.00  0.00     0.023 A 
ATOM      2  C1  UNL d   1      -3.493   1.502  -6.000  0.00  0.00     0.003 A 
ATOM      3  C2  UNL d   1      -2.831   0.624  -5.140  0.00  0.00     0.048 A 
ATOM      4  C3  UNL d   1      -3.569  -0.191  -4.281  0.00  0.00     0.023 A 
ATOM      5  C4  UNL d   1      -4.964  -0.133  -4.277  0.00  0.00     0.048 A 
ATOM      6  C5  UNL d   1      -5.621   0.748  -5.139  0.00  0.00     0.003 A 
ATOM      7  I   UNL d   1      -2.587  -1.499  -3.000  0.00  0.00    -0.146 I 
ENDROOT
TORSDOF 0
ENDMDL
