MODEL 1
REMARK minimizedAffinity 0.886123657
REMARK minimizedRMSD -1
REMARK  0 active torsions:
REMARK  status: ('A' for Active; 'I' for Inactive)
ROOT
ATOM      1  C   UNL d   1       4.696   1.075  -0.473  0.00  0.00     0.023 A 
ATOM      2  C1  UNL d   1       3.314   0.887  -0.455  0.00  0.00     0.003 A 
ATOM      3  C2  UNL d   1       2.782  -0.360  -0.119  0.00  0.00     0.048 A 
ATOM      4  C3  UNL d   1       3.639  -1.414   0.199  0.00  0.00     0.023 A 
ATOM      5  C4  UNL d   1       5.022  -1.229   0.183  0.00  0.00     0.048 A 
ATOM      6  C5  UNL d   1       5.549   0.019  -0.154  0.00  0.00     0.003 A 
ATOM      7  I   UNL d   1       2.850  -3.270   0.701  0.00  0.00    -0.146 I 
ENDROOT
TORSDOF 0
ENDMDL
