MODEL 1
REMARK minimizedAffinity 1.61716437
REMARK minimizedRMSD -1
REMARK  0 active torsions:
REMARK  status: ('A' for Active; 'I' for Inactive)
ROOT
ATOM      1  C   UNL d   1      -4.430  -1.271  -4.067  0.00  0.00     0.023 A 
ATOM      2  C1  UNL d   1      -4.099  -0.883  -2.769  0.00  0.00     0.003 A 
ATOM      3  C2  UNL d   1      -3.751   0.443  -2.502  0.00  0.00     0.048 A 
ATOM      4  C3  UNL d   1      -3.736   1.376  -3.538  0.00  0.00     0.023 A 
ATOM      5  C4  UNL d   1      -4.067   0.992  -4.839  0.00  0.00     0.048 A 
ATOM      6  C5  UNL d   1      -4.413  -0.334  -5.101  0.00  0.00     0.003 A 
ATOM      7  I   UNL d   1      -3.218   3.350  -3.143  0.00  0.00    -0.146 I 
ENDROOT
TORSDOF 0
ENDMDL
