MODEL 1
REMARK minimizedAffinity 12.3697138
REMARK minimizedRMSD -1
REMARK  2 active torsions:
REMARK  status: ('A' for Active; 'I' for Inactive)
REMARK    1  A    between atoms: C1_2  and  C2_3 
REMARK    2  A    between atoms: C2_3  and  C3_4 
ROOT
ATOM      1  C3  UNL d   1       0.530   0.831   4.701  0.00  0.00    -0.075 A 
ATOM      2  C4  UNL d   1      -0.355   0.651   3.629  0.00  0.00     0.002 A 
ATOM      3  C5  UNL d   1       0.061  -0.002   2.468  0.00  0.00     0.002 A 
ATOM      4  C6  UNL d   1       1.368  -0.472   2.361  0.00  0.00    -0.004 A 
ATOM      5  C7  UNL d   1       2.261  -0.283   3.413  0.00  0.00     0.002 A 
ATOM      6  C8  UNL d   1       1.846   0.365   4.578  0.00  0.00     0.002 A 
ENDROOT
BRANCH   1   7
ATOM      7  C2  UNL d   1       0.077   1.510   5.971  0.00  0.00     0.056 C 
BRANCH   7   8
ATOM      8  C1  UNL d   1       0.316   3.024   5.989  0.00  0.00     0.007 C 
ATOM      9  C   UNL d   1       1.792   3.398   5.985  0.00  0.00     0.009 C 
ENDBRANCH   7   8
ENDBRANCH   1   7
TORSDOF 2
ENDMDL
