MODEL 1
REMARK minimizedAffinity 12.0755987
REMARK minimizedRMSD -1
REMARK  2 active torsions:
REMARK  status: ('A' for Active; 'I' for Inactive)
REMARK    1  A    between atoms: C1_2  and  C2_3 
REMARK    2  A    between atoms: C2_3  and  C3_4 
ROOT
ATOM      1  C3  UNL d   1       4.293   3.633   1.805  0.00  0.00    -0.075 A 
ATOM      2  C4  UNL d   1       4.132   4.972   1.423  0.00  0.00     0.002 A 
ATOM      3  C5  UNL d   1       4.257   5.997   2.361  0.00  0.00     0.002 A 
ATOM      4  C6  UNL d   1       4.534   5.696   3.693  0.00  0.00    -0.004 A 
ATOM      5  C7  UNL d   1       4.679   4.367   4.087  0.00  0.00     0.002 A 
ATOM      6  C8  UNL d   1       4.559   3.340   3.149  0.00  0.00     0.002 A 
ENDROOT
BRANCH   1   7
ATOM      7  C2  UNL d   1       4.189   2.521   0.788  0.00  0.00     0.056 C 
BRANCH   7   8
ATOM      8  C1  UNL d   1       4.901   1.229   1.201  0.00  0.00     0.007 C 
ATOM      9  C   UNL d   1       5.803   0.666   0.111  0.00  0.00     0.009 C 
ENDBRANCH   7   8
ENDBRANCH   1   7
TORSDOF 2
ENDMDL
