MODEL 1
REMARK minimizedAffinity 3.82360864
REMARK minimizedRMSD -1
REMARK  2 active torsions:
REMARK  status: ('A' for Active; 'I' for Inactive)
REMARK    1  A    between atoms: C1_2  and  C2_3 
REMARK    2  A    between atoms: C2_3  and  C3_4 
ROOT
ATOM      1  C3  UNL d   1       0.191  -2.646  -5.896  0.00  0.00    -0.075 A 
ATOM      2  C4  UNL d   1      -1.090  -3.217  -5.913  0.00  0.00     0.002 A 
ATOM      3  C5  UNL d   1      -1.247  -4.603  -5.960  0.00  0.00     0.002 A 
ATOM      4  C6  UNL d   1      -0.129  -5.433  -6.000  0.00  0.00    -0.004 A 
ATOM      5  C7  UNL d   1       1.148  -4.876  -6.000  0.00  0.00     0.002 A 
ATOM      6  C8  UNL d   1       1.309  -3.490  -5.949  0.00  0.00     0.002 A 
ENDROOT
BRANCH   1   7
ATOM      7  C2  UNL d   1       0.369  -1.149  -5.816  0.00  0.00     0.056 C 
BRANCH   7   8
ATOM      8  C1  UNL d   1       0.947  -0.659  -4.484  0.00  0.00     0.007 C 
ATOM      9  C   UNL d   1       2.463  -0.521  -4.503  0.00  0.00     0.009 C 
ENDBRANCH   7   8
ENDBRANCH   1   7
TORSDOF 2
ENDMDL
