MODEL 1
REMARK minimizedAffinity 13.2636662
REMARK minimizedRMSD -1
REMARK  2 active torsions:
REMARK  status: ('A' for Active; 'I' for Inactive)
REMARK    1  A    between atoms: C1_2  and  C2_3 
REMARK    2  A    between atoms: C2_3  and  C3_4 
ROOT
ATOM      1  C3  UNL d   1       4.912   3.682   2.461  0.00  0.00    -0.075 A 
ATOM      2  C4  UNL d   1       5.990   2.840   2.155  0.00  0.00     0.002 A 
ATOM      3  C5  UNL d   1       5.999   1.514   2.590  0.00  0.00     0.002 A 
ATOM      4  C6  UNL d   1       4.937   1.018   3.343  0.00  0.00    -0.004 A 
ATOM      5  C7  UNL d   1       3.868   1.851   3.667  0.00  0.00     0.002 A 
ATOM      6  C8  UNL d   1       3.855   3.176   3.229  0.00  0.00     0.002 A 
ENDROOT
BRANCH   1   7
ATOM      7  C2  UNL d   1       4.883   5.110   1.969  0.00  0.00     0.056 C 
BRANCH   7   8
ATOM      8  C1  UNL d   1       5.977   5.999   2.569  0.00  0.00     0.007 C 
ATOM      9  C   UNL d   1       5.982   5.999   4.092  0.00  0.00     0.009 C 
ENDBRANCH   7   8
ENDBRANCH   1   7
TORSDOF 2
ENDMDL
