MODEL 1
REMARK minimizedAffinity 17.5283012
REMARK minimizedRMSD -1
REMARK  2 active torsions:
REMARK  status: ('A' for Active; 'I' for Inactive)
REMARK    1  A    between atoms: C1_2  and  C2_3 
REMARK    2  A    between atoms: C2_3  and  C3_4 
ROOT
ATOM      1  C3  UNL d   1      -0.617  -0.039   2.659  0.00  0.00    -0.075 A 
ATOM      2  C4  UNL d   1       0.486  -0.902   2.592  0.00  0.00     0.002 A 
ATOM      3  C5  UNL d   1       1.535  -0.783   3.504  0.00  0.00     0.002 A 
ATOM      4  C6  UNL d   1       1.501   0.206   4.485  0.00  0.00    -0.004 A 
ATOM      5  C7  UNL d   1       0.418   1.080   4.550  0.00  0.00     0.002 A 
ATOM      6  C8  UNL d   1      -0.636   0.959   3.642  0.00  0.00     0.002 A 
ENDROOT
BRANCH   1   7
ATOM      7  C2  UNL d   1      -1.770  -0.182   1.695  0.00  0.00     0.056 C 
BRANCH   7   8
ATOM      8  C1  UNL d   1      -2.978  -0.928   2.272  0.00  0.00     0.007 C 
ATOM      9  C   UNL d   1      -3.319  -2.201   1.508  0.00  0.00     0.009 C 
ENDBRANCH   7   8
ENDBRANCH   1   7
TORSDOF 2
ENDMDL
