MODEL 1
REMARK minimizedAffinity 16.2922153
REMARK minimizedRMSD -1
REMARK  2 active torsions:
REMARK  status: ('A' for Active; 'I' for Inactive)
REMARK    1  A    between atoms: C1_2  and  C2_3 
REMARK    2  A    between atoms: C2_3  and  C3_4 
ROOT
ATOM      1  C3  UNL d   1       3.640  -0.438  -5.666  0.00  0.00    -0.075 A 
ATOM      2  C4  UNL d   1       3.660  -1.830  -5.493  0.00  0.00     0.002 A 
ATOM      3  C5  UNL d   1       2.483  -2.526  -5.215  0.00  0.00     0.002 A 
ATOM      4  C6  UNL d   1       1.276  -1.840  -5.098  0.00  0.00    -0.004 A 
ATOM      5  C7  UNL d   1       1.247  -0.456  -5.252  0.00  0.00     0.002 A 
ATOM      6  C8  UNL d   1       2.423   0.243  -5.534  0.00  0.00     0.002 A 
ENDROOT
BRANCH   1   7
ATOM      7  C2  UNL d   1       4.906   0.317  -5.996  0.00  0.00     0.056 C 
BRANCH   7   8
ATOM      8  C1  UNL d   1       5.133   1.560  -5.130  0.00  0.00     0.007 C 
ATOM      9  C   UNL d   1       5.993   2.617  -5.810  0.00  0.00     0.009 C 
ENDBRANCH   7   8
ENDBRANCH   1   7
TORSDOF 2
ENDMDL
