MODEL 1
REMARK minimizedAffinity 8.21421909
REMARK minimizedRMSD -1
REMARK  2 active torsions:
REMARK  status: ('A' for Active; 'I' for Inactive)
REMARK    1  A    between atoms: C1_2  and  C2_3 
REMARK    2  A    between atoms: C2_3  and  C3_4 
ROOT
ATOM      1  C3  UNL d   1       0.096   0.571   3.802  0.00  0.00    -0.075 A 
ATOM      2  C4  UNL d   1      -0.377   0.053   2.587  0.00  0.00     0.002 A 
ATOM      3  C5  UNL d   1       0.064  -1.188   2.127  0.00  0.00     0.002 A 
ATOM      4  C6  UNL d   1       0.990  -1.920   2.867  0.00  0.00    -0.004 A 
ATOM      5  C7  UNL d   1       1.479  -1.407   4.067  0.00  0.00     0.002 A 
ATOM      6  C8  UNL d   1       1.036  -0.168   4.532  0.00  0.00     0.002 A 
ENDROOT
BRANCH   1   7
ATOM      7  C2  UNL d   1      -0.401   1.900   4.320  0.00  0.00     0.056 C 
BRANCH   7   8
ATOM      8  C1  UNL d   1      -0.051   2.166   5.788  0.00  0.00     0.007 C 
ATOM      9  C   UNL d   1       1.347   2.739   5.978  0.00  0.00     0.009 C 
ENDBRANCH   7   8
ENDBRANCH   1   7
TORSDOF 2
ENDMDL
