MODEL 1
REMARK minimizedAffinity 1.32728219
REMARK minimizedRMSD -1
REMARK  0 active torsions:
REMARK  status: ('A' for Active; 'I' for Inactive)
ROOT
ATOM      1  C2' OXE d   1      -6.000   2.280  -2.194  0.00  0.00     0.078 C 
ATOM      2  C1' OXE d   1      -6.000   1.872   0.583  0.00  0.00     0.078 C 
ATOM      3  C1  OXE d   1      -5.389   3.148   0.060  0.00  0.00    -0.078 A 
ATOM      4  C2  OXE d   1      -5.352   3.318  -1.303  0.00  0.00    -0.078 A 
ATOM      5  C3  OXE d   1      -4.849   4.501  -1.836  0.00  0.00     0.003 A 
ATOM      6  C4  OXE d   1      -4.242   5.452  -1.006  0.00  0.00    -0.002 A 
ATOM      7  C5  OXE d   1      -4.234   5.279   0.382  0.00  0.00    -0.002 A 
ATOM      8  C6  OXE d   1      -4.840   4.156   0.933  0.00  0.00     0.003 A 
ENDROOT
TORSDOF 0
ENDMDL
