MODEL 1
REMARK minimizedAffinity 6.26869202
REMARK minimizedRMSD -1
REMARK  0 active torsions:
REMARK  status: ('A' for Active; 'I' for Inactive)
ROOT
ATOM      1  C2' OXE d   1       2.753   4.128  -4.868  0.00  0.00     0.078 C 
ATOM      2  C1' OXE d   1       1.090   3.734  -2.641  0.00  0.00     0.078 C 
ATOM      3  C1  OXE d   1       0.531   4.509  -3.808  0.00  0.00    -0.078 A 
ATOM      4  C2  OXE d   1       1.368   4.737  -4.874  0.00  0.00    -0.078 A 
ATOM      5  C3  OXE d   1       0.885   5.399  -6.000  0.00  0.00     0.003 A 
ATOM      6  C4  OXE d   1      -0.394   5.968  -5.993  0.00  0.00    -0.002 A 
ATOM      7  C5  OXE d   1      -1.249   5.781  -4.901  0.00  0.00    -0.002 A 
ATOM      8  C6  OXE d   1      -0.817   5.020  -3.821  0.00  0.00     0.003 A 
ENDROOT
TORSDOF 0
ENDMDL
