MODEL 1
REMARK minimizedAffinity 10.5338879
REMARK minimizedRMSD -1
REMARK  0 active torsions:
REMARK  status: ('A' for Active; 'I' for Inactive)
ROOT
ATOM      1  C2' OXE d   1       0.002   3.145  -2.626  0.00  0.00     0.078 C 
ATOM      2  C1' OXE d   1       2.500   4.118  -3.458  0.00  0.00     0.078 C 
ATOM      3  C1  OXE d   1       1.278   4.582  -4.210  0.00  0.00    -0.078 A 
ATOM      4  C2  OXE d   1       0.065   4.064  -3.826  0.00  0.00    -0.078 A 
ATOM      5  C3  OXE d   1      -1.100   4.501  -4.451  0.00  0.00     0.003 A 
ATOM      6  C4  OXE d   1      -1.032   5.344  -5.567  0.00  0.00    -0.002 A 
ATOM      7  C5  OXE d   1       0.197   5.852  -6.000  0.00  0.00    -0.002 A 
ATOM      8  C6  OXE d   1       1.355   5.515  -5.308  0.00  0.00     0.003 A 
ENDROOT
TORSDOF 0
ENDMDL
