MODEL 1
REMARK minimizedAffinity 1.99853408
REMARK minimizedRMSD -1
REMARK  0 active torsions:
REMARK  status: ('A' for Active; 'I' for Inactive)
ROOT
ATOM      1  C2' OXE d   1       1.116   2.044  -1.473  0.00  0.00     0.078 C 
ATOM      2  C1' OXE d   1       1.916   3.250   0.933  0.00  0.00     0.078 C 
ATOM      3  C1  OXE d   1       2.505   1.904   0.590  0.00  0.00    -0.078 A 
ATOM      4  C2  OXE d   1       2.073   1.300  -0.566  0.00  0.00    -0.078 A 
ATOM      5  C3  OXE d   1       2.625   0.084  -0.956  0.00  0.00     0.003 A 
ATOM      6  C4  OXE d   1       3.501  -0.602  -0.106  0.00  0.00    -0.002 A 
ATOM      7  C5  OXE d   1       3.924  -0.023   1.095  0.00  0.00    -0.002 A 
ATOM      8  C6  OXE d   1       3.469   1.246   1.437  0.00  0.00     0.003 A 
ENDROOT
TORSDOF 0
ENDMDL
