MODEL 1
REMARK minimizedAffinity 4.29757452
REMARK minimizedRMSD -1
REMARK  0 active torsions:
REMARK  status: ('A' for Active; 'I' for Inactive)
ROOT
ATOM      1  C2' OXE d   1      -5.996  -0.069  -2.194  0.00  0.00     0.078 C 
ATOM      2  C1' OXE d   1      -5.979   2.738  -2.158  0.00  0.00     0.078 C 
ATOM      3  C1  OXE d   1      -5.980   2.051  -3.501  0.00  0.00    -0.078 A 
ATOM      4  C2  OXE d   1      -5.941   0.678  -3.509  0.00  0.00    -0.078 A 
ATOM      5  C3  OXE d   1      -5.995  -0.006  -4.720  0.00  0.00     0.003 A 
ATOM      6  C4  OXE d   1      -5.934   0.692  -5.932  0.00  0.00    -0.002 A 
ATOM      7  C5  OXE d   1      -5.933   2.091  -5.946  0.00  0.00    -0.002 A 
ATOM      8  C6  OXE d   1      -5.999   2.784  -4.743  0.00  0.00     0.003 A 
ENDROOT
TORSDOF 0
ENDMDL
