MODEL 1
REMARK minimizedAffinity 9.07710266
REMARK minimizedRMSD -1
REMARK  0 active torsions:
REMARK  status: ('A' for Active; 'I' for Inactive)
ROOT
ATOM      1  C2' OXE d   1      -5.474  -0.464  -2.231  0.00  0.00     0.078 C 
ATOM      2  C1' OXE d   1      -5.769   2.328  -2.224  0.00  0.00     0.078 C 
ATOM      3  C1  OXE d   1      -5.795   1.621  -3.556  0.00  0.00    -0.078 A 
ATOM      4  C2  OXE d   1      -5.603   0.260  -3.554  0.00  0.00    -0.078 A 
ATOM      5  C3  OXE d   1      -5.672  -0.447  -4.751  0.00  0.00     0.003 A 
ATOM      6  C4  OXE d   1      -5.781   0.231  -5.970  0.00  0.00    -0.002 A 
ATOM      7  C5  OXE d   1      -5.938   1.621  -5.998  0.00  0.00    -0.002 A 
ATOM      8  C6  OXE d   1      -5.989   2.325  -4.800  0.00  0.00     0.003 A 
ENDROOT
TORSDOF 0
ENDMDL
