MODEL 1
REMARK minimizedAffinity 2.73453856
REMARK minimizedRMSD -1
REMARK  0 active torsions:
REMARK  status: ('A' for Active; 'I' for Inactive)
ROOT
ATOM      1  C2' OXE d   1       1.042   3.424  -2.298  0.00  0.00     0.078 C 
ATOM      2  C1' OXE d   1       3.095   4.317  -3.990  0.00  0.00     0.078 C 
ATOM      3  C1  OXE d   1       1.678   4.692  -4.345  0.00  0.00    -0.078 A 
ATOM      4  C2  OXE d   1       0.676   4.211  -3.537  0.00  0.00    -0.078 A 
ATOM      5  C3  OXE d   1      -0.645   4.572  -3.788  0.00  0.00     0.003 A 
ATOM      6  C4  OXE d   1      -0.976   5.293  -4.942  0.00  0.00    -0.002 A 
ATOM      7  C5  OXE d   1       0.026   5.758  -5.800  0.00  0.00    -0.002 A 
ATOM      8  C6  OXE d   1       1.358   5.503  -5.494  0.00  0.00     0.003 A 
ENDROOT
TORSDOF 0
ENDMDL
