MODEL 1
REMARK minimizedAffinity 2.97833872
REMARK minimizedRMSD -1
REMARK  0 active torsions:
REMARK  status: ('A' for Active; 'I' for Inactive)
ROOT
ATOM      1  C2' OXE d   1       1.122   3.742  -2.532  0.00  0.00     0.078 C 
ATOM      2  C1' OXE d   1       2.839   3.961  -4.742  0.00  0.00     0.078 C 
ATOM      3  C1  OXE d   1       1.500   4.653  -4.820  0.00  0.00    -0.078 A 
ATOM      4  C2  OXE d   1       0.648   4.501  -3.753  0.00  0.00    -0.078 A 
ATOM      5  C3  OXE d   1      -0.577   5.163  -3.750  0.00  0.00     0.003 A 
ATOM      6  C4  OXE d   1      -1.012   5.854  -4.887  0.00  0.00    -0.002 A 
ATOM      7  C5  OXE d   1      -0.175   5.987  -6.000  0.00  0.00    -0.002 A 
ATOM      8  C6  OXE d   1       1.098   5.430  -5.966  0.00  0.00     0.003 A 
ENDROOT
TORSDOF 0
ENDMDL
