MODEL 1
REMARK minimizedAffinity -0.686067641
REMARK minimizedRMSD -1
REMARK  0 active torsions:
REMARK  status: ('A' for Active; 'I' for Inactive)
ROOT
ATOM      1  C2' OXE d   1      -5.949   2.586  -2.412  0.00  0.00     0.078 C 
ATOM      2  C1' OXE d   1      -6.000   0.173  -0.978  0.00  0.00     0.078 C 
ATOM      3  C1  OXE d   1      -5.977   0.096  -2.485  0.00  0.00    -0.078 A 
ATOM      4  C2  OXE d   1      -6.000   1.282  -3.179  0.00  0.00    -0.078 A 
ATOM      5  C3  OXE d   1      -5.925   1.269  -4.568  0.00  0.00     0.003 A 
ATOM      6  C4  OXE d   1      -5.982   0.058  -5.270  0.00  0.00    -0.002 A 
ATOM      7  C5  OXE d   1      -5.999  -1.160  -4.583  0.00  0.00    -0.002 A 
ATOM      8  C6  OXE d   1      -5.954  -1.160  -3.193  0.00  0.00     0.003 A 
ENDROOT
TORSDOF 0
ENDMDL
