MODEL 1
REMARK minimizedAffinity 4.35683584
REMARK minimizedRMSD -1
REMARK  0 active torsions:
REMARK  status: ('A' for Active; 'I' for Inactive)
ROOT
ATOM      1  C2' OXE d   1      -5.913   0.898   1.913  0.00  0.00     0.078 C 
ATOM      2  C1' OXE d   1      -5.596  -0.787  -0.310  0.00  0.00     0.078 C 
ATOM      3  C1  OXE d   1      -4.622  -0.938   0.832  0.00  0.00    -0.078 A 
ATOM      4  C2  OXE d   1      -4.756  -0.078   1.895  0.00  0.00    -0.078 A 
ATOM      5  C3  OXE d   1      -3.918  -0.211   2.998  0.00  0.00     0.003 A 
ATOM      6  C4  OXE d   1      -2.844  -1.109   2.969  0.00  0.00    -0.002 A 
ATOM      7  C5  OXE d   1      -2.666  -1.967   1.879  0.00  0.00    -0.002 A 
ATOM      8  C6  OXE d   1      -3.570  -1.924   0.823  0.00  0.00     0.003 A 
ENDROOT
TORSDOF 0
ENDMDL
