MODEL 1
REMARK minimizedAffinity -1.75411582
REMARK minimizedRMSD -1
REMARK  0 active torsions:
REMARK  status: ('A' for Active; 'I' for Inactive)
ROOT
ATOM      1  C2' OXE d   1      -0.870  -2.182   2.377  0.00  0.00     0.078 C 
ATOM      2  C1' OXE d   1      -1.607   0.076   3.872  0.00  0.00     0.078 C 
ATOM      3  C1  OXE d   1      -2.592  -0.447   2.857  0.00  0.00    -0.078 A 
ATOM      4  C2  OXE d   1      -2.204  -1.524   2.097  0.00  0.00    -0.078 A 
ATOM      5  C3  OXE d   1      -3.095  -2.081   1.184  0.00  0.00     0.003 A 
ATOM      6  C4  OXE d   1      -4.323  -1.460   0.924  0.00  0.00    -0.002 A 
ATOM      7  C5  OXE d   1      -4.721  -0.338   1.659  0.00  0.00    -0.002 A 
ATOM      8  C6  OXE d   1      -3.887   0.154   2.656  0.00  0.00     0.003 A 
ENDROOT
TORSDOF 0
ENDMDL
