MODEL 1
REMARK minimizedAffinity 6.57209873
REMARK minimizedRMSD -1
REMARK  0 active torsions:
REMARK  status: ('A' for Active; 'I' for Inactive)
ROOT
ATOM      1  C2' OXE d   1      -0.479   3.060  -2.988  0.00  0.00     0.078 C 
ATOM      2  C1' OXE d   1      -2.472   4.522  -4.317  0.00  0.00     0.078 C 
ATOM      3  C1  OXE d   1      -1.036   4.795  -4.686  0.00  0.00    -0.078 A 
ATOM      4  C2  OXE d   1      -0.065   4.108  -3.997  0.00  0.00    -0.078 A 
ATOM      5  C3  OXE d   1       1.274   4.282  -4.336  0.00  0.00     0.003 A 
ATOM      6  C4  OXE d   1       1.649   5.262  -5.264  0.00  0.00    -0.002 A 
ATOM      7  C5  OXE d   1       0.678   6.000  -5.949  0.00  0.00    -0.002 A 
ATOM      8  C6  OXE d   1      -0.668   5.749  -5.703  0.00  0.00     0.003 A 
ENDROOT
TORSDOF 0
ENDMDL
