MODEL 1
REMARK minimizedAffinity 3.13593483
REMARK minimizedRMSD -1
REMARK  0 active torsions:
REMARK  status: ('A' for Active; 'I' for Inactive)
ROOT
ATOM      1  C2' OXE d   1       0.654   3.260  -2.841  0.00  0.00     0.078 C 
ATOM      2  C1' OXE d   1       2.508   4.398  -4.615  0.00  0.00     0.078 C 
ATOM      3  C1  OXE d   1       1.051   4.742  -4.803  0.00  0.00    -0.078 A 
ATOM      4  C2  OXE d   1       0.146   4.144  -3.960  0.00  0.00    -0.078 A 
ATOM      5  C3  OXE d   1      -1.204   4.469  -4.055  0.00  0.00     0.003 A 
ATOM      6  C4  OXE d   1      -1.666   5.280  -5.098  0.00  0.00    -0.002 A 
ATOM      7  C5  OXE d   1      -0.765   5.868  -5.993  0.00  0.00    -0.002 A 
ATOM      8  C6  OXE d   1       0.598   5.644  -5.833  0.00  0.00     0.003 A 
ENDROOT
TORSDOF 0
ENDMDL
