MODEL 1
REMARK minimizedAffinity 5.51127768
REMARK minimizedRMSD -1
REMARK  0 active torsions:
REMARK  status: ('A' for Active; 'I' for Inactive)
ROOT
ATOM      1  C2' OXE d   1      -5.925   2.240  -2.277  0.00  0.00     0.078 C 
ATOM      2  C1' OXE d   1      -5.994  -0.565  -2.186  0.00  0.00     0.078 C 
ATOM      3  C1  OXE d   1      -5.970   0.095  -3.543  0.00  0.00    -0.078 A 
ATOM      4  C2  OXE d   1      -5.984   1.468  -3.577  0.00  0.00    -0.078 A 
ATOM      5  C3  OXE d   1      -5.908   2.128  -4.801  0.00  0.00     0.003 A 
ATOM      6  C4  OXE d   1      -5.973   1.407  -6.000  0.00  0.00    -0.002 A 
ATOM      7  C5  OXE d   1      -6.000   0.008  -5.987  0.00  0.00    -0.002 A 
ATOM      8  C6  OXE d   1      -5.956  -0.663  -4.770  0.00  0.00     0.003 A 
ENDROOT
TORSDOF 0
ENDMDL
