MODEL 1
REMARK minimizedAffinity 7.00259733
REMARK minimizedRMSD -1
REMARK  0 active torsions:
REMARK  status: ('A' for Active; 'I' for Inactive)
ROOT
ATOM      1  C2' OXE d   1       1.507   3.511  -2.713  0.00  0.00     0.078 C 
ATOM      2  C1' OXE d   1       3.305   4.118  -4.781  0.00  0.00     0.078 C 
ATOM      3  C1  OXE d   1       1.914   4.695  -4.867  0.00  0.00    -0.078 A 
ATOM      4  C2  OXE d   1       1.027   4.355  -3.874  0.00  0.00    -0.078 A 
ATOM      5  C3  OXE d   1      -0.253   4.903  -3.876  0.00  0.00     0.003 A 
ATOM      6  C4  OXE d   1      -0.692   5.674  -4.959  0.00  0.00    -0.002 A 
ATOM      7  C5  OXE d   1       0.184   6.000  -6.000  0.00  0.00    -0.002 A 
ATOM      8  C6  OXE d   1       1.500   5.554  -5.948  0.00  0.00     0.003 A 
ENDROOT
TORSDOF 0
ENDMDL
