MODEL 1
REMARK minimizedAffinity 11.7977724
REMARK minimizedRMSD -1
REMARK  0 active torsions:
REMARK  status: ('A' for Active; 'I' for Inactive)
ROOT
ATOM      1  C2' OXE d   1      -1.103  -0.684   3.000  0.00  0.00     0.078 C 
ATOM      2  C1' OXE d   1       1.422  -1.910   3.038  0.00  0.00     0.078 C 
ATOM      3  C1  OXE d   1       0.378  -2.478   2.109  0.00  0.00    -0.078 A 
ATOM      4  C2  OXE d   1      -0.869  -1.901   2.131  0.00  0.00    -0.078 A 
ATOM      5  C3  OXE d   1      -1.852  -2.350   1.254  0.00  0.00     0.003 A 
ATOM      6  C4  OXE d   1      -1.631  -3.482   0.461  0.00  0.00    -0.002 A 
ATOM      7  C5  OXE d   1      -0.381  -4.110   0.453  0.00  0.00    -0.002 A 
ATOM      8  C6  OXE d   1       0.645  -3.595   1.237  0.00  0.00     0.003 A 
ENDROOT
TORSDOF 0
ENDMDL
