MODEL 1
REMARK minimizedAffinity 4.37975645
REMARK minimizedRMSD -1
REMARK  0 active torsions:
REMARK  status: ('A' for Active; 'I' for Inactive)
ROOT
ATOM      1  C2' OXE d   1      -5.807   0.267   2.481  0.00  0.00     0.078 C 
ATOM      2  C1' OXE d   1      -4.280  -1.152   0.602  0.00  0.00     0.078 C 
ATOM      3  C1  OXE d   1      -3.632  -0.809   1.919  0.00  0.00    -0.078 A 
ATOM      4  C2  OXE d   1      -4.371  -0.074   2.815  0.00  0.00    -0.078 A 
ATOM      5  C3  OXE d   1      -3.840   0.223   4.067  0.00  0.00     0.003 A 
ATOM      6  C4  OXE d   1      -2.508  -0.088   4.364  0.00  0.00    -0.002 A 
ATOM      7  C5  OXE d   1      -1.725  -0.802   3.450  0.00  0.00    -0.002 A 
ATOM      8  C6  OXE d   1      -2.284  -1.206   2.243  0.00  0.00     0.003 A 
ENDROOT
TORSDOF 0
ENDMDL
