MODEL 1
REMARK minimizedAffinity 7.36114264
REMARK minimizedRMSD -1
REMARK  0 active torsions:
REMARK  status: ('A' for Active; 'I' for Inactive)
ROOT
ATOM      1  C2' OXE d   1       0.692  -2.142   2.191  0.00  0.00     0.078 C 
ATOM      2  C1' OXE d   1       0.950  -4.281   0.391  0.00  0.00     0.078 C 
ATOM      3  C1  OXE d   1      -0.441  -3.888   0.822  0.00  0.00    -0.078 A 
ATOM      4  C2  OXE d   1      -0.556  -2.871   1.739  0.00  0.00    -0.078 A 
ATOM      5  C3  OXE d   1      -1.818  -2.433   2.129  0.00  0.00     0.003 A 
ATOM      6  C4  OXE d   1      -2.966  -3.119   1.713  0.00  0.00    -0.002 A 
ATOM      7  C5  OXE d   1      -2.869  -4.183   0.810  0.00  0.00    -0.002 A 
ATOM      8  C6  OXE d   1      -1.620  -4.551   0.323  0.00  0.00     0.003 A 
ENDROOT
TORSDOF 0
ENDMDL
