MODEL 1
REMARK minimizedAffinity 2.36482859
REMARK minimizedRMSD -1
REMARK  0 active torsions:
REMARK  status: ('A' for Active; 'I' for Inactive)
ROOT
ATOM      1  C2' OXE d   1      -6.000   1.895  -2.140  0.00  0.00     0.078 C 
ATOM      2  C1' OXE d   1      -5.989   1.796   0.665  0.00  0.00     0.078 C 
ATOM      3  C1  OXE d   1      -5.362   2.996   0.002  0.00  0.00    -0.078 A 
ATOM      4  C2  OXE d   1      -5.331   3.014  -1.372  0.00  0.00    -0.078 A 
ATOM      5  C3  OXE d   1      -4.813   4.124  -2.035  0.00  0.00     0.003 A 
ATOM      6  C4  OXE d   1      -4.187   5.150  -1.318  0.00  0.00    -0.002 A 
ATOM      7  C5  OXE d   1      -4.173   5.132   0.081  0.00  0.00    -0.002 A 
ATOM      8  C6  OXE d   1      -4.793   4.086   0.755  0.00  0.00     0.003 A 
ENDROOT
TORSDOF 0
ENDMDL
