MODEL 1
REMARK minimizedAffinity 7.16166878
REMARK minimizedRMSD -1
REMARK  0 active torsions:
REMARK  status: ('A' for Active; 'I' for Inactive)
ROOT
ATOM      1  C2' OXE d   1      -5.925   2.972  -2.716  0.00  0.00     0.078 C 
ATOM      2  C1' OXE d   1      -5.977   0.331  -1.764  0.00  0.00     0.078 C 
ATOM      3  C1  OXE d   1      -5.961   0.540  -3.258  0.00  0.00    -0.078 A 
ATOM      4  C2  OXE d   1      -5.983   1.836  -3.715  0.00  0.00    -0.078 A 
ATOM      5  C3  OXE d   1      -5.915   2.085  -5.083  0.00  0.00     0.003 A 
ATOM      6  C4  OXE d   1      -5.979   1.030  -6.000  0.00  0.00    -0.002 A 
ATOM      7  C5  OXE d   1      -5.997  -0.297  -5.556  0.00  0.00    -0.002 A 
ATOM      8  C6  OXE d   1      -5.946  -0.559  -4.191  0.00  0.00     0.003 A 
ENDROOT
TORSDOF 0
ENDMDL
