MODEL 1
REMARK minimizedAffinity 7.40474653
REMARK minimizedRMSD -1
REMARK  0 active torsions:
REMARK  status: ('A' for Active; 'I' for Inactive)
ROOT
ATOM      1  C   UNL d   1      -1.819   2.832  -2.929  0.00  0.00     0.124 A 
ATOM      2  C1  UNL d   1      -3.058   2.255  -2.686  0.00  0.00     0.062 A 
ATOM      3  C2  UNL d   1      -3.569   1.301  -3.562  0.00  0.00     0.162 A 
ATOM      4  C3  UNL d   1      -2.841   0.918  -4.688  0.00  0.00    -0.034 A 
ATOM      5  C4  UNL d   1      -1.597   1.504  -4.926  0.00  0.00     0.162 A 
ATOM      6  C5  UNL d   1      -1.090   2.456  -4.048  0.00  0.00     0.062 A 
ATOM      7  F   UNL d   1       0.107   3.013  -4.284  0.00  0.00    -0.097 F 
ATOM      8  F1  UNL d   1      -0.871   1.158  -6.000  0.00  0.00    -0.096 F 
ATOM      9  I   UNL d   1      -3.602  -0.508  -6.000  0.00  0.00    -0.060 I 
ATOM     10  F2  UNL d   1      -4.769   0.760  -3.302  0.00  0.00    -0.096 F 
ATOM     11  F3  UNL d   1      -3.765   2.617  -1.606  0.00  0.00    -0.097 F 
ATOM     12  F4  UNL d   1      -1.330   3.750  -2.085  0.00  0.00    -0.092 F 
ENDROOT
TORSDOF 0
ENDMDL
