MODEL 1
REMARK minimizedAffinity 2.6410296
REMARK minimizedRMSD -1
REMARK  0 active torsions:
REMARK  status: ('A' for Active; 'I' for Inactive)
ROOT
ATOM      1  C   UNL d   1      -0.534  -1.236   2.269  0.00  0.00     0.124 A 
ATOM      2  C1  UNL d   1       0.799  -1.622   2.274  0.00  0.00     0.062 A 
ATOM      3  C2  UNL d   1       1.599  -1.391   1.159  0.00  0.00     0.162 A 
ATOM      4  C3  UNL d   1       1.068  -0.771   0.028  0.00  0.00    -0.034 A 
ATOM      5  C4  UNL d   1      -0.274  -0.387   0.029  0.00  0.00     0.162 A 
ATOM      6  C5  UNL d   1      -1.069  -0.619   1.147  0.00  0.00     0.062 A 
ATOM      7  F   UNL d   1      -2.357  -0.246   1.139  0.00  0.00    -0.097 F 
ATOM      8  F1  UNL d   1      -0.816   0.212  -1.041  0.00  0.00    -0.096 F 
ATOM      9  I   UNL d   1       2.262  -0.425  -1.642  0.00  0.00    -0.060 I 
ATOM     10  F2  UNL d   1       2.884  -1.774   1.193  0.00  0.00    -0.096 F 
ATOM     11  F3  UNL d   1       1.318  -2.219   3.357  0.00  0.00    -0.097 F 
ATOM     12  F4  UNL d   1      -1.302  -1.460   3.343  0.00  0.00    -0.092 F 
ENDROOT
TORSDOF 0
ENDMDL
