MODEL 1
REMARK minimizedAffinity 13.5021334
REMARK minimizedRMSD -1
REMARK  0 active torsions:
REMARK  status: ('A' for Active; 'I' for Inactive)
ROOT
ATOM      1  C   UNL d   1      -1.406   0.476   1.817  0.00  0.00     0.124 A 
ATOM      2  C1  UNL d   1      -0.487   0.187   0.819  0.00  0.00     0.062 A 
ATOM      3  C2  UNL d   1       0.267  -0.981   0.879  0.00  0.00     0.162 A 
ATOM      4  C3  UNL d   1       0.105  -1.870   1.942  0.00  0.00    -0.034 A 
ATOM      5  C4  UNL d   1      -0.822  -1.572   2.943  0.00  0.00     0.162 A 
ATOM      6  C5  UNL d   1      -1.573  -0.403   2.878  0.00  0.00     0.062 A 
ATOM      7  F   UNL d   1      -2.461  -0.125   3.843  0.00  0.00    -0.097 F 
ATOM      8  F1  UNL d   1      -1.004  -2.404   3.978  0.00  0.00    -0.096 F 
ATOM      9  I   UNL d   1       1.230  -3.618   2.035  0.00  0.00    -0.060 I 
ATOM     10  F2  UNL d   1       1.149  -1.236  -0.100  0.00  0.00    -0.096 F 
ATOM     11  F3  UNL d   1      -0.323   1.035  -0.207  0.00  0.00    -0.097 F 
ATOM     12  F4  UNL d   1      -2.130   1.602   1.757  0.00  0.00    -0.092 F 
ENDROOT
TORSDOF 0
ENDMDL
