MODEL 1
REMARK minimizedAffinity 17.239502
REMARK minimizedRMSD -1
REMARK  0 active torsions:
REMARK  status: ('A' for Active; 'I' for Inactive)
ROOT
ATOM      1  C   UNL d   1       4.513   1.143  -0.416  0.00  0.00     0.124 A 
ATOM      2  C1  UNL d   1       5.266   1.427   0.715  0.00  0.00     0.062 A 
ATOM      3  C2  UNL d   1       5.263   2.711   1.253  0.00  0.00     0.162 A 
ATOM      4  C3  UNL d   1       4.503   3.720   0.662  0.00  0.00    -0.034 A 
ATOM      5  C4  UNL d   1       3.748   3.426  -0.475  0.00  0.00     0.162 A 
ATOM      6  C5  UNL d   1       3.755   2.142  -1.010  0.00  0.00     0.062 A 
ATOM      7  F   UNL d   1       3.027   1.869  -2.102  0.00  0.00    -0.097 F 
ATOM      8  F1  UNL d   1       3.006   4.373  -1.068  0.00  0.00    -0.096 F 
ATOM      9  I   UNL d   1       4.495   5.640   1.465  0.00  0.00    -0.060 I 
ATOM     10  F2  UNL d   1       6.000   2.957   2.346  0.00  0.00    -0.096 F 
ATOM     11  F3  UNL d   1       6.000   0.463   1.290  0.00  0.00    -0.097 F 
ATOM     12  F4  UNL d   1       4.518  -0.093  -0.933  0.00  0.00    -0.092 F 
ENDROOT
TORSDOF 0
ENDMDL
