MODEL 1
REMARK minimizedAffinity 4.18458319
REMARK minimizedRMSD -1
REMARK  0 active torsions:
REMARK  status: ('A' for Active; 'I' for Inactive)
ROOT
ATOM      1  C   UNL d   1      -0.837  -1.417   2.253  0.00  0.00     0.124 A 
ATOM      2  C1  UNL d   1       0.495  -1.802   2.204  0.00  0.00     0.062 A 
ATOM      3  C2  UNL d   1       1.255  -1.549   1.065  0.00  0.00     0.162 A 
ATOM      4  C3  UNL d   1       0.685  -0.907  -0.034  0.00  0.00    -0.034 A 
ATOM      5  C4  UNL d   1      -0.656  -0.523   0.023  0.00  0.00     0.162 A 
ATOM      6  C5  UNL d   1      -1.412  -0.778   1.163  0.00  0.00     0.062 A 
ATOM      7  F   UNL d   1      -2.699  -0.405   1.209  0.00  0.00    -0.097 F 
ATOM      8  F1  UNL d   1      -1.237   0.097  -1.015  0.00  0.00    -0.096 F 
ATOM      9  I   UNL d   1       1.818  -0.527  -1.738  0.00  0.00    -0.060 I 
ATOM     10  F2  UNL d   1       2.540  -1.933   1.045  0.00  0.00    -0.096 F 
ATOM     11  F3  UNL d   1       1.052  -2.420   3.255  0.00  0.00    -0.097 F 
ATOM     12  F4  UNL d   1      -1.567  -1.662   3.349  0.00  0.00    -0.092 F 
ENDROOT
TORSDOF 0
ENDMDL
