MODEL 1
REMARK minimizedAffinity 3.93879437
REMARK minimizedRMSD -1
REMARK  0 active torsions:
REMARK  status: ('A' for Active; 'I' for Inactive)
ROOT
ATOM      1  C   UNL d   1       2.273   1.939  -2.935  0.00  0.00     0.124 A 
ATOM      2  C1  UNL d   1       1.108   2.608  -2.586  0.00  0.00     0.062 A 
ATOM      3  C2  UNL d   1       0.141   1.973  -1.812  0.00  0.00     0.162 A 
ATOM      4  C3  UNL d   1       0.335   0.661  -1.380  0.00  0.00    -0.034 A 
ATOM      5  C4  UNL d   1       1.509  -0.006  -1.736  0.00  0.00     0.162 A 
ATOM      6  C5  UNL d   1       2.472   0.633  -2.510  0.00  0.00     0.062 A 
ATOM      7  F   UNL d   1       3.597  -0.015  -2.846  0.00  0.00    -0.097 F 
ATOM      8  F1  UNL d   1       1.728  -1.268  -1.338  0.00  0.00    -0.096 F 
ATOM      9  I   UNL d   1      -1.108  -0.292  -0.223  0.00  0.00    -0.060 I 
ATOM     10  F2  UNL d   1      -0.975   2.644  -1.490  0.00  0.00    -0.096 F 
ATOM     11  F3  UNL d   1       0.913   3.870  -2.996  0.00  0.00    -0.097 F 
ATOM     12  F4  UNL d   1       3.201   2.552  -3.681  0.00  0.00    -0.092 F 
ENDROOT
TORSDOF 0
ENDMDL
