MODEL 1
REMARK minimizedAffinity 4.46224356
REMARK minimizedRMSD -1
REMARK  0 active torsions:
REMARK  status: ('A' for Active; 'I' for Inactive)
ROOT
ATOM      1  C   UNL d   1       0.642  -2.245   1.275  0.00  0.00     0.124 A 
ATOM      2  C1  UNL d   1       0.051  -1.466   0.290  0.00  0.00     0.062 A 
ATOM      3  C2  UNL d   1      -1.010  -0.623   0.607  0.00  0.00     0.162 A 
ATOM      4  C3  UNL d   1      -1.486  -0.553   1.916  0.00  0.00    -0.034 A 
ATOM      5  C4  UNL d   1      -0.888  -1.340   2.901  0.00  0.00     0.162 A 
ATOM      6  C5  UNL d   1       0.172  -2.182   2.579  0.00  0.00     0.062 A 
ATOM      7  F   UNL d   1       0.742  -2.934   3.532  0.00  0.00    -0.097 F 
ATOM      8  F1  UNL d   1      -1.321  -1.298   4.170  0.00  0.00    -0.096 F 
ATOM      9  I   UNL d   1      -3.072   0.707   2.394  0.00  0.00    -0.060 I 
ATOM     10  F2  UNL d   1      -1.562   0.119  -0.365  0.00  0.00    -0.096 F 
ATOM     11  F3  UNL d   1       0.502  -1.526  -0.972  0.00  0.00    -0.097 F 
ATOM     12  F4  UNL d   1       1.662  -3.057   0.966  0.00  0.00    -0.092 F 
ENDROOT
TORSDOF 0
ENDMDL
