MODEL 1
REMARK minimizedAffinity 8.98352718
REMARK minimizedRMSD -1
REMARK  0 active torsions:
REMARK  status: ('A' for Active; 'I' for Inactive)
ROOT
ATOM      1  C   UNL d   1       0.255  -0.627   1.180  0.00  0.00     0.124 A 
ATOM      2  C1  UNL d   1      -0.468  -0.508   0.001  0.00  0.00     0.062 A 
ATOM      3  C2  UNL d   1      -1.859  -0.512   0.030  0.00  0.00     0.162 A 
ATOM      4  C3  UNL d   1      -2.538  -0.633   1.242  0.00  0.00    -0.034 A 
ATOM      5  C4  UNL d   1      -1.804  -0.753   2.424  0.00  0.00     0.162 A 
ATOM      6  C5  UNL d   1      -0.413  -0.749   2.390  0.00  0.00     0.062 A 
ATOM      7  F   UNL d   1       0.284  -0.863   3.530  0.00  0.00    -0.097 F 
ATOM      8  F1  UNL d   1      -2.424  -0.871   3.607  0.00  0.00    -0.096 F 
ATOM      9  I   UNL d   1      -4.618  -0.639   1.290  0.00  0.00    -0.060 I 
ATOM     10  F2  UNL d   1      -2.532  -0.396  -1.125  0.00  0.00    -0.096 F 
ATOM     11  F3  UNL d   1       0.176  -0.392  -1.170  0.00  0.00    -0.097 F 
ATOM     12  F4  UNL d   1       1.594  -0.624   1.149  0.00  0.00    -0.092 F 
ENDROOT
TORSDOF 0
ENDMDL
