MODEL 1
REMARK minimizedAffinity 5.96063995
REMARK minimizedRMSD -1
REMARK  0 active torsions:
REMARK  status: ('A' for Active; 'I' for Inactive)
ROOT
ATOM      1  C   UNL d   1       3.276  -3.001  -5.242  0.00  0.00     0.078 C 
ATOM      2  C1  UNL d   1       4.021  -3.484  -4.033  0.00  0.00    -0.077 A 
ATOM      3  C2  UNL d   1       5.314  -3.026  -3.752  0.00  0.00    -0.001 A 
ATOM      4  C3  UNL d   1       6.000  -3.491  -2.629  0.00  0.00     0.003 A 
ATOM      5  C4  UNL d   1       5.401  -4.417  -1.778  0.00  0.00    -0.005 A 
ATOM      6  C5  UNL d   1       4.115  -4.881  -2.050  0.00  0.00     0.003 A 
ATOM      7  C6  UNL d   1       3.428  -4.417  -3.173  0.00  0.00    -0.001 A 
ENDROOT
TORSDOF 0
ENDMDL
