MODEL 1
REMARK minimizedAffinity 5.43499804
REMARK minimizedRMSD -1
REMARK  0 active torsions:
REMARK  status: ('A' for Active; 'I' for Inactive)
ROOT
ATOM      1  C   UNL d   1      -1.444   0.805   2.894  0.00  0.00     0.078 C 
ATOM      2  C1  UNL d   1      -1.066   1.842   1.878  0.00  0.00    -0.077 A 
ATOM      3  C2  UNL d   1      -1.369   3.194   2.080  0.00  0.00    -0.001 A 
ATOM      4  C3  UNL d   1      -1.019   4.146   1.121  0.00  0.00     0.003 A 
ATOM      5  C4  UNL d   1      -0.366   3.757  -0.046  0.00  0.00    -0.005 A 
ATOM      6  C5  UNL d   1      -0.063   2.413  -0.257  0.00  0.00     0.003 A 
ATOM      7  C6  UNL d   1      -0.412   1.460   0.700  0.00  0.00    -0.001 A 
ENDROOT
TORSDOF 0
ENDMDL
