MODEL 1
REMARK minimizedAffinity 9.74181271
REMARK minimizedRMSD -1
REMARK  0 active torsions:
REMARK  status: ('A' for Active; 'I' for Inactive)
ROOT
ATOM      1  C   UNL d   1       1.500  -3.373  -1.742  0.00  0.00     0.078 C 
ATOM      2  C1  UNL d   1       1.522  -3.605  -3.224  0.00  0.00    -0.077 A 
ATOM      3  C2  UNL d   1       2.642  -4.165  -3.850  0.00  0.00    -0.001 A 
ATOM      4  C3  UNL d   1       2.652  -4.367  -5.231  0.00  0.00     0.003 A 
ATOM      5  C4  UNL d   1       1.545  -4.011  -5.998  0.00  0.00    -0.005 A 
ATOM      6  C5  UNL d   1       0.426  -3.451  -5.384  0.00  0.00     0.003 A 
ATOM      7  C6  UNL d   1       0.414  -3.248  -4.003  0.00  0.00    -0.001 A 
ENDROOT
TORSDOF 0
ENDMDL
