MODEL 1
REMARK minimizedAffinity 4.84862232
REMARK minimizedRMSD -1
REMARK  0 active torsions:
REMARK  status: ('A' for Active; 'I' for Inactive)
ROOT
ATOM      1  C   UNL d   1      -0.096   3.439  -0.280  0.00  0.00     0.078 C 
ATOM      2  C1  UNL d   1      -0.490   2.740   0.987  0.00  0.00    -0.077 A 
ATOM      3  C2  UNL d   1      -1.822   2.381   1.228  0.00  0.00    -0.001 A 
ATOM      4  C3  UNL d   1      -2.175   1.740   2.417  0.00  0.00     0.003 A 
ATOM      5  C4  UNL d   1      -1.204   1.453   3.373  0.00  0.00    -0.005 A 
ATOM      6  C5  UNL d   1       0.124   1.808   3.142  0.00  0.00     0.003 A 
ATOM      7  C6  UNL d   1       0.480   2.449   1.955  0.00  0.00    -0.001 A 
ENDROOT
TORSDOF 0
ENDMDL
