MODEL 1
REMARK minimizedAffinity 11.400095
REMARK minimizedRMSD -1
REMARK  0 active torsions:
REMARK  status: ('A' for Active; 'I' for Inactive)
ROOT
ATOM      1  C   UNL d   1      -0.006   1.426   1.859  0.00  0.00     0.078 C 
ATOM      2  C1  UNL d   1      -0.140   1.986   0.475  0.00  0.00    -0.077 A 
ATOM      3  C2  UNL d   1      -1.250   1.681  -0.322  0.00  0.00    -0.001 A 
ATOM      4  C3  UNL d   1      -1.357   2.201  -1.613  0.00  0.00     0.003 A 
ATOM      5  C4  UNL d   1      -0.357   3.029  -2.119  0.00  0.00    -0.005 A 
ATOM      6  C5  UNL d   1       0.752   3.337  -1.334  0.00  0.00     0.003 A 
ATOM      7  C6  UNL d   1       0.861   2.818  -0.043  0.00  0.00    -0.001 A 
ENDROOT
TORSDOF 0
ENDMDL
