MODEL 1
REMARK minimizedAffinity 2.62028408
REMARK minimizedRMSD -1
REMARK  0 active torsions:
REMARK  status: ('A' for Active; 'I' for Inactive)
ROOT
ATOM      1  C   UNL d   1      -2.626   5.999   1.134  0.00  0.00     0.078 C 
ATOM      2  C1  UNL d   1      -1.523   5.337   0.364  0.00  0.00    -0.077 A 
ATOM      3  C2  UNL d   1      -1.062   4.062   0.717  0.00  0.00    -0.001 A 
ATOM      4  C3  UNL d   1      -0.028   3.461  -0.003  0.00  0.00     0.003 A 
ATOM      5  C4  UNL d   1       0.555   4.128  -1.079  0.00  0.00    -0.005 A 
ATOM      6  C5  UNL d   1       0.105   5.398  -1.435  0.00  0.00     0.003 A 
ATOM      7  C6  UNL d   1      -0.929   6.000  -0.717  0.00  0.00    -0.001 A 
ENDROOT
TORSDOF 0
ENDMDL
