MODEL 1
REMARK minimizedAffinity 3.62129164
REMARK minimizedRMSD -1
REMARK  0 active torsions:
REMARK  status: ('A' for Active; 'I' for Inactive)
ROOT
ATOM      1  C   UNL d   1      -0.757   2.141   1.758  0.00  0.00     0.078 C 
ATOM      2  C1  UNL d   1      -0.711   3.125   0.627  0.00  0.00    -0.077 A 
ATOM      3  C2  UNL d   1      -1.338   4.372   0.731  0.00  0.00    -0.001 A 
ATOM      4  C3  UNL d   1      -1.296   5.274  -0.334  0.00  0.00     0.003 A 
ATOM      5  C4  UNL d   1      -0.629   4.937  -1.510  0.00  0.00    -0.005 A 
ATOM      6  C5  UNL d   1      -0.004   3.697  -1.623  0.00  0.00     0.003 A 
ATOM      7  C6  UNL d   1      -0.046   2.794  -0.560  0.00  0.00    -0.001 A 
ENDROOT
TORSDOF 0
ENDMDL
