MODEL 1
REMARK minimizedAffinity 4.76776409
REMARK minimizedRMSD -1
REMARK  0 active torsions:
REMARK  status: ('A' for Active; 'I' for Inactive)
ROOT
ATOM      1  C   UNL d   1       2.652  -2.746   0.399  0.00  0.00     0.078 C 
ATOM      2  C1  UNL d   1       2.553  -3.872  -0.586  0.00  0.00    -0.077 A 
ATOM      3  C2  UNL d   1       1.491  -3.944  -1.496  0.00  0.00    -0.001 A 
ATOM      4  C3  UNL d   1       1.406  -5.003  -2.401  0.00  0.00     0.003 A 
ATOM      5  C4  UNL d   1       2.380  -6.000  -2.404  0.00  0.00    -0.005 A 
ATOM      6  C5  UNL d   1       3.439  -5.938  -1.501  0.00  0.00     0.003 A 
ATOM      7  C6  UNL d   1       3.525  -4.880  -0.595  0.00  0.00    -0.001 A 
ENDROOT
TORSDOF 0
ENDMDL
