MODEL 1
REMARK minimizedAffinity 11.2514782
REMARK minimizedRMSD -1
REMARK  0 active torsions:
REMARK  status: ('A' for Active; 'I' for Inactive)
ROOT
ATOM      1  C   UNL d   1       2.254  -3.009   0.398  0.00  0.00     0.078 C 
ATOM      2  C1  UNL d   1       2.281  -4.059  -0.673  0.00  0.00    -0.077 A 
ATOM      3  C2  UNL d   1       3.401  -4.880  -0.849  0.00  0.00    -0.001 A 
ATOM      4  C3  UNL d   1       3.417  -5.847  -1.856  0.00  0.00     0.003 A 
ATOM      5  C4  UNL d   1       2.316  -6.000  -2.696  0.00  0.00    -0.005 A 
ATOM      6  C5  UNL d   1       1.197  -5.186  -2.530  0.00  0.00     0.003 A 
ATOM      7  C6  UNL d   1       1.180  -4.219  -1.523  0.00  0.00    -0.001 A 
ENDROOT
TORSDOF 0
ENDMDL
