MODEL 1
REMARK minimizedAffinity 1.64567375
REMARK minimizedRMSD -1
REMARK  0 active torsions:
REMARK  status: ('A' for Active; 'I' for Inactive)
ROOT
ATOM      1  C   UNL d   1      -0.365   1.825   2.973  0.00  0.00     0.078 C 
ATOM      2  C1  UNL d   1      -0.498   2.419   1.602  0.00  0.00    -0.077 A 
ATOM      3  C2  UNL d   1      -1.693   3.019   1.189  0.00  0.00    -0.001 A 
ATOM      4  C3  UNL d   1      -1.806   3.559  -0.093  0.00  0.00     0.003 A 
ATOM      5  C4  UNL d   1      -0.727   3.502  -0.973  0.00  0.00    -0.005 A 
ATOM      6  C5  UNL d   1       0.466   2.905  -0.572  0.00  0.00     0.003 A 
ATOM      7  C6  UNL d   1       0.581   2.365   0.710  0.00  0.00    -0.001 A 
ENDROOT
TORSDOF 0
ENDMDL
