MODEL 1
REMARK minimizedAffinity 14.1658287
REMARK minimizedRMSD -1
REMARK  0 active torsions:
REMARK  status: ('A' for Active; 'I' for Inactive)
ROOT
ATOM      1  C   UNL d   1       5.244  -5.991   1.983  0.00  0.00     0.078 C 
ATOM      2  C1  UNL d   1       4.964  -4.520   1.899  0.00  0.00    -0.077 A 
ATOM      3  C2  UNL d   1       6.000  -3.582   1.997  0.00  0.00    -0.001 A 
ATOM      4  C3  UNL d   1       5.724  -2.216   1.928  0.00  0.00     0.003 A 
ATOM      5  C4  UNL d   1       4.412  -1.775   1.761  0.00  0.00    -0.005 A 
ATOM      6  C5  UNL d   1       3.375  -2.700   1.665  0.00  0.00     0.003 A 
ATOM      7  C6  UNL d   1       3.649  -4.067   1.734  0.00  0.00    -0.001 A 
ENDROOT
TORSDOF 0
ENDMDL
