MODEL 1
REMARK minimizedAffinity 2.43313456
REMARK minimizedRMSD -1
REMARK  0 active torsions:
REMARK  status: ('A' for Active; 'I' for Inactive)
ROOT
ATOM      1  C   UNL d   1       1.127   3.020   2.629  0.00  0.00     0.078 C 
ATOM      2  C1  UNL d   1       0.000   2.496   1.791  0.00  0.00    -0.077 A 
ATOM      3  C2  UNL d   1       0.215   2.086   0.469  0.00  0.00    -0.001 A 
ATOM      4  C3  UNL d   1      -0.845   1.609  -0.303  0.00  0.00     0.003 A 
ATOM      5  C4  UNL d   1      -2.128   1.538   0.237  0.00  0.00    -0.005 A 
ATOM      6  C5  UNL d   1      -2.351   1.945   1.551  0.00  0.00     0.003 A 
ATOM      7  C6  UNL d   1      -1.292   2.422   2.324  0.00  0.00    -0.001 A 
ENDROOT
TORSDOF 0
ENDMDL
