MODEL 1
REMARK minimizedAffinity -4.76499128
REMARK minimizedRMSD -1
REMARK  0 active torsions:
REMARK  status: ('A' for Active; 'I' for Inactive)
ROOT
ATOM      1  C   UNL d   1      -1.824   1.198   2.406  0.00  0.00     0.078 C 
ATOM      2  C1  UNL d   1      -1.078   2.022   1.399  0.00  0.00    -0.077 A 
ATOM      3  C2  UNL d   1      -0.956   1.600   0.070  0.00  0.00    -0.001 A 
ATOM      4  C3  UNL d   1      -0.250   2.372  -0.854  0.00  0.00     0.003 A 
ATOM      5  C4  UNL d   1       0.341   3.571  -0.458  0.00  0.00    -0.005 A 
ATOM      6  C5  UNL d   1       0.227   3.997   0.864  0.00  0.00     0.003 A 
ATOM      7  C6  UNL d   1      -0.479   3.226   1.789  0.00  0.00    -0.001 A 
ENDROOT
TORSDOF 0
ENDMDL
