MODEL 1
REMARK minimizedAffinity 4.9412384
REMARK minimizedRMSD -1
REMARK  0 active torsions:
REMARK  status: ('A' for Active; 'I' for Inactive)
ROOT
ATOM      1  C   UNL d   1      -1.602   3.364  -3.349  0.00  0.00     0.078 C 
ATOM      2  C1  UNL d   1      -0.861   3.124  -2.068  0.00  0.00    -0.077 A 
ATOM      3  C2  UNL d   1      -1.290   2.151  -1.158  0.00  0.00    -0.001 A 
ATOM      4  C3  UNL d   1      -0.596   1.945   0.036  0.00  0.00     0.003 A 
ATOM      5  C4  UNL d   1       0.530   2.711   0.331  0.00  0.00    -0.005 A 
ATOM      6  C5  UNL d   1       0.963   3.684  -0.568  0.00  0.00     0.003 A 
ATOM      7  C6  UNL d   1       0.271   3.890  -1.762  0.00  0.00    -0.001 A 
ENDROOT
TORSDOF 0
ENDMDL
