MODEL 1
REMARK minimizedAffinity 10.6806498
REMARK minimizedRMSD -1
REMARK  0 active torsions:
REMARK  status: ('A' for Active; 'I' for Inactive)
ROOT
ATOM      1  C   UNL d   1      -5.317   6.000   2.562  0.00  0.00     0.078 C 
ATOM      2  C1  UNL d   1      -5.068   5.488   1.174  0.00  0.00    -0.077 A 
ATOM      3  C2  UNL d   1      -5.813   5.961   0.087  0.00  0.00    -0.001 A 
ATOM      4  C3  UNL d   1      -5.577   5.469  -1.198  0.00  0.00     0.003 A 
ATOM      5  C4  UNL d   1      -4.598   4.500  -1.407  0.00  0.00    -0.005 A 
ATOM      6  C5  UNL d   1      -3.853   4.022  -0.331  0.00  0.00     0.003 A 
ATOM      7  C6  UNL d   1      -4.087   4.513   0.955  0.00  0.00    -0.001 A 
ENDROOT
TORSDOF 0
ENDMDL
