MODEL 1
REMARK minimizedAffinity 11.19032
REMARK minimizedRMSD -1
REMARK  0 active torsions:
REMARK  status: ('A' for Active; 'I' for Inactive)
ROOT
ATOM      1  C   UNL d   1      -1.389   4.099  -3.366  0.00  0.00     0.078 C 
ATOM      2  C1  UNL d   1      -0.717   3.587  -2.128  0.00  0.00    -0.077 A 
ATOM      3  C2  UNL d   1       0.430   4.209  -1.620  0.00  0.00    -0.001 A 
ATOM      4  C3  UNL d   1       1.051   3.715  -0.471  0.00  0.00     0.003 A 
ATOM      5  C4  UNL d   1       0.533   2.597   0.179  0.00  0.00    -0.005 A 
ATOM      6  C5  UNL d   1      -0.607   1.970  -0.321  0.00  0.00     0.003 A 
ATOM      7  C6  UNL d   1      -1.229   2.462  -1.469  0.00  0.00    -0.001 A 
ENDROOT
TORSDOF 0
ENDMDL
