MODEL 1
REMARK minimizedAffinity 3.65323138
REMARK minimizedRMSD -1
REMARK  0 active torsions:
REMARK  status: ('A' for Active; 'I' for Inactive)
ROOT
ATOM      1  C   UNL d   1      -1.905   2.889  -3.444  0.00  0.00     0.078 C 
ATOM      2  C1  UNL d   1      -1.096   2.931  -2.182  0.00  0.00    -0.077 A 
ATOM      3  C2  UNL d   1       0.206   3.447  -2.177  0.00  0.00    -0.001 A 
ATOM      4  C3  UNL d   1       0.952   3.470  -0.998  0.00  0.00     0.003 A 
ATOM      5  C4  UNL d   1       0.405   2.977   0.185  0.00  0.00    -0.005 A 
ATOM      6  C5  UNL d   1      -0.888   2.459   0.190  0.00  0.00     0.003 A 
ATOM      7  C6  UNL d   1      -1.636   2.435  -0.989  0.00  0.00    -0.001 A 
ENDROOT
TORSDOF 0
ENDMDL
