MODEL 1
REMARK minimizedAffinity 14.4916391
REMARK minimizedRMSD -1
REMARK  0 active torsions:
REMARK  status: ('A' for Active; 'I' for Inactive)
ROOT
ATOM      1  C   UNL d   1       4.433   5.999   3.507  0.00  0.00     0.023 A 
ATOM      2  C1  UNL d   1       4.737   4.803   4.157  0.00  0.00     0.003 A 
ATOM      3  C2  UNL d   1       4.731   3.600   3.446  0.00  0.00     0.048 A 
ATOM      4  C3  UNL d   1       4.420   3.602   2.087  0.00  0.00     0.023 A 
ATOM      5  C4  UNL d   1       4.117   4.797   1.433  0.00  0.00     0.048 A 
ATOM      6  C5  UNL d   1       4.124   5.997   2.147  0.00  0.00     0.003 A 
ATOM      7  I   UNL d   1       4.410   1.814   1.028  0.00  0.00    -0.146 I 
ENDROOT
TORSDOF 0
ENDMDL
