MODEL 1
REMARK minimizedAffinity 9.42195797
REMARK minimizedRMSD -1
REMARK  0 active torsions:
REMARK  status: ('A' for Active; 'I' for Inactive)
ROOT
ATOM      1  C   UNL d   1       4.890   6.000   1.612  0.00  0.00     0.023 A 
ATOM      2  C1  UNL d   1       5.850   5.732   2.588  0.00  0.00     0.003 A 
ATOM      3  C2  UNL d   1       5.955   4.450   3.132  0.00  0.00     0.048 A 
ATOM      4  C3  UNL d   1       5.098   3.441   2.695  0.00  0.00     0.023 A 
ATOM      5  C4  UNL d   1       4.137   3.704   1.717  0.00  0.00     0.048 A 
ATOM      6  C5  UNL d   1       4.035   4.987   1.177  0.00  0.00     0.003 A 
ATOM      7  I   UNL d   1       5.254   1.532   3.502  0.00  0.00    -0.146 I 
ENDROOT
TORSDOF 0
ENDMDL
