MODEL 1
REMARK minimizedAffinity 15.3445597
REMARK minimizedRMSD -1
REMARK  0 active torsions:
REMARK  status: ('A' for Active; 'I' for Inactive)
ROOT
ATOM      1  C   UNL d   1       0.366  -0.626   2.313  0.00  0.00     0.023 A 
ATOM      2  C1  UNL d   1      -0.609   0.372   2.300  0.00  0.00     0.003 A 
ATOM      3  C2  UNL d   1      -0.694   1.280   3.357  0.00  0.00     0.048 A 
ATOM      4  C3  UNL d   1       0.199   1.186   4.424  0.00  0.00     0.023 A 
ATOM      5  C4  UNL d   1       1.177   0.190   4.441  0.00  0.00     0.048 A 
ATOM      6  C5  UNL d   1       1.258  -0.717   3.382  0.00  0.00     0.003 A 
ATOM      7  I   UNL d   1       0.074   2.537   5.998  0.00  0.00    -0.146 I 
ENDROOT
TORSDOF 0
ENDMDL
