MODEL 1
REMARK minimizedAffinity 8.26021671
REMARK minimizedRMSD -1
REMARK  0 active torsions:
REMARK  status: ('A' for Active; 'I' for Inactive)
ROOT
ATOM      1  C   UNL d   1       1.949   0.811   4.400  0.00  0.00     0.023 A 
ATOM      2  C1  UNL d   1       0.814   1.595   4.607  0.00  0.00     0.003 A 
ATOM      3  C2  UNL d   1      -0.425   1.174   4.119  0.00  0.00     0.048 A 
ATOM      4  C3  UNL d   1      -0.522  -0.032   3.426  0.00  0.00     0.023 A 
ATOM      5  C4  UNL d   1       0.611  -0.820   3.217  0.00  0.00     0.048 A 
ATOM      6  C5  UNL d   1       1.848  -0.395   3.706  0.00  0.00     0.003 A 
ATOM      7  I   UNL d   1      -2.365  -0.660   2.699  0.00  0.00    -0.146 I 
ENDROOT
TORSDOF 0
ENDMDL
