MODEL 1
REMARK minimizedAffinity 13.8046827
REMARK minimizedRMSD -1
REMARK  0 active torsions:
REMARK  status: ('A' for Active; 'I' for Inactive)
ROOT
ATOM      1  C   UNL d   1       1.708  -1.161   3.431  0.00  0.00     0.023 A 
ATOM      2  C1  UNL d   1       0.899  -2.085   4.093  0.00  0.00     0.003 A 
ATOM      3  C2  UNL d   1      -0.460  -2.173   3.783  0.00  0.00     0.048 A 
ATOM      4  C3  UNL d   1      -1.002  -1.336   2.809  0.00  0.00     0.023 A 
ATOM      5  C4  UNL d   1      -0.196  -0.411   2.143  0.00  0.00     0.048 A 
ATOM      6  C5  UNL d   1       1.162  -0.326   2.457  0.00  0.00     0.003 A 
ATOM      7  I   UNL d   1      -3.024  -1.465   2.345  0.00  0.00    -0.146 I 
ENDROOT
TORSDOF 0
ENDMDL
