MODEL 1
REMARK minimizedAffinity 11.4273262
REMARK minimizedRMSD -1
REMARK  0 active torsions:
REMARK  status: ('A' for Active; 'I' for Inactive)
ROOT
ATOM      1  C   UNL d   1       0.010  -0.892   3.034  0.00  0.00     0.023 A 
ATOM      2  C1  UNL d   1       0.105   0.496   2.941  0.00  0.00     0.003 A 
ATOM      3  C2  UNL d   1       1.342   1.125   3.094  0.00  0.00     0.048 A 
ATOM      4  C3  UNL d   1       2.481   0.359   3.338  0.00  0.00     0.023 A 
ATOM      5  C4  UNL d   1       2.392  -1.031   3.431  0.00  0.00     0.048 A 
ATOM      6  C5  UNL d   1       1.152  -1.655   3.279  0.00  0.00     0.003 A 
ATOM      7  I   UNL d   1       4.324   1.292   3.566  0.00  0.00    -0.146 I 
ENDROOT
TORSDOF 0
ENDMDL
