MODEL 1
REMARK minimizedAffinity 10.2618074
REMARK minimizedRMSD -1
REMARK  0 active torsions:
REMARK  status: ('A' for Active; 'I' for Inactive)
ROOT
ATOM      1  C   UNL d   1       1.315  -1.636   3.290  0.00  0.00     0.023 A 
ATOM      2  C1  UNL d   1       0.132  -1.551   2.556  0.00  0.00     0.003 A 
ATOM      3  C2  UNL d   1      -0.482  -0.312   2.360  0.00  0.00     0.048 A 
ATOM      4  C3  UNL d   1       0.093   0.838   2.899  0.00  0.00     0.023 A 
ATOM      5  C4  UNL d   1       1.277   0.757   3.634  0.00  0.00     0.048 A 
ATOM      6  C5  UNL d   1       1.887  -0.483   3.829  0.00  0.00     0.003 A 
ATOM      7  I   UNL d   1      -0.818   2.683   2.608  0.00  0.00    -0.146 I 
ENDROOT
TORSDOF 0
ENDMDL
