MODEL 1
REMARK minimizedAffinity 17.9463978
REMARK minimizedRMSD -1
REMARK  0 active torsions:
REMARK  status: ('A' for Active; 'I' for Inactive)
ROOT
ATOM      1  C   UNL d   1      -1.009  -6.000  -6.000  0.00  0.00     0.023 A 
ATOM      2  C1  UNL d   1       0.322  -5.607  -5.863  0.00  0.00     0.003 A 
ATOM      3  C2  UNL d   1       0.629  -4.316  -5.429  0.00  0.00     0.048 A 
ATOM      4  C3  UNL d   1      -0.400  -3.423  -5.134  0.00  0.00     0.023 A 
ATOM      5  C4  UNL d   1      -1.733  -3.811  -5.268  0.00  0.00     0.048 A 
ATOM      6  C5  UNL d   1      -2.036  -5.103  -5.703  0.00  0.00     0.003 A 
ATOM      7  I   UNL d   1       0.055  -1.500  -4.488  0.00  0.00    -0.146 I 
ENDROOT
TORSDOF 0
ENDMDL
