MODEL 1
REMARK minimizedAffinity 0.929176331
REMARK minimizedRMSD -1
REMARK  1 active torsions:
REMARK  status: ('A' for Active; 'I' for Inactive)
REMARK    1  A    between atoms: C1_2  and  C2_3 
ROOT
ATOM      1  C2  UNL d   1      -0.166  -1.655  -0.810  0.00  0.00    -0.077 A 
ATOM      2  C3  UNL d   1       0.500  -1.884   0.402  0.00  0.00     0.002 A 
ATOM      3  C4  UNL d   1       1.472  -0.989   0.853  0.00  0.00     0.002 A 
ATOM      4  C5  UNL d   1       1.784   0.142   0.101  0.00  0.00    -0.004 A 
ATOM      5  C6  UNL d   1       1.128   0.377  -1.106  0.00  0.00     0.002 A 
ATOM      6  C7  UNL d   1       0.157  -0.517  -1.559  0.00  0.00     0.002 A 
ENDROOT
BRANCH   1   7
ATOM      7  C1  UNL d   1      -1.250  -2.593  -1.274  0.00  0.00     0.055 C 
ATOM      8  C   UNL d   1      -0.740  -4.023  -1.370  0.00  0.00     0.019 C 
ENDBRANCH   1   7
TORSDOF 1
ENDMDL
