MODEL 1
REMARK minimizedAffinity 6.23368692
REMARK minimizedRMSD -1
REMARK  1 active torsions:
REMARK  status: ('A' for Active; 'I' for Inactive)
REMARK    1  A    between atoms: C1_2  and  C2_3 
ROOT
ATOM      1  C2  UNL d   1       2.366   0.165   0.512  0.00  0.00    -0.077 A 
ATOM      2  C3  UNL d   1       3.322   0.812   1.309  0.00  0.00     0.002 A 
ATOM      3  C4  UNL d   1       2.972   1.935   2.060  0.00  0.00     0.002 A 
ATOM      4  C5  UNL d   1       1.666   2.419   2.026  0.00  0.00    -0.004 A 
ATOM      5  C6  UNL d   1       0.708   1.784   1.236  0.00  0.00     0.002 A 
ATOM      6  C7  UNL d   1       1.056   0.662   0.483  0.00  0.00     0.002 A 
ENDROOT
BRANCH   1   7
ATOM      7  C1  UNL d   1       2.729  -1.076  -0.260  0.00  0.00     0.055 C 
ATOM      8  C   UNL d   1       4.209  -1.094  -0.614  0.00  0.00     0.019 C 
ENDBRANCH   1   7
TORSDOF 1
ENDMDL
