MODEL 1
REMARK minimizedAffinity 0.69250828
REMARK minimizedRMSD -1
REMARK  1 active torsions:
REMARK  status: ('A' for Active; 'I' for Inactive)
REMARK    1  A    between atoms: C1_2  and  C2_3 
ROOT
ATOM      1  C2  UNL d   1       1.143  -0.188   0.390  0.00  0.00    -0.077 A 
ATOM      2  C3  UNL d   1       2.302   0.126  -0.333  0.00  0.00     0.002 A 
ATOM      3  C4  UNL d   1       3.055   1.255  -0.005  0.00  0.00     0.002 A 
ATOM      4  C5  UNL d   1       2.660   2.075   1.050  0.00  0.00    -0.004 A 
ATOM      5  C6  UNL d   1       1.508   1.772   1.774  0.00  0.00     0.002 A 
ATOM      6  C7  UNL d   1       0.753   0.645   1.447  0.00  0.00     0.002 A 
ENDROOT
BRANCH   1   7
ATOM      7  C1  UNL d   1       0.356  -1.432   0.070  0.00  0.00     0.055 C 
ATOM      8  C   UNL d   1      -0.923  -1.100  -0.686  0.00  0.00     0.019 C 
ENDBRANCH   1   7
TORSDOF 1
ENDMDL
