MODEL 1
REMARK minimizedAffinity -0.230928645
REMARK minimizedRMSD -1
REMARK  1 active torsions:
REMARK  status: ('A' for Active; 'I' for Inactive)
REMARK    1  A    between atoms: C1_2  and  C2_3 
ROOT
ATOM      1  C2  UNL d   1       1.290  -0.253   0.865  0.00  0.00    -0.077 A 
ATOM      2  C3  UNL d   1       0.724  -0.156   2.144  0.00  0.00     0.002 A 
ATOM      3  C4  UNL d   1       1.168   0.818   3.040  0.00  0.00     0.002 A 
ATOM      4  C5  UNL d   1       2.175   1.704   2.666  0.00  0.00    -0.004 A 
ATOM      5  C6  UNL d   1       2.746   1.615   1.397  0.00  0.00     0.002 A 
ATOM      6  C7  UNL d   1       2.304   0.641   0.500  0.00  0.00     0.002 A 
ENDROOT
BRANCH   1   7
ATOM      7  C1  UNL d   1       0.779  -1.271  -0.121  0.00  0.00     0.055 C 
ATOM      8  C   UNL d   1      -0.560  -0.849  -0.709  0.00  0.00     0.019 C 
ENDBRANCH   1   7
TORSDOF 1
ENDMDL
