MODEL 1
REMARK minimizedAffinity 13.8750839
REMARK minimizedRMSD -1
REMARK  1 active torsions:
REMARK  status: ('A' for Active; 'I' for Inactive)
REMARK    1  A    between atoms: C1_2  and  C2_3 
ROOT
ATOM      1  C2  UNL d   1       2.416  -0.130  -3.825  0.00  0.00    -0.077 A 
ATOM      2  C3  UNL d   1       2.880  -0.424  -2.535  0.00  0.00     0.002 A 
ATOM      3  C4  UNL d   1       3.740   0.457  -1.876  0.00  0.00     0.002 A 
ATOM      4  C5  UNL d   1       4.140   1.638  -2.497  0.00  0.00    -0.004 A 
ATOM      5  C6  UNL d   1       3.686   1.939  -3.780  0.00  0.00     0.002 A 
ATOM      6  C7  UNL d   1       2.827   1.059  -4.441  0.00  0.00     0.002 A 
ENDROOT
BRANCH   1   7
ATOM      7  C1  UNL d   1       1.449  -1.054  -4.517  0.00  0.00     0.055 C 
ATOM      8  C   UNL d   1       0.205  -0.309  -4.979  0.00  0.00     0.019 C 
ENDBRANCH   1   7
TORSDOF 1
ENDMDL
