MODEL 1
REMARK minimizedAffinity -3.21262145
REMARK minimizedRMSD -1
REMARK  0 active torsions:
REMARK  status: ('A' for Active; 'I' for Inactive)
ROOT
ATOM      1  N1  IND d   1      -6.000   5.943  -4.804  0.00  0.00    -0.196 N 
ATOM      2  C2  IND d   1      -5.435   5.590  -5.998  0.00  0.00     0.054 A 
ATOM      3  C3  IND d   1      -4.647   4.503  -5.842  0.00  0.00    -0.031 A 
ATOM      4  C4  IND d   1      -4.221   3.079  -3.740  0.00  0.00     0.051 A 
ATOM      5  C5  IND d   1      -4.489   3.029  -2.401  0.00  0.00    -0.031 A 
ATOM      6  C6  IND d   1      -5.292   3.966  -1.782  0.00  0.00     0.015 A 
ATOM      7  C7  IND d   1      -5.869   4.985  -2.485  0.00  0.00    -0.016 A 
ATOM      8  C8  IND d   1      -5.594   5.042  -3.844  0.00  0.00    -0.047 A 
ATOM      9  C9  IND d   1      -4.746   4.120  -4.470  0.00  0.00    -0.096 A 
ATOM     10  HN1 IND d   1      -6.521   6.615  -4.675  0.00  0.00     0.298 HD
ENDROOT
TORSDOF 0
ENDMDL
