MODEL 1
REMARK minimizedAffinity -4.6766448
REMARK minimizedRMSD -1
REMARK  0 active torsions:
REMARK  status: ('A' for Active; 'I' for Inactive)
ROOT
ATOM      1  N1  IND d   1      -5.757   5.472  -4.181  0.00  0.00    -0.196 N 
ATOM      2  C2  IND d   1      -5.244   5.039  -5.373  0.00  0.00     0.054 A 
ATOM      3  C3  IND d   1      -4.778   3.776  -5.253  0.00  0.00    -0.031 A 
ATOM      4  C4  IND d   1      -4.846   2.193  -3.224  0.00  0.00     0.051 A 
ATOM      5  C5  IND d   1      -5.184   2.152  -1.900  0.00  0.00    -0.031 A 
ATOM      6  C6  IND d   1      -5.744   3.237  -1.257  0.00  0.00     0.015 A 
ATOM      7  C7  IND d   1      -5.998   4.405  -1.919  0.00  0.00    -0.016 A 
ATOM      8  C8  IND d   1      -5.650   4.452  -3.262  0.00  0.00    -0.047 A 
ATOM      9  C9  IND d   1      -5.042   3.369  -3.909  0.00  0.00    -0.096 A 
ATOM     10  HN1 IND d   1      -6.089   6.251  -4.032  0.00  0.00     0.298 HD
ENDROOT
TORSDOF 0
ENDMDL
