MODEL 1
REMARK minimizedAffinity -2.66753983
REMARK minimizedRMSD -1
REMARK  0 active torsions:
REMARK  status: ('A' for Active; 'I' for Inactive)
ROOT
ATOM      1  N1  IND d   1      -6.000   5.517  -4.748  0.00  0.00    -0.196 N 
ATOM      2  C2  IND d   1      -5.999   4.913  -5.974  0.00  0.00     0.054 A 
ATOM      3  C3  IND d   1      -5.846   3.576  -5.840  0.00  0.00    -0.031 A 
ATOM      4  C4  IND d   1      -5.681   2.156  -3.699  0.00  0.00     0.051 A 
ATOM      5  C5  IND d   1      -5.598   2.264  -2.339  0.00  0.00    -0.031 A 
ATOM      6  C6  IND d   1      -5.649   3.485  -1.699  0.00  0.00     0.015 A 
ATOM      7  C7  IND d   1      -5.796   4.650  -2.399  0.00  0.00    -0.016 A 
ATOM      8  C8  IND d   1      -5.874   4.545  -3.780  0.00  0.00    -0.047 A 
ATOM      9  C9  IND d   1      -5.780   3.312  -4.437  0.00  0.00    -0.096 A 
ATOM     10  HN1 IND d   1      -6.068   6.363  -4.605  0.00  0.00     0.298 HD
ENDROOT
TORSDOF 0
ENDMDL
