MODEL 1
REMARK minimizedAffinity -1.35864902
REMARK minimizedRMSD -1
REMARK  0 active torsions:
REMARK  status: ('A' for Active; 'I' for Inactive)
ROOT
ATOM      1  N1  IND d   1       0.091  -0.232  -2.667  0.00  0.00    -0.196 N 
ATOM      2  C2  IND d   1       0.688   0.381  -1.601  0.00  0.00     0.054 A 
ATOM      3  C3  IND d   1       1.020  -0.531  -0.660  0.00  0.00    -0.031 A 
ATOM      4  C4  IND d   1       0.768  -3.093  -0.705  0.00  0.00     0.051 A 
ATOM      5  C5  IND d   1       0.246  -4.111  -1.452  0.00  0.00    -0.031 A 
ATOM      6  C6  IND d   1      -0.365  -3.884  -2.668  0.00  0.00     0.015 A 
ATOM      7  C7  IND d   1      -0.467  -2.625  -3.190  0.00  0.00    -0.016 A 
ATOM      8  C8  IND d   1       0.057  -1.588  -2.431  0.00  0.00    -0.047 A 
ATOM      9  C9  IND d   1       0.640  -1.808  -1.177  0.00  0.00    -0.096 A 
ATOM     10  HN1 IND d   1      -0.213   0.164  -3.368  0.00  0.00     0.298 HD
ENDROOT
TORSDOF 0
ENDMDL
