MODEL 1
REMARK minimizedAffinity -1.61349607
REMARK minimizedRMSD -1
REMARK  0 active torsions:
REMARK  status: ('A' for Active; 'I' for Inactive)
ROOT
ATOM      1  N1  IND d   1      -2.937   3.167  -5.486  0.00  0.00    -0.196 N 
ATOM      2  C2  IND d   1      -3.386   4.298  -4.863  0.00  0.00     0.054 A 
ATOM      3  C3  IND d   1      -4.596   4.077  -4.302  0.00  0.00    -0.031 A 
ATOM      4  C4  IND d   1      -5.978   1.907  -4.198  0.00  0.00     0.051 A 
ATOM      5  C5  IND d   1      -5.997   0.619  -4.655  0.00  0.00    -0.031 A 
ATOM      6  C6  IND d   1      -4.976   0.104  -5.425  0.00  0.00     0.015 A 
ATOM      7  C7  IND d   1      -3.886   0.857  -5.760  0.00  0.00    -0.016 A 
ATOM      8  C8  IND d   1      -3.866   2.167  -5.304  0.00  0.00    -0.047 A 
ATOM      9  C9  IND d   1      -4.920   2.709  -4.557  0.00  0.00    -0.096 A 
ATOM     10  HN1 IND d   1      -2.198   3.094  -5.920  0.00  0.00     0.298 HD
ENDROOT
TORSDOF 0
ENDMDL
