MODEL 1
REMARK minimizedAffinity 5.50967932
REMARK minimizedRMSD -1
REMARK  0 active torsions:
REMARK  status: ('A' for Active; 'I' for Inactive)
ROOT
ATOM      1  C   UNL d   1       1.975  -1.388   3.646  0.00  0.00     0.023 A 
ATOM      2  C1  UNL d   1       1.739  -0.084   4.082  0.00  0.00     0.003 A 
ATOM      3  C2  UNL d   1       0.658   0.639   3.572  0.00  0.00     0.048 A 
ATOM      4  C3  UNL d   1      -0.182   0.052   2.626  0.00  0.00     0.023 A 
ATOM      5  C4  UNL d   1       0.050  -1.253   2.188  0.00  0.00     0.048 A 
ATOM      6  C5  UNL d   1       1.132  -1.971   2.700  0.00  0.00     0.003 A 
ATOM      7  I   UNL d   1      -1.791   1.126   1.866  0.00  0.00    -0.146 I 
ENDROOT
TORSDOF 0
ENDMDL
