MODEL 1
REMARK minimizedAffinity 8.95130062
REMARK minimizedRMSD -1
REMARK  0 active torsions:
REMARK  status: ('A' for Active; 'I' for Inactive)
ROOT
ATOM      1  C   UNL d   1      -2.143  -5.934  -4.242  0.00  0.00     0.023 A 
ATOM      2  C1  UNL d   1      -1.941  -5.390  -2.973  0.00  0.00     0.003 A 
ATOM      3  C2  UNL d   1      -1.507  -4.069  -2.839  0.00  0.00     0.048 A 
ATOM      4  C3  UNL d   1      -1.279  -3.298  -3.978  0.00  0.00     0.023 A 
ATOM      5  C4  UNL d   1      -1.480  -3.838  -5.249  0.00  0.00     0.048 A 
ATOM      6  C5  UNL d   1      -1.913  -5.159  -5.378  0.00  0.00     0.003 A 
ATOM      7  I   UNL d   1      -0.634  -1.332  -3.781  0.00  0.00    -0.146 I 
ENDROOT
TORSDOF 0
ENDMDL
