MODEL 1
REMARK minimizedAffinity 10.1861839
REMARK minimizedRMSD -1
REMARK  0 active torsions:
REMARK  status: ('A' for Active; 'I' for Inactive)
ROOT
ATOM      1  C   UNL d   1       0.022  -0.385  -4.135  0.00  0.00     0.023 A 
ATOM      2  C1  UNL d   1      -0.780  -1.213  -3.349  0.00  0.00     0.003 A 
ATOM      3  C2  UNL d   1      -1.301  -2.394  -3.883  0.00  0.00     0.048 A 
ATOM      4  C3  UNL d   1      -1.016  -2.741  -5.203  0.00  0.00     0.023 A 
ATOM      5  C4  UNL d   1      -0.213  -1.916  -5.993  0.00  0.00     0.048 A 
ATOM      6  C5  UNL d   1       0.304  -0.736  -5.456  0.00  0.00     0.003 A 
ATOM      7  I   UNL d   1      -1.790  -4.497  -6.000  0.00  0.00    -0.146 I 
ENDROOT
TORSDOF 0
ENDMDL
