MODEL 1
REMARK minimizedAffinity 2.8717227
REMARK minimizedRMSD -1
REMARK  0 active torsions:
REMARK  status: ('A' for Active; 'I' for Inactive)
ROOT
ATOM      1  C   UNL d   1       0.779  -4.499   5.133  0.00  0.00     0.023 A 
ATOM      2  C1  UNL d   1       1.583  -3.761   4.265  0.00  0.00     0.003 A 
ATOM      3  C2  UNL d   1       2.967  -3.950   4.263  0.00  0.00     0.048 A 
ATOM      4  C3  UNL d   1       3.539  -4.880   5.130  0.00  0.00     0.023 A 
ATOM      5  C4  UNL d   1       2.738  -5.622   6.000  0.00  0.00     0.048 A 
ATOM      6  C5  UNL d   1       1.355  -5.428   6.000  0.00  0.00     0.003 A 
ATOM      7  I   UNL d   1       5.598  -5.164   5.128  0.00  0.00    -0.146 I 
ENDROOT
TORSDOF 0
ENDMDL
