MODEL 1
REMARK minimizedAffinity 12.759697
REMARK minimizedRMSD -1
REMARK  0 active torsions:
REMARK  status: ('A' for Active; 'I' for Inactive)
ROOT
ATOM      1  C   UNL d   1      -5.999   5.415  -0.073  0.00  0.00     0.023 A 
ATOM      2  C1  UNL d   1      -5.997   4.310   0.778  0.00  0.00     0.003 A 
ATOM      3  C2  UNL d   1      -5.996   3.018   0.247  0.00  0.00     0.048 A 
ATOM      4  C3  UNL d   1      -5.996   2.839  -1.136  0.00  0.00     0.023 A 
ATOM      5  C4  UNL d   1      -5.998   3.942  -1.991  0.00  0.00     0.048 A 
ATOM      6  C5  UNL d   1      -6.000   5.232  -1.455  0.00  0.00     0.003 A 
ATOM      7  I   UNL d   1      -5.994   0.918  -1.928  0.00  0.00    -0.146 I 
ENDROOT
TORSDOF 0
ENDMDL
