MODEL 1
REMARK minimizedAffinity 17.5164413
REMARK minimizedRMSD -1
REMARK  0 active torsions:
REMARK  status: ('A' for Active; 'I' for Inactive)
ROOT
ATOM      1  C   UNL d   1      -1.350  -1.209  -4.289  0.00  0.00     0.023 A 
ATOM      2  C1  UNL d   1      -0.771  -1.039  -3.031  0.00  0.00     0.003 A 
ATOM      3  C2  UNL d   1       0.612  -0.886  -2.912  0.00  0.00     0.048 A 
ATOM      4  C3  UNL d   1       1.410  -0.904  -4.056  0.00  0.00     0.023 A 
ATOM      5  C4  UNL d   1       0.835  -1.072  -5.316  0.00  0.00     0.048 A 
ATOM      6  C5  UNL d   1      -0.548  -1.226  -5.430  0.00  0.00     0.003 A 
ATOM      7  I   UNL d   1       3.469  -0.677  -3.882  0.00  0.00    -0.146 I 
ENDROOT
TORSDOF 0
ENDMDL
