MODEL 1
REMARK minimizedAffinity 16.2335339
REMARK minimizedRMSD -1
REMARK  0 active torsions:
REMARK  status: ('A' for Active; 'I' for Inactive)
ROOT
ATOM      1  C   UNL d   1       4.087  -0.532  -3.203  0.00  0.00     0.023 A 
ATOM      2  C1  UNL d   1       3.478  -1.712  -2.776  0.00  0.00     0.003 A 
ATOM      3  C2  UNL d   1       2.119  -1.925  -3.016  0.00  0.00     0.048 A 
ATOM      4  C3  UNL d   1       1.375  -0.953  -3.685  0.00  0.00     0.023 A 
ATOM      5  C4  UNL d   1       1.981   0.229  -4.115  0.00  0.00     0.048 A 
ATOM      6  C5  UNL d   1       3.340   0.437  -3.872  0.00  0.00     0.003 A 
ATOM      7  I   UNL d   1      -0.647  -1.267  -4.045  0.00  0.00    -0.146 I 
ENDROOT
TORSDOF 0
ENDMDL
