MODEL 1
REMARK minimizedAffinity 4.04786682
REMARK minimizedRMSD -1
REMARK  0 active torsions:
REMARK  status: ('A' for Active; 'I' for Inactive)
ROOT
ATOM      1  C   UNL d   1       4.927   1.719   0.724  0.00  0.00     0.023 A 
ATOM      2  C1  UNL d   1       5.045   0.476   1.344  0.00  0.00     0.003 A 
ATOM      3  C2  UNL d   1       4.472  -0.655   0.759  0.00  0.00     0.048 A 
ATOM      4  C3  UNL d   1       3.783  -0.536  -0.447  0.00  0.00     0.023 A 
ATOM      5  C4  UNL d   1       3.663   0.706  -1.072  0.00  0.00     0.048 A 
ATOM      6  C5  UNL d   1       4.236   1.835  -0.483  0.00  0.00     0.003 A 
ATOM      7  I   UNL d   1       2.929  -2.218  -1.320  0.00  0.00    -0.146 I 
ENDROOT
TORSDOF 0
ENDMDL
