MODEL 1
REMARK minimizedAffinity 1.55480671
REMARK minimizedRMSD -1
REMARK  0 active torsions:
REMARK  status: ('A' for Active; 'I' for Inactive)
ROOT
ATOM      1  C   UNL d   1       5.578   3.447   5.688  0.00  0.00     0.023 A 
ATOM      2  C1  UNL d   1       4.478   2.592   5.614  0.00  0.00     0.003 A 
ATOM      3  C2  UNL d   1       3.183   3.108   5.703  0.00  0.00     0.048 A 
ATOM      4  C3  UNL d   1       2.996   4.480   5.866  0.00  0.00     0.023 A 
ATOM      5  C4  UNL d   1       4.093   5.339   5.940  0.00  0.00     0.048 A 
ATOM      6  C5  UNL d   1       5.386   4.819   5.851  0.00  0.00     0.003 A 
ATOM      7  I   UNL d   1       1.070   5.250   5.999  0.00  0.00    -0.146 I 
ENDROOT
TORSDOF 0
ENDMDL
