MODEL 1
REMARK minimizedAffinity -3.74933505
REMARK minimizedRMSD -1
REMARK  0 active torsions:
REMARK  status: ('A' for Active; 'I' for Inactive)
ROOT
ATOM      1  C   UNL d   1       5.467   2.085   4.826  0.00  0.00     0.023 A 
ATOM      2  C1  UNL d   1       4.380   1.518   5.491  0.00  0.00     0.003 A 
ATOM      3  C2  UNL d   1       3.269   2.301   5.810  0.00  0.00     0.048 A 
ATOM      4  C3  UNL d   1       3.251   3.651   5.459  0.00  0.00     0.023 A 
ATOM      5  C4  UNL d   1       4.336   4.222   4.792  0.00  0.00     0.048 A 
ATOM      6  C5  UNL d   1       5.445   3.435   4.477  0.00  0.00     0.003 A 
ATOM      7  I   UNL d   1       1.598   4.819   5.932  0.00  0.00    -0.146 I 
ENDROOT
TORSDOF 0
ENDMDL
