MODEL 1
REMARK minimizedAffinity -1.20582378
REMARK minimizedRMSD -1
REMARK  0 active torsions:
REMARK  status: ('A' for Active; 'I' for Inactive)
ROOT
ATOM      1  C   UNL d   1       3.476   5.985   5.744  0.00  0.00     0.023 A 
ATOM      2  C1  UNL d   1       4.593   5.168   5.921  0.00  0.00     0.003 A 
ATOM      3  C2  UNL d   1       4.442   3.782   5.995  0.00  0.00     0.048 A 
ATOM      4  C3  UNL d   1       3.170   3.219   5.890  0.00  0.00     0.023 A 
ATOM      5  C4  UNL d   1       2.050   4.032   5.712  0.00  0.00     0.048 A 
ATOM      6  C5  UNL d   1       2.206   5.417   5.639  0.00  0.00     0.003 A 
ATOM      7  I   UNL d   1       2.943   1.156   5.999  0.00  0.00    -0.146 I 
ENDROOT
TORSDOF 0
ENDMDL
