MODEL 1
REMARK minimizedAffinity 2.91402411
REMARK minimizedRMSD -1
REMARK  0 active torsions:
REMARK  status: ('A' for Active; 'I' for Inactive)
ROOT
ATOM      1  C   UNL d   1       3.801   5.489   5.236  0.00  0.00     0.023 A 
ATOM      2  C1  UNL d   1       2.629   4.964   5.781  0.00  0.00     0.003 A 
ATOM      3  C2  UNL d   1       2.513   3.590   6.000  0.00  0.00     0.048 A 
ATOM      4  C3  UNL d   1       3.573   2.746   5.673  0.00  0.00     0.023 A 
ATOM      5  C4  UNL d   1       4.749   3.266   5.129  0.00  0.00     0.048 A 
ATOM      6  C5  UNL d   1       4.860   4.641   4.911  0.00  0.00     0.003 A 
ATOM      7  I   UNL d   1       3.403   0.700   5.998  0.00  0.00    -0.146 I 
ENDROOT
TORSDOF 0
ENDMDL
