MODEL 1
REMARK minimizedAffinity 2.69806433
REMARK minimizedRMSD -1
REMARK  0 active torsions:
REMARK  status: ('A' for Active; 'I' for Inactive)
ROOT
ATOM      1  C   UNL d   1       5.266   2.624   4.363  0.00  0.00     0.023 A 
ATOM      2  C1  UNL d   1       4.893   3.771   3.661  0.00  0.00     0.003 A 
ATOM      3  C2  UNL d   1       3.843   4.565   4.126  0.00  0.00     0.048 A 
ATOM      4  C3  UNL d   1       3.170   4.206   5.294  0.00  0.00     0.023 A 
ATOM      5  C4  UNL d   1       3.540   3.060   6.000  0.00  0.00     0.048 A 
ATOM      6  C5  UNL d   1       4.590   2.269   5.530  0.00  0.00     0.003 A 
ATOM      7  I   UNL d   1       1.606   5.386   5.989  0.00  0.00    -0.146 I 
ENDROOT
TORSDOF 0
ENDMDL
