MODEL 1
REMARK minimizedAffinity 10.9926329
REMARK minimizedRMSD -1
REMARK  1 active torsions:
REMARK  status: ('A' for Active; 'I' for Inactive)
REMARK    1  A    between atoms: N_2  and  C1_3 
ROOT
ATOM      1  C1  UNL d   1      -0.656   0.097   0.865  0.00  0.00     0.143 A 
ATOM      2  C2  UNL d   1       0.385   0.980   1.168  0.00  0.00    -0.057 A 
ATOM      3  C3  UNL d   1       1.610   0.516   1.663  0.00  0.00     0.033 A 
ATOM      4  C4  UNL d   1       1.804  -0.842   1.893  0.00  0.00    -0.042 A 
ATOM      5  C5  UNL d   1       0.774  -1.735   1.623  0.00  0.00     0.033 A 
ATOM      6  C6  UNL d   1      -0.444  -1.267   1.121  0.00  0.00    -0.057 A 
ENDROOT
BRANCH   1   7
ATOM      7  N   UNL d   1      -1.930   0.505   0.462  0.00  0.00    -0.732 N 
ATOM      8  C   UNL d   1      -2.546   1.679   1.043  0.00  0.00     0.284 C 
ATOM      9  H3  UNL d   1      -2.067   0.418  -0.542  0.00  0.00     0.395 HD
ENDBRANCH   1   7
TORSDOF 1
ENDMDL
