MODEL 1
REMARK minimizedAffinity 8.09557629
REMARK minimizedRMSD -1
REMARK  1 active torsions:
REMARK  status: ('A' for Active; 'I' for Inactive)
REMARK    1  A    between atoms: N_2  and  C1_3 
ROOT
ATOM      1  C1  UNL d   1      -4.842  -3.142  -5.179  0.00  0.00     0.143 A 
ATOM      2  C2  UNL d   1      -3.675  -3.842  -4.852  0.00  0.00    -0.057 A 
ATOM      3  C3  UNL d   1      -3.551  -5.211  -5.115  0.00  0.00     0.033 A 
ATOM      4  C4  UNL d   1      -4.607  -5.914  -5.686  0.00  0.00    -0.042 A 
ATOM      5  C5  UNL d   1      -5.785  -5.245  -5.998  0.00  0.00     0.033 A 
ATOM      6  C6  UNL d   1      -5.900  -3.876  -5.738  0.00  0.00    -0.057 A 
ENDROOT
BRANCH   1   7
ATOM      7  N   UNL d   1      -5.063  -1.802  -4.853  0.00  0.00    -0.732 N 
ATOM      8  C   UNL d   1      -4.528  -1.243  -3.630  0.00  0.00     0.284 C 
ATOM      9  H3  UNL d   1      -4.984  -1.188  -5.660  0.00  0.00     0.395 HD
ENDBRANCH   1   7
TORSDOF 1
ENDMDL
