MODEL 1
REMARK minimizedAffinity -0.463257968
REMARK minimizedRMSD -1
REMARK  1 active torsions:
REMARK  status: ('A' for Active; 'I' for Inactive)
REMARK    1  A    between atoms: N_2  and  C1_3 
ROOT
ATOM      1  C1  UNL d   1       4.751  -1.689  -3.888  0.00  0.00     0.143 A 
ATOM      2  C2  UNL d   1       5.789  -1.842  -4.813  0.00  0.00    -0.057 A 
ATOM      3  C3  UNL d   1       5.980  -0.921  -5.850  0.00  0.00     0.033 A 
ATOM      4  C4  UNL d   1       5.115   0.158  -5.998  0.00  0.00    -0.042 A 
ATOM      5  C5  UNL d   1       4.061   0.317  -5.105  0.00  0.00     0.033 A 
ATOM      6  C6  UNL d   1       3.879  -0.603  -4.068  0.00  0.00    -0.057 A 
ENDROOT
BRANCH   1   7
ATOM      7  N   UNL d   1       4.449  -2.624  -2.895  0.00  0.00    -0.732 N 
ATOM      8  C   UNL d   1       3.082  -2.832  -2.469  0.00  0.00     0.284 C 
ATOM      9  H3  UNL d   1       4.990  -3.481  -2.991  0.00  0.00     0.395 HD
ENDBRANCH   1   7
TORSDOF 1
ENDMDL
