MODEL 1
REMARK minimizedAffinity 8.32521725
REMARK minimizedRMSD -1
REMARK  1 active torsions:
REMARK  status: ('A' for Active; 'I' for Inactive)
REMARK    1  A    between atoms: N_2  and  C1_3 
ROOT
ATOM      1  C1  UNL d   1       3.438  -3.466   3.701  0.00  0.00     0.143 A 
ATOM      2  C2  UNL d   1       4.569  -3.334   2.889  0.00  0.00    -0.057 A 
ATOM      3  C3  UNL d   1       5.837  -3.721   3.341  0.00  0.00     0.033 A 
ATOM      4  C4  UNL d   1       6.000  -4.222   4.628  0.00  0.00    -0.042 A 
ATOM      5  C5  UNL d   1       4.893  -4.338   5.462  0.00  0.00     0.033 A 
ATOM      6  C6  UNL d   1       3.629  -3.957   5.002  0.00  0.00    -0.057 A 
ENDROOT
BRANCH   1   7
ATOM      7  N   UNL d   1       2.167  -3.008   3.345  0.00  0.00    -0.732 N 
ATOM      8  C   UNL d   1       2.010  -1.968   2.351  0.00  0.00     0.284 C 
ATOM      9  H3  UNL d   1       1.490  -3.763   3.267  0.00  0.00     0.395 HD
ENDBRANCH   1   7
TORSDOF 1
ENDMDL
