MODEL 1
REMARK minimizedAffinity 1.49241173
REMARK minimizedRMSD -1
REMARK  0 active torsions:
REMARK  status: ('A' for Active; 'I' for Inactive)
ROOT
ATOM      1  C   UNL d   1      -3.571  -0.059  -5.515  0.00  0.00     0.020 A 
ATOM      2  C1  UNL d   1      -4.258   0.264  -4.346  0.00  0.00     0.020 A 
ATOM      3  C2  UNL d   1      -3.742   1.228  -3.477  0.00  0.00     0.034 A 
ATOM      4  C3  UNL d   1      -2.535   1.871  -3.776  0.00  0.00     0.017 A 
ATOM      5  C4  UNL d   1      -1.846   1.545  -4.950  0.00  0.00     0.017 A 
ATOM      6  C5  UNL d   1      -2.368   0.580  -5.816  0.00  0.00     0.034 A 
ATOM      7 Cl   UNL d   1      -0.352   2.296  -5.386  0.00  0.00    -0.070 Cl
ATOM      8 Cl1  UNL d   1      -1.955   3.052  -2.656  0.00  0.00    -0.070 Cl
ENDROOT
TORSDOF 0
ENDMDL
