MODEL 1
REMARK minimizedAffinity 1.77032125
REMARK minimizedRMSD -1
REMARK  0 active torsions:
REMARK  status: ('A' for Active; 'I' for Inactive)
ROOT
ATOM      1  C   UNL d   1       1.535  -2.810   1.127  0.00  0.00     0.020 A 
ATOM      2  C1  UNL d   1       1.500  -1.512   0.620  0.00  0.00     0.020 A 
ATOM      3  C2  UNL d   1       0.497  -0.630   1.028  0.00  0.00     0.034 A 
ATOM      4  C3  UNL d   1      -0.476  -1.045   1.945  0.00  0.00     0.017 A 
ATOM      5  C4  UNL d   1      -0.440  -2.349   2.452  0.00  0.00     0.017 A 
ATOM      6  C5  UNL d   1       0.566  -3.228   2.041  0.00  0.00     0.034 A 
ATOM      7 Cl   UNL d   1      -1.606  -2.934   3.586  0.00  0.00    -0.070 Cl
ATOM      8 Cl1  UNL d   1      -1.687   0.098   2.405  0.00  0.00    -0.070 Cl
ENDROOT
TORSDOF 0
ENDMDL
