MODEL 1
REMARK minimizedAffinity 6.34207964
REMARK minimizedRMSD -1
REMARK  0 active torsions:
REMARK  status: ('A' for Active; 'I' for Inactive)
ROOT
ATOM      1  C   UNL d   1      -1.786  -0.526   3.132  0.00  0.00     0.020 A 
ATOM      2  C1  UNL d   1      -1.767   0.428   2.115  0.00  0.00     0.020 A 
ATOM      3  C2  UNL d   1      -0.862   0.303   1.058  0.00  0.00     0.034 A 
ATOM      4  C3  UNL d   1       0.027  -0.777   1.017  0.00  0.00     0.017 A 
ATOM      5  C4  UNL d   1       0.007  -1.733   2.038  0.00  0.00     0.017 A 
ATOM      6  C5  UNL d   1      -0.900  -1.604   3.094  0.00  0.00     0.034 A 
ATOM      7 Cl   UNL d   1       1.074  -3.093   2.056  0.00  0.00    -0.070 Cl
ATOM      8 Cl1  UNL d   1       1.118  -0.868  -0.320  0.00  0.00    -0.070 Cl
ENDROOT
TORSDOF 0
ENDMDL
