MODEL 1
REMARK minimizedAffinity 8.25570965
REMARK minimizedRMSD -1
REMARK  0 active torsions:
REMARK  status: ('A' for Active; 'I' for Inactive)
ROOT
ATOM      1  C   UNL d   1      -0.129   0.390   2.433  0.00  0.00     0.020 A 
ATOM      2  C1  UNL d   1      -1.454   0.350   2.866  0.00  0.00     0.020 A 
ATOM      3  C2  UNL d   1      -2.043  -0.871   3.198  0.00  0.00     0.034 A 
ATOM      4  C3  UNL d   1      -1.307  -2.058   3.098  0.00  0.00     0.017 A 
ATOM      5  C4  UNL d   1       0.023  -2.017   2.663  0.00  0.00     0.017 A 
ATOM      6  C5  UNL d   1       0.608  -0.791   2.332  0.00  0.00     0.034 A 
ATOM      7 Cl   UNL d   1       0.994  -3.439   2.515  0.00  0.00    -0.070 Cl
ATOM      8 Cl1  UNL d   1      -2.099  -3.533   3.526  0.00  0.00    -0.070 Cl
ENDROOT
TORSDOF 0
ENDMDL
