MODEL 1
REMARK minimizedAffinity -2.48369241
REMARK minimizedRMSD -1
REMARK  0 active torsions:
REMARK  status: ('A' for Active; 'I' for Inactive)
ROOT
ATOM      1  C   UNL d   1       5.117   5.601   2.048  0.00  0.00     0.020 A 
ATOM      2  C1  UNL d   1       3.767   5.256   2.056  0.00  0.00     0.020 A 
ATOM      3  C2  UNL d   1       3.084   5.135   3.269  0.00  0.00     0.034 A 
ATOM      4  C3  UNL d   1       3.752   5.360   4.478  0.00  0.00     0.017 A 
ATOM      5  C4  UNL d   1       5.108   5.707   4.469  0.00  0.00     0.017 A 
ATOM      6  C5  UNL d   1       5.787   5.826   3.252  0.00  0.00     0.034 A 
ATOM      7 Cl   UNL d   1       6.000   6.000   5.920  0.00  0.00    -0.070 Cl
ATOM      8 Cl1  UNL d   1       2.846   5.194   5.940  0.00  0.00    -0.070 Cl
ENDROOT
TORSDOF 0
ENDMDL
