MODEL 1
REMARK minimizedAffinity 0.898985505
REMARK minimizedRMSD -1
REMARK  0 active torsions:
REMARK  status: ('A' for Active; 'I' for Inactive)
ROOT
ATOM      1  C   UNL d   1       2.954   2.329  -3.177  0.00  0.00     0.020 A 
ATOM      2  C1  UNL d   1       3.367   1.046  -2.819  0.00  0.00     0.020 A 
ATOM      3  C2  UNL d   1       2.500   0.204  -2.119  0.00  0.00     0.034 A 
ATOM      4  C3  UNL d   1       1.216   0.644  -1.775  0.00  0.00     0.017 A 
ATOM      5  C4  UNL d   1       0.804   1.932  -2.135  0.00  0.00     0.017 A 
ATOM      6  C5  UNL d   1       1.676   2.771  -2.836  0.00  0.00     0.034 A 
ATOM      7 Cl   UNL d   1      -0.765   2.545  -1.745  0.00  0.00    -0.070 Cl
ATOM      8 Cl1  UNL d   1       0.197  -0.451  -0.909  0.00  0.00    -0.070 Cl
ENDROOT
TORSDOF 0
ENDMDL
