MODEL 1
REMARK minimizedAffinity -1.81348681
REMARK minimizedRMSD -1
REMARK  0 active torsions:
REMARK  status: ('A' for Active; 'I' for Inactive)
ROOT
ATOM      1  C   UNL d   1      -0.374   0.391   0.716  0.00  0.00     0.020 A 
ATOM      2  C1  UNL d   1       0.550   0.017  -0.259  0.00  0.00     0.020 A 
ATOM      3  C2  UNL d   1       1.177  -1.228  -0.184  0.00  0.00     0.034 A 
ATOM      4  C3  UNL d   1       0.883  -2.104   0.868  0.00  0.00     0.017 A 
ATOM      5  C4  UNL d   1      -0.045  -1.727   1.846  0.00  0.00     0.017 A 
ATOM      6  C5  UNL d   1      -0.671  -0.479   1.766  0.00  0.00     0.034 A 
ATOM      7 Cl   UNL d   1      -0.460  -2.753   3.173  0.00  0.00    -0.070 Cl
ATOM      8 Cl1  UNL d   1       1.696  -3.628   0.897  0.00  0.00    -0.070 Cl
ENDROOT
TORSDOF 0
ENDMDL
