MODEL 1
REMARK minimizedAffinity -0.329482317
REMARK minimizedRMSD -1
REMARK  0 active torsions:
REMARK  status: ('A' for Active; 'I' for Inactive)
ROOT
ATOM      1  C   UNL d   1      -1.073  -0.707   1.922  0.00  0.00     0.020 A 
ATOM      2  C1  UNL d   1      -0.051  -0.861   0.985  0.00  0.00     0.020 A 
ATOM      3  C2  UNL d   1       0.670  -2.056   0.929  0.00  0.00     0.034 A 
ATOM      4  C3  UNL d   1       0.371  -3.101   1.811  0.00  0.00     0.017 A 
ATOM      5  C4  UNL d   1      -0.654  -2.945   2.751  0.00  0.00     0.017 A 
ATOM      6  C5  UNL d   1      -1.374  -1.747   2.803  0.00  0.00     0.034 A 
ATOM      7 Cl   UNL d   1      -1.081  -4.190   3.872  0.00  0.00    -0.070 Cl
ATOM      8 Cl1  UNL d   1       1.303  -4.550   1.685  0.00  0.00    -0.070 Cl
ENDROOT
TORSDOF 0
ENDMDL
