MODEL 1
REMARK minimizedAffinity 3.27521873
REMARK minimizedRMSD -1
REMARK  0 active torsions:
REMARK  status: ('A' for Active; 'I' for Inactive)
ROOT
ATOM      1  C   UNL d   1      -3.363  -0.462   1.138  0.00  0.00     0.020 A 
ATOM      2  C1  UNL d   1      -2.883  -0.341  -0.165  0.00  0.00     0.020 A 
ATOM      3  C2  UNL d   1      -1.511  -0.425  -0.415  0.00  0.00     0.034 A 
ATOM      4  C3  UNL d   1      -0.615  -0.630   0.641  0.00  0.00     0.017 A 
ATOM      5  C4  UNL d   1      -1.098  -0.752   1.949  0.00  0.00     0.017 A 
ATOM      6  C5  UNL d   1      -2.472  -0.667   2.193  0.00  0.00     0.034 A 
ATOM      7 Cl   UNL d   1      -0.054  -1.006   3.302  0.00  0.00    -0.070 Cl
ATOM      8 Cl1  UNL d   1       1.067  -0.723   0.259  0.00  0.00    -0.070 Cl
ENDROOT
TORSDOF 0
ENDMDL
