MODEL 1
REMARK minimizedAffinity 5.00005436
REMARK minimizedRMSD -1
REMARK  1 active torsions:
REMARK  status: ('A' for Active; 'I' for Inactive)
REMARK    1  A    between atoms: C1_2  and  C2_3 
ROOT
ATOM      1  C2  UNL d   1      -0.358  -0.442  -0.504  0.00  0.00    -0.076 A 
ATOM      2  C3  UNL d   1      -1.441   0.177  -1.153  0.00  0.00     0.004 A 
ATOM      3  C4  UNL d   1      -1.320   1.458  -1.690  0.00  0.00    -0.003 A 
ATOM      4  C5  UNL d   1      -0.112   2.140  -1.587  0.00  0.00     0.000 A 
ATOM      5  C6  UNL d   1       0.978   1.535  -0.963  0.00  0.00     0.000 A 
ATOM      6  C7  UNL d   1       0.876   0.238  -0.431  0.00  0.00    -0.073 A 
ATOM      7  C8  UNL d   1       2.082  -0.365   0.237  0.00  0.00     0.078 C 
ENDROOT
BRANCH   1   8
ATOM      8  C1  UNL d   1      -0.558  -1.821   0.082  0.00  0.00     0.053 C 
ATOM      9  C   UNL d   1       0.137  -2.905  -0.728  0.00  0.00     0.018 C 
ENDBRANCH   1   8
TORSDOF 1
ENDMDL
