MODEL 1
REMARK minimizedAffinity -0.221276343
REMARK minimizedRMSD -1
REMARK  1 active torsions:
REMARK  status: ('A' for Active; 'I' for Inactive)
REMARK    1  A    between atoms: C1_2  and  C2_3 
ROOT
ATOM      1  C2  UNL d   1      -0.175  -2.415   4.171  0.00  0.00    -0.076 A 
ATOM      2  C3  UNL d   1      -0.883  -1.894   3.074  0.00  0.00     0.004 A 
ATOM      3  C4  UNL d   1      -0.217  -1.485   1.920  0.00  0.00    -0.003 A 
ATOM      4  C5  UNL d   1       1.167  -1.590   1.844  0.00  0.00     0.000 A 
ATOM      5  C6  UNL d   1       1.884  -2.120   2.916  0.00  0.00     0.000 A 
ATOM      6  C7  UNL d   1       1.227  -2.553   4.081  0.00  0.00    -0.073 A 
ATOM      7  C8  UNL d   1       2.050  -3.111   5.209  0.00  0.00     0.078 C 
ENDROOT
BRANCH   1   8
ATOM      8  C1  UNL d   1      -0.948  -2.817   5.407  0.00  0.00     0.053 C 
ATOM      9  C   UNL d   1      -2.192  -1.968   5.618  0.00  0.00     0.018 C 
ENDBRANCH   1   8
TORSDOF 1
ENDMDL
