MODEL 1
REMARK minimizedAffinity -0.113414228
REMARK minimizedRMSD -1
REMARK  1 active torsions:
REMARK  status: ('A' for Active; 'I' for Inactive)
REMARK    1  A    between atoms: C1_2  and  C2_3 
ROOT
ATOM      1  C2  UNL d   1       0.357   3.515   1.708  0.00  0.00    -0.076 A 
ATOM      2  C3  UNL d   1       0.146   2.130   1.602  0.00  0.00     0.004 A 
ATOM      3  C4  UNL d   1       0.251   1.479   0.374  0.00  0.00    -0.003 A 
ATOM      4  C5  UNL d   1       0.570   2.204  -0.769  0.00  0.00     0.000 A 
ATOM      5  C6  UNL d   1       0.800   3.576  -0.680  0.00  0.00     0.000 A 
ATOM      6  C7  UNL d   1       0.713   4.245   0.553  0.00  0.00    -0.073 A 
ATOM      7  C8  UNL d   1       0.965   5.727   0.590  0.00  0.00     0.078 C 
ENDROOT
BRANCH   1   8
ATOM      8  C1  UNL d   1       0.202   4.171   3.061  0.00  0.00     0.053 C 
ATOM      9  C   UNL d   1       1.386   3.902   3.977  0.00  0.00     0.018 C 
ENDBRANCH   1   8
TORSDOF 1
ENDMDL
