MODEL 1
REMARK minimizedAffinity 2.18230271
REMARK minimizedRMSD -1
REMARK  1 active torsions:
REMARK  status: ('A' for Active; 'I' for Inactive)
REMARK    1  A    between atoms: C1_2  and  C2_3 
ROOT
ATOM      1  C2  UNL d   1      -4.705   2.675  -3.681  0.00  0.00    -0.076 A 
ATOM      2  C3  UNL d   1      -5.353   3.922  -3.701  0.00  0.00     0.004 A 
ATOM      3  C4  UNL d   1      -5.996   4.378  -4.850  0.00  0.00    -0.003 A 
ATOM      4  C5  UNL d   1      -6.000   3.594  -5.999  0.00  0.00     0.000 A 
ATOM      5  C6  UNL d   1      -5.376   2.347  -5.992  0.00  0.00     0.000 A 
ATOM      6  C7  UNL d   1      -4.738   1.865  -4.836  0.00  0.00    -0.073 A 
ATOM      7  C8  UNL d   1      -4.077   0.515  -4.886  0.00  0.00     0.078 C 
ENDROOT
BRANCH   1   8
ATOM      8  C1  UNL d   1      -4.001   2.244  -2.413  0.00  0.00     0.053 C 
ATOM      9  C   UNL d   1      -2.523   2.601  -2.417  0.00  0.00     0.018 C 
ENDBRANCH   1   8
TORSDOF 1
ENDMDL
