MODEL 1
REMARK minimizedAffinity -2.96261048
REMARK minimizedRMSD -1
REMARK  1 active torsions:
REMARK  status: ('A' for Active; 'I' for Inactive)
REMARK    1  A    between atoms: C1_2  and  C2_3 
ROOT
ATOM      1  C2  UNL d   1      -5.049   3.547  -3.672  0.00  0.00    -0.076 A 
ATOM      2  C3  UNL d   1      -5.748   4.326  -2.734  0.00  0.00     0.004 A 
ATOM      3  C4  UNL d   1      -5.985   3.854  -1.444  0.00  0.00    -0.003 A 
ATOM      4  C5  UNL d   1      -5.525   2.596  -1.071  0.00  0.00     0.000 A 
ATOM      5  C6  UNL d   1      -4.814   1.817  -1.983  0.00  0.00     0.000 A 
ATOM      6  C7  UNL d   1      -4.553   2.284  -3.283  0.00  0.00    -0.073 A 
ATOM      7  C8  UNL d   1      -3.786   1.400  -4.228  0.00  0.00     0.078 C 
ENDROOT
BRANCH   1   8
ATOM      8  C1  UNL d   1      -4.846   4.100  -5.065  0.00  0.00     0.053 C 
ATOM      9  C   UNL d   1      -5.999   3.765  -5.999  0.00  0.00     0.018 C 
ENDBRANCH   1   8
TORSDOF 1
ENDMDL
