MODEL 1
REMARK minimizedAffinity 6.85125828
REMARK minimizedRMSD -1
REMARK  1 active torsions:
REMARK  status: ('A' for Active; 'I' for Inactive)
REMARK    1  A    between atoms: C1_2  and  C2_3 
ROOT
ATOM      1  C2  UNL d   1      -3.750   3.596  -4.927  0.00  0.00    -0.076 A 
ATOM      2  C3  UNL d   1      -3.985   2.365  -4.289  0.00  0.00     0.004 A 
ATOM      3  C4  UNL d   1      -3.061   1.835  -3.391  0.00  0.00    -0.003 A 
ATOM      4  C5  UNL d   1      -1.886   2.527  -3.116  0.00  0.00     0.000 A 
ATOM      5  C6  UNL d   1      -1.645   3.757  -3.726  0.00  0.00     0.000 A 
ATOM      6  C7  UNL d   1      -2.574   4.314  -4.621  0.00  0.00    -0.073 A 
ATOM      7  C8  UNL d   1      -2.260   5.641  -5.255  0.00  0.00     0.078 C 
ENDROOT
BRANCH   1   8
ATOM      8  C1  UNL d   1      -4.776   4.108  -5.912  0.00  0.00     0.053 C 
ATOM      9  C   UNL d   1      -6.000   3.209  -6.000  0.00  0.00     0.018 C 
ENDBRANCH   1   8
TORSDOF 1
ENDMDL
