MODEL 1
REMARK minimizedAffinity 3.15208483
REMARK minimizedRMSD -1
REMARK  1 active torsions:
REMARK  status: ('A' for Active; 'I' for Inactive)
REMARK    1  A    between atoms: C1_2  and  C2_3 
ROOT
ATOM      1  C2  UNL d   1      -5.248   1.810  -4.250  0.00  0.00    -0.076 A 
ATOM      2  C3  UNL d   1      -5.608   2.061  -5.586  0.00  0.00     0.004 A 
ATOM      3  C4  UNL d   1      -5.981   3.339  -6.000  0.00  0.00    -0.003 A 
ATOM      4  C5  UNL d   1      -6.000   4.386  -5.085  0.00  0.00     0.000 A 
ATOM      5  C6  UNL d   1      -5.629   4.159  -3.760  0.00  0.00     0.000 A 
ATOM      6  C7  UNL d   1      -5.235   2.880  -3.330  0.00  0.00    -0.073 A 
ATOM      7  C8  UNL d   1      -4.850   2.691  -1.888  0.00  0.00     0.078 C 
ENDROOT
BRANCH   1   8
ATOM      8  C1  UNL d   1      -4.879   0.399  -3.853  0.00  0.00     0.053 C 
ATOM      9  C   UNL d   1      -3.589  -0.072  -4.507  0.00  0.00     0.018 C 
ENDBRANCH   1   8
TORSDOF 1
ENDMDL
