MODEL 1
REMARK minimizedAffinity 1.71100044
REMARK minimizedRMSD -1
REMARK  1 active torsions:
REMARK  status: ('A' for Active; 'I' for Inactive)
REMARK    1  A    between atoms: C1_2  and  C2_3 
ROOT
ATOM      1  C2  UNL d   1       1.671  -3.709  -3.326  0.00  0.00    -0.076 A 
ATOM      2  C3  UNL d   1       1.518  -3.878  -1.939  0.00  0.00     0.004 A 
ATOM      3  C4  UNL d   1       2.615  -4.156  -1.125  0.00  0.00    -0.003 A 
ATOM      4  C5  UNL d   1       3.883  -4.270  -1.685  0.00  0.00     0.000 A 
ATOM      5  C6  UNL d   1       4.056  -4.089  -3.057  0.00  0.00     0.000 A 
ATOM      6  C7  UNL d   1       2.963  -3.792  -3.889  0.00  0.00    -0.073 A 
ATOM      7  C8  UNL d   1       3.206  -3.612  -5.363  0.00  0.00     0.078 C 
ENDROOT
BRANCH   1   8
ATOM      8  C1  UNL d   1       0.442  -3.436  -4.163  0.00  0.00     0.053 C 
ATOM      9  C   UNL d   1       0.251  -1.955  -4.452  0.00  0.00     0.018 C 
ENDBRANCH   1   8
TORSDOF 1
ENDMDL
