MODEL 1
REMARK minimizedAffinity 6.40313292
REMARK minimizedRMSD -1
REMARK  1 active torsions:
REMARK  status: ('A' for Active; 'I' for Inactive)
REMARK    1  A    between atoms: C1_2  and  C2_3 
ROOT
ATOM      1  C2  UNL d   1      -4.727   1.142  -4.310  0.00  0.00    -0.076 A 
ATOM      2  C3  UNL d   1      -5.314   1.436  -5.553  0.00  0.00     0.004 A 
ATOM      3  C4  UNL d   1      -5.946   2.658  -5.776  0.00  0.00    -0.003 A 
ATOM      4  C5  UNL d   1      -6.000   3.607  -4.761  0.00  0.00     0.000 A 
ATOM      5  C6  UNL d   1      -5.407   3.339  -3.527  0.00  0.00     0.000 A 
ATOM      6  C7  UNL d   1      -4.752   2.118  -3.291  0.00  0.00    -0.073 A 
ATOM      7  C8  UNL d   1      -4.135   1.879  -1.940  0.00  0.00     0.078 C 
ENDROOT
BRANCH   1   8
ATOM      8  C1  UNL d   1      -4.080  -0.211  -4.117  0.00  0.00     0.053 C 
ATOM      9  C   UNL d   1      -2.772  -0.346  -4.882  0.00  0.00     0.018 C 
ENDBRANCH   1   8
TORSDOF 1
ENDMDL
