MODEL 1
REMARK minimizedAffinity 4.05051899
REMARK minimizedRMSD -1
REMARK  1 active torsions:
REMARK  status: ('A' for Active; 'I' for Inactive)
REMARK    1  A    between atoms: C1_2  and  C2_3 
ROOT
ATOM      1  C2  UNL d   1       0.464   3.318   1.001  0.00  0.00    -0.076 A 
ATOM      2  C3  UNL d   1       0.164   2.483   2.092  0.00  0.00     0.004 A 
ATOM      3  C4  UNL d   1       0.412   2.895   3.400  0.00  0.00    -0.003 A 
ATOM      4  C5  UNL d   1       0.964   4.149   3.639  0.00  0.00     0.000 A 
ATOM      5  C6  UNL d   1       1.251   4.997   2.571  0.00  0.00     0.000 A 
ATOM      6  C7  UNL d   1       0.992   4.604   1.246  0.00  0.00    -0.073 A 
ATOM      7  C8  UNL d   1       1.328   5.557   0.132  0.00  0.00     0.078 C 
ENDROOT
BRANCH   1   8
ATOM      8  C1  UNL d   1       0.198   2.807  -0.397  0.00  0.00     0.053 C 
ATOM      9  C   UNL d   1       0.335   1.296  -0.501  0.00  0.00     0.018 C 
ENDBRANCH   1   8
TORSDOF 1
ENDMDL
