MODEL 1
REMARK minimizedAffinity 11.3179483
REMARK minimizedRMSD -1
REMARK  1 active torsions:
REMARK  status: ('A' for Active; 'I' for Inactive)
REMARK    1  A    between atoms: C1_2  and  C2_3 
ROOT
ATOM      1  C2  UNL d   1       0.103   2.448   1.800  0.00  0.00    -0.076 A 
ATOM      2  C3  UNL d   1       0.294   3.779   2.209  0.00  0.00     0.004 A 
ATOM      3  C4  UNL d   1       0.721   4.078   3.502  0.00  0.00    -0.003 A 
ATOM      4  C5  UNL d   1       0.965   3.050   4.406  0.00  0.00     0.000 A 
ATOM      5  C6  UNL d   1       0.798   1.723   4.012  0.00  0.00     0.000 A 
ATOM      6  C7  UNL d   1       0.383   1.404   2.707  0.00  0.00    -0.073 A 
ATOM      7  C8  UNL d   1       0.213  -0.044   2.337  0.00  0.00     0.078 C 
ENDROOT
BRANCH   1   8
ATOM      8  C1  UNL d   1      -0.388   2.186   0.394  0.00  0.00     0.053 C 
ATOM      9  C   UNL d   1      -1.906   2.157   0.303  0.00  0.00     0.018 C 
ENDBRANCH   1   8
TORSDOF 1
ENDMDL
