MODEL 1
REMARK minimizedAffinity -2.88647532
REMARK minimizedRMSD -1
REMARK  1 active torsions:
REMARK  status: ('A' for Active; 'I' for Inactive)
REMARK    1  A    between atoms: C1_2  and  C2_3 
ROOT
ATOM      1  C2  UNL d   1      -4.758   2.180  -3.337  0.00  0.00    -0.076 A 
ATOM      2  C3  UNL d   1      -5.384   3.426  -3.513  0.00  0.00     0.004 A 
ATOM      3  C4  UNL d   1      -6.000   3.756  -4.720  0.00  0.00    -0.003 A 
ATOM      4  C5  UNL d   1      -6.000   2.844  -5.770  0.00  0.00     0.000 A 
ATOM      5  C6  UNL d   1      -5.399   1.596  -5.607  0.00  0.00     0.000 A 
ATOM      6  C7  UNL d   1      -4.788   1.242  -4.391  0.00  0.00    -0.073 A 
ATOM      7  C8  UNL d   1      -4.150  -0.115  -4.273  0.00  0.00     0.078 C 
ENDROOT
BRANCH   1   8
ATOM      8  C1  UNL d   1      -4.083   1.889  -2.016  0.00  0.00     0.053 C 
ATOM      9  C   UNL d   1      -5.073   1.500  -0.929  0.00  0.00     0.018 C 
ENDBRANCH   1   8
TORSDOF 1
ENDMDL
