MODEL 1
REMARK minimizedAffinity 0.95623827
REMARK minimizedRMSD -1
REMARK  1 active torsions:
REMARK  status: ('A' for Active; 'I' for Inactive)
REMARK    1  A    between atoms: C1_2  and  C2_3 
ROOT
ATOM      1  C2  UNL d   1      -4.899   2.688  -4.951  0.00  0.00    -0.076 A 
ATOM      2  C3  UNL d   1      -5.809   3.219  -5.883  0.00  0.00     0.004 A 
ATOM      3  C4  UNL d   1      -5.996   4.595  -5.997  0.00  0.00    -0.003 A 
ATOM      4  C5  UNL d   1      -5.278   5.463  -5.182  0.00  0.00     0.000 A 
ATOM      5  C6  UNL d   1      -4.359   4.954  -4.265  0.00  0.00     0.000 A 
ATOM      6  C7  UNL d   1      -4.145   3.570  -4.148  0.00  0.00    -0.073 A 
ATOM      7  C8  UNL d   1      -3.147   3.076  -3.138  0.00  0.00     0.078 C 
ENDROOT
BRANCH   1   8
ATOM      8  C1  UNL d   1      -4.758   1.185  -4.853  0.00  0.00     0.053 C 
ATOM      9  C   UNL d   1      -5.997   0.450  -5.339  0.00  0.00     0.018 C 
ENDBRANCH   1   8
TORSDOF 1
ENDMDL
