MODEL 1
REMARK minimizedAffinity -1.18690348
REMARK minimizedRMSD -1
REMARK  1 active torsions:
REMARK  status: ('A' for Active; 'I' for Inactive)
REMARK    1  A    between atoms: C1_2  and  C2_3 
ROOT
ATOM      1  C2  UNL d   1       0.451  -1.570  -1.523  0.00  0.00    -0.076 A 
ATOM      2  C3  UNL d   1       0.048  -1.128  -2.795  0.00  0.00     0.004 A 
ATOM      3  C4  UNL d   1      -0.222   0.219  -3.034  0.00  0.00    -0.003 A 
ATOM      4  C5  UNL d   1      -0.094   1.145  -2.005  0.00  0.00     0.000 A 
ATOM      5  C6  UNL d   1       0.321   0.726  -0.741  0.00  0.00     0.000 A 
ATOM      6  C7  UNL d   1       0.614  -0.625  -0.488  0.00  0.00    -0.073 A 
ATOM      7  C8  UNL d   1       1.052  -1.022   0.895  0.00  0.00     0.078 C 
ENDROOT
BRANCH   1   8
ATOM      8  C1  UNL d   1       0.704  -3.046  -1.317  0.00  0.00     0.053 C 
ATOM      9  C   UNL d   1       0.469  -3.860  -2.580  0.00  0.00     0.018 C 
ENDBRANCH   1   8
TORSDOF 1
ENDMDL
