MODEL 1
REMARK minimizedAffinity -2.98075747
REMARK minimizedRMSD -1
REMARK  1 active torsions:
REMARK  status: ('A' for Active; 'I' for Inactive)
REMARK    1  A    between atoms: N_2  and  C1_3 
ROOT
ATOM      1  C1  UNL d   1      -0.222   0.422  -0.078  0.00  0.00     0.143 A 
ATOM      2  C2  UNL d   1      -1.164   0.088   0.901  0.00  0.00    -0.057 A 
ATOM      3  C3  UNL d   1      -0.771  -0.449   2.133  0.00  0.00     0.033 A 
ATOM      4  C4  UNL d   1       0.573  -0.688   2.397  0.00  0.00    -0.042 A 
ATOM      5  C5  UNL d   1       1.525  -0.386   1.430  0.00  0.00     0.033 A 
ATOM      6  C6  UNL d   1       1.127   0.155   0.204  0.00  0.00    -0.057 A 
ENDROOT
BRANCH   1   7
ATOM      7  N   UNL d   1      -0.556   0.866  -1.360  0.00  0.00    -0.732 N 
ATOM      8  C   UNL d   1      -0.289   2.231  -1.760  0.00  0.00     0.284 C 
ATOM      9  H3  UNL d   1      -0.349   0.175  -2.077  0.00  0.00     0.395 HD
ENDBRANCH   1   7
TORSDOF 1
ENDMDL
