MODEL 1
REMARK minimizedAffinity -1.41435802
REMARK minimizedRMSD -1
REMARK  1 active torsions:
REMARK  status: ('A' for Active; 'I' for Inactive)
REMARK    1  A    between atoms: N_2  and  C1_3 
ROOT
ATOM      1  C1  UNL d   1       0.341  -0.688   1.226  0.00  0.00     0.143 A 
ATOM      2  C2  UNL d   1       1.184  -1.025   0.162  0.00  0.00    -0.057 A 
ATOM      3  C3  UNL d   1       0.939  -0.557  -1.135  0.00  0.00     0.033 A 
ATOM      4  C4  UNL d   1      -0.173   0.236  -1.396  0.00  0.00    -0.042 A 
ATOM      5  C5  UNL d   1      -1.038   0.564  -0.358  0.00  0.00     0.033 A 
ATOM      6  C6  UNL d   1      -0.785   0.099   0.936  0.00  0.00    -0.057 A 
ENDROOT
BRANCH   1   7
ATOM      7  N   UNL d   1       0.475  -1.202   2.518  0.00  0.00    -0.732 N 
ATOM      8  C   UNL d   1      -0.407  -2.248   2.990  0.00  0.00     0.284 C 
ATOM      9  H3  UNL d   1       1.448  -1.326   2.788  0.00  0.00     0.395 HD
ENDBRANCH   1   7
TORSDOF 1
ENDMDL
