MODEL 1
REMARK minimizedAffinity 0.724940836
REMARK minimizedRMSD -1
REMARK  1 active torsions:
REMARK  status: ('A' for Active; 'I' for Inactive)
REMARK    1  A    between atoms: N_2  and  C1_3 
ROOT
ATOM      1  C1  UNL d   1      -0.356   1.159  -0.476  0.00  0.00     0.143 A 
ATOM      2  C2  UNL d   1      -1.142   1.464   0.640  0.00  0.00    -0.057 A 
ATOM      3  C3  UNL d   1      -1.144   0.641   1.773  0.00  0.00     0.033 A 
ATOM      4  C4  UNL d   1      -0.380  -0.521   1.798  0.00  0.00    -0.042 A 
ATOM      5  C5  UNL d   1       0.389  -0.857   0.690  0.00  0.00     0.033 A 
ATOM      6  C6  UNL d   1       0.393  -0.028  -0.436  0.00  0.00    -0.057 A 
ENDROOT
BRANCH   1   7
ATOM      7  N   UNL d   1      -0.386   1.883  -1.670  0.00  0.00    -0.732 N 
ATOM      8  C   UNL d   1      -1.457   2.819  -1.937  0.00  0.00     0.284 C 
ATOM      9  H3  UNL d   1       0.535   2.216  -1.946  0.00  0.00     0.395 HD
ENDBRANCH   1   7
TORSDOF 1
ENDMDL
