MODEL 1
REMARK minimizedAffinity 0.0745623782
REMARK minimizedRMSD -1
REMARK  1 active torsions:
REMARK  status: ('A' for Active; 'I' for Inactive)
REMARK    1  A    between atoms: N_2  and  C1_3 
ROOT
ATOM      1  C1  UNL d   1       0.327   3.546  -1.863  0.00  0.00     0.143 A 
ATOM      2  C2  UNL d   1       0.948   4.755  -2.196  0.00  0.00    -0.057 A 
ATOM      3  C3  UNL d   1       1.446   4.984  -3.485  0.00  0.00     0.033 A 
ATOM      4  C4  UNL d   1       1.357   3.994  -4.458  0.00  0.00    -0.042 A 
ATOM      5  C5  UNL d   1       0.767   2.776  -4.142  0.00  0.00     0.033 A 
ATOM      6  C6  UNL d   1       0.265   2.555  -2.855  0.00  0.00    -0.057 A 
ENDROOT
BRANCH   1   7
ATOM      7  N   UNL d   1      -0.100   3.220  -0.573  0.00  0.00    -0.732 N 
ATOM      8  C   UNL d   1       0.264   1.954   0.026  0.00  0.00     0.284 C 
ATOM      9  H3  UNL d   1      -0.048   4.012   0.064  0.00  0.00     0.395 HD
ENDBRANCH   1   7
TORSDOF 1
ENDMDL
