MODEL 1
REMARK minimizedAffinity -3.08646011
REMARK minimizedRMSD -1
REMARK  1 active torsions:
REMARK  status: ('A' for Active; 'I' for Inactive)
REMARK    1  A    between atoms: N_2  and  C1_3 
ROOT
ATOM      1  C1  UNL d   1      -0.049  -0.115   0.114  0.00  0.00     0.143 A 
ATOM      2  C2  UNL d   1       0.736  -0.105   1.272  0.00  0.00    -0.057 A 
ATOM      3  C3  UNL d   1       2.047  -0.596   1.264  0.00  0.00     0.033 A 
ATOM      4  C4  UNL d   1       2.588  -1.133   0.101  0.00  0.00    -0.042 A 
ATOM      5  C5  UNL d   1       1.817  -1.176  -1.055  0.00  0.00     0.033 A 
ATOM      6  C6  UNL d   1       0.511  -0.679  -1.043  0.00  0.00    -0.057 A 
ENDROOT
BRANCH   1   7
ATOM      7  N   UNL d   1      -1.393   0.268   0.082  0.00  0.00    -0.732 N 
ATOM      8  C   UNL d   1      -2.330  -0.249   1.056  0.00  0.00     0.284 C 
ATOM      9  H3  UNL d   1      -1.510   1.257  -0.123  0.00  0.00     0.395 HD
ENDBRANCH   1   7
TORSDOF 1
ENDMDL
