MODEL 1
REMARK minimizedAffinity -3.82254577
REMARK minimizedRMSD -1
REMARK  1 active torsions:
REMARK  status: ('A' for Active; 'I' for Inactive)
REMARK    1  A    between atoms: N_2  and  C1_3 
ROOT
ATOM      1  C1  UNL d   1      -0.112   1.089  -1.317  0.00  0.00     0.143 A 
ATOM      2  C2  UNL d   1      -1.066   0.099  -1.575  0.00  0.00    -0.057 A 
ATOM      3  C3  UNL d   1      -1.673  -0.613  -0.534  0.00  0.00     0.033 A 
ATOM      4  C4  UNL d   1      -1.315  -0.366   0.787  0.00  0.00    -0.042 A 
ATOM      5  C5  UNL d   1      -0.350   0.596   1.066  0.00  0.00     0.033 A 
ATOM      6  C6  UNL d   1       0.248   1.308   0.022  0.00  0.00    -0.057 A 
ENDROOT
BRANCH   1   7
ATOM      7  N   UNL d   1       0.600   1.762  -2.314  0.00  0.00    -0.732 N 
ATOM      8  C   UNL d   1       0.021   2.903  -2.990  0.00  0.00     0.284 C 
ATOM      9  H3  UNL d   1       1.584   1.872  -2.081  0.00  0.00     0.395 HD
ENDBRANCH   1   7
TORSDOF 1
ENDMDL
