MODEL 1
REMARK minimizedAffinity -1.51364851
REMARK minimizedRMSD -1
REMARK  1 active torsions:
REMARK  status: ('A' for Active; 'I' for Inactive)
REMARK    1  A    between atoms: N_2  and  C1_3 
ROOT
ATOM      1  C1  UNL d   1       0.050  -0.071  -0.336  0.00  0.00     0.143 A 
ATOM      2  C2  UNL d   1      -0.518   0.030   0.938  0.00  0.00    -0.057 A 
ATOM      3  C3  UNL d   1       0.066  -0.596   2.045  0.00  0.00     0.033 A 
ATOM      4  C4  UNL d   1       1.218  -1.361   1.892  0.00  0.00    -0.042 A 
ATOM      5  C5  UNL d   1       1.786  -1.496   0.630  0.00  0.00     0.033 A 
ATOM      6  C6  UNL d   1       1.202  -0.862  -0.471  0.00  0.00    -0.057 A 
ENDROOT
BRANCH   1   7
ATOM      7  N   UNL d   1      -0.537   0.447  -1.493  0.00  0.00    -0.732 N 
ATOM      8  C   UNL d   1      -0.523   1.871  -1.754  0.00  0.00     0.284 C 
ATOM      9  H3  UNL d   1      -0.353  -0.127  -2.313  0.00  0.00     0.395 HD
ENDBRANCH   1   7
TORSDOF 1
ENDMDL
