MODEL 1
REMARK minimizedAffinity -3.14398742
REMARK minimizedRMSD -1
REMARK  1 active torsions:
REMARK  status: ('A' for Active; 'I' for Inactive)
REMARK    1  A    between atoms: N_2  and  C1_3 
ROOT
ATOM      1  C1  UNL d   1      -0.313   1.746  -0.775  0.00  0.00     0.143 A 
ATOM      2  C2  UNL d   1      -0.400   1.771   0.621  0.00  0.00    -0.057 A 
ATOM      3  C3  UNL d   1      -0.375   0.589   1.371  0.00  0.00     0.033 A 
ATOM      4  C4  UNL d   1      -0.291  -0.645   0.734  0.00  0.00    -0.042 A 
ATOM      5  C5  UNL d   1      -0.228  -0.695  -0.654  0.00  0.00     0.033 A 
ATOM      6  C6  UNL d   1      -0.247   0.489  -1.397  0.00  0.00    -0.057 A 
ENDROOT
BRANCH   1   7
ATOM      7  N   UNL d   1      -0.432   2.880  -1.582  0.00  0.00    -0.732 N 
ATOM      8  C   UNL d   1      -1.163   2.823  -2.830  0.00  0.00     0.284 C 
ATOM      9  H3  UNL d   1      -0.597   3.726  -1.041  0.00  0.00     0.395 HD
ENDBRANCH   1   7
TORSDOF 1
ENDMDL
