MODEL 1
REMARK minimizedAffinity -0.364182204
REMARK minimizedRMSD -1
REMARK  1 active torsions:
REMARK  status: ('A' for Active; 'I' for Inactive)
REMARK    1  A    between atoms: N_2  and  C1_3 
ROOT
ATOM      1  C1  UNL d   1      -0.755   1.770  -1.570  0.00  0.00     0.143 A 
ATOM      2  C2  UNL d   1       0.625   1.540  -1.566  0.00  0.00    -0.057 A 
ATOM      3  C3  UNL d   1       1.177   0.446  -0.887  0.00  0.00     0.033 A 
ATOM      4  C4  UNL d   1       0.358  -0.422  -0.173  0.00  0.00    -0.042 A 
ATOM      5  C5  UNL d   1      -1.014  -0.198  -0.142  0.00  0.00     0.033 A 
ATOM      6  C6  UNL d   1      -1.560   0.892  -0.827  0.00  0.00    -0.057 A 
ENDROOT
BRANCH   1   7
ATOM      7  N   UNL d   1      -1.354   2.894  -2.143  0.00  0.00    -0.732 N 
ATOM      8  C   UNL d   1      -2.520   2.757  -2.990  0.00  0.00     0.284 C 
ATOM      9  H3  UNL d   1      -1.398   3.682  -1.501  0.00  0.00     0.395 HD
ENDBRANCH   1   7
TORSDOF 1
ENDMDL
