MODEL 1
REMARK minimizedAffinity -1.54326379
REMARK minimizedRMSD -1
REMARK  1 active torsions:
REMARK  status: ('A' for Active; 'I' for Inactive)
REMARK    1  A    between atoms: N_2  and  C1_3 
ROOT
ATOM      1  C1  UNL d   1      -0.020   0.601  -1.453  0.00  0.00     0.143 A 
ATOM      2  C2  UNL d   1       0.740  -0.556  -1.654  0.00  0.00    -0.057 A 
ATOM      3  C3  UNL d   1       1.321  -1.239  -0.578  0.00  0.00     0.033 A 
ATOM      4  C4  UNL d   1       1.175  -0.757   0.719  0.00  0.00    -0.042 A 
ATOM      5  C5  UNL d   1       0.445   0.405   0.939  0.00  0.00     0.033 A 
ATOM      6  C6  UNL d   1      -0.138   1.079  -0.138  0.00  0.00    -0.057 A 
ENDROOT
BRANCH   1   7
ATOM      7  N   UNL d   1      -0.540   1.380  -2.490  0.00  0.00    -0.732 N 
ATOM      8  C   UNL d   1      -0.412   2.821  -2.466  0.00  0.00     0.284 C 
ATOM      9  H3  UNL d   1      -0.382   0.963  -3.405  0.00  0.00     0.395 HD
ENDBRANCH   1   7
TORSDOF 1
ENDMDL
