MODEL 1
REMARK minimizedAffinity -4.03321648
REMARK minimizedRMSD -1
REMARK  3 active torsions:
REMARK  status: ('A' for Active; 'I' for Inactive)
REMARK    1  A    between atoms: C3'_2  and  C2'_3 
REMARK    2  A    between atoms: C2'_3  and  C1'_4 
REMARK    3  A    between atoms: C1'_4  and  C1_5 
ROOT
ATOM      1  C1  N4B d   1       0.202  -0.118   0.206  0.00  0.00    -0.075 A 
ATOM      2  C2  N4B d   1       0.273   1.284   0.053  0.00  0.00     0.002 A 
ATOM      3  C3  N4B d   1       1.107   1.830  -0.892  0.00  0.00     0.002 A 
ATOM      4  C4  N4B d   1       1.891   0.999  -1.678  0.00  0.00    -0.004 A 
ATOM      5  C5  N4B d   1       1.798  -0.355  -1.541  0.00  0.00     0.002 A 
ATOM      6  C6  N4B d   1       0.961  -0.918  -0.599  0.00  0.00     0.002 A 
ENDROOT
BRANCH   1   7
ATOM      7  C1' N4B d   1      -0.631  -0.759   1.282  0.00  0.00     0.057 C 
BRANCH   7   8
ATOM      8  C2' N4B d   1      -1.719   0.217   1.720  0.00  0.00     0.009 C 
BRANCH   8   9
ATOM      9  C3' N4B d   1      -3.087  -0.184   1.194  0.00  0.00     0.004 C 
ATOM     10  C4' N4B d   1      -4.083   0.935   1.254  0.00  0.00     0.003 C 
ENDBRANCH   8   9
ENDBRANCH   7   8
ENDBRANCH   1   7
TORSDOF 3
ENDMDL
