MODEL 1
REMARK minimizedAffinity -3.83003831
REMARK minimizedRMSD -1
REMARK  3 active torsions:
REMARK  status: ('A' for Active; 'I' for Inactive)
REMARK    1  A    between atoms: C3'_2  and  C2'_3 
REMARK    2  A    between atoms: C2'_3  and  C1'_4 
REMARK    3  A    between atoms: C1'_4  and  C1_5 
ROOT
ATOM      1  C1  N4B d   1      -3.615   1.827   3.123  0.00  0.00    -0.075 A 
ATOM      2  C2  N4B d   1      -4.384   1.693   1.947  0.00  0.00     0.002 A 
ATOM      3  C3  N4B d   1      -4.264   0.566   1.172  0.00  0.00     0.002 A 
ATOM      4  C4  N4B d   1      -3.370  -0.428   1.543  0.00  0.00    -0.004 A 
ATOM      5  C5  N4B d   1      -2.649  -0.303   2.694  0.00  0.00     0.002 A 
ATOM      6  C6  N4B d   1      -2.763   0.824   3.484  0.00  0.00     0.002 A 
ENDROOT
BRANCH   1   7
ATOM      7  C1' N4B d   1      -3.649   3.080   3.956  0.00  0.00     0.057 C 
BRANCH   7   8
ATOM      8  C2' N4B d   1      -2.412   3.122   4.848  0.00  0.00     0.009 C 
BRANCH   8   9
ATOM      9  C3' N4B d   1      -2.572   4.104   5.996  0.00  0.00     0.004 C 
ATOM     10  C4' N4B d   1      -1.518   5.170   6.000  0.00  0.00     0.003 C 
ENDBRANCH   8   9
ENDBRANCH   7   8
ENDBRANCH   1   7
TORSDOF 3
ENDMDL
