MODEL 1
REMARK minimizedAffinity -4.93939114
REMARK minimizedRMSD -1
REMARK  3 active torsions:
REMARK  status: ('A' for Active; 'I' for Inactive)
REMARK    1  A    between atoms: C3'_2  and  C2'_3 
REMARK    2  A    between atoms: C2'_3  and  C1'_4 
REMARK    3  A    between atoms: C1'_4  and  C1_5 
ROOT
ATOM      1  C1  N4B d   1       0.441   0.335  -0.233  0.00  0.00    -0.075 A 
ATOM      2  C2  N4B d   1       1.738   0.726  -0.631  0.00  0.00     0.002 A 
ATOM      3  C3  N4B d   1       2.077   0.728  -1.962  0.00  0.00     0.002 A 
ATOM      4  C4  N4B d   1       1.145   0.326  -2.907  0.00  0.00    -0.004 A 
ATOM      5  C5  N4B d   1      -0.114  -0.026  -2.517  0.00  0.00     0.002 A 
ATOM      6  C6  N4B d   1      -0.469  -0.029  -1.183  0.00  0.00     0.002 A 
ENDROOT
BRANCH   1   7
ATOM      7  C1' N4B d   1       0.052   0.235   1.216  0.00  0.00     0.057 C 
BRANCH   7   8
ATOM      8  C2' N4B d   1      -1.428  -0.125   1.314  0.00  0.00     0.009 C 
BRANCH   8   9
ATOM      9  C3' N4B d   1      -2.154   0.732   2.337  0.00  0.00     0.004 C 
ATOM     10  C4' N4B d   1      -3.639   0.752   2.127  0.00  0.00     0.003 C 
ENDBRANCH   8   9
ENDBRANCH   7   8
ENDBRANCH   1   7
TORSDOF 3
ENDMDL
