MODEL 1
REMARK minimizedAffinity -3.18511152
REMARK minimizedRMSD -1
REMARK  3 active torsions:
REMARK  status: ('A' for Active; 'I' for Inactive)
REMARK    1  A    between atoms: C3'_2  and  C2'_3 
REMARK    2  A    between atoms: C2'_3  and  C1'_4 
REMARK    3  A    between atoms: C1'_4  and  C1_5 
ROOT
ATOM      1  C1  N4B d   1      -1.389  -0.009   0.808  0.00  0.00    -0.075 A 
ATOM      2  C2  N4B d   1      -1.126   0.734   1.980  0.00  0.00     0.002 A 
ATOM      3  C3  N4B d   1      -2.164   1.295   2.684  0.00  0.00     0.002 A 
ATOM      4  C4  N4B d   1      -3.464   1.142   2.227  0.00  0.00    -0.004 A 
ATOM      5  C5  N4B d   1      -3.711   0.401   1.108  0.00  0.00     0.002 A 
ATOM      6  C6  N4B d   1      -2.679  -0.171   0.393  0.00  0.00     0.002 A 
ENDROOT
BRANCH   1   7
ATOM      7  C1' N4B d   1      -0.281  -0.569  -0.042  0.00  0.00     0.057 C 
BRANCH   7   8
ATOM      8  C2' N4B d   1       0.383   0.569  -0.812  0.00  0.00     0.009 C 
BRANCH   8   9
ATOM      9  C3' N4B d   1       1.496   0.070  -1.717  0.00  0.00     0.004 C 
ATOM     10  C4' N4B d   1       2.780   0.819  -1.526  0.00  0.00     0.003 C 
ENDBRANCH   8   9
ENDBRANCH   7   8
ENDBRANCH   1   7
TORSDOF 3
ENDMDL
