MODEL 1
REMARK minimizedAffinity 0.0464430116
REMARK minimizedRMSD -1
REMARK  3 active torsions:
REMARK  status: ('A' for Active; 'I' for Inactive)
REMARK    1  A    between atoms: C3'_2  and  C2'_3 
REMARK    2  A    between atoms: C2'_3  and  C1'_4 
REMARK    3  A    between atoms: C1'_4  and  C1_5 
ROOT
ATOM      1  C1  N4B d   1       1.878   1.634  -0.664  0.00  0.00    -0.075 A 
ATOM      2  C2  N4B d   1       2.501   0.594  -1.388  0.00  0.00     0.002 A 
ATOM      3  C3  N4B d   1       2.055  -0.698  -1.254  0.00  0.00     0.002 A 
ATOM      4  C4  N4B d   1       1.004  -0.975  -0.392  0.00  0.00    -0.004 A 
ATOM      5  C5  N4B d   1       0.391   0.039   0.284  0.00  0.00     0.002 A 
ATOM      6  C6  N4B d   1       0.826   1.343   0.156  0.00  0.00     0.002 A 
ENDROOT
BRANCH   1   7
ATOM      7  C1' N4B d   1       2.385   3.049  -0.712  0.00  0.00     0.057 C 
BRANCH   7   8
ATOM      8  C2' N4B d   1       1.938   3.785   0.547  0.00  0.00     0.009 C 
BRANCH   8   9
ATOM      9  C3' N4B d   1       2.218   5.276   0.464  0.00  0.00     0.004 C 
ATOM     10  C4' N4B d   1       2.601   5.719  -0.916  0.00  0.00     0.003 C 
ENDBRANCH   8   9
ENDBRANCH   7   8
ENDBRANCH   1   7
TORSDOF 3
ENDMDL
