MODEL 1
REMARK minimizedAffinity -4.5260253
REMARK minimizedRMSD -1
REMARK  3 active torsions:
REMARK  status: ('A' for Active; 'I' for Inactive)
REMARK    1  A    between atoms: C3'_2  and  C2'_3 
REMARK    2  A    between atoms: C2'_3  and  C1'_4 
REMARK    3  A    between atoms: C1'_4  and  C1_5 
ROOT
ATOM      1  C1  N4B d   1       0.452   0.170   0.161  0.00  0.00    -0.075 A 
ATOM      2  C2  N4B d   1       0.865  -1.123  -0.232  0.00  0.00     0.002 A 
ATOM      3  C3  N4B d   1       1.821  -1.272  -1.206  0.00  0.00     0.002 A 
ATOM      4  C4  N4B d   1       2.364  -0.148  -1.812  0.00  0.00    -0.004 A 
ATOM      5  C5  N4B d   1       1.979   1.097  -1.408  0.00  0.00     0.002 A 
ATOM      6  C6  N4B d   1       1.021   1.262  -0.428  0.00  0.00     0.002 A 
ENDROOT
BRANCH   1   7
ATOM      7  C1' N4B d   1      -0.652   0.381   1.161  0.00  0.00     0.057 C 
BRANCH   7   8
ATOM      8  C2' N4B d   1      -1.995   0.117   0.487  0.00  0.00     0.009 C 
BRANCH   8   9
ATOM      9  C3' N4B d   1      -3.163   0.427   1.407  0.00  0.00     0.004 C 
ATOM     10  C4' N4B d   1      -4.243   1.217   0.729  0.00  0.00     0.003 C 
ENDBRANCH   8   9
ENDBRANCH   7   8
ENDBRANCH   1   7
TORSDOF 3
ENDMDL
