MODEL 1
REMARK minimizedAffinity -3.7843492
REMARK minimizedRMSD -1
REMARK  3 active torsions:
REMARK  status: ('A' for Active; 'I' for Inactive)
REMARK    1  A    between atoms: C3'_2  and  C2'_3 
REMARK    2  A    between atoms: C2'_3  and  C1'_4 
REMARK    3  A    between atoms: C1'_4  and  C1_5 
ROOT
ATOM      1  C1  N4B d   1       0.209   0.354   0.013  0.00  0.00    -0.075 A 
ATOM      2  C2  N4B d   1       0.726  -0.842  -0.534  0.00  0.00     0.002 A 
ATOM      3  C3  N4B d   1       1.713  -0.791  -1.487  0.00  0.00     0.002 A 
ATOM      4  C4  N4B d   1       2.184   0.439  -1.921  0.00  0.00    -0.004 A 
ATOM      5  C5  N4B d   1       1.698   1.589  -1.370  0.00  0.00     0.002 A 
ATOM      6  C6  N4B d   1       0.709   1.552  -0.408  0.00  0.00     0.002 A 
ENDROOT
BRANCH   1   7
ATOM      7  C1' N4B d   1      -0.930   0.351   0.995  0.00  0.00     0.057 C 
BRANCH   7   8
ATOM      8  C2' N4B d   1      -2.210  -0.064   0.275  0.00  0.00     0.009 C 
BRANCH   8   9
ATOM      9  C3' N4B d   1      -3.448   0.219   1.109  0.00  0.00     0.004 C 
ATOM     10  C4' N4B d   1      -3.457   1.605   1.682  0.00  0.00     0.003 C 
ENDBRANCH   8   9
ENDBRANCH   7   8
ENDBRANCH   1   7
TORSDOF 3
ENDMDL
