MODEL 1
REMARK minimizedAffinity -3.72831821
REMARK minimizedRMSD -1
REMARK  3 active torsions:
REMARK  status: ('A' for Active; 'I' for Inactive)
REMARK    1  A    between atoms: C3'_2  and  C2'_3 
REMARK    2  A    between atoms: C2'_3  and  C1'_4 
REMARK    3  A    between atoms: C1'_4  and  C1_5 
ROOT
ATOM      1  C1  N4B d   1       1.093   0.899  -0.619  0.00  0.00    -0.075 A 
ATOM      2  C2  N4B d   1       2.402   0.443  -0.886  0.00  0.00     0.002 A 
ATOM      3  C3  N4B d   1       2.896   0.484  -2.167  0.00  0.00     0.002 A 
ATOM      4  C4  N4B d   1       2.095   0.956  -3.196  0.00  0.00    -0.004 A 
ATOM      5  C5  N4B d   1       0.840   1.418  -2.925  0.00  0.00     0.002 A 
ATOM      6  C6  N4B d   1       0.332   1.387  -1.642  0.00  0.00     0.002 A 
ENDROOT
BRANCH   1   7
ATOM      7  C1' N4B d   1       0.479   0.794   0.751  0.00  0.00     0.057 C 
BRANCH   7   8
ATOM      8  C2' N4B d   1      -0.630  -0.254   0.724  0.00  0.00     0.009 C 
BRANCH   8   9
ATOM      9  C3' N4B d   1      -1.362  -0.341   2.052  0.00  0.00     0.004 C 
ATOM     10  C4' N4B d   1      -2.700   0.334   2.023  0.00  0.00     0.003 C 
ENDBRANCH   8   9
ENDBRANCH   7   8
ENDBRANCH   1   7
TORSDOF 3
ENDMDL
