MODEL 1
REMARK minimizedAffinity -5.97370815
REMARK minimizedRMSD -1
REMARK  3 active torsions:
REMARK  status: ('A' for Active; 'I' for Inactive)
REMARK    1  A    between atoms: C3'_2  and  C2'_3 
REMARK    2  A    between atoms: C2'_3  and  C1'_4 
REMARK    3  A    between atoms: C1'_4  and  C1_5 
ROOT
ATOM      1  C1  N4B d   1      -1.189   0.050   0.494  0.00  0.00    -0.075 A 
ATOM      2  C2  N4B d   1      -1.191   0.329   1.878  0.00  0.00     0.002 A 
ATOM      3  C3  N4B d   1      -2.381   0.463   2.551  0.00  0.00     0.002 A 
ATOM      4  C4  N4B d   1      -3.577   0.342   1.859  0.00  0.00    -0.004 A 
ATOM      5  C5  N4B d   1      -3.567   0.047   0.527  0.00  0.00     0.002 A 
ATOM      6  C6  N4B d   1      -2.378  -0.094  -0.161  0.00  0.00     0.002 A 
ENDROOT
BRANCH   1   7
ATOM      7  C1' N4B d   1       0.086  -0.020  -0.301  0.00  0.00     0.057 C 
BRANCH   7   8
ATOM      8  C2' N4B d   1       0.963   1.177   0.054  0.00  0.00     0.009 C 
BRANCH   8   9
ATOM      9  C3' N4B d   1       1.939   1.517  -1.060  0.00  0.00     0.004 C 
ATOM     10  C4' N4B d   1       3.355   1.624  -0.579  0.00  0.00     0.003 C 
ENDBRANCH   8   9
ENDBRANCH   7   8
ENDBRANCH   1   7
TORSDOF 3
ENDMDL
