MODEL 1
REMARK minimizedAffinity 4.42511797
REMARK minimizedRMSD -1
REMARK  1 active torsions:
REMARK  status: ('A' for Active; 'I' for Inactive)
REMARK    1  A    between atoms: C3_4  and  O_7 
ROOT
ATOM      1  C   UNL d   1      -2.746  -0.937   1.774  0.00  0.00    -0.033 A 
ATOM      2  C1  UNL d   1      -2.744  -2.279   1.391  0.00  0.00     0.039 A 
ATOM      3  C2  UNL d   1      -1.569  -3.029   1.474  0.00  0.00    -0.080 A 
ATOM      4  C3  UNL d   1      -0.405  -2.425   1.942  0.00  0.00     0.150 A 
ATOM      5  C4  UNL d   1      -0.401  -1.089   2.329  0.00  0.00    -0.007 A 
ATOM      6  C5  UNL d   1      -1.575  -0.342   2.245  0.00  0.00     0.039 A 
ENDROOT
BRANCH   4   7
ATOM      7  O   UNL d   1       0.767  -3.115   2.037  0.00  0.00    -0.526 OA
ATOM      8  H5  UNL d   1       0.620  -4.018   1.708  0.00  0.00     0.418 HD
ENDBRANCH   4   7
TORSDOF 1
ENDMDL
