MODEL 1
REMARK minimizedAffinity 3.17420793
REMARK minimizedRMSD -1
REMARK  1 active torsions:
REMARK  status: ('A' for Active; 'I' for Inactive)
REMARK    1  A    between atoms: C3_4  and  O_7 
ROOT
ATOM      1  C   UNL d   1      -5.996   2.641   5.249  0.00  0.00    -0.033 A 
ATOM      2  C1  UNL d   1      -5.981   1.902   4.064  0.00  0.00     0.039 A 
ATOM      3  C2  UNL d   1      -4.780   1.374   3.584  0.00  0.00    -0.080 A 
ATOM      4  C3  UNL d   1      -3.605   1.592   4.298  0.00  0.00     0.150 A 
ATOM      5  C4  UNL d   1      -3.614   2.325   5.480  0.00  0.00    -0.007 A 
ATOM      6  C5  UNL d   1      -4.813   2.851   5.957  0.00  0.00     0.039 A 
ENDROOT
BRANCH   4   7
ATOM      7  O   UNL d   1      -2.408   1.102   3.866  0.00  0.00    -0.526 OA
ATOM      8  H5  UNL d   1      -2.550   0.642   3.022  0.00  0.00     0.418 HD
ENDBRANCH   4   7
TORSDOF 1
ENDMDL
