MODEL 1
REMARK minimizedAffinity 2.12220311
REMARK minimizedRMSD -1
REMARK  1 active torsions:
REMARK  status: ('A' for Active; 'I' for Inactive)
REMARK    1  A    between atoms: C3_4  and  O_7 
ROOT
ATOM      1  C   UNL d   1      -1.979  -0.809   1.370  0.00  0.00    -0.033 A 
ATOM      2  C1  UNL d   1      -2.554   0.279   2.031  0.00  0.00     0.039 A 
ATOM      3  C2  UNL d   1      -2.197   0.564   3.350  0.00  0.00    -0.080 A 
ATOM      4  C3  UNL d   1      -1.265  -0.244   3.996  0.00  0.00     0.150 A 
ATOM      5  C4  UNL d   1      -0.687  -1.327   3.343  0.00  0.00    -0.007 A 
ATOM      6  C5  UNL d   1      -1.045  -1.611   2.026  0.00  0.00     0.039 A 
ENDROOT
BRANCH   4   7
ATOM      7  O   UNL d   1      -0.889  -0.008   5.285  0.00  0.00    -0.526 OA
ATOM      8  H5  UNL d   1      -1.392   0.755   5.618  0.00  0.00     0.418 HD
ENDBRANCH   4   7
TORSDOF 1
ENDMDL
