MODEL 1
REMARK minimizedAffinity 6.27395773
REMARK minimizedRMSD -1
REMARK  1 active torsions:
REMARK  status: ('A' for Active; 'I' for Inactive)
REMARK    1  A    between atoms: C3_4  and  O_7 
ROOT
ATOM      1  C   UNL d   1      -5.631   1.026   0.522  0.00  0.00    -0.033 A 
ATOM      2  C1  UNL d   1      -5.474  -0.357   0.408  0.00  0.00     0.039 A 
ATOM      3  C2  UNL d   1      -5.582  -0.973  -0.840  0.00  0.00    -0.080 A 
ATOM      4  C3  UNL d   1      -5.846  -0.196  -1.965  0.00  0.00     0.150 A 
ATOM      5  C4  UNL d   1      -6.000   1.182  -1.859  0.00  0.00    -0.007 A 
ATOM      6  C5  UNL d   1      -5.892   1.795  -0.612  0.00  0.00     0.039 A 
ENDROOT
BRANCH   4   7
ATOM      7  O   UNL d   1      -5.966  -0.753  -3.204  0.00  0.00    -0.526 OA
ATOM      8  H5  UNL d   1      -5.864  -1.716  -3.119  0.00  0.00     0.418 HD
ENDBRANCH   4   7
TORSDOF 1
ENDMDL
