MODEL 1
REMARK minimizedAffinity 8.57087708
REMARK minimizedRMSD -1
REMARK  1 active torsions:
REMARK  status: ('A' for Active; 'I' for Inactive)
REMARK    1  A    between atoms: C3_4  and  O_7 
ROOT
ATOM      1  C   UNL d   1      -1.503  -0.129   3.119  0.00  0.00    -0.033 A 
ATOM      2  C1  UNL d   1      -1.474   0.034   4.506  0.00  0.00     0.039 A 
ATOM      3  C2  UNL d   1      -2.438   0.821   5.138  0.00  0.00    -0.080 A 
ATOM      4  C3  UNL d   1      -3.426   1.437   4.375  0.00  0.00     0.150 A 
ATOM      5  C4  UNL d   1      -3.464   1.275   2.994  0.00  0.00    -0.007 A 
ATOM      6  C5  UNL d   1      -2.499   0.490   2.364  0.00  0.00     0.039 A 
ENDROOT
BRANCH   4   7
ATOM      7  O   UNL d   1      -4.386   2.217   4.947  0.00  0.00    -0.526 OA
ATOM      8  H5  UNL d   1      -4.217   2.261   5.903  0.00  0.00     0.418 HD
ENDBRANCH   4   7
TORSDOF 1
ENDMDL
