MODEL 1
REMARK minimizedAffinity 7.42283106
REMARK minimizedRMSD -1
REMARK  1 active torsions:
REMARK  status: ('A' for Active; 'I' for Inactive)
REMARK    1  A    between atoms: C3_4  and  O_7 
ROOT
ATOM      1  C   UNL d   1      -1.909   0.300   3.598  0.00  0.00    -0.033 A 
ATOM      2  C1  UNL d   1      -1.811   0.394   4.987  0.00  0.00     0.039 A 
ATOM      3  C2  UNL d   1      -2.700   1.204   5.698  0.00  0.00    -0.080 A 
ATOM      4  C3  UNL d   1      -3.680   1.912   5.008  0.00  0.00     0.150 A 
ATOM      5  C4  UNL d   1      -3.785   1.820   3.624  0.00  0.00    -0.007 A 
ATOM      6  C5  UNL d   1      -2.896   1.011   2.916  0.00  0.00     0.039 A 
ENDROOT
BRANCH   4   7
ATOM      7  O   UNL d   1      -4.566   2.719   5.657  0.00  0.00    -0.526 OA
ATOM      8  H5  UNL d   1      -4.355   2.707   6.606  0.00  0.00     0.418 HD
ENDBRANCH   4   7
TORSDOF 1
ENDMDL
