MODEL 1
REMARK minimizedAffinity 7.16094685
REMARK minimizedRMSD -1
REMARK  1 active torsions:
REMARK  status: ('A' for Active; 'I' for Inactive)
REMARK    1  A    between atoms: C3_4  and  O_7 
ROOT
ATOM      1  C   UNL d   1      -3.057   1.923   5.249  0.00  0.00    -0.033 A 
ATOM      2  C1  UNL d   1      -3.543   1.976   3.941  0.00  0.00     0.039 A 
ATOM      3  C2  UNL d   1      -2.930   1.227   2.935  0.00  0.00    -0.080 A 
ATOM      4  C3  UNL d   1      -1.833   0.429   3.250  0.00  0.00     0.150 A 
ATOM      5  C4  UNL d   1      -1.346   0.369   4.552  0.00  0.00    -0.007 A 
ATOM      6  C5  UNL d   1      -1.959   1.118   5.554  0.00  0.00     0.039 A 
ENDROOT
BRANCH   4   7
ATOM      7  O   UNL d   1      -1.198  -0.316   2.301  0.00  0.00    -0.526 OA
ATOM      8  H5  UNL d   1      -1.626  -0.152   1.444  0.00  0.00     0.418 HD
ENDBRANCH   4   7
TORSDOF 1
ENDMDL
