MODEL 1
REMARK minimizedAffinity 8.46774864
REMARK minimizedRMSD -1
REMARK  1 active torsions:
REMARK  status: ('A' for Active; 'I' for Inactive)
REMARK    1  A    between atoms: C3_4  and  O_7 
ROOT
ATOM      1  C   UNL d   1       0.451  -4.634  -3.780  0.00  0.00    -0.033 A 
ATOM      2  C1  UNL d   1      -0.213  -4.174  -2.641  0.00  0.00     0.039 A 
ATOM      3  C2  UNL d   1      -1.503  -4.625  -2.354  0.00  0.00    -0.080 A 
ATOM      4  C3  UNL d   1      -2.116  -5.535  -3.211  0.00  0.00     0.150 A 
ATOM      5  C4  UNL d   1      -1.459  -6.000  -4.345  0.00  0.00    -0.007 A 
ATOM      6  C5  UNL d   1      -0.171  -5.548  -4.631  0.00  0.00     0.039 A 
ENDROOT
BRANCH   4   7
ATOM      7  O   UNL d   1      -3.376  -5.999  -2.974  0.00  0.00    -0.526 OA
ATOM      8  H5  UNL d   1      -3.717  -5.569  -2.172  0.00  0.00     0.418 HD
ENDBRANCH   4   7
TORSDOF 1
ENDMDL
