MODEL 1
REMARK minimizedAffinity 14.8059416
REMARK minimizedRMSD -1
REMARK  1 active torsions:
REMARK  status: ('A' for Active; 'I' for Inactive)
REMARK    1  A    between atoms: C3_4  and  O_7 
ROOT
ATOM      1  C   UNL d   1      -0.295  -2.016   1.328  0.00  0.00    -0.033 A 
ATOM      2  C1  UNL d   1      -1.688  -1.933   1.386  0.00  0.00     0.039 A 
ATOM      3  C2  UNL d   1      -2.299  -0.956   2.174  0.00  0.00    -0.080 A 
ATOM      4  C3  UNL d   1      -1.507  -0.068   2.897  0.00  0.00     0.150 A 
ATOM      5  C4  UNL d   1      -0.119  -0.141   2.840  0.00  0.00    -0.007 A 
ATOM      6  C5  UNL d   1       0.489  -1.119   2.054  0.00  0.00     0.039 A 
ENDROOT
BRANCH   4   7
ATOM      7  O   UNL d   1      -2.057   0.900   3.683  0.00  0.00    -0.526 OA
ATOM      8  H5  UNL d   1      -3.025   0.813   3.647  0.00  0.00     0.418 HD
ENDBRANCH   4   7
TORSDOF 1
ENDMDL
