MODEL 1
REMARK minimizedAffinity 9.99572945
REMARK minimizedRMSD -1
REMARK  1 active torsions:
REMARK  status: ('A' for Active; 'I' for Inactive)
REMARK    1  A    between atoms: C3_4  and  O_7 
ROOT
ATOM      1  C   UNL d   1       5.988   4.802   0.307  0.00  0.00    -0.033 A 
ATOM      2  C1  UNL d   1       5.991   3.558  -0.326  0.00  0.00     0.039 A 
ATOM      3  C2  UNL d   1       5.949   3.482  -1.720  0.00  0.00    -0.080 A 
ATOM      4  C3  UNL d   1       5.906   4.656  -2.467  0.00  0.00     0.150 A 
ATOM      5  C4  UNL d   1       5.906   5.899  -1.843  0.00  0.00    -0.007 A 
ATOM      6  C5  UNL d   1       5.948   5.973  -0.451  0.00  0.00     0.039 A 
ENDROOT
BRANCH   4   7
ATOM      7  O   UNL d   1       5.859   4.632  -3.829  0.00  0.00    -0.526 OA
ATOM      8  H5  UNL d   1       5.835   3.705  -4.120  0.00  0.00     0.418 HD
ENDBRANCH   4   7
TORSDOF 1
ENDMDL
