MODEL 1
REMARK minimizedAffinity 3.51381779
REMARK minimizedRMSD -1
REMARK  1 active torsions:
REMARK  status: ('A' for Active; 'I' for Inactive)
REMARK    1  A    between atoms: C3_4  and  O_7 
ROOT
ATOM      1  C   UNL d   1      -2.549  -5.465  -4.120  0.00  0.00    -0.033 A 
ATOM      2  C1  UNL d   1      -1.984  -6.000  -5.279  0.00  0.00     0.039 A 
ATOM      3  C2  UNL d   1      -0.600  -5.965  -5.463  0.00  0.00    -0.080 A 
ATOM      4  C3  UNL d   1       0.206  -5.395  -4.481  0.00  0.00     0.150 A 
ATOM      5  C4  UNL d   1      -0.351  -4.864  -3.322  0.00  0.00    -0.007 A 
ATOM      6  C5  UNL d   1      -1.733  -4.898  -3.141  0.00  0.00     0.039 A 
ENDROOT
BRANCH   4   7
ATOM      7  O   UNL d   1       1.561  -5.334  -4.618  0.00  0.00    -0.526 OA
ATOM      8  H5  UNL d   1       1.800  -5.713  -5.480  0.00  0.00     0.418 HD
ENDBRANCH   4   7
TORSDOF 1
ENDMDL
