MODEL 1
REMARK minimizedAffinity 3.61489916
REMARK minimizedRMSD -1
REMARK  1 active torsions:
REMARK  status: ('A' for Active; 'I' for Inactive)
REMARK    1  A    between atoms: C3_4  and  O_7 
ROOT
ATOM      1  C   UNL d   1      -0.077  -2.547   2.260  0.00  0.00    -0.033 A 
ATOM      2  C1  UNL d   1      -0.750  -1.361   1.959  0.00  0.00     0.039 A 
ATOM      3  C2  UNL d   1      -0.773  -0.315   2.884  0.00  0.00    -0.080 A 
ATOM      4  C3  UNL d   1      -0.121  -0.468   4.104  0.00  0.00     0.150 A 
ATOM      5  C4  UNL d   1       0.554  -1.645   4.409  0.00  0.00    -0.007 A 
ATOM      6  C5  UNL d   1       0.576  -2.689   3.485  0.00  0.00     0.039 A 
ENDROOT
BRANCH   4   7
ATOM      7  O   UNL d   1      -0.120   0.523   5.041  0.00  0.00    -0.526 OA
ATOM      8  H5  UNL d   1      -0.649   1.265   4.704  0.00  0.00     0.418 HD
ENDBRANCH   4   7
TORSDOF 1
ENDMDL
