MODEL 1
REMARK minimizedAffinity 0.970540702
REMARK minimizedRMSD -1
REMARK  1 active torsions:
REMARK  status: ('A' for Active; 'I' for Inactive)
REMARK    1  A    between atoms: C3_4  and  O_7 
ROOT
ATOM      1  C   UNL d   1      -2.634  -5.998  -3.185  0.00  0.00    -0.033 A 
ATOM      2  C1  UNL d   1      -2.059  -6.000  -4.458  0.00  0.00     0.039 A 
ATOM      3  C2  UNL d   1      -0.724  -5.625  -4.623  0.00  0.00    -0.080 A 
ATOM      4  C3  UNL d   1       0.024  -5.253  -3.509  0.00  0.00     0.150 A 
ATOM      5  C4  UNL d   1      -0.542  -5.252  -2.239  0.00  0.00    -0.007 A 
ATOM      6  C5  UNL d   1      -1.875  -5.625  -2.076  0.00  0.00     0.039 A 
ENDROOT
BRANCH   4   7
ATOM      7  O   UNL d   1       1.329  -4.875  -3.622  0.00  0.00    -0.526 OA
ATOM      8  H5  UNL d   1       1.575  -4.896  -4.561  0.00  0.00     0.418 HD
ENDBRANCH   4   7
TORSDOF 1
ENDMDL
