MODEL 1
REMARK minimizedAffinity 10.060708
REMARK minimizedRMSD -1
REMARK  1 active torsions:
REMARK  status: ('A' for Active; 'I' for Inactive)
REMARK    1  A    between atoms: C3_4  and  O_7 
ROOT
ATOM      1  C   UNL d   1      -1.882  -1.169   1.250  0.00  0.00    -0.033 A 
ATOM      2  C1  UNL d   1      -3.050  -0.583   1.742  0.00  0.00     0.039 A 
ATOM      3  C2  UNL d   1      -2.987   0.311   2.813  0.00  0.00    -0.080 A 
ATOM      4  C3  UNL d   1      -1.752   0.612   3.381  0.00  0.00     0.150 A 
ATOM      5  C4  UNL d   1      -0.584   0.035   2.893  0.00  0.00    -0.007 A 
ATOM      6  C5  UNL d   1      -0.649  -0.859   1.825  0.00  0.00     0.039 A 
ENDROOT
BRANCH   4   7
ATOM      7  O   UNL d   1      -1.641   1.475   4.430  0.00  0.00    -0.526 OA
ATOM      8  H5  UNL d   1      -2.532   1.773   4.679  0.00  0.00     0.418 HD
ENDBRANCH   4   7
TORSDOF 1
ENDMDL
