MODEL 1
REMARK minimizedAffinity -2.32674551
REMARK minimizedRMSD -1
REMARK  0 active torsions:
REMARK  status: ('A' for Active; 'I' for Inactive)
ROOT
ATOM      1  C   UNL d   1      -5.981   4.851  -0.884  0.00  0.00     0.077 C 
ATOM      2  C1  UNL d   1      -5.338   3.840   0.018  0.00  0.00    -0.074 A 
ATOM      3  C2  UNL d   1      -6.000   3.366   1.156  0.00  0.00    -0.005 A 
ATOM      4  C3  UNL d   1      -5.393   2.419   1.980  0.00  0.00     0.006 A 
ATOM      5  C4  UNL d   1      -4.119   1.937   1.676  0.00  0.00    -0.005 A 
ATOM      6  C5  UNL d   1      -3.442   2.398   0.543  0.00  0.00    -0.074 A 
ATOM      7  C6  UNL d   1      -2.076   1.883   0.196  0.00  0.00     0.077 C 
ATOM      8  C7  UNL d   1      -4.062   3.345  -0.284  0.00  0.00    -0.001 A 
ENDROOT
TORSDOF 0
ENDMDL
