MODEL 1
REMARK minimizedAffinity 8.41953754
REMARK minimizedRMSD -1
REMARK  0 active torsions:
REMARK  status: ('A' for Active; 'I' for Inactive)
ROOT
ATOM      1  C   UNL d   1       0.625  -2.109   3.925  0.00  0.00     0.077 C 
ATOM      2  C1  UNL d   1       0.945  -2.164   2.460  0.00  0.00    -0.074 A 
ATOM      3  C2  UNL d   1       1.353  -1.018   1.770  0.00  0.00    -0.005 A 
ATOM      4  C3  UNL d   1       1.657  -1.086   0.411  0.00  0.00     0.006 A 
ATOM      5  C4  UNL d   1       1.556  -2.299  -0.272  0.00  0.00    -0.005 A 
ATOM      6  C5  UNL d   1       1.150  -3.456   0.402  0.00  0.00    -0.074 A 
ATOM      7  C6  UNL d   1       1.045  -4.770  -0.314  0.00  0.00     0.077 C 
ATOM      8  C7  UNL d   1       0.853  -3.380   1.770  0.00  0.00    -0.001 A 
ENDROOT
TORSDOF 0
ENDMDL
