MODEL 1
REMARK minimizedAffinity 6.35874462
REMARK minimizedRMSD -1
REMARK  0 active torsions:
REMARK  status: ('A' for Active; 'I' for Inactive)
ROOT
ATOM      1  C   UNL d   1       2.569  -0.558   1.519  0.00  0.00     0.077 C 
ATOM      2  C1  UNL d   1       1.752  -1.811   1.635  0.00  0.00    -0.074 A 
ATOM      3  C2  UNL d   1       0.975  -2.060   2.771  0.00  0.00    -0.005 A 
ATOM      4  C3  UNL d   1       0.213  -3.225   2.860  0.00  0.00     0.006 A 
ATOM      5  C4  UNL d   1       0.220  -4.151   1.816  0.00  0.00    -0.005 A 
ATOM      6  C5  UNL d   1       0.991  -3.919   0.672  0.00  0.00    -0.074 A 
ATOM      7  C6  UNL d   1       1.002  -4.899  -0.463  0.00  0.00     0.077 C 
ATOM      8  C7  UNL d   1       1.748  -2.742   0.587  0.00  0.00    -0.001 A 
ENDROOT
TORSDOF 0
ENDMDL
