MODEL 1
REMARK minimizedAffinity 4.41918039
REMARK minimizedRMSD -1
REMARK  0 active torsions:
REMARK  status: ('A' for Active; 'I' for Inactive)
ROOT
ATOM      1  C   UNL d   1       1.473  -0.987   1.947  0.00  0.00     0.077 C 
ATOM      2  C1  UNL d   1       1.865  -1.936   3.040  0.00  0.00    -0.074 A 
ATOM      3  C2  UNL d   1       2.093  -1.478   4.342  0.00  0.00    -0.005 A 
ATOM      4  C3  UNL d   1       2.447  -2.373   5.351  0.00  0.00     0.006 A 
ATOM      5  C4  UNL d   1       2.576  -3.734   5.069  0.00  0.00    -0.005 A 
ATOM      6  C5  UNL d   1       2.350  -4.211   3.774  0.00  0.00    -0.074 A 
ATOM      7  C6  UNL d   1       2.475  -5.671   3.456  0.00  0.00     0.077 C 
ATOM      8  C7  UNL d   1       1.988  -3.305   2.767  0.00  0.00    -0.001 A 
ENDROOT
TORSDOF 0
ENDMDL
