MODEL 1
REMARK minimizedAffinity 8.15060329
REMARK minimizedRMSD -1
REMARK  0 active torsions:
REMARK  status: ('A' for Active; 'I' for Inactive)
ROOT
ATOM      1  C   UNL d   1       0.983   1.835   2.969  0.00  0.00     0.077 C 
ATOM      2  C1  UNL d   1       0.969   0.347   3.162  0.00  0.00    -0.074 A 
ATOM      3  C2  UNL d   1       0.720  -0.213   4.419  0.00  0.00    -0.005 A 
ATOM      4  C3  UNL d   1       0.700  -1.598   4.581  0.00  0.00     0.006 A 
ATOM      5  C4  UNL d   1       0.929  -2.436   3.489  0.00  0.00    -0.005 A 
ATOM      6  C5  UNL d   1       1.179  -1.894   2.224  0.00  0.00    -0.074 A 
ATOM      7  C6  UNL d   1       1.417  -2.781   1.038  0.00  0.00     0.077 C 
ATOM      8  C7  UNL d   1       1.190  -0.501   2.068  0.00  0.00    -0.001 A 
ENDROOT
TORSDOF 0
ENDMDL
