MODEL 1
REMARK minimizedAffinity 2.47603345
REMARK minimizedRMSD -1
REMARK  0 active torsions:
REMARK  status: ('A' for Active; 'I' for Inactive)
ROOT
ATOM      1  C   UNL d   1      -2.952   3.029   1.165  0.00  0.00     0.077 C 
ATOM      2  C1  UNL d   1      -2.682   2.167  -0.033  0.00  0.00    -0.074 A 
ATOM      3  C2  UNL d   1      -1.665   1.207  -0.013  0.00  0.00    -0.005 A 
ATOM      4  C3  UNL d   1      -1.432   0.407  -1.132  0.00  0.00     0.006 A 
ATOM      5  C4  UNL d   1      -2.212   0.558  -2.279  0.00  0.00    -0.005 A 
ATOM      6  C5  UNL d   1      -3.234   1.512  -2.316  0.00  0.00    -0.074 A 
ATOM      7  C6  UNL d   1      -4.089   1.680  -3.537  0.00  0.00     0.077 C 
ATOM      8  C7  UNL d   1      -3.467   2.308  -1.186  0.00  0.00    -0.001 A 
ENDROOT
TORSDOF 0
ENDMDL
