MODEL 1
REMARK minimizedAffinity -1.20968461
REMARK minimizedRMSD -1
REMARK  0 active torsions:
REMARK  status: ('A' for Active; 'I' for Inactive)
ROOT
ATOM      1  C   UNL d   1       5.698  -3.321   2.555  0.00  0.00     0.077 C 
ATOM      2  C1  UNL d   1       4.259  -3.505   2.938  0.00  0.00    -0.074 A 
ATOM      3  C2  UNL d   1       3.838  -4.647   3.626  0.00  0.00    -0.005 A 
ATOM      4  C3  UNL d   1       2.499  -4.799   3.984  0.00  0.00     0.006 A 
ATOM      5  C4  UNL d   1       1.568  -3.812   3.657  0.00  0.00    -0.005 A 
ATOM      6  C5  UNL d   1       1.970  -2.663   2.969  0.00  0.00    -0.074 A 
ATOM      7  C6  UNL d   1       0.985  -1.588   2.618  0.00  0.00     0.077 C 
ATOM      8  C7  UNL d   1       3.319  -2.514   2.619  0.00  0.00    -0.001 A 
ENDROOT
TORSDOF 0
ENDMDL
