MODEL 1
REMARK minimizedAffinity 8.84188747
REMARK minimizedRMSD -1
REMARK  0 active torsions:
REMARK  status: ('A' for Active; 'I' for Inactive)
ROOT
ATOM      1  C   UNL d   1      -5.265  -2.012  -5.845  0.00  0.00     0.077 C 
ATOM      2  C1  UNL d   1      -5.330  -3.403  -5.287  0.00  0.00    -0.074 A 
ATOM      3  C2  UNL d   1      -5.955  -4.433  -5.997  0.00  0.00    -0.005 A 
ATOM      4  C3  UNL d   1      -6.000  -5.724  -5.470  0.00  0.00     0.006 A 
ATOM      5  C4  UNL d   1      -5.421  -5.997  -4.230  0.00  0.00    -0.005 A 
ATOM      6  C5  UNL d   1      -4.791  -4.980  -3.506  0.00  0.00    -0.074 A 
ATOM      7  C6  UNL d   1      -4.156  -5.258  -2.177  0.00  0.00     0.077 C 
ATOM      8  C7  UNL d   1      -4.744  -3.687  -4.046  0.00  0.00    -0.001 A 
ENDROOT
TORSDOF 0
ENDMDL
