MODEL 1
REMARK minimizedAffinity 3.75690889
REMARK minimizedRMSD -1
REMARK  0 active torsions:
REMARK  status: ('A' for Active; 'I' for Inactive)
ROOT
ATOM      1  C   UNL d   1       5.772  -2.821   2.326  0.00  0.00     0.077 C 
ATOM      2  C1  UNL d   1       4.407  -2.840   2.948  0.00  0.00    -0.074 A 
ATOM      3  C2  UNL d   1       4.208  -3.366   4.228  0.00  0.00    -0.005 A 
ATOM      4  C3  UNL d   1       2.935  -3.368   4.798  0.00  0.00     0.006 A 
ATOM      5  C4  UNL d   1       1.849  -2.844   4.094  0.00  0.00    -0.005 A 
ATOM      6  C5  UNL d   1       2.030  -2.313   2.813  0.00  0.00    -0.074 A 
ATOM      7  C6  UNL d   1       0.876  -1.737   2.047  0.00  0.00     0.077 C 
ATOM      8  C7  UNL d   1       3.313  -2.308   2.250  0.00  0.00    -0.001 A 
ENDROOT
TORSDOF 0
ENDMDL
