MODEL 1
REMARK minimizedAffinity 11.01406
REMARK minimizedRMSD -1
REMARK  2 active torsions:
REMARK  status: ('A' for Active; 'I' for Inactive)
REMARK    1  A    between atoms: C2'_3  and  C1'_4 
REMARK    2  A    between atoms: C1'_4  and  C1_5 
ROOT
ATOM      1  C1  I4B d   1       0.792  -2.166   2.167  0.00  0.00    -0.075 A 
ATOM      2  C2  I4B d   1       1.592  -1.163   1.679  0.00  0.00     0.003 A 
ATOM      3  C3  I4B d   1       2.672  -1.469   0.816  0.00  0.00     0.002 A 
ATOM      4  C4  I4B d   1       2.944  -2.786   0.509  0.00  0.00    -0.004 A 
ATOM      5  C5  I4B d   1       2.118  -3.800   0.986  0.00  0.00     0.002 A 
ATOM      6  C6  I4B d   1       1.028  -3.488   1.810  0.00  0.00     0.003 A 
ENDROOT
BRANCH   1   7
ATOM      7  C1' I4B d   1      -0.320  -1.811   3.102  0.00  0.00     0.060 C 
BRANCH   7   8
ATOM      8  C2' I4B d   1      -1.622  -2.263   2.473  0.00  0.00    -0.013 C 
ATOM      9  C4' I4B d   1      -2.148  -3.505   3.143  0.00  0.00     0.013 C 
ATOM     10  C3' I4B d   1      -2.604  -1.134   2.578  0.00  0.00     0.013 C 
ENDBRANCH   7   8
ENDBRANCH   1   7
TORSDOF 2
ENDMDL
