MODEL 1
REMARK minimizedAffinity 5.91656208
REMARK minimizedRMSD -1
REMARK  2 active torsions:
REMARK  status: ('A' for Active; 'I' for Inactive)
REMARK    1  A    between atoms: C2'_3  and  C1'_4 
REMARK    2  A    between atoms: C1'_4  and  C1_5 
ROOT
ATOM      1  C1  I4B d   1      -0.401  -1.271   2.792  0.00  0.00    -0.075 A 
ATOM      2  C2  I4B d   1      -0.692  -0.295   3.712  0.00  0.00     0.003 A 
ATOM      3  C3  I4B d   1      -1.932   0.387   3.660  0.00  0.00     0.002 A 
ATOM      4  C4  I4B d   1      -2.825   0.097   2.648  0.00  0.00    -0.004 A 
ATOM      5  C5  I4B d   1      -2.538  -0.909   1.731  0.00  0.00     0.002 A 
ATOM      6  C6  I4B d   1      -1.324  -1.607   1.810  0.00  0.00     0.003 A 
ENDROOT
BRANCH   1   7
ATOM      7  C1' I4B d   1       0.931  -1.948   2.856  0.00  0.00     0.060 C 
BRANCH   7   8
ATOM      8  C2' I4B d   1       1.202  -2.573   1.503  0.00  0.00    -0.013 C 
ATOM      9  C4' I4B d   1       1.597  -1.532   0.490  0.00  0.00     0.013 C 
ATOM     10  C3' I4B d   1       2.283  -3.598   1.675  0.00  0.00     0.013 C 
ENDBRANCH   7   8
ENDBRANCH   1   7
TORSDOF 2
ENDMDL
