MODEL 1
REMARK minimizedAffinity -4.32938576
REMARK minimizedRMSD -1
REMARK  0 active torsions:
REMARK  status: ('A' for Active; 'I' for Inactive)
ROOT
ATOM      1  C   UNL d   1      -2.921  -0.178   2.757  0.00  0.00     0.023 A 
ATOM      2  C1  UNL d   1      -2.951   0.192   1.412  0.00  0.00     0.003 A 
ATOM      3  C2  UNL d   1      -1.760   0.302   0.690  0.00  0.00     0.048 A 
ATOM      4  C3  UNL d   1      -0.544   0.039   1.320  0.00  0.00     0.023 A 
ATOM      5  C4  UNL d   1      -0.510  -0.332   2.665  0.00  0.00     0.048 A 
ATOM      6  C5  UNL d   1      -1.702  -0.440   3.382  0.00  0.00     0.003 A 
ATOM      7  I   UNL d   1       1.230   0.201   0.248  0.00  0.00    -0.146 I 
ENDROOT
TORSDOF 0
ENDMDL
