MODEL 1
REMARK minimizedAffinity -4.04575348
REMARK minimizedRMSD -1
REMARK  0 active torsions:
REMARK  status: ('A' for Active; 'I' for Inactive)
ROOT
ATOM      1  C   UNL d   1      -0.223   0.341   0.846  0.00  0.00     0.023 A 
ATOM      2  C1  UNL d   1      -0.792   0.927  -0.285  0.00  0.00     0.003 A 
ATOM      3  C2  UNL d   1      -0.438   0.476  -1.558  0.00  0.00     0.048 A 
ATOM      4  C3  UNL d   1       0.484  -0.561  -1.693  0.00  0.00     0.023 A 
ATOM      5  C4  UNL d   1       1.055  -1.150  -0.564  0.00  0.00     0.048 A 
ATOM      6  C5  UNL d   1       0.699  -0.696   0.707  0.00  0.00     0.003 A 
ATOM      7  I   UNL d   1       1.012  -1.233  -3.588  0.00  0.00    -0.146 I 
ENDROOT
TORSDOF 0
ENDMDL
