MODEL 1
REMARK minimizedAffinity -4.60848141
REMARK minimizedRMSD -1
REMARK  0 active torsions:
REMARK  status: ('A' for Active; 'I' for Inactive)
ROOT
ATOM      1  C   UNL d   1      -1.046  -0.031   3.007  0.00  0.00     0.023 A 
ATOM      2  C1  UNL d   1      -1.918   0.064   1.923  0.00  0.00     0.003 A 
ATOM      3  C2  UNL d   1      -1.419   0.040   0.619  0.00  0.00     0.048 A 
ATOM      4  C3  UNL d   1      -0.046  -0.080   0.406  0.00  0.00     0.023 A 
ATOM      5  C4  UNL d   1       0.831  -0.177   1.488  0.00  0.00     0.048 A 
ATOM      6  C5  UNL d   1       0.327  -0.151   2.790  0.00  0.00     0.003 A 
ATOM      7  I   UNL d   1       0.699  -0.116  -1.533  0.00  0.00    -0.146 I 
ENDROOT
TORSDOF 0
ENDMDL
