MODEL 1
REMARK minimizedAffinity -5.50786161
REMARK minimizedRMSD -1
REMARK  0 active torsions:
REMARK  status: ('A' for Active; 'I' for Inactive)
ROOT
ATOM      1  C   UNL d   1      -3.607  -0.229   1.148  0.00  0.00     0.023 A 
ATOM      2  C1  UNL d   1      -2.943   0.742   0.399  0.00  0.00     0.003 A 
ATOM      3  C2  UNL d   1      -1.563   0.908   0.536  0.00  0.00     0.048 A 
ATOM      4  C3  UNL d   1      -0.854   0.100   1.423  0.00  0.00     0.023 A 
ATOM      5  C4  UNL d   1      -1.514  -0.874   2.175  0.00  0.00     0.048 A 
ATOM      6  C5  UNL d   1      -2.894  -1.036   2.035  0.00  0.00     0.003 A 
ATOM      7  I   UNL d   1       1.200   0.345   1.628  0.00  0.00    -0.146 I 
ENDROOT
TORSDOF 0
ENDMDL
