MODEL 1
REMARK minimizedAffinity 1.06823897
REMARK minimizedRMSD -1
REMARK  0 active torsions:
REMARK  status: ('A' for Active; 'I' for Inactive)
ROOT
ATOM      1  C   UNL d   1       1.551  -2.270  -3.837  0.00  0.00     0.023 A 
ATOM      2  C1  UNL d   1       2.278  -1.222  -3.272  0.00  0.00     0.003 A 
ATOM      3  C2  UNL d   1       1.794  -0.565  -2.138  0.00  0.00     0.048 A 
ATOM      4  C3  UNL d   1       0.583  -0.963  -1.574  0.00  0.00     0.023 A 
ATOM      5  C4  UNL d   1      -0.148  -2.011  -2.135  0.00  0.00     0.048 A 
ATOM      6  C5  UNL d   1       0.339  -2.664  -3.269  0.00  0.00     0.003 A 
ATOM      7  I   UNL d   1      -0.139   0.012   0.114  0.00  0.00    -0.146 I 
ENDROOT
TORSDOF 0
ENDMDL
