MODEL 1
REMARK minimizedAffinity -4.94273663
REMARK minimizedRMSD -1
REMARK  0 active torsions:
REMARK  status: ('A' for Active; 'I' for Inactive)
ROOT
ATOM      1  C   UNL d   1      -1.770  -0.240   3.496  0.00  0.00     0.023 A 
ATOM      2  C1  UNL d   1      -0.399  -0.355   3.268  0.00  0.00     0.003 A 
ATOM      3  C2  UNL d   1       0.116  -0.163   1.984  0.00  0.00     0.048 A 
ATOM      4  C3  UNL d   1      -0.747   0.144   0.933  0.00  0.00     0.023 A 
ATOM      5  C4  UNL d   1      -2.120   0.261   1.156  0.00  0.00     0.048 A 
ATOM      6  C5  UNL d   1      -2.630   0.068   2.442  0.00  0.00     0.003 A 
ATOM      7  I   UNL d   1       0.015   0.430  -0.980  0.00  0.00    -0.146 I 
ENDROOT
TORSDOF 0
ENDMDL
