MODEL 1
REMARK minimizedAffinity -2.85216737
REMARK minimizedRMSD -1
REMARK  0 active torsions:
REMARK  status: ('A' for Active; 'I' for Inactive)
ROOT
ATOM      1  C   UNL d   1      -0.920   0.322   2.637  0.00  0.00     0.023 A 
ATOM      2  C1  UNL d   1       0.404   0.046   2.295  0.00  0.00     0.003 A 
ATOM      3  C2  UNL d   1       0.787   0.015   0.952  0.00  0.00     0.048 A 
ATOM      4  C3  UNL d   1      -0.158   0.261  -0.043  0.00  0.00     0.023 A 
ATOM      5  C4  UNL d   1      -1.484   0.538   0.295  0.00  0.00     0.048 A 
ATOM      6  C5  UNL d   1      -1.863   0.568   1.638  0.00  0.00     0.003 A 
ATOM      7  I   UNL d   1       0.410   0.215  -2.041  0.00  0.00    -0.146 I 
ENDROOT
TORSDOF 0
ENDMDL
