MODEL 1
REMARK minimizedAffinity -4.05056238
REMARK minimizedRMSD -1
REMARK  0 active torsions:
REMARK  status: ('A' for Active; 'I' for Inactive)
ROOT
ATOM      1  C   UNL d   1      -2.052  -0.450   3.118  0.00  0.00     0.023 A 
ATOM      2  C1  UNL d   1      -2.798  -0.152   1.978  0.00  0.00     0.003 A 
ATOM      3  C2  UNL d   1      -2.159   0.016   0.748  0.00  0.00     0.048 A 
ATOM      4  C3  UNL d   1      -0.773  -0.117   0.665  0.00  0.00     0.023 A 
ATOM      5  C4  UNL d   1      -0.023  -0.417   1.803  0.00  0.00     0.048 A 
ATOM      6  C5  UNL d   1      -0.666  -0.582   3.031  0.00  0.00     0.003 A 
ATOM      7  I   UNL d   1       0.181   0.131  -1.165  0.00  0.00    -0.146 I 
ENDROOT
TORSDOF 0
ENDMDL
