MODEL 1
REMARK minimizedAffinity -1.79336405
REMARK minimizedRMSD -1
REMARK  0 active torsions:
REMARK  status: ('A' for Active; 'I' for Inactive)
ROOT
ATOM      1  C   UNL d   1       1.222  -1.215  -3.574  0.00  0.00     0.023 A 
ATOM      2  C1  UNL d   1       0.607  -2.066  -2.657  0.00  0.00     0.003 A 
ATOM      3  C2  UNL d   1       0.240  -1.589  -1.397  0.00  0.00     0.048 A 
ATOM      4  C3  UNL d   1       0.490  -0.259  -1.061  0.00  0.00     0.023 A 
ATOM      5  C4  UNL d   1       1.105   0.597  -1.977  0.00  0.00     0.048 A 
ATOM      6  C5  UNL d   1       1.471   0.115  -3.235  0.00  0.00     0.003 A 
ATOM      7  I   UNL d   1      -0.055   0.453   0.814  0.00  0.00    -0.146 I 
ENDROOT
TORSDOF 0
ENDMDL
