MODEL 1
REMARK minimizedAffinity -1.88636136
REMARK minimizedRMSD -1
REMARK  0 active torsions:
REMARK  status: ('A' for Active; 'I' for Inactive)
ROOT
ATOM      1  C   UNL d   1      -0.183   0.372   1.640  0.00  0.00     0.023 A 
ATOM      2  C1  UNL d   1      -1.091   0.592   0.604  0.00  0.00     0.003 A 
ATOM      3  C2  UNL d   1      -0.694   0.415  -0.723  0.00  0.00     0.048 A 
ATOM      4  C3  UNL d   1       0.612   0.017  -1.007  0.00  0.00     0.023 A 
ATOM      5  C4  UNL d   1       1.524  -0.205   0.027  0.00  0.00     0.048 A 
ATOM      6  C5  UNL d   1       1.122  -0.026   1.352  0.00  0.00     0.003 A 
ATOM      7  I   UNL d   1       1.206  -0.248  -2.981  0.00  0.00    -0.146 I 
ENDROOT
TORSDOF 0
ENDMDL
