MODEL 1
REMARK minimizedAffinity -3.73538971
REMARK minimizedRMSD -1
REMARK  0 active torsions:
REMARK  status: ('A' for Active; 'I' for Inactive)
ROOT
ATOM      1  C   UNL d   1      -2.561   0.526   3.045  0.00  0.00     0.023 A 
ATOM      2  C1  UNL d   1      -2.919   0.500   1.697  0.00  0.00     0.003 A 
ATOM      3  C2  UNL d   1      -1.937   0.342   0.716  0.00  0.00     0.048 A 
ATOM      4  C3  UNL d   1      -0.601   0.210   1.091  0.00  0.00     0.023 A 
ATOM      5  C4  UNL d   1      -0.239   0.234   2.438  0.00  0.00     0.048 A 
ATOM      6  C5  UNL d   1      -1.223   0.393   3.415  0.00  0.00     0.003 A 
ATOM      7  I   UNL d   1       0.862  -0.026  -0.367  0.00  0.00    -0.146 I 
ENDROOT
TORSDOF 0
ENDMDL
