MODEL 1
REMARK minimizedAffinity -5.15894651
REMARK minimizedRMSD -1
REMARK  0 active torsions:
REMARK  status: ('A' for Active; 'I' for Inactive)
ROOT
ATOM      1  C   UNL d   1       0.871   0.306  -0.786  0.00  0.00     0.023 A 
ATOM      2  C1  UNL d   1      -0.497   0.036  -0.796  0.00  0.00     0.003 A 
ATOM      3  C2  UNL d   1      -1.179  -0.172   0.404  0.00  0.00     0.048 A 
ATOM      4  C3  UNL d   1      -0.485  -0.109   1.613  0.00  0.00     0.023 A 
ATOM      5  C4  UNL d   1       0.884   0.161   1.629  0.00  0.00     0.048 A 
ATOM      6  C5  UNL d   1       1.561   0.368   0.425  0.00  0.00     0.003 A 
ATOM      7  I   UNL d   1      -1.497  -0.419   3.401  0.00  0.00    -0.146 I 
ENDROOT
TORSDOF 0
ENDMDL
