MODEL 1
REMARK minimizedAffinity -5.91727352
REMARK minimizedRMSD -1
REMARK  0 active torsions:
REMARK  status: ('A' for Active; 'I' for Inactive)
ROOT
ATOM      1  C   UNL d   1      -2.904  -0.242   3.522  0.00  0.00     0.023 A 
ATOM      2  C1  UNL d   1      -1.606  -0.744   3.613  0.00  0.00     0.003 A 
ATOM      3  C2  UNL d   1      -0.761  -0.704   2.502  0.00  0.00     0.048 A 
ATOM      4  C3  UNL d   1      -1.221  -0.161   1.303  0.00  0.00     0.023 A 
ATOM      5  C4  UNL d   1      -2.519   0.344   1.208  0.00  0.00     0.048 A 
ATOM      6  C5  UNL d   1      -3.360   0.301   2.321  0.00  0.00     0.003 A 
ATOM      7  I   UNL d   1       0.034  -0.101  -0.353  0.00  0.00    -0.146 I 
ENDROOT
TORSDOF 0
ENDMDL
