MODEL 1
REMARK minimizedAffinity -4.93402195
REMARK minimizedRMSD -1
REMARK  0 active torsions:
REMARK  status: ('A' for Active; 'I' for Inactive)
ROOT
ATOM      1  C   UNL d   1      -2.682  -0.318   3.417  0.00  0.00     0.023 A 
ATOM      2  C1  UNL d   1      -3.101   0.249   2.213  0.00  0.00     0.003 A 
ATOM      3  C2  UNL d   1      -2.208   0.369   1.147  0.00  0.00     0.048 A 
ATOM      4  C3  UNL d   1      -0.896  -0.082   1.291  0.00  0.00     0.023 A 
ATOM      5  C4  UNL d   1      -0.472  -0.651   2.493  0.00  0.00     0.048 A 
ATOM      6  C5  UNL d   1      -1.368  -0.767   3.556  0.00  0.00     0.003 A 
ATOM      7  I   UNL d   1       0.436   0.094  -0.295  0.00  0.00    -0.146 I 
ENDROOT
TORSDOF 0
ENDMDL
