MODEL 1
REMARK minimizedAffinity 14.3102303
REMARK minimizedRMSD -1
REMARK  1 active torsions:
REMARK  status: ('A' for Active; 'I' for Inactive)
REMARK    1  A    between atoms: C1_2  and  C2_3 
ROOT
ATOM      1  C2  UNL d   1       4.938  -2.934   2.756  0.00  0.00    -0.081 A 
ATOM      2  C3  UNL d   1       3.630  -2.652   2.343  0.00  0.00     0.006 A 
ATOM      3  C4  UNL d   1       3.118  -1.357   2.448  0.00  0.00     0.002 A 
ATOM      4  C5  UNL d   1       3.906  -0.321   2.960  0.00  0.00    -0.080 A 
ATOM      5  C6  UNL d   1       3.379   1.080   3.050  0.00  0.00     0.076 C 
ATOM      6  C7  UNL d   1       5.207  -0.606   3.389  0.00  0.00     0.002 A 
ATOM      7  C8  UNL d   1       5.719  -1.901   3.285  0.00  0.00     0.006 A 
ENDROOT
BRANCH   1   8
ATOM      8  C1  UNL d   1       5.515  -4.316   2.584  0.00  0.00     0.054 C 
ATOM      9  C   UNL d   1       4.667  -5.362   3.294  0.00  0.00     0.018 C 
ENDBRANCH   1   8
TORSDOF 1
ENDMDL
