MODEL 1
REMARK minimizedAffinity -1.99662435
REMARK minimizedRMSD -1
REMARK  1 active torsions:
REMARK  status: ('A' for Active; 'I' for Inactive)
REMARK    1  A    between atoms: C1_2  and  C2_3 
ROOT
ATOM      1  C2  UNL d   1       5.460  -4.338   5.184  0.00  0.00    -0.081 A 
ATOM      2  C3  UNL d   1       5.812  -3.255   5.999  0.00  0.00     0.006 A 
ATOM      3  C4  UNL d   1       6.000  -1.986   5.448  0.00  0.00     0.002 A 
ATOM      4  C5  UNL d   1       5.831  -1.775   4.076  0.00  0.00    -0.080 A 
ATOM      5  C6  UNL d   1       6.000  -0.411   3.476  0.00  0.00     0.076 C 
ATOM      6  C7  UNL d   1       5.496  -2.860   3.258  0.00  0.00     0.002 A 
ATOM      7  C8  UNL d   1       5.309  -4.130   3.808  0.00  0.00     0.006 A 
ENDROOT
BRANCH   1   8
ATOM      8  C1  UNL d   1       5.193  -5.695   5.784  0.00  0.00     0.054 C 
ATOM      9  C   UNL d   1       3.701  -5.938   5.961  0.00  0.00     0.018 C 
ENDBRANCH   1   8
TORSDOF 1
ENDMDL
