MODEL 1
REMARK minimizedAffinity 3.23165655
REMARK minimizedRMSD -1
REMARK  1 active torsions:
REMARK  status: ('A' for Active; 'I' for Inactive)
REMARK    1  A    between atoms: C1_2  and  C2_3 
ROOT
ATOM      1  C2  UNL d   1       2.412   1.134  -3.388  0.00  0.00    -0.081 A 
ATOM      2  C3  UNL d   1       2.715   0.823  -2.057  0.00  0.00     0.006 A 
ATOM      3  C4  UNL d   1       1.694   0.674  -1.115  0.00  0.00     0.002 A 
ATOM      4  C5  UNL d   1       0.354   0.826  -1.490  0.00  0.00    -0.080 A 
ATOM      5  C6  UNL d   1      -0.753   0.639  -0.496  0.00  0.00     0.076 C 
ATOM      6  C7  UNL d   1       0.053   1.154  -2.816  0.00  0.00     0.002 A 
ATOM      7  C8  UNL d   1       1.074   1.304  -3.758  0.00  0.00     0.006 A 
ENDROOT
BRANCH   1   8
ATOM      8  C1  UNL d   1       3.507   1.232  -4.420  0.00  0.00     0.054 C 
ATOM      9  C   UNL d   1       4.070  -0.141  -4.761  0.00  0.00     0.018 C 
ENDBRANCH   1   8
TORSDOF 1
ENDMDL
