MODEL 1
REMARK minimizedAffinity 6.2364378
REMARK minimizedRMSD -1
REMARK  1 active torsions:
REMARK  status: ('A' for Active; 'I' for Inactive)
REMARK    1  A    between atoms: C1_2  and  C2_3 
ROOT
ATOM      1  C2  UNL d   1      -4.959   1.167   3.248  0.00  0.00    -0.081 A 
ATOM      2  C3  UNL d   1      -5.222  -0.143   2.829  0.00  0.00     0.006 A 
ATOM      3  C4  UNL d   1      -4.235  -0.890   2.181  0.00  0.00     0.002 A 
ATOM      4  C5  UNL d   1      -2.968  -0.344   1.949  0.00  0.00    -0.080 A 
ATOM      5  C6  UNL d   1      -1.891  -1.147   1.282  0.00  0.00     0.076 C 
ATOM      6  C7  UNL d   1      -2.711   0.971   2.352  0.00  0.00     0.002 A 
ATOM      7  C8  UNL d   1      -3.697   1.719   2.999  0.00  0.00     0.006 A 
ENDROOT
BRANCH   1   8
ATOM      8  C1  UNL d   1      -5.999   1.953   4.004  0.00  0.00     0.054 C 
ATOM      9  C   UNL d   1      -6.000   1.592   5.482  0.00  0.00     0.018 C 
ENDBRANCH   1   8
TORSDOF 1
ENDMDL
