MODEL 1
REMARK minimizedAffinity 3.1060493
REMARK minimizedRMSD -1
REMARK  1 active torsions:
REMARK  status: ('A' for Active; 'I' for Inactive)
REMARK    1  A    between atoms: C1_2  and  C2_3 
ROOT
ATOM      1  C2  UNL d   1       3.276   1.509   0.536  0.00  0.00    -0.081 A 
ATOM      2  C3  UNL d   1       2.824   0.727   1.606  0.00  0.00     0.006 A 
ATOM      3  C4  UNL d   1       3.702   0.340   2.622  0.00  0.00     0.002 A 
ATOM      4  C5  UNL d   1       5.044   0.737   2.589  0.00  0.00    -0.080 A 
ATOM      5  C6  UNL d   1       5.990   0.354   3.688  0.00  0.00     0.076 C 
ATOM      6  C7  UNL d   1       5.499   1.504   1.511  0.00  0.00     0.002 A 
ATOM      7  C8  UNL d   1       4.622   1.890   0.495  0.00  0.00     0.006 A 
ENDROOT
BRANCH   1   8
ATOM      8  C1  UNL d   1       2.317   1.981  -0.526  0.00  0.00     0.054 C 
ATOM      9  C   UNL d   1       0.872   1.844  -0.068  0.00  0.00     0.018 C 
ENDBRANCH   1   8
TORSDOF 1
ENDMDL
