MODEL 1
REMARK minimizedAffinity -1.55882525
REMARK minimizedRMSD -1
REMARK  1 active torsions:
REMARK  status: ('A' for Active; 'I' for Inactive)
REMARK    1  A    between atoms: C1_2  and  C2_3 
ROOT
ATOM      1  C2  UNL d   1       5.621  -2.634   5.017  0.00  0.00    -0.081 A 
ATOM      2  C3  UNL d   1       5.999  -1.353   5.437  0.00  0.00     0.006 A 
ATOM      3  C4  UNL d   1       5.999  -0.284   4.538  0.00  0.00     0.002 A 
ATOM      4  C5  UNL d   1       5.613  -0.476   3.207  0.00  0.00    -0.080 A 
ATOM      5  C6  UNL d   1       5.580   0.669   2.239  0.00  0.00     0.076 C 
ATOM      6  C7  UNL d   1       5.252  -1.759   2.783  0.00  0.00     0.002 A 
ATOM      7  C8  UNL d   1       5.253  -2.829   3.681  0.00  0.00     0.006 A 
ENDROOT
BRANCH   1   8
ATOM      8  C1  UNL d   1       5.558  -3.775   6.000  0.00  0.00     0.054 C 
ATOM      9  C   UNL d   1       4.184  -4.430   6.000  0.00  0.00     0.018 C 
ENDBRANCH   1   8
TORSDOF 1
ENDMDL
