MODEL 1
REMARK minimizedAffinity 8.72509766
REMARK minimizedRMSD -1
REMARK  1 active torsions:
REMARK  status: ('A' for Active; 'I' for Inactive)
REMARK    1  A    between atoms: C1_2  and  C2_3 
ROOT
ATOM      1  C2  UNL d   1       3.137  -0.350  -2.584  0.00  0.00    -0.081 A 
ATOM      2  C3  UNL d   1       2.912   0.299  -1.364  0.00  0.00     0.006 A 
ATOM      3  C4  UNL d   1       2.366   1.584  -1.335  0.00  0.00     0.002 A 
ATOM      4  C5  UNL d   1       2.028   2.238  -2.525  0.00  0.00    -0.080 A 
ATOM      5  C6  UNL d   1       1.412   3.606  -2.507  0.00  0.00     0.076 C 
ATOM      6  C7  UNL d   1       2.269   1.597  -3.745  0.00  0.00     0.002 A 
ATOM      7  C8  UNL d   1       2.816   0.312  -3.774  0.00  0.00     0.006 A 
ENDROOT
BRANCH   1   8
ATOM      8  C1  UNL d   1       3.666  -1.761  -2.616  0.00  0.00     0.054 C 
ATOM      9  C   UNL d   1       2.940  -2.647  -1.614  0.00  0.00     0.018 C 
ENDBRANCH   1   8
TORSDOF 1
ENDMDL
