MODEL 1
REMARK minimizedAffinity 14.3920689
REMARK minimizedRMSD -1
REMARK  1 active torsions:
REMARK  status: ('A' for Active; 'I' for Inactive)
REMARK    1  A    between atoms: C1_2  and  C2_3 
ROOT
ATOM      1  C2  UNL d   1       2.737  -2.912  -0.542  0.00  0.00    -0.081 A 
ATOM      2  C3  UNL d   1       2.905  -2.658   0.825  0.00  0.00     0.006 A 
ATOM      3  C4  UNL d   1       2.292  -3.475   1.778  0.00  0.00     0.002 A 
ATOM      4  C5  UNL d   1       1.508  -4.563   1.381  0.00  0.00    -0.080 A 
ATOM      5  C6  UNL d   1       0.869  -5.466   2.394  0.00  0.00     0.076 C 
ATOM      6  C7  UNL d   1       1.326  -4.807   0.015  0.00  0.00     0.002 A 
ATOM      7  C8  UNL d   1       1.937  -3.990  -0.938  0.00  0.00     0.006 A 
ENDROOT
BRANCH   1   8
ATOM      8  C1  UNL d   1       3.449  -2.071  -1.571  0.00  0.00     0.054 C 
ATOM      9  C   UNL d   1       2.538  -1.746  -2.746  0.00  0.00     0.018 C 
ENDBRANCH   1   8
TORSDOF 1
ENDMDL
