MODEL 1
REMARK minimizedAffinity 0.00965322275
REMARK minimizedRMSD -1
REMARK  1 active torsions:
REMARK  status: ('A' for Active; 'I' for Inactive)
REMARK    1  A    between atoms: C1_2  and  C2_3 
ROOT
ATOM      1  C2  UNL d   1       5.280  -3.712   5.278  0.00  0.00    -0.081 A 
ATOM      2  C3  UNL d   1       5.274  -3.663   3.879  0.00  0.00     0.006 A 
ATOM      3  C4  UNL d   1       5.493  -2.455   3.212  0.00  0.00     0.002 A 
ATOM      4  C5  UNL d   1       5.730  -1.279   3.932  0.00  0.00    -0.080 A 
ATOM      5  C6  UNL d   1       5.997   0.018   3.229  0.00  0.00     0.076 C 
ATOM      6  C7  UNL d   1       5.720  -1.326   5.331  0.00  0.00     0.002 A 
ATOM      7  C8  UNL d   1       5.500  -2.533   5.998  0.00  0.00     0.006 A 
ENDROOT
BRANCH   1   8
ATOM      8  C1  UNL d   1       5.108  -5.025   6.000  0.00  0.00     0.054 C 
ATOM      9  C   UNL d   1       3.653  -5.469   6.000  0.00  0.00     0.018 C 
ENDBRANCH   1   8
TORSDOF 1
ENDMDL
