MODEL 1
REMARK minimizedAffinity 7.92251205
REMARK minimizedRMSD -1
REMARK  1 active torsions:
REMARK  status: ('A' for Active; 'I' for Inactive)
REMARK    1  A    between atoms: C1_2  and  C2_3 
ROOT
ATOM      1  C2  UNL d   1      -0.168  -0.054   0.450  0.00  0.00    -0.081 A 
ATOM      2  C3  UNL d   1      -0.835  -1.188  -0.029  0.00  0.00     0.006 A 
ATOM      3  C4  UNL d   1      -1.200  -1.279  -1.374  0.00  0.00     0.002 A 
ATOM      4  C5  UNL d   1      -0.897  -0.243  -2.264  0.00  0.00    -0.080 A 
ATOM      5  C6  UNL d   1      -1.256  -0.342  -3.717  0.00  0.00     0.076 C 
ATOM      6  C7  UNL d   1      -0.246   0.898  -1.782  0.00  0.00     0.002 A 
ATOM      7  C8  UNL d   1       0.118   0.990  -0.437  0.00  0.00     0.006 A 
ENDROOT
BRANCH   1   8
ATOM      8  C1  UNL d   1       0.284   0.020   1.886  0.00  0.00     0.054 C 
ATOM      9  C   UNL d   1       1.486   0.939   2.041  0.00  0.00     0.018 C 
ENDBRANCH   1   8
TORSDOF 1
ENDMDL
