MODEL 1
REMARK minimizedAffinity 11.1373072
REMARK minimizedRMSD -1
REMARK  1 active torsions:
REMARK  status: ('A' for Active; 'I' for Inactive)
REMARK    1  A    between atoms: C1_2  and  C2_3 
ROOT
ATOM      1  C2  UNL d   1       0.112  -0.086   0.121  0.00  0.00    -0.081 A 
ATOM      2  C3  UNL d   1      -1.073  -0.825   0.209  0.00  0.00     0.006 A 
ATOM      3  C4  UNL d   1      -1.186  -1.878   1.120  0.00  0.00     0.002 A 
ATOM      4  C5  UNL d   1      -0.118  -2.204   1.963  0.00  0.00    -0.080 A 
ATOM      5  C6  UNL d   1      -0.236  -3.312   2.967  0.00  0.00     0.076 C 
ATOM      6  C7  UNL d   1       1.073  -1.476   1.863  0.00  0.00     0.002 A 
ATOM      7  C8  UNL d   1       1.186  -0.424   0.952  0.00  0.00     0.006 A 
ENDROOT
BRANCH   1   8
ATOM      8  C1  UNL d   1       0.214   1.091  -0.815  0.00  0.00     0.054 C 
ATOM      9  C   UNL d   1       1.501   1.871  -0.586  0.00  0.00     0.018 C 
ENDBRANCH   1   8
TORSDOF 1
ENDMDL
