MODEL 1
REMARK minimizedAffinity 7.84233809
REMARK minimizedRMSD -1
REMARK  1 active torsions:
REMARK  status: ('A' for Active; 'I' for Inactive)
REMARK    1  A    between atoms: C1_2  and  C2_3 
ROOT
ATOM      1  C2  UNL d   1      -4.153   0.272   1.823  0.00  0.00    -0.081 A 
ATOM      2  C3  UNL d   1      -3.487  -0.931   1.559  0.00  0.00     0.006 A 
ATOM      3  C4  UNL d   1      -2.123  -0.935   1.258  0.00  0.00     0.002 A 
ATOM      4  C5  UNL d   1      -1.400   0.262   1.225  0.00  0.00    -0.080 A 
ATOM      5  C6  UNL d   1       0.071   0.269   0.934  0.00  0.00     0.076 C 
ATOM      6  C7  UNL d   1      -2.069   1.466   1.472  0.00  0.00     0.002 A 
ATOM      7  C8  UNL d   1      -3.433   1.471   1.771  0.00  0.00     0.006 A 
ENDROOT
BRANCH   1   8
ATOM      8  C1  UNL d   1      -5.609   0.273   2.210  0.00  0.00     0.054 C 
ATOM      9  C   UNL d   1      -5.998   1.574   2.898  0.00  0.00     0.018 C 
ENDBRANCH   1   8
TORSDOF 1
ENDMDL
