MODEL 1
REMARK minimizedAffinity 9.48478794
REMARK minimizedRMSD -1
REMARK  1 active torsions:
REMARK  status: ('A' for Active; 'I' for Inactive)
REMARK    1  A    between atoms: C1_2  and  C2_3 
ROOT
ATOM      1  C2  UNL d   1       3.836  -1.027  -4.493  0.00  0.00    -0.081 A 
ATOM      2  C3  UNL d   1       3.479  -1.953  -3.505  0.00  0.00     0.006 A 
ATOM      3  C4  UNL d   1       3.148  -1.522  -2.218  0.00  0.00     0.002 A 
ATOM      4  C5  UNL d   1       3.162  -0.160  -1.900  0.00  0.00    -0.080 A 
ATOM      5  C6  UNL d   1       2.780   0.318  -0.530  0.00  0.00     0.076 C 
ATOM      6  C7  UNL d   1       3.536   0.763  -2.882  0.00  0.00     0.002 A 
ATOM      7  C8  UNL d   1       3.867   0.333  -4.169  0.00  0.00     0.006 A 
ENDROOT
BRANCH   1   8
ATOM      8  C1  UNL d   1       4.130  -1.483  -5.900  0.00  0.00     0.054 C 
ATOM      9  C   UNL d   1       5.362  -2.376  -5.946  0.00  0.00     0.018 C 
ENDBRANCH   1   8
TORSDOF 1
ENDMDL
