MODEL 1
REMARK minimizedAffinity -3.8751955
REMARK minimizedRMSD -1
REMARK  0 active torsions:
REMARK  status: ('A' for Active; 'I' for Inactive)
ROOT
ATOM      1  C   UNL d   1       1.067   2.112  -1.245  0.00  0.00     0.078 C 
ATOM      2  C1  UNL d   1       0.346   1.131  -0.368  0.00  0.00    -0.077 A 
ATOM      3  C2  UNL d   1       0.370  -0.240  -0.649  0.00  0.00    -0.001 A 
ATOM      4  C3  UNL d   1      -0.313  -1.140   0.170  0.00  0.00     0.003 A 
ATOM      5  C4  UNL d   1      -1.026  -0.679   1.275  0.00  0.00    -0.005 A 
ATOM      6  C5  UNL d   1      -1.058   0.684   1.561  0.00  0.00     0.003 A 
ATOM      7  C6  UNL d   1      -0.375   1.586   0.743  0.00  0.00    -0.001 A 
ENDROOT
TORSDOF 0
ENDMDL
