MODEL 1
REMARK minimizedAffinity -5.05270624
REMARK minimizedRMSD -1
REMARK  0 active torsions:
REMARK  status: ('A' for Active; 'I' for Inactive)
ROOT
ATOM      1  C   UNL d   1      -0.825  -0.252  -0.475  0.00  0.00     0.078 C 
ATOM      2  C1  UNL d   1       0.215   0.785  -0.176  0.00  0.00    -0.077 A 
ATOM      3  C2  UNL d   1      -0.103   2.149  -0.183  0.00  0.00    -0.001 A 
ATOM      4  C3  UNL d   1       0.878   3.104   0.088  0.00  0.00     0.003 A 
ATOM      5  C4  UNL d   1       2.184   2.706   0.366  0.00  0.00    -0.005 A 
ATOM      6  C5  UNL d   1       2.511   1.352   0.373  0.00  0.00     0.003 A 
ATOM      7  C6  UNL d   1       1.531   0.395   0.102  0.00  0.00    -0.001 A 
ENDROOT
TORSDOF 0
ENDMDL
