MODEL 1
REMARK minimizedAffinity -3.81851101
REMARK minimizedRMSD -1
REMARK  0 active torsions:
REMARK  status: ('A' for Active; 'I' for Inactive)
ROOT
ATOM      1  C   UNL d   1      -0.189   3.069  -0.732  0.00  0.00     0.078 C 
ATOM      2  C1  UNL d   1      -0.331   1.660  -0.237  0.00  0.00    -0.077 A 
ATOM      3  C2  UNL d   1       0.602   0.676  -0.585  0.00  0.00    -0.001 A 
ATOM      4  C3  UNL d   1       0.451  -0.633  -0.125  0.00  0.00     0.003 A 
ATOM      5  C4  UNL d   1      -0.632  -0.970   0.685  0.00  0.00    -0.005 A 
ATOM      6  C5  UNL d   1      -1.567   0.002   1.034  0.00  0.00     0.003 A 
ATOM      7  C6  UNL d   1      -1.418   1.312   0.575  0.00  0.00    -0.001 A 
ENDROOT
TORSDOF 0
ENDMDL
