MODEL 1
REMARK minimizedAffinity -4.32848692
REMARK minimizedRMSD -1
REMARK  0 active torsions:
REMARK  status: ('A' for Active; 'I' for Inactive)
ROOT
ATOM      1  C   UNL d   1      -0.263  -1.582  -0.515  0.00  0.00     0.078 C 
ATOM      2  C1  UNL d   1      -0.262  -0.120  -0.179  0.00  0.00    -0.077 A 
ATOM      3  C2  UNL d   1      -1.212   0.419   0.698  0.00  0.00    -0.001 A 
ATOM      4  C3  UNL d   1      -1.205   1.783   0.994  0.00  0.00     0.003 A 
ATOM      5  C4  UNL d   1      -0.252   2.619   0.418  0.00  0.00    -0.005 A 
ATOM      6  C5  UNL d   1       0.696   2.093  -0.457  0.00  0.00     0.003 A 
ATOM      7  C6  UNL d   1       0.691   0.729  -0.755  0.00  0.00    -0.001 A 
ENDROOT
TORSDOF 0
ENDMDL
