MODEL 1
REMARK minimizedAffinity -4.78903103
REMARK minimizedRMSD -1
REMARK  0 active torsions:
REMARK  status: ('A' for Active; 'I' for Inactive)
ROOT
ATOM      1  C   UNL d   1       0.349  -1.201   0.116  0.00  0.00     0.078 C 
ATOM      2  C1  UNL d   1       0.206   0.291   0.113  0.00  0.00    -0.077 A 
ATOM      3  C2  UNL d   1       1.006   1.091  -0.712  0.00  0.00    -0.001 A 
ATOM      4  C3  UNL d   1       0.869   2.480  -0.697  0.00  0.00     0.003 A 
ATOM      5  C4  UNL d   1      -0.067   3.081   0.142  0.00  0.00    -0.005 A 
ATOM      6  C5  UNL d   1      -0.866   2.294   0.968  0.00  0.00     0.003 A 
ATOM      7  C6  UNL d   1      -0.730   0.905   0.955  0.00  0.00    -0.001 A 
ENDROOT
TORSDOF 0
ENDMDL
