MODEL 1
REMARK minimizedAffinity -4.32309771
REMARK minimizedRMSD -1
REMARK  0 active torsions:
REMARK  status: ('A' for Active; 'I' for Inactive)
ROOT
ATOM      1  C   UNL d   1      -0.258  -1.537  -0.208  0.00  0.00     0.078 C 
ATOM      2  C1  UNL d   1      -0.068  -0.065   0.012  0.00  0.00    -0.077 A 
ATOM      3  C2  UNL d   1      -1.129   0.743   0.439  0.00  0.00    -0.001 A 
ATOM      4  C3  UNL d   1      -0.940   2.113   0.630  0.00  0.00     0.003 A 
ATOM      5  C4  UNL d   1       0.308   2.686   0.395  0.00  0.00    -0.005 A 
ATOM      6  C5  UNL d   1       1.369   1.890  -0.033  0.00  0.00     0.003 A 
ATOM      7  C6  UNL d   1       1.182   0.520  -0.224  0.00  0.00    -0.001 A 
ENDROOT
TORSDOF 0
ENDMDL
