MODEL 1
REMARK minimizedAffinity -3.79673624
REMARK minimizedRMSD -1
REMARK  0 active torsions:
REMARK  status: ('A' for Active; 'I' for Inactive)
ROOT
ATOM      1  C   UNL d   1      -0.517   3.058   1.810  0.00  0.00     0.078 C 
ATOM      2  C1  UNL d   1      -0.276   1.797   1.035  0.00  0.00    -0.077 A 
ATOM      3  C2  UNL d   1      -1.053   0.654   1.256  0.00  0.00    -0.001 A 
ATOM      4  C3  UNL d   1      -0.811  -0.516   0.534  0.00  0.00     0.003 A 
ATOM      5  C4  UNL d   1       0.210  -0.554  -0.414  0.00  0.00    -0.005 A 
ATOM      6  C5  UNL d   1       0.990   0.578  -0.640  0.00  0.00     0.003 A 
ATOM      7  C6  UNL d   1       0.749   1.749   0.082  0.00  0.00    -0.001 A 
ENDROOT
TORSDOF 0
ENDMDL
