MODEL 1
REMARK minimizedAffinity -4.01065207
REMARK minimizedRMSD -1
REMARK  0 active torsions:
REMARK  status: ('A' for Active; 'I' for Inactive)
ROOT
ATOM      1  C   UNL d   1      -0.129  -1.402  -0.085  0.00  0.00     0.078 C 
ATOM      2  C1  UNL d   1       0.029   0.088  -0.014  0.00  0.00    -0.077 A 
ATOM      3  C2  UNL d   1       0.976   0.751  -0.803  0.00  0.00    -0.001 A 
ATOM      4  C3  UNL d   1       1.118   2.137  -0.720  0.00  0.00     0.003 A 
ATOM      5  C4  UNL d   1       0.318   2.872   0.153  0.00  0.00    -0.005 A 
ATOM      6  C5  UNL d   1      -0.626   2.220   0.944  0.00  0.00     0.003 A 
ATOM      7  C6  UNL d   1      -0.770   0.834   0.862  0.00  0.00    -0.001 A 
ENDROOT
TORSDOF 0
ENDMDL
