MODEL 1
REMARK minimizedAffinity -5.10402155
REMARK minimizedRMSD -1
REMARK  0 active torsions:
REMARK  status: ('A' for Active; 'I' for Inactive)
ROOT
ATOM      1  C   UNL d   1      -0.040  -1.079   0.158  0.00  0.00     0.078 C 
ATOM      2  C1  UNL d   1       0.108   0.413   0.143  0.00  0.00    -0.077 A 
ATOM      3  C2  UNL d   1       1.324   1.014  -0.208  0.00  0.00    -0.001 A 
ATOM      4  C3  UNL d   1       1.450   2.404  -0.208  0.00  0.00     0.003 A 
ATOM      5  C4  UNL d   1       0.366   3.205   0.144  0.00  0.00    -0.005 A 
ATOM      6  C5  UNL d   1      -0.847   2.617   0.497  0.00  0.00     0.003 A 
ATOM      7  C6  UNL d   1      -0.975   1.227   0.498  0.00  0.00    -0.001 A 
ENDROOT
TORSDOF 0
ENDMDL
