MODEL 1
REMARK minimizedAffinity -4.82407188
REMARK minimizedRMSD -1
REMARK  0 active torsions:
REMARK  status: ('A' for Active; 'I' for Inactive)
ROOT
ATOM      1  C   UNL d   1      -0.303  -1.170   0.064  0.00  0.00     0.078 C 
ATOM      2  C1  UNL d   1      -0.174   0.324   0.036  0.00  0.00    -0.077 A 
ATOM      3  C2  UNL d   1       0.801   0.949  -0.750  0.00  0.00    -0.001 A 
ATOM      4  C3  UNL d   1       0.916   2.340  -0.758  0.00  0.00     0.003 A 
ATOM      5  C4  UNL d   1       0.060   3.118   0.019  0.00  0.00    -0.005 A 
ATOM      6  C5  UNL d   1      -0.913   2.504   0.806  0.00  0.00     0.003 A 
ATOM      7  C6  UNL d   1      -1.029   1.113   0.815  0.00  0.00    -0.001 A 
ENDROOT
TORSDOF 0
ENDMDL
