MODEL 1
REMARK minimizedAffinity 3.64554286
REMARK minimizedRMSD -1
REMARK  0 active torsions:
REMARK  status: ('A' for Active; 'I' for Inactive)
ROOT
ATOM      1  C4' PXY d   1       1.738  -2.882   2.095  0.00  0.00     0.077 C 
ATOM      2  C1' PXY d   1       6.000  -5.998  -0.260  0.00  0.00     0.077 C 
ATOM      3  C1  PXY d   1       4.891  -5.175   0.365  0.00  0.00    -0.082 A 
ATOM      4  C2  PXY d   1       3.651  -5.637   0.361  0.00  0.00     0.003 A 
ATOM      5  C3  PXY d   1       2.631  -4.891   0.893  0.00  0.00     0.003 A 
ATOM      6  C4  PXY d   1       2.891  -3.684   1.484  0.00  0.00    -0.082 A 
ATOM      7  C5  PXY d   1       4.155  -3.210   1.501  0.00  0.00     0.003 A 
ATOM      8  C6  PXY d   1       5.170  -3.964   0.919  0.00  0.00     0.003 A 
ENDROOT
TORSDOF 0
ENDMDL
