MODEL 1
REMARK minimizedAffinity 13.4945068
REMARK minimizedRMSD -1
REMARK  0 active torsions:
REMARK  status: ('A' for Active; 'I' for Inactive)
ROOT
ATOM      1  C4' PXY d   1       0.282  -2.940   2.652  0.00  0.00     0.077 C 
ATOM      2  C1' PXY d   1      -4.381   0.377   3.470  0.00  0.00     0.077 C 
ATOM      3  C1  PXY d   1      -3.151  -0.483   3.261  0.00  0.00    -0.082 A 
ATOM      4  C2  PXY d   1      -3.177  -1.454   2.362  0.00  0.00     0.003 A 
ATOM      5  C3  PXY d   1      -2.084  -2.262   2.182  0.00  0.00     0.003 A 
ATOM      6  C4  PXY d   1      -0.934  -2.040   2.891  0.00  0.00    -0.082 A 
ATOM      7  C5  PXY d   1      -0.895  -1.045   3.802  0.00  0.00     0.003 A 
ATOM      8  C6  PXY d   1      -2.029  -0.262   3.999  0.00  0.00     0.003 A 
ENDROOT
TORSDOF 0
ENDMDL
