MODEL 1
REMARK minimizedAffinity 5.31874704
REMARK minimizedRMSD -1
REMARK  0 active torsions:
REMARK  status: ('A' for Active; 'I' for Inactive)
ROOT
ATOM      1  C4' PXY d   1       1.217  -2.447   2.161  0.00  0.00     0.077 C 
ATOM      2  C1' PXY d   1       1.304   1.692  -1.873  0.00  0.00     0.077 C 
ATOM      3  C1  PXY d   1       1.269   0.604  -0.819  0.00  0.00    -0.082 A 
ATOM      4  C2  PXY d   1       2.094   0.667   0.214  0.00  0.00     0.003 A 
ATOM      5  C3  PXY d   1       2.098  -0.326   1.160  0.00  0.00     0.003 A 
ATOM      6  C4  PXY d   1       1.211  -1.366   1.077  0.00  0.00    -0.082 A 
ATOM      7  C5  PXY d   1       0.359  -1.431   0.032  0.00  0.00     0.003 A 
ATOM      8  C6  PXY d   1       0.399  -0.435  -0.940  0.00  0.00     0.003 A 
ENDROOT
TORSDOF 0
ENDMDL
