MODEL 1
REMARK minimizedAffinity 12.3408985
REMARK minimizedRMSD -1
REMARK  0 active torsions:
REMARK  status: ('A' for Active; 'I' for Inactive)
ROOT
ATOM      1  C4' PXY d   1      -4.893   0.894  -0.388  0.00  0.00     0.077 C 
ATOM      2  C1' PXY d   1      -4.109  -2.827  -4.741  0.00  0.00     0.077 C 
ATOM      3  C1  PXY d   1      -4.321  -1.843  -3.608  0.00  0.00    -0.082 A 
ATOM      4  C2  PXY d   1      -3.523  -1.879  -2.553  0.00  0.00     0.003 A 
ATOM      5  C3  PXY d   1      -3.720  -1.018  -1.504  0.00  0.00     0.003 A 
ATOM      6  C4  PXY d   1      -4.711  -0.075  -1.560  0.00  0.00    -0.082 A 
ATOM      7  C5  PXY d   1      -5.522  -0.024  -2.637  0.00  0.00     0.003 A 
ATOM      8  C6  PXY d   1      -5.331  -0.935  -3.673  0.00  0.00     0.003 A 
ENDROOT
TORSDOF 0
ENDMDL
