MODEL 1
REMARK minimizedAffinity 1.16404831
REMARK minimizedRMSD -1
REMARK  0 active torsions:
REMARK  status: ('A' for Active; 'I' for Inactive)
ROOT
ATOM      1  C4' PXY d   1       1.822  -3.416   2.861  0.00  0.00     0.077 C 
ATOM      2  C1' PXY d   1       5.932  -6.000   6.000  0.00  0.00     0.077 C 
ATOM      3  C1  PXY d   1       4.861  -5.325   5.166  0.00  0.00    -0.082 A 
ATOM      4  C2  PXY d   1       4.089  -4.401   5.715  0.00  0.00     0.003 A 
ATOM      5  C3  PXY d   1       3.094  -3.804   4.984  0.00  0.00     0.003 A 
ATOM      6  C4  PXY d   1       2.923  -4.117   3.662  0.00  0.00    -0.082 A 
ATOM      7  C5  PXY d   1       3.713  -5.050   3.092  0.00  0.00     0.003 A 
ATOM      8  C6  PXY d   1       4.690  -5.675   3.862  0.00  0.00     0.003 A 
ENDROOT
TORSDOF 0
ENDMDL
