MODEL 1
REMARK minimizedAffinity 1.54589748
REMARK minimizedRMSD -1
REMARK  0 active torsions:
REMARK  status: ('A' for Active; 'I' for Inactive)
ROOT
ATOM      1  C4' PXY d   1       1.834  -3.056   2.419  0.00  0.00     0.077 C 
ATOM      2  C1' PXY d   1       5.287  -6.000   6.000  0.00  0.00     0.077 C 
ATOM      3  C1  PXY d   1       4.380  -5.219   5.070  0.00  0.00    -0.082 A 
ATOM      4  C2  PXY d   1       3.762  -5.844   4.081  0.00  0.00     0.003 A 
ATOM      5  C3  PXY d   1       2.963  -5.148   3.212  0.00  0.00     0.003 A 
ATOM      6  C4  PXY d   1       2.752  -3.806   3.388  0.00  0.00    -0.082 A 
ATOM      7  C5  PXY d   1       3.371  -3.163   4.401  0.00  0.00     0.003 A 
ATOM      8  C6  PXY d   1       4.210  -3.880   5.248  0.00  0.00     0.003 A 
ENDROOT
TORSDOF 0
ENDMDL
