MODEL 1
REMARK minimizedAffinity 7.87409782
REMARK minimizedRMSD -1
REMARK  0 active torsions:
REMARK  status: ('A' for Active; 'I' for Inactive)
ROOT
ATOM      1  C4' PXY d   1       6.000  -6.000  -1.871  0.00  0.00     0.077 C 
ATOM      2  C1' PXY d   1       3.356  -3.243   2.468  0.00  0.00     0.077 C 
ATOM      3  C1  PXY d   1       4.038  -3.972   1.327  0.00  0.00    -0.082 A 
ATOM      4  C2  PXY d   1       5.352  -4.130   1.344  0.00  0.00     0.003 A 
ATOM      5  C3  PXY d   1       5.989  -4.758   0.305  0.00  0.00     0.003 A 
ATOM      6  C4  PXY d   1       5.268  -5.279  -0.736  0.00  0.00    -0.082 A 
ATOM      7  C5  PXY d   1       3.926  -5.132  -0.755  0.00  0.00     0.003 A 
ATOM      8  C6  PXY d   1       3.303  -4.454   0.289  0.00  0.00     0.003 A 
ENDROOT
TORSDOF 0
ENDMDL
