MODEL 1
REMARK minimizedAffinity 8.65904808
REMARK minimizedRMSD -1
REMARK  0 active torsions:
REMARK  status: ('A' for Active; 'I' for Inactive)
ROOT
ATOM      1  C4' PXY d   1      -4.051   0.959  -1.283  0.00  0.00     0.077 C 
ATOM      2  C1' PXY d   1      -5.155  -3.514  -4.774  0.00  0.00     0.077 C 
ATOM      3  C1  PXY d   1      -4.861  -2.350  -3.849  0.00  0.00    -0.082 A 
ATOM      4  C2  PXY d   1      -5.477  -1.194  -4.037  0.00  0.00     0.003 A 
ATOM      5  C3  PXY d   1      -5.200  -0.121  -3.230  0.00  0.00     0.003 A 
ATOM      6  C4  PXY d   1      -4.323  -0.247  -2.186  0.00  0.00    -0.082 A 
ATOM      7  C5  PXY d   1      -3.699  -1.427  -1.981  0.00  0.00     0.003 A 
ATOM      8  C6  PXY d   1      -3.963  -2.492  -2.837  0.00  0.00     0.003 A 
ENDROOT
TORSDOF 0
ENDMDL
