MODEL 1
REMARK minimizedAffinity 1.03772604
REMARK minimizedRMSD -1
REMARK  0 active torsions:
REMARK  status: ('A' for Active; 'I' for Inactive)
ROOT
ATOM      1  C   UNL d   1      -0.797  -1.060   1.515  0.00  0.00     0.124 A 
ATOM      2  C1  UNL d   1      -1.076   0.296   1.420  0.00  0.00     0.062 A 
ATOM      3  C2  UNL d   1      -0.532   1.052   0.385  0.00  0.00     0.162 A 
ATOM      4  C3  UNL d   1       0.295   0.452  -0.565  0.00  0.00    -0.034 A 
ATOM      5  C4  UNL d   1       0.572  -0.913  -0.462  0.00  0.00     0.162 A 
ATOM      6  C5  UNL d   1       0.026  -1.663   0.575  0.00  0.00     0.062 A 
ATOM      7  F   UNL d   1       0.296  -2.974   0.665  0.00  0.00    -0.097 F 
ATOM      8  F1  UNL d   1       1.363  -1.521  -1.358  0.00  0.00    -0.096 F 
ATOM      9  I   UNL d   1       1.110   1.578  -2.114  0.00  0.00    -0.060 I 
ATOM     10  F2  UNL d   1      -0.818   2.360   0.317  0.00  0.00    -0.096 F 
ATOM     11  F3  UNL d   1      -1.870   0.881   2.328  0.00  0.00    -0.097 F 
ATOM     12  F4  UNL d   1      -1.321  -1.784   2.512  0.00  0.00    -0.092 F 
ENDROOT
TORSDOF 0
ENDMDL
