MODEL 1
REMARK minimizedAffinity -1.51586676
REMARK minimizedRMSD -1
REMARK  0 active torsions:
REMARK  status: ('A' for Active; 'I' for Inactive)
ROOT
ATOM      1  C   UNL d   1       2.134   1.560  -2.974  0.00  0.00     0.124 A 
ATOM      2  C1  UNL d   1       2.417   1.589  -1.616  0.00  0.00     0.062 A 
ATOM      3  C2  UNL d   1       1.387   1.500  -0.684  0.00  0.00     0.162 A 
ATOM      4  C3  UNL d   1       0.063   1.379  -1.108  0.00  0.00    -0.034 A 
ATOM      5  C4  UNL d   1      -0.213   1.351  -2.476  0.00  0.00     0.162 A 
ATOM      6  C5  UNL d   1       0.820   1.440  -3.403  0.00  0.00     0.062 A 
ATOM      7  F   UNL d   1       0.545   1.411  -4.715  0.00  0.00    -0.097 F 
ATOM      8  F1  UNL d   1      -1.474   1.236  -2.918  0.00  0.00    -0.096 F 
ATOM      9  I   UNL d   1      -1.480   1.246   0.281  0.00  0.00    -0.060 I 
ATOM     10  F2  UNL d   1       1.689   1.532   0.622  0.00  0.00    -0.096 F 
ATOM     11  F3  UNL d   1       3.686   1.705  -1.199  0.00  0.00    -0.097 F 
ATOM     12  F4  UNL d   1       3.128   1.646  -3.868  0.00  0.00    -0.092 F 
ENDROOT
TORSDOF 0
ENDMDL
