MODEL 1
REMARK minimizedAffinity -1.30907953
REMARK minimizedRMSD -1
REMARK  0 active torsions:
REMARK  status: ('A' for Active; 'I' for Inactive)
ROOT
ATOM      1  C   UNL d   1       0.515  -2.249   0.865  0.00  0.00     0.124 A 
ATOM      2  C1  UNL d   1       1.331  -1.150   0.635  0.00  0.00     0.062 A 
ATOM      3  C2  UNL d   1       0.776   0.120   0.506  0.00  0.00     0.162 A 
ATOM      4  C3  UNL d   1      -0.604   0.298   0.607  0.00  0.00    -0.034 A 
ATOM      5  C4  UNL d   1      -1.418  -0.812   0.837  0.00  0.00     0.162 A 
ATOM      6  C5  UNL d   1      -0.858  -2.079   0.966  0.00  0.00     0.062 A 
ATOM      7  F   UNL d   1      -1.649  -3.139   1.187  0.00  0.00    -0.097 F 
ATOM      8  F1  UNL d   1      -2.749  -0.676   0.940  0.00  0.00    -0.096 F 
ATOM      9  I   UNL d   1      -1.438   2.195   0.414  0.00  0.00    -0.060 I 
ATOM     10  F2  UNL d   1       1.589   1.163   0.285  0.00  0.00    -0.096 F 
ATOM     11  F3  UNL d   1       2.659  -1.312   0.537  0.00  0.00    -0.097 F 
ATOM     12  F4  UNL d   1       1.052  -3.470   0.988  0.00  0.00    -0.092 F 
ENDROOT
TORSDOF 0
ENDMDL
