MODEL 1
REMARK minimizedAffinity 2.84159827
REMARK minimizedRMSD -1
REMARK  0 active torsions:
REMARK  status: ('A' for Active; 'I' for Inactive)
ROOT
ATOM      1  C   UNL d   1      -1.055  -1.885   1.205  0.00  0.00     0.124 A 
ATOM      2  C1  UNL d   1       0.318  -1.992   1.030  0.00  0.00     0.062 A 
ATOM      3  C2  UNL d   1       0.988  -1.105   0.194  0.00  0.00     0.162 A 
ATOM      4  C3  UNL d   1       0.287  -0.101  -0.474  0.00  0.00    -0.034 A 
ATOM      5  C4  UNL d   1      -1.093   0.000  -0.294  0.00  0.00     0.162 A 
ATOM      6  C5  UNL d   1      -1.759  -0.890   0.542  0.00  0.00     0.062 A 
ATOM      7  F   UNL d   1      -3.086  -0.785   0.709  0.00  0.00    -0.097 F 
ATOM      8  F1  UNL d   1      -1.798   0.954  -0.921  0.00  0.00    -0.096 F 
ATOM      9  I   UNL d   1       1.287   1.229  -1.725  0.00  0.00    -0.060 I 
ATOM     10  F2  UNL d   1       2.315  -1.231   0.045  0.00  0.00    -0.096 F 
ATOM     11  F3  UNL d   1       1.000  -2.954   1.668  0.00  0.00    -0.097 F 
ATOM     12  F4  UNL d   1      -1.698  -2.741   2.009  0.00  0.00    -0.092 F 
ENDROOT
TORSDOF 0
ENDMDL
