MODEL 1
REMARK minimizedAffinity -4.25805187
REMARK minimizedRMSD -1
REMARK  0 active torsions:
REMARK  status: ('A' for Active; 'I' for Inactive)
ROOT
ATOM      1  C   UNL d   1      -2.308  -1.174   1.583  0.00  0.00     0.124 A 
ATOM      2  C1  UNL d   1      -2.205   0.183   1.859  0.00  0.00     0.062 A 
ATOM      3  C2  UNL d   1      -1.318   0.979   1.140  0.00  0.00     0.162 A 
ATOM      4  C3  UNL d   1      -0.527   0.420   0.135  0.00  0.00    -0.034 A 
ATOM      5  C4  UNL d   1      -0.636  -0.945  -0.137  0.00  0.00     0.162 A 
ATOM      6  C5  UNL d   1      -1.523  -1.736   0.585  0.00  0.00     0.062 A 
ATOM      7  F   UNL d   1      -1.621  -3.046   0.317  0.00  0.00    -0.097 F 
ATOM      8  F1  UNL d   1       0.110  -1.514  -1.096  0.00  0.00    -0.096 F 
ATOM      9  I   UNL d   1       0.799   1.607  -0.943  0.00  0.00    -0.060 I 
ATOM     10  F2  UNL d   1      -1.240   2.286   1.429  0.00  0.00    -0.096 F 
ATOM     11  F3  UNL d   1      -2.961   0.728   2.823  0.00  0.00    -0.097 F 
ATOM     12  F4  UNL d   1      -3.161  -1.937   2.277  0.00  0.00    -0.092 F 
ENDROOT
TORSDOF 0
ENDMDL
