MODEL 1
REMARK minimizedAffinity -3.24260736
REMARK minimizedRMSD -1
REMARK  0 active torsions:
REMARK  status: ('A' for Active; 'I' for Inactive)
ROOT
ATOM      1  C   UNL d   1      -0.293   0.993  -0.432  0.00  0.00     0.124 A 
ATOM      2  C1  UNL d   1      -1.106   1.206   0.673  0.00  0.00     0.062 A 
ATOM      3  C2  UNL d   1      -1.550   0.128   1.433  0.00  0.00     0.162 A 
ATOM      4  C3  UNL d   1      -1.182  -1.173   1.091  0.00  0.00    -0.034 A 
ATOM      5  C4  UNL d   1      -0.365  -1.379  -0.022  0.00  0.00     0.162 A 
ATOM      6  C5  UNL d   1       0.076  -0.299  -0.779  0.00  0.00     0.062 A 
ATOM      7  F   UNL d   1       0.861  -0.506  -1.846  0.00  0.00    -0.097 F 
ATOM      8  F1  UNL d   1       0.008  -2.617  -0.379  0.00  0.00    -0.096 F 
ATOM      9  I   UNL d   1      -1.844  -2.788   2.225  0.00  0.00    -0.060 I 
ATOM     10  F2  UNL d   1      -2.334   0.363   2.495  0.00  0.00    -0.096 F 
ATOM     11  F3  UNL d   1      -1.465   2.453   1.009  0.00  0.00    -0.097 F 
ATOM     12  F4  UNL d   1       0.132   2.032  -1.163  0.00  0.00    -0.092 F 
ENDROOT
TORSDOF 0
ENDMDL
