MODEL 1
REMARK minimizedAffinity 2.41485786
REMARK minimizedRMSD -1
REMARK  0 active torsions:
REMARK  status: ('A' for Active; 'I' for Inactive)
ROOT
ATOM      1  C   UNL d   1      -0.406  -1.015   0.902  0.00  0.00     0.124 A 
ATOM      2  C1  UNL d   1      -1.511  -0.948   0.064  0.00  0.00     0.062 A 
ATOM      3  C2  UNL d   1      -1.500  -0.102  -1.041  0.00  0.00     0.162 A 
ATOM      4  C3  UNL d   1      -0.380   0.683  -1.316  0.00  0.00    -0.034 A 
ATOM      5  C4  UNL d   1       0.726   0.610  -0.469  0.00  0.00     0.162 A 
ATOM      6  C5  UNL d   1       0.711  -0.236   0.635  0.00  0.00     0.062 A 
ATOM      7  F   UNL d   1       1.779  -0.300   1.443  0.00  0.00    -0.097 F 
ATOM      8  F1  UNL d   1       1.820   1.351  -0.704  0.00  0.00    -0.096 F 
ATOM      9  I   UNL d   1      -0.361   1.948  -2.969  0.00  0.00    -0.060 I 
ATOM     10  F2  UNL d   1      -2.582  -0.057  -1.834  0.00  0.00    -0.096 F 
ATOM     11  F3  UNL d   1      -2.592  -1.698   0.321  0.00  0.00    -0.097 F 
ATOM     12  F4  UNL d   1      -0.419  -1.829   1.966  0.00  0.00    -0.092 F 
ENDROOT
TORSDOF 0
ENDMDL
