MODEL 1
REMARK minimizedAffinity -1.78159368
REMARK minimizedRMSD -1
REMARK  0 active torsions:
REMARK  status: ('A' for Active; 'I' for Inactive)
ROOT
ATOM      1  C   UNL d   1      -1.151  -2.317   1.070  0.00  0.00     0.124 A 
ATOM      2  C1  UNL d   1       0.210  -2.426   0.819  0.00  0.00     0.062 A 
ATOM      3  C2  UNL d   1       0.889  -1.393   0.182  0.00  0.00     0.162 A 
ATOM      4  C3  UNL d   1       0.209  -0.239  -0.209  0.00  0.00    -0.034 A 
ATOM      5  C4  UNL d   1      -1.160  -0.137   0.045  0.00  0.00     0.162 A 
ATOM      6  C5  UNL d   1      -1.834  -1.173   0.683  0.00  0.00     0.062 A 
ATOM      7  F   UNL d   1      -3.149  -1.065   0.925  0.00  0.00    -0.097 F 
ATOM      8  F1  UNL d   1      -1.844   0.958  -0.317  0.00  0.00    -0.096 F 
ATOM      9  I   UNL d   1       1.222   1.309  -1.163  0.00  0.00    -0.060 I 
ATOM     10  F2  UNL d   1       2.204  -1.526  -0.048  0.00  0.00    -0.096 F 
ATOM     11  F3  UNL d   1       0.872  -3.531   1.191  0.00  0.00    -0.097 F 
ATOM     12  F4  UNL d   1      -1.803  -3.314   1.683  0.00  0.00    -0.092 F 
ENDROOT
TORSDOF 0
ENDMDL
