MODEL 1
REMARK minimizedAffinity 6.9950819
REMARK minimizedRMSD -1
REMARK  0 active torsions:
REMARK  status: ('A' for Active; 'I' for Inactive)
ROOT
ATOM      1  C   UNL d   1       0.075  -2.517   1.843  0.00  0.00     0.124 A 
ATOM      2  C1  UNL d   1       0.858  -1.750   0.991  0.00  0.00     0.062 A 
ATOM      3  C2  UNL d   1       0.372  -0.548   0.486  0.00  0.00     0.162 A 
ATOM      4  C3  UNL d   1      -0.904  -0.103   0.832  0.00  0.00    -0.034 A 
ATOM      5  C4  UNL d   1      -1.686  -0.880   1.688  0.00  0.00     0.162 A 
ATOM      6  C5  UNL d   1      -1.196  -2.081   2.191  0.00  0.00     0.062 A 
ATOM      7  F   UNL d   1      -1.954  -2.820   3.014  0.00  0.00    -0.097 F 
ATOM      8  F1  UNL d   1      -2.918  -0.483   2.041  0.00  0.00    -0.096 F 
ATOM      9  I   UNL d   1      -1.634   1.694   0.078  0.00  0.00    -0.060 I 
ATOM     10  F2  UNL d   1       1.151   0.172  -0.335  0.00  0.00    -0.096 F 
ATOM     11  F3  UNL d   1       2.086  -2.169   0.653  0.00  0.00    -0.097 F 
ATOM     12  F4  UNL d   1       0.544  -3.673   2.327  0.00  0.00    -0.092 F 
ENDROOT
TORSDOF 0
ENDMDL
