MODEL 1
REMARK minimizedAffinity 3.77995563
REMARK minimizedRMSD -1
REMARK  0 active torsions:
REMARK  status: ('A' for Active; 'I' for Inactive)
ROOT
ATOM      1  C   UNL d   1      -2.857   0.150   0.774  0.00  0.00     0.124 A 
ATOM      2  C1  UNL d   1      -2.110  -0.789   0.075  0.00  0.00     0.062 A 
ATOM      3  C2  UNL d   1      -0.874  -0.441  -0.461  0.00  0.00     0.162 A 
ATOM      4  C3  UNL d   1      -0.375   0.851  -0.300  0.00  0.00    -0.034 A 
ATOM      5  C4  UNL d   1      -1.132   1.790   0.403  0.00  0.00     0.162 A 
ATOM      6  C5  UNL d   1      -2.368   1.438   0.937  0.00  0.00     0.062 A 
ATOM      7  F   UNL d   1      -3.087   2.346   1.612  0.00  0.00    -0.097 F 
ATOM      8  F1  UNL d   1      -0.683   3.042   0.577  0.00  0.00    -0.096 F 
ATOM      9  I   UNL d   1       1.473   1.375  -1.101  0.00  0.00    -0.060 I 
ATOM     10  F2  UNL d   1      -0.174  -1.368  -1.132  0.00  0.00    -0.096 F 
ATOM     11  F3  UNL d   1      -2.582  -2.034  -0.085  0.00  0.00    -0.097 F 
ATOM     12  F4  UNL d   1      -4.047  -0.187   1.288  0.00  0.00    -0.092 F 
ENDROOT
TORSDOF 0
ENDMDL
