MODEL 1
REMARK minimizedAffinity -0.167038172
REMARK minimizedRMSD -1
REMARK  0 active torsions:
REMARK  status: ('A' for Active; 'I' for Inactive)
ROOT
ATOM      1  C   UNL d   1      -1.055  -2.136   1.492  0.00  0.00     0.124 A 
ATOM      2  C1  UNL d   1      -1.889  -1.218   0.868  0.00  0.00     0.062 A 
ATOM      3  C2  UNL d   1      -1.383  -0.362  -0.106  0.00  0.00     0.162 A 
ATOM      4  C3  UNL d   1      -0.037  -0.421  -0.465  0.00  0.00    -0.034 A 
ATOM      5  C4  UNL d   1       0.796  -1.346   0.167  0.00  0.00     0.162 A 
ATOM      6  C5  UNL d   1       0.286  -2.199   1.141  0.00  0.00     0.062 A 
ATOM      7  F   UNL d   1       1.093  -3.086   1.742  0.00  0.00    -0.097 F 
ATOM      8  F1  UNL d   1       2.096  -1.430  -0.154  0.00  0.00    -0.096 F 
ATOM      9  I   UNL d   1       0.723   0.857  -1.921  0.00  0.00    -0.060 I 
ATOM     10  F2  UNL d   1      -2.212   0.515  -0.692  0.00  0.00    -0.096 F 
ATOM     11  F3  UNL d   1      -3.185  -1.154   1.207  0.00  0.00    -0.097 F 
ATOM     12  F4  UNL d   1      -1.543  -2.957   2.430  0.00  0.00    -0.092 F 
ENDROOT
TORSDOF 0
ENDMDL
