MODEL 1
REMARK minimizedAffinity 1.31328177
REMARK minimizedRMSD -1
REMARK  0 active torsions:
REMARK  status: ('A' for Active; 'I' for Inactive)
ROOT
ATOM      1  C   UNL d   1       0.095   1.752   0.216  0.00  0.00     0.124 A 
ATOM      2  C1  UNL d   1      -1.229   1.638   0.616  0.00  0.00     0.062 A 
ATOM      3  C2  UNL d   1      -1.808   0.381   0.767  0.00  0.00     0.162 A 
ATOM      4  C3  UNL d   1      -1.064  -0.772   0.519  0.00  0.00    -0.034 A 
ATOM      5  C4  UNL d   1       0.267  -0.649   0.116  0.00  0.00     0.162 A 
ATOM      6  C5  UNL d   1       0.842   0.609  -0.034  0.00  0.00     0.062 A 
ATOM      7  F   UNL d   1       2.121   0.718  -0.420  0.00  0.00    -0.097 F 
ATOM      8  F1  UNL d   1       1.012  -1.737  -0.131  0.00  0.00    -0.096 F 
ATOM      9  I   UNL d   1      -1.927  -2.652   0.743  0.00  0.00    -0.060 I 
ATOM     10  F2  UNL d   1      -3.090   0.301   1.155  0.00  0.00    -0.096 F 
ATOM     11  F3  UNL d   1      -1.952   2.741   0.857  0.00  0.00    -0.097 F 
ATOM     12  F4  UNL d   1       0.650   2.962   0.071  0.00  0.00    -0.092 F 
ENDROOT
TORSDOF 0
ENDMDL
