MODEL 1
REMARK minimizedAffinity -2.55689549
REMARK minimizedRMSD -1
REMARK  0 active torsions:
REMARK  status: ('A' for Active; 'I' for Inactive)
ROOT
ATOM      1  C   UNL d   1       0.653   1.482  -0.740  0.00  0.00     0.124 A 
ATOM      2  C1  UNL d   1      -0.175   1.552   0.372  0.00  0.00     0.062 A 
ATOM      3  C2  UNL d   1      -0.604   0.386   1.000  0.00  0.00     0.162 A 
ATOM      4  C3  UNL d   1      -0.205  -0.860   0.517  0.00  0.00    -0.034 A 
ATOM      5  C4  UNL d   1       0.627  -0.922  -0.602  0.00  0.00     0.162 A 
ATOM      6  C5  UNL d   1       1.053   0.246  -1.226  0.00  0.00     0.062 A 
ATOM      7  F   UNL d   1       1.853   0.176  -2.300  0.00  0.00    -0.097 F 
ATOM      8  F1  UNL d   1       1.029  -2.104  -1.092  0.00  0.00    -0.096 F 
ATOM      9  I   UNL d   1      -0.844  -2.606   1.453  0.00  0.00    -0.060 I 
ATOM     10  F2  UNL d   1      -1.404   0.484   2.072  0.00  0.00    -0.096 F 
ATOM     11  F3  UNL d   1      -0.564   2.746   0.843  0.00  0.00    -0.097 F 
ATOM     12  F4  UNL d   1       1.063   2.606  -1.342  0.00  0.00    -0.092 F 
ENDROOT
TORSDOF 0
ENDMDL
