MODEL 1
REMARK minimizedAffinity -1.81716883
REMARK minimizedRMSD -1
REMARK  0 active torsions:
REMARK  status: ('A' for Active; 'I' for Inactive)
ROOT
ATOM      1  C   UNL d   1      -1.063  -1.083   1.287  0.00  0.00     0.124 A 
ATOM      2  C1  UNL d   1      -1.268   0.290   1.284  0.00  0.00     0.062 A 
ATOM      3  C2  UNL d   1      -0.503   1.110   0.459  0.00  0.00     0.162 A 
ATOM      4  C3  UNL d   1       0.474   0.559  -0.370  0.00  0.00    -0.034 A 
ATOM      5  C4  UNL d   1       0.675  -0.823  -0.360  0.00  0.00     0.162 A 
ATOM      6  C5  UNL d   1      -0.093  -1.638   0.465  0.00  0.00     0.062 A 
ATOM      7  F   UNL d   1       0.106  -2.964   0.467  0.00  0.00    -0.097 F 
ATOM      8  F1  UNL d   1       1.605  -1.386  -1.145  0.00  0.00    -0.096 F 
ATOM      9  I   UNL d   1       1.621   1.781  -1.604  0.00  0.00    -0.060 I 
ATOM     10  F2  UNL d   1      -0.722   2.433   0.476  0.00  0.00    -0.096 F 
ATOM     11  F3  UNL d   1      -2.205   0.829   2.078  0.00  0.00    -0.097 F 
ATOM     12  F4  UNL d   1      -1.801  -1.869   2.082  0.00  0.00    -0.092 F 
ENDROOT
TORSDOF 0
ENDMDL
