MODEL 1
REMARK minimizedAffinity 2.7469523
REMARK minimizedRMSD -1
REMARK  0 active torsions:
REMARK  status: ('A' for Active; 'I' for Inactive)
ROOT
ATOM      1  C   UNL d   1       0.991  -2.064   0.490  0.00  0.00     0.124 A 
ATOM      2  C1  UNL d   1      -0.385  -2.210   0.599  0.00  0.00     0.062 A 
ATOM      3  C2  UNL d   1      -1.199  -1.090   0.744  0.00  0.00     0.162 A 
ATOM      4  C3  UNL d   1      -0.638   0.187   0.780  0.00  0.00    -0.034 A 
ATOM      5  C4  UNL d   1       0.747   0.326   0.671  0.00  0.00     0.162 A 
ATOM      6  C5  UNL d   1       1.555  -0.797   0.526  0.00  0.00     0.062 A 
ATOM      7  F   UNL d   1       2.885  -0.654   0.420  0.00  0.00    -0.097 F 
ATOM      8  F1  UNL d   1       1.319   1.539   0.702  0.00  0.00    -0.096 F 
ATOM      9  I   UNL d   1      -1.851   1.864   0.997  0.00  0.00    -0.060 I 
ATOM     10  F2  UNL d   1      -2.525  -1.261   0.847  0.00  0.00    -0.096 F 
ATOM     11  F3  UNL d   1      -0.933  -3.433   0.565  0.00  0.00    -0.097 F 
ATOM     12  F4  UNL d   1       1.771  -3.143   0.351  0.00  0.00    -0.092 F 
ENDROOT
TORSDOF 0
ENDMDL
