MODEL 1
REMARK minimizedAffinity 1.40955019
REMARK minimizedRMSD -1
REMARK  0 active torsions:
REMARK  status: ('A' for Active; 'I' for Inactive)
ROOT
ATOM      1  C   UNL d   1       4.803  -0.317   5.820  0.00  0.00     0.078 C 
ATOM      2  C1  UNL d   1       4.789   1.182   5.849  0.00  0.00    -0.077 A 
ATOM      3  C2  UNL d   1       3.587   1.890   5.963  0.00  0.00    -0.001 A 
ATOM      4  C3  UNL d   1       3.588   3.286   5.979  0.00  0.00     0.003 A 
ATOM      5  C4  UNL d   1       4.789   3.985   5.880  0.00  0.00    -0.005 A 
ATOM      6  C5  UNL d   1       5.990   3.290   5.764  0.00  0.00     0.003 A 
ATOM      7  C6  UNL d   1       5.991   1.894   5.748  0.00  0.00    -0.001 A 
ENDROOT
TORSDOF 0
ENDMDL
