MODEL 1
REMARK minimizedAffinity 11.0469685
REMARK minimizedRMSD -1
REMARK  0 active torsions:
REMARK  status: ('A' for Active; 'I' for Inactive)
ROOT
ATOM      1  C   UNL d   1      -0.649  -2.180   4.009  0.00  0.00     0.078 C 
ATOM      2  C1  UNL d   1      -0.871  -2.505   2.562  0.00  0.00    -0.077 A 
ATOM      3  C2  UNL d   1      -1.035  -1.489   1.612  0.00  0.00    -0.001 A 
ATOM      4  C3  UNL d   1      -1.251  -1.806   0.270  0.00  0.00     0.003 A 
ATOM      5  C4  UNL d   1      -1.305  -3.138  -0.134  0.00  0.00    -0.005 A 
ATOM      6  C5  UNL d   1      -1.144  -4.156   0.804  0.00  0.00     0.003 A 
ATOM      7  C6  UNL d   1      -0.929  -3.841   2.147  0.00  0.00    -0.001 A 
ENDROOT
TORSDOF 0
ENDMDL
