MODEL 1
REMARK minimizedAffinity 2.60098958
REMARK minimizedRMSD -1
REMARK  0 active torsions:
REMARK  status: ('A' for Active; 'I' for Inactive)
ROOT
ATOM      1  C   UNL d   1      -3.391   2.638   1.058  0.00  0.00     0.078 C 
ATOM      2  C1  UNL d   1      -4.174   3.814   0.554  0.00  0.00    -0.077 A 
ATOM      3  C2  UNL d   1      -5.274   4.307   1.267  0.00  0.00    -0.001 A 
ATOM      4  C3  UNL d   1      -6.000   5.395   0.781  0.00  0.00     0.003 A 
ATOM      5  C4  UNL d   1      -5.634   6.000  -0.421  0.00  0.00    -0.005 A 
ATOM      6  C5  UNL d   1      -4.543   5.515  -1.138  0.00  0.00     0.003 A 
ATOM      7  C6  UNL d   1      -3.816   4.426  -0.654  0.00  0.00    -0.001 A 
ENDROOT
TORSDOF 0
ENDMDL
