MODEL 1
REMARK minimizedAffinity 14.7759151
REMARK minimizedRMSD -1
REMARK  0 active torsions:
REMARK  status: ('A' for Active; 'I' for Inactive)
ROOT
ATOM      1  C   UNL d   1      -1.494  -2.383   3.358  0.00  0.00     0.078 C 
ATOM      2  C1  UNL d   1      -1.506  -3.630   4.191  0.00  0.00    -0.077 A 
ATOM      3  C2  UNL d   1      -0.591  -3.809   5.235  0.00  0.00    -0.001 A 
ATOM      4  C3  UNL d   1      -0.608  -4.979   5.996  0.00  0.00     0.003 A 
ATOM      5  C4  UNL d   1      -1.537  -5.980   5.720  0.00  0.00    -0.005 A 
ATOM      6  C5  UNL d   1      -2.451  -5.811   4.681  0.00  0.00     0.003 A 
ATOM      7  C6  UNL d   1      -2.435  -4.642   3.919  0.00  0.00    -0.001 A 
ENDROOT
TORSDOF 0
ENDMDL
