MODEL 1
REMARK minimizedAffinity 10.8199196
REMARK minimizedRMSD -1
REMARK  0 active torsions:
REMARK  status: ('A' for Active; 'I' for Inactive)
ROOT
ATOM      1  C   UNL d   1      -2.227  -1.291   2.210  0.00  0.00     0.078 C 
ATOM      2  C1  UNL d   1      -1.800  -1.367   0.775  0.00  0.00    -0.077 A 
ATOM      3  C2  UNL d   1      -0.459  -1.576   0.432  0.00  0.00    -0.001 A 
ATOM      4  C3  UNL d   1      -0.074  -1.635  -0.909  0.00  0.00     0.003 A 
ATOM      5  C4  UNL d   1      -1.025  -1.485  -1.917  0.00  0.00    -0.005 A 
ATOM      6  C5  UNL d   1      -2.361  -1.274  -1.585  0.00  0.00     0.003 A 
ATOM      7  C6  UNL d   1      -2.748  -1.215  -0.245  0.00  0.00    -0.001 A 
ENDROOT
TORSDOF 0
ENDMDL
