MODEL 1
REMARK minimizedAffinity 6.5981226
REMARK minimizedRMSD -1
REMARK  0 active torsions:
REMARK  status: ('A' for Active; 'I' for Inactive)
ROOT
ATOM      1  C   UNL d   1       1.065   0.000  -1.936  0.00  0.00     0.078 C 
ATOM      2  C1  UNL d   1      -0.338  -0.499  -1.758  0.00  0.00    -0.077 A 
ATOM      3  C2  UNL d   1      -1.300  -0.322  -2.760  0.00  0.00    -0.001 A 
ATOM      4  C3  UNL d   1      -2.604  -0.783  -2.576  0.00  0.00     0.003 A 
ATOM      5  C4  UNL d   1      -2.959  -1.423  -1.390  0.00  0.00    -0.005 A 
ATOM      6  C5  UNL d   1      -2.010  -1.602  -0.386  0.00  0.00     0.003 A 
ATOM      7  C6  UNL d   1      -0.705  -1.142  -0.568  0.00  0.00    -0.001 A 
ENDROOT
TORSDOF 0
ENDMDL
