MODEL 1
REMARK minimizedAffinity 16.9262428
REMARK minimizedRMSD -1
REMARK  0 active torsions:
REMARK  status: ('A' for Active; 'I' for Inactive)
ROOT
ATOM      1  C   UNL d   1      -2.000  -1.893   3.948  0.00  0.00     0.078 C 
ATOM      2  C1  UNL d   1      -1.632  -2.206   2.528  0.00  0.00    -0.077 A 
ATOM      3  C2  UNL d   1      -2.261  -1.555   1.460  0.00  0.00    -0.001 A 
ATOM      4  C3  UNL d   1      -1.916  -1.863   0.143  0.00  0.00     0.003 A 
ATOM      5  C4  UNL d   1      -0.942  -2.824  -0.118  0.00  0.00    -0.005 A 
ATOM      6  C5  UNL d   1      -0.312  -3.480   0.938  0.00  0.00     0.003 A 
ATOM      7  C6  UNL d   1      -0.656  -3.173   2.256  0.00  0.00    -0.001 A 
ENDROOT
TORSDOF 0
ENDMDL
