MODEL 1
REMARK minimizedAffinity 12.4333324
REMARK minimizedRMSD -1
REMARK  0 active torsions:
REMARK  status: ('A' for Active; 'I' for Inactive)
ROOT
ATOM      1  C   UNL d   1      -3.226  -1.746   0.364  0.00  0.00     0.078 C 
ATOM      2  C1  UNL d   1      -2.760  -1.843  -1.058  0.00  0.00    -0.077 A 
ATOM      3  C2  UNL d   1      -3.266  -0.986  -2.043  0.00  0.00    -0.001 A 
ATOM      4  C3  UNL d   1      -2.830  -1.094  -3.364  0.00  0.00     0.003 A 
ATOM      5  C4  UNL d   1      -1.886  -2.058  -3.713  0.00  0.00    -0.005 A 
ATOM      6  C5  UNL d   1      -1.378  -2.916  -2.740  0.00  0.00     0.003 A 
ATOM      7  C6  UNL d   1      -1.813  -2.810  -1.418  0.00  0.00    -0.001 A 
ENDROOT
TORSDOF 0
ENDMDL
