MODEL 1
REMARK minimizedAffinity 1.5129739
REMARK minimizedRMSD -1
REMARK  0 active torsions:
REMARK  status: ('A' for Active; 'I' for Inactive)
ROOT
ATOM      1  C   UNL d   1      -5.654   5.116   2.261  0.00  0.00     0.078 C 
ATOM      2  C1  UNL d   1      -5.131   5.411   0.887  0.00  0.00    -0.077 A 
ATOM      3  C2  UNL d   1      -6.000   5.737  -0.161  0.00  0.00    -0.001 A 
ATOM      4  C3  UNL d   1      -5.500   5.999  -1.437  0.00  0.00     0.003 A 
ATOM      5  C4  UNL d   1      -4.129   5.936  -1.678  0.00  0.00    -0.005 A 
ATOM      6  C5  UNL d   1      -3.256   5.611  -0.642  0.00  0.00     0.003 A 
ATOM      7  C6  UNL d   1      -3.754   5.348   0.635  0.00  0.00    -0.001 A 
ENDROOT
TORSDOF 0
ENDMDL
