MODEL 1
REMARK minimizedAffinity 5.90833569
REMARK minimizedRMSD -1
REMARK  0 active torsions:
REMARK  status: ('A' for Active; 'I' for Inactive)
ROOT
ATOM      1  C   UNL d   1       4.502   6.000   0.604  0.00  0.00     0.078 C 
ATOM      2  C1  UNL d   1       4.714   4.651  -0.016  0.00  0.00    -0.077 A 
ATOM      3  C2  UNL d   1       3.931   3.553   0.361  0.00  0.00    -0.001 A 
ATOM      4  C3  UNL d   1       4.146   2.301  -0.217  0.00  0.00     0.003 A 
ATOM      5  C4  UNL d   1       5.145   2.135  -1.175  0.00  0.00    -0.005 A 
ATOM      6  C5  UNL d   1       5.930   3.221  -1.555  0.00  0.00     0.003 A 
ATOM      7  C6  UNL d   1       5.717   4.474  -0.977  0.00  0.00    -0.001 A 
ENDROOT
TORSDOF 0
ENDMDL
