MODEL 1
REMARK minimizedAffinity 4.31898832
REMARK minimizedRMSD -1
REMARK  0 active torsions:
REMARK  status: ('A' for Active; 'I' for Inactive)
ROOT
ATOM      1  C   UNL d   1      -1.474  -2.130   4.196  0.00  0.00     0.078 C 
ATOM      2  C1  UNL d   1      -1.540  -2.133   2.698  0.00  0.00    -0.077 A 
ATOM      3  C2  UNL d   1      -0.579  -2.806   1.935  0.00  0.00    -0.001 A 
ATOM      4  C3  UNL d   1      -0.648  -2.793   0.541  0.00  0.00     0.003 A 
ATOM      5  C4  UNL d   1      -1.675  -2.105  -0.102  0.00  0.00    -0.005 A 
ATOM      6  C5  UNL d   1      -2.635  -1.430   0.649  0.00  0.00     0.003 A 
ATOM      7  C6  UNL d   1      -2.568  -1.443   2.043  0.00  0.00    -0.001 A 
ENDROOT
TORSDOF 0
ENDMDL
