MODEL 1
REMARK minimizedAffinity 6.13652468
REMARK minimizedRMSD -1
REMARK  0 active torsions:
REMARK  status: ('A' for Active; 'I' for Inactive)
ROOT
ATOM      1  C   UNL d   1      -3.361   1.526   5.938  0.00  0.00     0.078 C 
ATOM      2  C1  UNL d   1      -2.864   0.112   5.952  0.00  0.00    -0.077 A 
ATOM      3  C2  UNL d   1      -1.493  -0.171   5.998  0.00  0.00    -0.001 A 
ATOM      4  C3  UNL d   1      -1.044  -1.492   6.000  0.00  0.00     0.003 A 
ATOM      5  C4  UNL d   1      -1.959  -2.542   5.954  0.00  0.00    -0.005 A 
ATOM      6  C5  UNL d   1      -3.325  -2.271   5.906  0.00  0.00     0.003 A 
ATOM      7  C6  UNL d   1      -3.776  -0.950   5.904  0.00  0.00    -0.001 A 
ENDROOT
TORSDOF 0
ENDMDL
