MODEL 1
REMARK minimizedAffinity 7.7868681
REMARK minimizedRMSD -1
REMARK  0 active torsions:
REMARK  status: ('A' for Active; 'I' for Inactive)
ROOT
ATOM      1  C   UNL d   1      -2.128  -1.973   4.433  0.00  0.00     0.078 C 
ATOM      2  C1  UNL d   1      -1.792  -2.306   3.010  0.00  0.00    -0.077 A 
ATOM      3  C2  UNL d   1      -0.577  -2.919   2.681  0.00  0.00    -0.001 A 
ATOM      4  C3  UNL d   1      -0.273  -3.214   1.351  0.00  0.00     0.003 A 
ATOM      5  C4  UNL d   1      -1.179  -2.900   0.340  0.00  0.00    -0.005 A 
ATOM      6  C5  UNL d   1      -2.390  -2.289   0.658  0.00  0.00     0.003 A 
ATOM      7  C6  UNL d   1      -2.696  -1.992   1.987  0.00  0.00    -0.001 A 
ENDROOT
TORSDOF 0
ENDMDL
