MODEL 1
REMARK minimizedAffinity 5.35420704
REMARK minimizedRMSD -1
REMARK  0 active torsions:
REMARK  status: ('A' for Active; 'I' for Inactive)
ROOT
ATOM      1  C   UNL d   1      -2.718   1.644   5.663  0.00  0.00     0.078 C 
ATOM      2  C1  UNL d   1      -2.699   0.146   5.612  0.00  0.00    -0.077 A 
ATOM      3  C2  UNL d   1      -3.827  -0.602   5.971  0.00  0.00    -0.001 A 
ATOM      4  C3  UNL d   1      -3.793  -1.997   5.928  0.00  0.00     0.003 A 
ATOM      5  C4  UNL d   1      -2.632  -2.656   5.527  0.00  0.00    -0.005 A 
ATOM      6  C5  UNL d   1      -1.504  -1.920   5.170  0.00  0.00     0.003 A 
ATOM      7  C6  UNL d   1      -1.537  -0.525   5.213  0.00  0.00    -0.001 A 
ENDROOT
TORSDOF 0
ENDMDL
