MODEL 1
REMARK minimizedAffinity -0.960097075
REMARK minimizedRMSD -1
REMARK  1 active torsions:
REMARK  status: ('A' for Active; 'I' for Inactive)
REMARK    1  A    between atoms: N_2  and  C1_3 
ROOT
ATOM      1  C1  UNL d   1       2.311   0.686  -0.015  0.00  0.00     0.143 A 
ATOM      2  C2  UNL d   1       1.556  -0.441   0.330  0.00  0.00    -0.057 A 
ATOM      3  C3  UNL d   1       0.169  -0.359   0.508  0.00  0.00     0.033 A 
ATOM      4  C4  UNL d   1      -0.485   0.861   0.371  0.00  0.00    -0.042 A 
ATOM      5  C5  UNL d   1       0.249   1.998   0.054  0.00  0.00     0.033 A 
ATOM      6  C6  UNL d   1       1.632   1.909  -0.129  0.00  0.00    -0.057 A 
ENDROOT
BRANCH   1   7
ATOM      7  N   UNL d   1       3.705   0.689  -0.108  0.00  0.00    -0.732 N 
ATOM      8  C   UNL d   1       4.396   1.774  -0.771  0.00  0.00     0.284 C 
ATOM      9  H3  UNL d   1       4.152   0.372   0.749  0.00  0.00     0.395 HD
ENDBRANCH   1   7
TORSDOF 1
ENDMDL
