MODEL 1
REMARK minimizedAffinity 0.123478919
REMARK minimizedRMSD -1
REMARK  1 active torsions:
REMARK  status: ('A' for Active; 'I' for Inactive)
REMARK    1  A    between atoms: N_2  and  C1_3 
ROOT
ATOM      1  C1  UNL d   1      -0.235  -1.452   1.055  0.00  0.00     0.143 A 
ATOM      2  C2  UNL d   1      -0.422  -0.197   1.643  0.00  0.00    -0.057 A 
ATOM      3  C3  UNL d   1      -1.626   0.503   1.494  0.00  0.00     0.033 A 
ATOM      4  C4  UNL d   1      -2.657  -0.030   0.726  0.00  0.00    -0.042 A 
ATOM      5  C5  UNL d   1      -2.483  -1.266   0.112  0.00  0.00     0.033 A 
ATOM      6  C6  UNL d   1      -1.281  -1.962   0.270  0.00  0.00    -0.057 A 
ENDROOT
BRANCH   1   7
ATOM      7  N   UNL d   1       0.974  -2.152   1.084  0.00  0.00    -0.732 N 
ATOM      8  C   UNL d   1       1.970  -1.947   0.056  0.00  0.00     0.284 C 
ATOM      9  H3  UNL d   1       1.356  -2.228   2.024  0.00  0.00     0.395 HD
ENDBRANCH   1   7
TORSDOF 1
ENDMDL
