MODEL 1
REMARK minimizedAffinity 0.853301466
REMARK minimizedRMSD -1
REMARK  1 active torsions:
REMARK  status: ('A' for Active; 'I' for Inactive)
REMARK    1  A    between atoms: N_2  and  C1_3 
ROOT
ATOM      1  C1  UNL d   1      -2.411   0.521   2.590  0.00  0.00     0.143 A 
ATOM      2  C2  UNL d   1      -1.206  -0.061   2.999  0.00  0.00    -0.057 A 
ATOM      3  C3  UNL d   1      -0.387  -0.747   2.094  0.00  0.00     0.033 A 
ATOM      4  C4  UNL d   1      -0.774  -0.888   0.765  0.00  0.00    -0.042 A 
ATOM      5  C5  UNL d   1      -1.979  -0.339   0.342  0.00  0.00     0.033 A 
ATOM      6  C6  UNL d   1      -2.789   0.351   1.249  0.00  0.00    -0.057 A 
ENDROOT
BRANCH   1   7
ATOM      7  N   UNL d   1      -3.316   1.131   3.462  0.00  0.00    -0.732 N 
ATOM      8  C   UNL d   1      -4.660   0.615   3.608  0.00  0.00     0.284 C 
ATOM      9  H3  UNL d   1      -2.881   1.413   4.338  0.00  0.00     0.395 HD
ENDBRANCH   1   7
TORSDOF 1
ENDMDL
