MODEL 1
REMARK minimizedAffinity 8.34942532
REMARK minimizedRMSD -1
REMARK  1 active torsions:
REMARK  status: ('A' for Active; 'I' for Inactive)
REMARK    1  A    between atoms: N_2  and  C1_3 
ROOT
ATOM      1  C1  UNL d   1       3.349  -3.045  -0.113  0.00  0.00     0.143 A 
ATOM      2  C2  UNL d   1       4.481  -2.299   0.233  0.00  0.00    -0.057 A 
ATOM      3  C3  UNL d   1       4.382  -0.943   0.566  0.00  0.00     0.033 A 
ATOM      4  C4  UNL d   1       3.150  -0.299   0.530  0.00  0.00    -0.042 A 
ATOM      5  C5  UNL d   1       2.015  -1.015   0.165  0.00  0.00     0.033 A 
ATOM      6  C6  UNL d   1       2.119  -2.371  -0.160  0.00  0.00    -0.057 A 
ENDROOT
BRANCH   1   7
ATOM      7  N   UNL d   1       3.395  -4.372  -0.549  0.00  0.00    -0.732 N 
ATOM      8  C   UNL d   1       4.200  -5.350   0.150  0.00  0.00     0.284 C 
ATOM      9  H3  UNL d   1       2.483  -4.716  -0.842  0.00  0.00     0.395 HD
ENDBRANCH   1   7
TORSDOF 1
ENDMDL
