MODEL 1
REMARK minimizedAffinity 2.963907
REMARK minimizedRMSD -1
REMARK  1 active torsions:
REMARK  status: ('A' for Active; 'I' for Inactive)
REMARK    1  A    between atoms: N_2  and  C1_3 
ROOT
ATOM      1  C1  UNL d   1       3.644   1.548  -0.551  0.00  0.00     0.143 A 
ATOM      2  C2  UNL d   1       4.652   2.175  -1.292  0.00  0.00    -0.057 A 
ATOM      3  C3  UNL d   1       4.644   2.153  -2.692  0.00  0.00     0.033 A 
ATOM      4  C4  UNL d   1       3.640   1.476  -3.377  0.00  0.00    -0.042 A 
ATOM      5  C5  UNL d   1       2.642   0.825  -2.661  0.00  0.00     0.033 A 
ATOM      6  C6  UNL d   1       2.652   0.857  -1.263  0.00  0.00    -0.057 A 
ENDROOT
BRANCH   1   7
ATOM      7  N   UNL d   1       3.649   1.451   0.843  0.00  0.00    -0.732 N 
ATOM      8  C   UNL d   1       4.142   0.258   1.496  0.00  0.00     0.284 C 
ATOM      9  H3  UNL d   1       3.935   2.319   1.291  0.00  0.00     0.395 HD
ENDBRANCH   1   7
TORSDOF 1
ENDMDL
