MODEL 1
REMARK minimizedAffinity 6.05285215
REMARK minimizedRMSD -1
REMARK  1 active torsions:
REMARK  status: ('A' for Active; 'I' for Inactive)
REMARK    1  A    between atoms: N_2  and  C1_3 
ROOT
ATOM      1  C1  UNL d   1      -4.797  -1.798  -4.465  0.00  0.00     0.143 A 
ATOM      2  C2  UNL d   1      -3.600  -1.170  -4.104  0.00  0.00    -0.057 A 
ATOM      3  C3  UNL d   1      -3.598   0.006  -3.345  0.00  0.00     0.033 A 
ATOM      4  C4  UNL d   1      -4.797   0.594  -2.957  0.00  0.00    -0.042 A 
ATOM      5  C5  UNL d   1      -6.000   0.001  -3.326  0.00  0.00     0.033 A 
ATOM      6  C6  UNL d   1      -5.996  -1.177  -4.079  0.00  0.00    -0.057 A 
ENDROOT
BRANCH   1   7
ATOM      7  N   UNL d   1      -4.868  -2.914  -5.302  0.00  0.00    -0.732 N 
ATOM      8  C   UNL d   1      -5.964  -3.853  -5.187  0.00  0.00     0.284 C 
ATOM      9  H3  UNL d   1      -4.605  -2.699  -6.261  0.00  0.00     0.395 HD
ENDBRANCH   1   7
TORSDOF 1
ENDMDL
