MODEL 1
REMARK minimizedAffinity -0.473882675
REMARK minimizedRMSD -1
REMARK  1 active torsions:
REMARK  status: ('A' for Active; 'I' for Inactive)
REMARK    1  A    between atoms: N_2  and  C1_3 
ROOT
ATOM      1  C1  UNL d   1      -4.928  -0.102  -3.673  0.00  0.00     0.143 A 
ATOM      2  C2  UNL d   1      -3.793  -0.333  -4.458  0.00  0.00    -0.057 A 
ATOM      3  C3  UNL d   1      -3.741  -1.400  -5.363  0.00  0.00     0.033 A 
ATOM      4  C4  UNL d   1      -4.816  -2.275  -5.478  0.00  0.00    -0.042 A 
ATOM      5  C5  UNL d   1      -5.944  -2.080  -4.690  0.00  0.00     0.033 A 
ATOM      6  C6  UNL d   1      -5.993  -1.009  -3.793  0.00  0.00    -0.057 A 
ENDROOT
BRANCH   1   7
ATOM      7  N   UNL d   1      -5.003   0.883  -2.685  0.00  0.00    -0.732 N 
ATOM      8  C   UNL d   1      -5.983   0.789  -1.624  0.00  0.00     0.284 C 
ATOM      9  H3  UNL d   1      -4.085   1.194  -2.376  0.00  0.00     0.395 HD
ENDBRANCH   1   7
TORSDOF 1
ENDMDL
