MODEL 1
REMARK minimizedAffinity -0.994430184
REMARK minimizedRMSD -1
REMARK  1 active torsions:
REMARK  status: ('A' for Active; 'I' for Inactive)
REMARK    1  A    between atoms: N_2  and  C1_3 
ROOT
ATOM      1  C1  UNL d   1      -0.414   0.025   0.822  0.00  0.00     0.143 A 
ATOM      2  C2  UNL d   1      -1.491  -0.586   0.172  0.00  0.00    -0.057 A 
ATOM      3  C3  UNL d   1      -1.569  -1.979   0.048  0.00  0.00     0.033 A 
ATOM      4  C4  UNL d   1      -0.553  -2.786   0.549  0.00  0.00    -0.042 A 
ATOM      5  C5  UNL d   1       0.540  -2.199   1.177  0.00  0.00     0.033 A 
ATOM      6  C6  UNL d   1       0.609  -0.808   1.303  0.00  0.00    -0.057 A 
ENDROOT
BRANCH   1   7
ATOM      7  N   UNL d   1      -0.230   1.408   0.890  0.00  0.00    -0.732 N 
ATOM      8  C   UNL d   1       0.111   2.166  -0.295  0.00  0.00     0.284 C 
ATOM      9  H3  UNL d   1      -0.913   1.861   1.492  0.00  0.00     0.395 HD
ENDBRANCH   1   7
TORSDOF 1
ENDMDL
