MODEL 1
REMARK minimizedAffinity 4.7249856
REMARK minimizedRMSD -1
REMARK  1 active torsions:
REMARK  status: ('A' for Active; 'I' for Inactive)
REMARK    1  A    between atoms: N_2  and  C1_3 
ROOT
ATOM      1  C1  UNL d   1       0.131  -1.437   0.604  0.00  0.00     0.143 A 
ATOM      2  C2  UNL d   1      -0.168  -0.302   1.365  0.00  0.00    -0.057 A 
ATOM      3  C3  UNL d   1      -1.479   0.181   1.463  0.00  0.00     0.033 A 
ATOM      4  C4  UNL d   1      -2.512  -0.449   0.777  0.00  0.00    -0.042 A 
ATOM      5  C5  UNL d   1      -2.234  -1.564  -0.004  0.00  0.00     0.033 A 
ATOM      6  C6  UNL d   1      -0.924  -2.046  -0.094  0.00  0.00    -0.057 A 
ENDROOT
BRANCH   1   7
ATOM      7  N   UNL d   1       1.428  -1.908   0.388  0.00  0.00    -0.732 N 
ATOM      8  C   UNL d   1       2.359  -1.156  -0.426  0.00  0.00     0.284 C 
ATOM      9  H3  UNL d   1       1.841  -2.311   1.226  0.00  0.00     0.395 HD
ENDBRANCH   1   7
TORSDOF 1
ENDMDL
