MODEL 1
REMARK minimizedAffinity 3.87419319
REMARK minimizedRMSD -1
REMARK  1 active torsions:
REMARK  status: ('A' for Active; 'I' for Inactive)
REMARK    1  A    between atoms: N_2  and  C1_3 
ROOT
ATOM      1  C1  UNL d   1      -3.140   0.246   2.498  0.00  0.00     0.143 A 
ATOM      2  C2  UNL d   1      -1.901  -0.082   3.058  0.00  0.00    -0.057 A 
ATOM      3  C3  UNL d   1      -0.828  -0.492   2.257  0.00  0.00     0.033 A 
ATOM      4  C4  UNL d   1      -0.985  -0.609   0.880  0.00  0.00    -0.042 A 
ATOM      5  C5  UNL d   1      -2.215  -0.311   0.304  0.00  0.00     0.033 A 
ATOM      6  C6  UNL d   1      -3.281   0.104   1.109  0.00  0.00    -0.057 A 
ENDROOT
BRANCH   1   7
ATOM      7  N   UNL d   1      -4.273   0.565   3.250  0.00  0.00    -0.732 N 
ATOM      8  C   UNL d   1      -5.593   0.197   2.786  0.00  0.00     0.284 C 
ATOM      9  H3  UNL d   1      -4.129   0.426   4.248  0.00  0.00     0.395 HD
ENDBRANCH   1   7
TORSDOF 1
ENDMDL
