MODEL 1
REMARK minimizedAffinity 9.30967331
REMARK minimizedRMSD -1
REMARK  1 active torsions:
REMARK  status: ('A' for Active; 'I' for Inactive)
REMARK    1  A    between atoms: N_2  and  C1_3 
ROOT
ATOM      1  C1  UNL d   1      -2.135  -1.479  -0.361  0.00  0.00     0.143 A 
ATOM      2  C2  UNL d   1      -0.942  -1.759   0.313  0.00  0.00    -0.057 A 
ATOM      3  C3  UNL d   1      -0.459  -0.910   1.317  0.00  0.00     0.033 A 
ATOM      4  C4  UNL d   1      -1.149   0.252   1.645  0.00  0.00    -0.042 A 
ATOM      5  C5  UNL d   1      -2.325   0.563   0.971  0.00  0.00     0.033 A 
ATOM      6  C6  UNL d   1      -2.805  -0.292  -0.025  0.00  0.00    -0.057 A 
ENDROOT
BRANCH   1   7
ATOM      7  N   UNL d   1      -2.616  -2.231  -1.435  0.00  0.00    -0.732 N 
ATOM      8  C   UNL d   1      -2.858  -1.611  -2.720  0.00  0.00     0.284 C 
ATOM      9  H3  UNL d   1      -2.181  -3.149  -1.492  0.00  0.00     0.395 HD
ENDBRANCH   1   7
TORSDOF 1
ENDMDL
