MODEL 1
REMARK minimizedAffinity 19.3832054
REMARK minimizedRMSD -1
REMARK  1 active torsions:
REMARK  status: ('A' for Active; 'I' for Inactive)
REMARK    1  A    between atoms: N_2  and  C1_3 
ROOT
ATOM      1  C1  UNL d   1       4.011  -0.893   0.546  0.00  0.00     0.143 A 
ATOM      2  C2  UNL d   1       4.482   0.410   0.744  0.00  0.00    -0.057 A 
ATOM      3  C3  UNL d   1       3.619   1.511   0.683  0.00  0.00     0.033 A 
ATOM      4  C4  UNL d   1       2.271   1.331   0.395  0.00  0.00    -0.042 A 
ATOM      5  C5  UNL d   1       1.785   0.047   0.171  0.00  0.00     0.033 A 
ATOM      6  C6  UNL d   1       2.650  -1.049   0.239  0.00  0.00    -0.057 A 
ENDROOT
BRANCH   1   7
ATOM      7  N   UNL d   1       4.836  -2.019   0.496  0.00  0.00    -0.732 N 
ATOM      8  C   UNL d   1       4.273  -3.336   0.289  0.00  0.00     0.284 C 
ATOM      9  H3  UNL d   1       5.695  -1.848  -0.021  0.00  0.00     0.395 HD
ENDBRANCH   1   7
TORSDOF 1
ENDMDL
