MODEL 1
REMARK minimizedAffinity 0.145933807
REMARK minimizedRMSD -1
REMARK  1 active torsions:
REMARK  status: ('A' for Active; 'I' for Inactive)
REMARK    1  A    between atoms: N_2  and  C1_3 
ROOT
ATOM      1  C1  UNL d   1       4.480   2.593   0.997  0.00  0.00     0.143 A 
ATOM      2  C2  UNL d   1       4.031   2.815   2.303  0.00  0.00    -0.057 A 
ATOM      3  C3  UNL d   1       4.228   4.046   2.939  0.00  0.00     0.033 A 
ATOM      4  C4  UNL d   1       4.906   5.072   2.288  0.00  0.00    -0.042 A 
ATOM      5  C5  UNL d   1       5.383   4.865   0.998  0.00  0.00     0.033 A 
ATOM      6  C6  UNL d   1       5.177   3.635   0.366  0.00  0.00    -0.057 A 
ENDROOT
BRANCH   1   7
ATOM      7  N   UNL d   1       4.401   1.359   0.346  0.00  0.00    -0.732 N 
ATOM      8  C   UNL d   1       3.692   0.251   0.950  0.00  0.00     0.284 C 
ATOM      9  H3  UNL d   1       4.245   1.457  -0.655  0.00  0.00     0.395 HD
ENDBRANCH   1   7
TORSDOF 1
ENDMDL
