MODEL 1
REMARK minimizedAffinity 5.6676445
REMARK minimizedRMSD -1
REMARK  1 active torsions:
REMARK  status: ('A' for Active; 'I' for Inactive)
REMARK    1  A    between atoms: N_2  and  C1_3 
ROOT
ATOM      1  C1  UNL d   1      -0.453  -1.382   1.370  0.00  0.00     0.143 A 
ATOM      2  C2  UNL d   1      -1.556  -1.857   0.652  0.00  0.00    -0.057 A 
ATOM      3  C3  UNL d   1      -2.588  -0.999   0.255  0.00  0.00     0.033 A 
ATOM      4  C4  UNL d   1      -2.550   0.349   0.596  0.00  0.00    -0.042 A 
ATOM      5  C5  UNL d   1      -1.476   0.838   1.331  0.00  0.00     0.033 A 
ATOM      6  C6  UNL d   1      -0.445  -0.023   1.719  0.00  0.00    -0.057 A 
ENDROOT
BRANCH   1   7
ATOM      7  N   UNL d   1       0.557  -2.203   1.879  0.00  0.00    -0.732 N 
ATOM      8  C   UNL d   1       0.828  -2.244   3.299  0.00  0.00     0.284 C 
ATOM      9  H3  UNL d   1       0.583  -3.113   1.424  0.00  0.00     0.395 HD
ENDBRANCH   1   7
TORSDOF 1
ENDMDL
