MODEL 1
REMARK minimizedAffinity 9.33716488
REMARK minimizedRMSD -1
REMARK  1 active torsions:
REMARK  status: ('A' for Active; 'I' for Inactive)
REMARK    1  A    between atoms: N_2  and  C1_3 
ROOT
ATOM      1  C1  UNL d   1      -0.531  -1.349   1.780  0.00  0.00     0.143 A 
ATOM      2  C2  UNL d   1      -1.396  -0.294   2.090  0.00  0.00    -0.057 A 
ATOM      3  C3  UNL d   1      -2.683  -0.225   1.542  0.00  0.00     0.033 A 
ATOM      4  C4  UNL d   1      -3.117  -1.198   0.648  0.00  0.00    -0.042 A 
ATOM      5  C5  UNL d   1      -2.265  -2.242   0.305  0.00  0.00     0.033 A 
ATOM      6  C6  UNL d   1      -0.984  -2.309   0.861  0.00  0.00    -0.057 A 
ENDROOT
BRANCH   1   7
ATOM      7  N   UNL d   1       0.795  -1.421   2.215  0.00  0.00    -0.732 N 
ATOM      8  C   UNL d   1       1.133  -2.123   3.434  0.00  0.00     0.284 C 
ATOM      9  H3  UNL d   1       1.447  -1.579   1.449  0.00  0.00     0.395 HD
ENDBRANCH   1   7
TORSDOF 1
ENDMDL
