MODEL 1
REMARK minimizedAffinity 10.5330191
REMARK minimizedRMSD -1
REMARK  1 active torsions:
REMARK  status: ('A' for Active; 'I' for Inactive)
REMARK    1  A    between atoms: N_2  and  C1_3 
ROOT
ATOM      1  C1  UNL d   1      -4.037  -4.092  -3.915  0.00  0.00     0.143 A 
ATOM      2  C2  UNL d   1      -2.998  -5.009  -4.101  0.00  0.00    -0.057 A 
ATOM      3  C3  UNL d   1      -3.033  -5.946  -5.141  0.00  0.00     0.033 A 
ATOM      4  C4  UNL d   1      -4.126  -6.000  -6.000  0.00  0.00    -0.042 A 
ATOM      5  C5  UNL d   1      -5.182  -5.114  -5.819  0.00  0.00     0.033 A 
ATOM      6  C6  UNL d   1      -5.138  -4.177  -4.782  0.00  0.00    -0.057 A 
ENDROOT
BRANCH   1   7
ATOM      7  N   UNL d   1      -4.107  -3.202  -2.840  0.00  0.00    -0.732 N 
ATOM      8  C   UNL d   1      -4.151  -1.774  -3.068  0.00  0.00     0.284 C 
ATOM      9  H3  UNL d   1      -4.735  -3.526  -2.108  0.00  0.00     0.395 HD
ENDBRANCH   1   7
TORSDOF 1
ENDMDL
