MODEL 1
REMARK minimizedAffinity -5.13376427
REMARK minimizedRMSD -1
REMARK  0 active torsions:
REMARK  status: ('A' for Active; 'I' for Inactive)
ROOT
ATOM      1  N1  IND d   1       1.095  -0.574   0.440  0.00  0.00    -0.196 N 
ATOM      2  C2  IND d   1       0.963   0.709  -0.012  0.00  0.00     0.054 A 
ATOM      3  C3  IND d   1      -0.316   1.125   0.122  0.00  0.00    -0.031 A 
ATOM      4  C4  IND d   1      -2.335  -0.096   1.151  0.00  0.00     0.051 A 
ATOM      5  C5  IND d   1      -2.715  -1.303   1.667  0.00  0.00    -0.031 A 
ATOM      6  C6  IND d   1      -1.826  -2.350   1.806  0.00  0.00     0.015 A 
ATOM      7  C7  IND d   1      -0.515  -2.223   1.442  0.00  0.00    -0.016 A 
ATOM      8  C8  IND d   1      -0.127  -1.001   0.912  0.00  0.00    -0.047 A 
ATOM      9  C9  IND d   1      -1.035   0.050   0.729  0.00  0.00    -0.096 A 
ATOM     10  HN1 IND d   1       1.819  -1.037   0.431  0.00  0.00     0.298 HD
ENDROOT
TORSDOF 0
ENDMDL
