MODEL 1
REMARK minimizedAffinity -5.85812426
REMARK minimizedRMSD -1
REMARK  0 active torsions:
REMARK  status: ('A' for Active; 'I' for Inactive)
ROOT
ATOM      1  N1  IND d   1       0.712  -0.533   0.286  0.00  0.00    -0.196 N 
ATOM      2  C2  IND d   1       0.569   0.814   0.099  0.00  0.00     0.054 A 
ATOM      3  C3  IND d   1      -0.685   1.203   0.422  0.00  0.00    -0.031 A 
ATOM      4  C4  IND d   1      -2.634  -0.184   1.374  0.00  0.00     0.051 A 
ATOM      5  C5  IND d   1      -2.994  -1.466   1.682  0.00  0.00    -0.031 A 
ATOM      6  C6  IND d   1      -2.119  -2.524   1.540  0.00  0.00     0.015 A 
ATOM      7  C7  IND d   1      -0.841  -2.336   1.093  0.00  0.00    -0.016 A 
ATOM      8  C8  IND d   1      -0.474  -1.037   0.773  0.00  0.00    -0.047 A 
ATOM      9  C9  IND d   1      -1.371   0.034   0.874  0.00  0.00    -0.096 A 
ATOM     10  HN1 IND d   1       1.423  -0.989   0.125  0.00  0.00     0.298 HD
ENDROOT
TORSDOF 0
ENDMDL
