MODEL 1
REMARK minimizedAffinity -0.521582723
REMARK minimizedRMSD -1
REMARK  0 active torsions:
REMARK  status: ('A' for Active; 'I' for Inactive)
ROOT
ATOM      1  N1  IND d   1      -0.603   1.362   0.199  0.00  0.00    -0.196 N 
ATOM      2  C2  IND d   1       0.576   1.672  -0.420  0.00  0.00     0.054 A 
ATOM      3  C3  IND d   1       1.339   0.564  -0.560  0.00  0.00    -0.031 A 
ATOM      4  C4  IND d   1       0.809  -1.877   0.062  0.00  0.00     0.051 A 
ATOM      5  C5  IND d   1      -0.130  -2.650   0.685  0.00  0.00    -0.031 A 
ATOM      6  C6  IND d   1      -1.300  -2.115   1.185  0.00  0.00     0.015 A 
ATOM      7  C7  IND d   1      -1.580  -0.783   1.071  0.00  0.00    -0.016 A 
ATOM      8  C8  IND d   1      -0.626   0.006   0.445  0.00  0.00    -0.047 A 
ATOM      9  C9  IND d   1       0.582  -0.524  -0.027  0.00  0.00    -0.096 A 
ATOM     10  HN1 IND d   1      -1.225   1.919   0.401  0.00  0.00     0.298 HD
ENDROOT
TORSDOF 0
ENDMDL
