MODEL 1
REMARK minimizedAffinity -3.49766278
REMARK minimizedRMSD -1
REMARK  0 active torsions:
REMARK  status: ('A' for Active; 'I' for Inactive)
ROOT
ATOM      1  N1  IND d   1      -1.550   1.275   1.131  0.00  0.00    -0.196 N 
ATOM      2  C2  IND d   1      -2.482   0.808   2.015  0.00  0.00     0.054 A 
ATOM      3  C3  IND d   1      -2.281  -0.507   2.259  0.00  0.00    -0.031 A 
ATOM      4  C4  IND d   1      -0.423  -2.065   1.396  0.00  0.00     0.051 A 
ATOM      5  C5  IND d   1       0.639  -2.103   0.536  0.00  0.00    -0.031 A 
ATOM      6  C6  IND d   1       1.035  -0.993  -0.182  0.00  0.00     0.015 A 
ATOM      7  C7  IND d   1       0.388   0.204  -0.057  0.00  0.00    -0.016 A 
ATOM      8  C8  IND d   1      -0.695   0.244   0.810  0.00  0.00    -0.047 A 
ATOM      9  C9  IND d   1      -1.127  -0.890   1.509  0.00  0.00    -0.096 A 
ATOM     10  HN1 IND d   1      -1.505   2.078   0.828  0.00  0.00     0.298 HD
ENDROOT
TORSDOF 0
ENDMDL
