MODEL 1
REMARK minimizedAffinity -1.93604267
REMARK minimizedRMSD -1
REMARK  0 active torsions:
REMARK  status: ('A' for Active; 'I' for Inactive)
ROOT
ATOM      1  N1  IND d   1      -0.349   1.377  -0.273  0.00  0.00    -0.196 N 
ATOM      2  C2  IND d   1       0.417   1.463  -1.402  0.00  0.00     0.054 A 
ATOM      3  C3  IND d   1       1.117   0.321  -1.584  0.00  0.00    -0.031 A 
ATOM      4  C4  IND d   1       1.085  -1.854  -0.208  0.00  0.00     0.051 A 
ATOM      5  C5  IND d   1       0.569  -2.399   0.935  0.00  0.00    -0.031 A 
ATOM      6  C6  IND d   1      -0.299  -1.699   1.748  0.00  0.00     0.015 A 
ATOM      7  C7  IND d   1      -0.694  -0.427   1.442  0.00  0.00    -0.016 A 
ATOM      8  C8  IND d   1      -0.166   0.131   0.286  0.00  0.00    -0.047 A 
ATOM      9  C9  IND d   1       0.748  -0.559  -0.521  0.00  0.00    -0.096 A 
ATOM     10  HN1 IND d   1      -0.858   1.997   0.037  0.00  0.00     0.298 HD
ENDROOT
TORSDOF 0
ENDMDL
