MODEL 1
REMARK minimizedAffinity -3.48773217
REMARK minimizedRMSD -1
REMARK  0 active torsions:
REMARK  status: ('A' for Active; 'I' for Inactive)
ROOT
ATOM      1  N1  IND d   1      -2.316  -0.987   1.808  0.00  0.00    -0.196 N 
ATOM      2  C2  IND d   1      -2.055  -2.324   1.919  0.00  0.00     0.054 A 
ATOM      3  C3  IND d   1      -0.910  -2.636   1.272  0.00  0.00    -0.031 A 
ATOM      4  C4  IND d   1       0.750  -1.093   0.050  0.00  0.00     0.051 A 
ATOM      5  C5  IND d   1       0.923   0.203  -0.347  0.00  0.00    -0.031 A 
ATOM      6  C6  IND d   1       0.008   1.189  -0.039  0.00  0.00     0.015 A 
ATOM      7  C7  IND d   1      -1.113   0.917   0.693  0.00  0.00    -0.016 A 
ATOM      8  C8  IND d   1      -1.295  -0.400   1.093  0.00  0.00    -0.047 A 
ATOM      9  C9  IND d   1      -0.392  -1.413   0.746  0.00  0.00    -0.096 A 
ATOM     10  HN1 IND d   1      -3.001  -0.581   2.131  0.00  0.00     0.298 HD
ENDROOT
TORSDOF 0
ENDMDL
