MODEL 1
REMARK minimizedAffinity -2.49539328
REMARK minimizedRMSD -1
REMARK  0 active torsions:
REMARK  status: ('A' for Active; 'I' for Inactive)
ROOT
ATOM      1  N1  IND d   1      -0.333   0.457  -0.584  0.00  0.00    -0.196 N 
ATOM      2  C2  IND d   1       0.371   0.199   0.559  0.00  0.00     0.054 A 
ATOM      3  C3  IND d   1       1.622   0.703   0.465  0.00  0.00    -0.031 A 
ATOM      4  C4  IND d   1       2.694   2.075  -1.431  0.00  0.00     0.051 A 
ATOM      5  C5  IND d   1       2.456   2.535  -2.696  0.00  0.00    -0.031 A 
ATOM      6  C6  IND d   1       1.250   2.324  -3.333  0.00  0.00     0.015 A 
ATOM      7  C7  IND d   1       0.230   1.652  -2.722  0.00  0.00    -0.016 A 
ATOM      8  C8  IND d   1       0.471   1.177  -1.441  0.00  0.00    -0.047 A 
ATOM      9  C9  IND d   1       1.707   1.352  -0.805  0.00  0.00    -0.096 A 
ATOM     10  HN1 IND d   1      -1.142   0.212  -0.742  0.00  0.00     0.298 HD
ENDROOT
TORSDOF 0
ENDMDL
