MODEL 1
REMARK minimizedAffinity -3.27444386
REMARK minimizedRMSD -1
REMARK  0 active torsions:
REMARK  status: ('A' for Active; 'I' for Inactive)
ROOT
ATOM      1  N1  IND d   1      -1.979  -0.869   1.832  0.00  0.00    -0.196 N 
ATOM      2  C2  IND d   1      -1.547  -2.165   1.868  0.00  0.00     0.054 A 
ATOM      3  C3  IND d   1      -0.440  -2.313   1.106  0.00  0.00    -0.031 A 
ATOM      4  C4  IND d   1       0.892  -0.543  -0.205  0.00  0.00     0.051 A 
ATOM      5  C5  IND d   1       0.866   0.775  -0.568  0.00  0.00    -0.031 A 
ATOM      6  C6  IND d   1      -0.129   1.629  -0.139  0.00  0.00     0.015 A 
ATOM      7  C7  IND d   1      -1.132   1.199   0.683  0.00  0.00    -0.016 A 
ATOM      8  C8  IND d   1      -1.113  -0.139   1.048  0.00  0.00    -0.047 A 
ATOM      9  C9  IND d   1      -0.130  -1.021   0.581  0.00  0.00    -0.096 A 
ATOM     10  HN1 IND d   1      -2.675  -0.560   2.232  0.00  0.00     0.298 HD
ENDROOT
TORSDOF 0
ENDMDL
