MODEL 1
REMARK minimizedAffinity 0.554894328
REMARK minimizedRMSD -1
REMARK  0 active torsions:
REMARK  status: ('A' for Active; 'I' for Inactive)
ROOT
ATOM      1  N1  IND d   1      -1.585   1.548   1.070  0.00  0.00    -0.196 N 
ATOM      2  C2  IND d   1      -2.621   1.148   1.868  0.00  0.00     0.054 A 
ATOM      3  C3  IND d   1      -2.616  -0.197   2.004  0.00  0.00    -0.031 A 
ATOM      4  C4  IND d   1      -0.944  -1.928   1.090  0.00  0.00     0.051 A 
ATOM      5  C5  IND d   1       0.149  -2.046   0.278  0.00  0.00    -0.031 A 
ATOM      6  C6  IND d   1       0.733  -0.948  -0.322  0.00  0.00     0.015 A 
ATOM      7  C7  IND d   1       0.251   0.314  -0.121  0.00  0.00    -0.016 A 
ATOM      8  C8  IND d   1      -0.863   0.436   0.697  0.00  0.00    -0.047 A 
ATOM      9  C9  IND d   1      -1.486  -0.678   1.274  0.00  0.00    -0.096 A 
ATOM     10  HN1 IND d   1      -1.413   2.359   0.841  0.00  0.00     0.298 HD
ENDROOT
TORSDOF 0
ENDMDL
