MODEL 1
REMARK minimizedAffinity -5.64563036
REMARK minimizedRMSD -1
REMARK  0 active torsions:
REMARK  status: ('A' for Active; 'I' for Inactive)
ROOT
ATOM      1  N1  IND d   1       1.089   0.177   0.565  0.00  0.00    -0.196 N 
ATOM      2  C2  IND d   1       1.926  -0.904   0.538  0.00  0.00     0.054 A 
ATOM      3  C3  IND d   1       1.218  -2.049   0.658  0.00  0.00    -0.031 A 
ATOM      4  C4  IND d   1      -1.330  -2.389   0.806  0.00  0.00     0.051 A 
ATOM      5  C5  IND d   1      -2.505  -1.698   0.904  0.00  0.00    -0.031 A 
ATOM      6  C6  IND d   1      -2.543  -0.319   0.892  0.00  0.00     0.015 A 
ATOM      7  C7  IND d   1      -1.403   0.424   0.768  0.00  0.00    -0.016 A 
ATOM      8  C8  IND d   1      -0.207  -0.274   0.675  0.00  0.00    -0.047 A 
ATOM      9  C9  IND d   1      -0.159  -1.673   0.730  0.00  0.00    -0.096 A 
ATOM     10  HN1 IND d   1       1.333   1.001   0.520  0.00  0.00     0.298 HD
ENDROOT
TORSDOF 0
ENDMDL
