MODEL 1
REMARK minimizedAffinity 0.652944267
REMARK minimizedRMSD -1
REMARK  0 active torsions:
REMARK  status: ('A' for Active; 'I' for Inactive)
ROOT
ATOM      1  N1  IND d   1      -0.886   0.975  -0.547  0.00  0.00    -0.196 N 
ATOM      2  C2  IND d   1      -0.093   0.400   0.406  0.00  0.00     0.054 A 
ATOM      3  C3  IND d   1       1.211   0.530   0.074  0.00  0.00    -0.031 A 
ATOM      4  C4  IND d   1       2.275   1.740  -1.934  0.00  0.00     0.051 A 
ATOM      5  C5  IND d   1       1.954   2.386  -3.095  0.00  0.00    -0.031 A 
ATOM      6  C6  IND d   1       0.645   2.602  -3.472  0.00  0.00     0.015 A 
ATOM      7  C7  IND d   1      -0.398   2.187  -2.693  0.00  0.00    -0.016 A 
ATOM      8  C8  IND d   1      -0.077   1.524  -1.517  0.00  0.00    -0.047 A 
ATOM      9  C9  IND d   1       1.250   1.265  -1.150  0.00  0.00    -0.096 A 
ATOM     10  HN1 IND d   1      -1.746   0.991  -0.542  0.00  0.00     0.298 HD
ENDROOT
TORSDOF 0
ENDMDL
