MODEL 1
REMARK minimizedAffinity -5.23386288
REMARK minimizedRMSD -1
REMARK  0 active torsions:
REMARK  status: ('A' for Active; 'I' for Inactive)
ROOT
ATOM      1  N1  IND d   1       0.160  -0.033   0.402  0.00  0.00    -0.196 N 
ATOM      2  C2  IND d   1       1.093  -1.031   0.349  0.00  0.00     0.054 A 
ATOM      3  C3  IND d   1       0.576  -2.184   0.831  0.00  0.00    -0.031 A 
ATOM      4  C4  IND d   1      -1.807  -2.686   1.664  0.00  0.00     0.051 A 
ATOM      5  C5  IND d   1      -3.003  -2.082   1.935  0.00  0.00    -0.031 A 
ATOM      6  C6  IND d   1      -3.211  -0.738   1.701  0.00  0.00     0.015 A 
ATOM      7  C7  IND d   1      -2.230   0.053   1.175  0.00  0.00    -0.016 A 
ATOM      8  C8  IND d   1      -1.012  -0.555   0.906  0.00  0.00    -0.047 A 
ATOM      9  C9  IND d   1      -0.782  -1.909   1.180  0.00  0.00    -0.096 A 
ATOM     10  HN1 IND d   1       0.284   0.783   0.161  0.00  0.00     0.298 HD
ENDROOT
TORSDOF 0
ENDMDL
