MODEL 1
REMARK minimizedAffinity -1.80595076
REMARK minimizedRMSD -1
REMARK  0 active torsions:
REMARK  status: ('A' for Active; 'I' for Inactive)
ROOT
ATOM      1  N1  IND d   1       1.345   0.605  -1.297  0.00  0.00    -0.196 N 
ATOM      2  C2  IND d   1       0.675   1.796  -1.341  0.00  0.00     0.054 A 
ATOM      3  C3  IND d   1      -0.360   1.786  -0.471  0.00  0.00    -0.031 A 
ATOM      4  C4  IND d   1      -1.077  -0.040   1.196  0.00  0.00     0.051 A 
ATOM      5  C5  IND d   1      -0.794  -1.321   1.578  0.00  0.00    -0.031 A 
ATOM      6  C6  IND d   1       0.239  -2.040   1.012  0.00  0.00     0.015 A 
ATOM      7  C7  IND d   1       1.038  -1.497   0.046  0.00  0.00    -0.016 A 
ATOM      8  C8  IND d   1       0.749  -0.198  -0.350  0.00  0.00    -0.047 A 
ATOM      9  C9  IND d   1      -0.325   0.521   0.191  0.00  0.00    -0.096 A 
ATOM     10  HN1 IND d   1       2.024   0.393  -1.780  0.00  0.00     0.298 HD
ENDROOT
TORSDOF 0
ENDMDL
