MODEL 1
REMARK minimizedAffinity -4.70588064
REMARK minimizedRMSD -1
REMARK  0 active torsions:
REMARK  status: ('A' for Active; 'I' for Inactive)
ROOT
ATOM      1  N1  IND d   1      -1.666   1.232   1.065  0.00  0.00    -0.196 N 
ATOM      2  C2  IND d   1      -2.770   0.617   1.586  0.00  0.00     0.054 A 
ATOM      3  C3  IND d   1      -2.580  -0.720   1.645  0.00  0.00    -0.031 A 
ATOM      4  C4  IND d   1      -0.496  -2.104   1.038  0.00  0.00     0.051 A 
ATOM      5  C5  IND d   1       0.749  -1.990   0.487  0.00  0.00    -0.031 A 
ATOM      6  C6  IND d   1       1.265  -0.772   0.096  0.00  0.00     0.015 A 
ATOM      7  C7  IND d   1       0.556   0.385   0.251  0.00  0.00    -0.016 A 
ATOM      8  C8  IND d   1      -0.712   0.273   0.804  0.00  0.00    -0.047 A 
ATOM      9  C9  IND d   1      -1.258  -0.966   1.164  0.00  0.00    -0.096 A 
ATOM     10  HN1 IND d   1      -1.581   2.076   0.925  0.00  0.00     0.298 HD
ENDROOT
TORSDOF 0
ENDMDL
