MODEL 1
REMARK minimizedAffinity -5.02261448
REMARK minimizedRMSD -1
REMARK  0 active torsions:
REMARK  status: ('A' for Active; 'I' for Inactive)
ROOT
ATOM      1  N1  IND d   1      -0.399   0.462   0.517  0.00  0.00    -0.196 N 
ATOM      2  C2  IND d   1       0.747  -0.188   0.153  0.00  0.00     0.054 A 
ATOM      3  C3  IND d   1       0.630  -1.515   0.388  0.00  0.00    -0.031 A 
ATOM      4  C4  IND d   1      -1.388  -2.848   1.269  0.00  0.00     0.051 A 
ATOM      5  C5  IND d   1      -2.649  -2.687   1.771  0.00  0.00    -0.031 A 
ATOM      6  C6  IND d   1      -3.237  -1.444   1.881  0.00  0.00     0.015 A 
ATOM      7  C7  IND d   1      -2.587  -0.311   1.480  0.00  0.00    -0.016 A 
ATOM      8  C8  IND d   1      -1.304  -0.469   0.976  0.00  0.00    -0.047 A 
ATOM      9  C9  IND d   1      -0.686  -1.724   0.901  0.00  0.00    -0.096 A 
ATOM     10  HN1 IND d   1      -0.532   1.310   0.467  0.00  0.00     0.298 HD
ENDROOT
TORSDOF 0
ENDMDL
