MODEL 1
REMARK minimizedAffinity -5.51687765
REMARK minimizedRMSD -1
REMARK  0 active torsions:
REMARK  status: ('A' for Active; 'I' for Inactive)
ROOT
ATOM      1  N1  IND d   1      -0.210   1.264   0.256  0.00  0.00    -0.196 N 
ATOM      2  C2  IND d   1       1.074   0.832   0.077  0.00  0.00     0.054 A 
ATOM      3  C3  IND d   1       1.194  -0.459   0.458  0.00  0.00    -0.031 A 
ATOM      4  C4  IND d   1      -0.610  -2.087   1.310  0.00  0.00     0.051 A 
ATOM      5  C5  IND d   1      -1.926  -2.141   1.675  0.00  0.00    -0.031 A 
ATOM      6  C6  IND d   1      -2.754  -1.042   1.582  0.00  0.00     0.015 A 
ATOM      7  C7  IND d   1      -2.299   0.155   1.107  0.00  0.00    -0.016 A 
ATOM      8  C8  IND d   1      -0.961   0.216   0.741  0.00  0.00    -0.047 A 
ATOM      9  C9  IND d   1      -0.105  -0.885   0.874  0.00  0.00    -0.096 A 
ATOM     10  HN1 IND d   1      -0.500   2.057   0.093  0.00  0.00     0.298 HD
ENDROOT
TORSDOF 0
ENDMDL
