MODEL 1
REMARK minimizedAffinity -4.96665287
REMARK minimizedRMSD -1
REMARK  0 active torsions:
REMARK  status: ('A' for Active; 'I' for Inactive)
ROOT
ATOM      1  N1  IND d   1      -0.621   0.718   0.769  0.00  0.00    -0.196 N 
ATOM      2  C2  IND d   1       0.613   0.226   0.445  0.00  0.00     0.054 A 
ATOM      3  C3  IND d   1       0.622  -1.122   0.542  0.00  0.00    -0.031 A 
ATOM      4  C4  IND d   1      -1.301  -2.734   1.116  0.00  0.00     0.051 A 
ATOM      5  C5  IND d   1      -2.606  -2.752   1.522  0.00  0.00    -0.031 A 
ATOM      6  C6  IND d   1      -3.331  -1.592   1.698  0.00  0.00     0.015 A 
ATOM      7  C7  IND d   1      -2.779  -0.364   1.464  0.00  0.00    -0.016 A 
ATOM      8  C8  IND d   1      -1.453  -0.341   1.058  0.00  0.00    -0.047 A 
ATOM      9  C9  IND d   1      -0.699  -1.514   0.919  0.00  0.00    -0.096 A 
ATOM     10  HN1 IND d   1      -0.840   1.549   0.789  0.00  0.00     0.298 HD
ENDROOT
TORSDOF 0
ENDMDL
