MODEL 1
REMARK minimizedAffinity -5.31802559
REMARK minimizedRMSD -1
REMARK  0 active torsions:
REMARK  status: ('A' for Active; 'I' for Inactive)
ROOT
ATOM      1  N1  IND d   1      -0.456   0.630  -0.194  0.00  0.00    -0.196 N 
ATOM      2  C2  IND d   1       0.567  -0.197  -0.567  0.00  0.00     0.054 A 
ATOM      3  C3  IND d   1       0.417  -1.416  -0.000  0.00  0.00    -0.031 A 
ATOM      4  C4  IND d   1      -1.486  -2.303   1.489  0.00  0.00     0.051 A 
ATOM      5  C5  IND d   1      -2.624  -1.907   2.133  0.00  0.00    -0.031 A 
ATOM      6  C6  IND d   1      -3.110  -0.620   2.029  0.00  0.00     0.015 A 
ATOM      7  C7  IND d   1      -2.478   0.321   1.265  0.00  0.00    -0.016 A 
ATOM      8  C8  IND d   1      -1.317  -0.076   0.617  0.00  0.00    -0.047 A 
ATOM      9  C9  IND d   1      -0.797  -1.370   0.752  0.00  0.00    -0.096 A 
ATOM     10  HN1 IND d   1      -0.546   1.453  -0.427  0.00  0.00     0.298 HD
ENDROOT
TORSDOF 0
ENDMDL
