MODEL 1
REMARK minimizedAffinity 3.5207026
REMARK minimizedRMSD -1
REMARK  0 active torsions:
REMARK  status: ('A' for Active; 'I' for Inactive)
ROOT
ATOM      1  C   UNL d   1       2.108   0.244   0.126  0.00  0.00    -0.002 A 
ATOM      2  C1  UNL d   1       1.766  -0.927   0.789  0.00  0.00     0.010 A 
ATOM      3  C2  UNL d   1       0.569  -1.015   1.502  0.00  0.00     0.041 A 
ATOM      4  C3  UNL d   1      -0.287   0.103   1.538  0.00  0.00    -0.075 A 
ATOM      5  S   UNL d   1      -1.805   0.225   2.347  0.00  0.00     0.015 SA
ATOM      6  C4  UNL d   1      -2.035   1.833   1.832  0.00  0.00     0.022 A 
ATOM      7  C5  UNL d   1      -0.989   2.282   1.060  0.00  0.00     0.026 A 
ATOM      8  C6  UNL d   1       0.035   1.292   0.878  0.00  0.00    -0.082 A 
ATOM      9  C7  UNL d   1       1.256   1.351   0.164  0.00  0.00     0.045 A 
ENDROOT
TORSDOF 0
ENDMDL
