MODEL 1
REMARK minimizedAffinity 2.31874585
REMARK minimizedRMSD -1
REMARK  0 active torsions:
REMARK  status: ('A' for Active; 'I' for Inactive)
ROOT
ATOM      1  C   UNL d   1      -4.791  -6.000   0.610  0.00  0.00    -0.002 A 
ATOM      2  C1  UNL d   1      -5.626  -5.026   1.140  0.00  0.00     0.010 A 
ATOM      3  C2  UNL d   1      -5.716  -3.767   0.544  0.00  0.00     0.041 A 
ATOM      4  C3  UNL d   1      -4.947  -3.500  -0.606  0.00  0.00    -0.075 A 
ATOM      5  S   UNL d   1      -4.896  -2.030  -1.505  0.00  0.00     0.015 SA
ATOM      6  C4  UNL d   1      -3.765  -2.660  -2.614  0.00  0.00     0.022 A 
ATOM      7  C5  UNL d   1      -3.424  -3.959  -2.320  0.00  0.00     0.026 A 
ATOM      8  C6  UNL d   1      -4.099  -4.465  -1.158  0.00  0.00    -0.082 A 
ATOM      9  C7  UNL d   1      -4.029  -5.732  -0.530  0.00  0.00     0.045 A 
ENDROOT
TORSDOF 0
ENDMDL
