MODEL 1
REMARK minimizedAffinity 3.73511624
REMARK minimizedRMSD -1
REMARK  0 active torsions:
REMARK  status: ('A' for Active; 'I' for Inactive)
ROOT
ATOM      1  C   UNL d   1       0.874   1.242   0.899  0.00  0.00    -0.002 A 
ATOM      2  C1  UNL d   1       0.601  -0.118   0.887  0.00  0.00     0.010 A 
ATOM      3  C2  UNL d   1      -0.626  -0.600   1.349  0.00  0.00     0.041 A 
ATOM      4  C3  UNL d   1      -1.582   0.317   1.826  0.00  0.00    -0.075 A 
ATOM      5  S   UNL d   1      -3.153  -0.044   2.440  0.00  0.00     0.015 SA
ATOM      6  C4  UNL d   1      -3.498   1.600   2.732  0.00  0.00     0.022 A 
ATOM      7  C5  UNL d   1      -2.452   2.417   2.376  0.00  0.00     0.026 A 
ATOM      8  C6  UNL d   1      -1.331   1.692   1.847  0.00  0.00    -0.082 A 
ATOM      9  C7  UNL d   1      -0.077   2.149   1.373  0.00  0.00     0.045 A 
ENDROOT
TORSDOF 0
ENDMDL
