MODEL 1
REMARK minimizedAffinity -2.11863565
REMARK minimizedRMSD -1
REMARK  0 active torsions:
REMARK  status: ('A' for Active; 'I' for Inactive)
ROOT
ATOM      1  C   UNL d   1      -0.582   1.852   0.549  0.00  0.00    -0.002 A 
ATOM      2  C1  UNL d   1      -1.093   0.566   0.440  0.00  0.00     0.010 A 
ATOM      3  C2  UNL d   1      -0.716  -0.428   1.345  0.00  0.00     0.041 A 
ATOM      4  C3  UNL d   1       0.190  -0.104   2.374  0.00  0.00    -0.075 A 
ATOM      5  S   UNL d   1       0.793  -1.159   3.597  0.00  0.00     0.015 SA
ATOM      6  C4  UNL d   1       1.743   0.073   4.295  0.00  0.00     0.022 A 
ATOM      7  C5  UNL d   1       1.615   1.265   3.623  0.00  0.00     0.026 A 
ATOM      8  C6  UNL d   1       0.718   1.183   2.505  0.00  0.00    -0.082 A 
ATOM      9  C7  UNL d   1       0.317   2.169   1.571  0.00  0.00     0.045 A 
ENDROOT
TORSDOF 0
ENDMDL
