MODEL 1
REMARK minimizedAffinity 1.13688719
REMARK minimizedRMSD -1
REMARK  0 active torsions:
REMARK  status: ('A' for Active; 'I' for Inactive)
ROOT
ATOM      1  C   UNL d   1       0.574   1.280   0.885  0.00  0.00    -0.002 A 
ATOM      2  C1  UNL d   1       0.351  -0.083   0.749  0.00  0.00     0.010 A 
ATOM      3  C2  UNL d   1      -0.855  -0.651   1.164  0.00  0.00     0.041 A 
ATOM      4  C3  UNL d   1      -1.844   0.182   1.722  0.00  0.00    -0.075 A 
ATOM      5  S   UNL d   1      -3.398  -0.292   2.299  0.00  0.00     0.015 SA
ATOM      6  C4  UNL d   1      -3.804   1.304   2.740  0.00  0.00     0.022 A 
ATOM      7  C5  UNL d   1      -2.790   2.189   2.461  0.00  0.00     0.026 A 
ATOM      8  C6  UNL d   1      -1.644   1.558   1.869  0.00  0.00    -0.082 A 
ATOM      9  C7  UNL d   1      -0.410   2.103   1.440  0.00  0.00     0.045 A 
ENDROOT
TORSDOF 0
ENDMDL
