MODEL 1
REMARK minimizedAffinity 1.62772822
REMARK minimizedRMSD -1
REMARK  0 active torsions:
REMARK  status: ('A' for Active; 'I' for Inactive)
ROOT
ATOM      1  C   UNL d   1      -3.192   1.226   2.243  0.00  0.00    -0.002 A 
ATOM      2  C1  UNL d   1      -2.762   2.545   2.207  0.00  0.00     0.010 A 
ATOM      3  C2  UNL d   1      -1.441   2.853   1.875  0.00  0.00     0.041 A 
ATOM      4  C3  UNL d   1      -0.551   1.803   1.576  0.00  0.00    -0.075 A 
ATOM      5  S   UNL d   1       1.112   1.941   1.143  0.00  0.00     0.015 SA
ATOM      6  C4  UNL d   1       1.290   0.253   0.994  0.00  0.00     0.022 A 
ATOM      7  C5  UNL d   1       0.120  -0.416   1.265  0.00  0.00     0.026 A 
ATOM      8  C6  UNL d   1      -0.961   0.467   1.604  0.00  0.00    -0.082 A 
ATOM      9  C7  UNL d   1      -2.306   0.187   1.945  0.00  0.00     0.045 A 
ENDROOT
TORSDOF 0
ENDMDL
