MODEL 1
REMARK minimizedAffinity 1.59446049
REMARK minimizedRMSD -1
REMARK  0 active torsions:
REMARK  status: ('A' for Active; 'I' for Inactive)
ROOT
ATOM      1  C   UNL d   1       0.752   1.269   0.943  0.00  0.00    -0.002 A 
ATOM      2  C1  UNL d   1       0.612  -0.075   1.258  0.00  0.00     0.010 A 
ATOM      3  C2  UNL d   1      -0.528  -0.533   1.922  0.00  0.00     0.041 A 
ATOM      4  C3  UNL d   1      -1.535   0.391   2.265  0.00  0.00    -0.075 A 
ATOM      5  S   UNL d   1      -3.018   0.058   3.079  0.00  0.00     0.015 SA
ATOM      6  C4  UNL d   1      -3.500   1.692   3.026  0.00  0.00     0.022 A 
ATOM      7  C5  UNL d   1      -2.564   2.486   2.406  0.00  0.00     0.026 A 
ATOM      8  C6  UNL d   1      -1.416   1.749   1.957  0.00  0.00    -0.082 A 
ATOM      9  C7  UNL d   1      -0.248   2.182   1.284  0.00  0.00     0.045 A 
ENDROOT
TORSDOF 0
ENDMDL
