MODEL 1
REMARK minimizedAffinity 6.69963932
REMARK minimizedRMSD -1
REMARK  0 active torsions:
REMARK  status: ('A' for Active; 'I' for Inactive)
ROOT
ATOM      1  C   UNL d   1      -1.158   0.397   1.319  0.00  0.00    -0.002 A 
ATOM      2  C1  UNL d   1      -0.656  -0.770   1.877  0.00  0.00     0.010 A 
ATOM      3  C2  UNL d   1       0.617  -1.231   1.535  0.00  0.00     0.041 A 
ATOM      4  C3  UNL d   1       1.385  -0.490   0.616  0.00  0.00    -0.075 A 
ATOM      5  S   UNL d   1       2.971  -0.861   0.050  0.00  0.00     0.015 SA
ATOM      6  C4  UNL d   1       3.020   0.521  -0.946  0.00  0.00     0.022 A 
ATOM      7  C5  UNL d   1       1.863   1.259  -0.861  0.00  0.00     0.026 A 
ATOM      8  C6  UNL d   1       0.902   0.689   0.041  0.00  0.00    -0.082 A 
ATOM      9  C7  UNL d   1      -0.392   1.129   0.407  0.00  0.00     0.045 A 
ENDROOT
TORSDOF 0
ENDMDL
