MODEL 1
REMARK minimizedAffinity 4.09483624
REMARK minimizedRMSD -1
REMARK  0 active torsions:
REMARK  status: ('A' for Active; 'I' for Inactive)
ROOT
ATOM      1  C   UNL d   1      -1.261   1.200   0.202  0.00  0.00    -0.002 A 
ATOM      2  C1  UNL d   1      -0.133   1.893   0.618  0.00  0.00     0.010 A 
ATOM      3  C2  UNL d   1       0.785   1.299   1.487  0.00  0.00     0.041 A 
ATOM      4  C3  UNL d   1       0.549  -0.016   1.933  0.00  0.00    -0.075 A 
ATOM      5  S   UNL d   1       1.536  -0.945   2.998  0.00  0.00     0.015 SA
ATOM      6  C4  UNL d   1       0.485  -2.284   2.925  0.00  0.00     0.022 A 
ATOM      7  C5  UNL d   1      -0.598  -2.046   2.112  0.00  0.00     0.026 A 
ATOM      8  C6  UNL d   1      -0.579  -0.735   1.527  0.00  0.00    -0.082 A 
ATOM      9  C7  UNL d   1      -1.491  -0.105   0.646  0.00  0.00     0.045 A 
ENDROOT
TORSDOF 0
ENDMDL
