MODEL 1
REMARK minimizedAffinity 6.40079737
REMARK minimizedRMSD -1
REMARK  0 active torsions:
REMARK  status: ('A' for Active; 'I' for Inactive)
ROOT
ATOM      1  C   UNL d   1       0.034   1.819   2.088  0.00  0.00    -0.002 A 
ATOM      2  C1  UNL d   1      -0.048   2.660   0.988  0.00  0.00     0.010 A 
ATOM      3  C2  UNL d   1       0.740   2.431  -0.142  0.00  0.00     0.041 A 
ATOM      4  C3  UNL d   1       1.619   1.330  -0.148  0.00  0.00    -0.075 A 
ATOM      5  S   UNL d   1       2.679   0.853  -1.421  0.00  0.00     0.015 SA
ATOM      6  C4  UNL d   1       3.265  -0.479  -0.535  0.00  0.00     0.022 A 
ATOM      7  C5  UNL d   1       2.677  -0.573   0.704  0.00  0.00     0.026 A 
ATOM      8  C6  UNL d   1       1.718   0.468   0.948  0.00  0.00    -0.082 A 
ATOM      9  C7  UNL d   1       0.907   0.727   2.078  0.00  0.00     0.045 A 
ENDROOT
TORSDOF 0
ENDMDL
