MODEL 1
REMARK minimizedAffinity 9.57518482
REMARK minimizedRMSD -1
REMARK  0 active torsions:
REMARK  status: ('A' for Active; 'I' for Inactive)
ROOT
ATOM      1  C   UNL d   1       0.830  -0.390   2.001  0.00  0.00    -0.002 A 
ATOM      2  C1  UNL d   1       1.309   0.661   1.231  0.00  0.00     0.010 A 
ATOM      3  C2  UNL d   1       0.540   1.812   1.044  0.00  0.00     0.041 A 
ATOM      4  C3  UNL d   1      -0.729   1.890   1.650  0.00  0.00    -0.075 A 
ATOM      5  S   UNL d   1      -1.845   3.201   1.560  0.00  0.00     0.015 SA
ATOM      6  C4  UNL d   1      -2.983   2.397   2.541  0.00  0.00     0.022 A 
ATOM      7  C5  UNL d   1      -2.539   1.157   2.937  0.00  0.00     0.026 A 
ATOM      8  C6  UNL d   1      -1.232   0.845   2.430  0.00  0.00    -0.082 A 
ATOM      9  C7  UNL d   1      -0.429  -0.309   2.601  0.00  0.00     0.045 A 
ENDROOT
TORSDOF 0
ENDMDL
