MODEL 1
REMARK minimizedAffinity 5.53352928
REMARK minimizedRMSD -1
REMARK  0 active torsions:
REMARK  status: ('A' for Active; 'I' for Inactive)
ROOT
ATOM      1  C   UNL d   1      -3.073  -4.250  -2.810  0.00  0.00    -0.002 A 
ATOM      2  C1  UNL d   1      -3.547  -4.505  -1.531  0.00  0.00     0.010 A 
ATOM      3  C2  UNL d   1      -4.153  -3.492  -0.784  0.00  0.00     0.041 A 
ATOM      4  C3  UNL d   1      -4.277  -2.208  -1.350  0.00  0.00    -0.075 A 
ATOM      5  S   UNL d   1      -4.984  -0.815  -0.622  0.00  0.00     0.015 SA
ATOM      6  C4  UNL d   1      -4.674   0.150  -1.992  0.00  0.00     0.022 A 
ATOM      7  C5  UNL d   1      -4.046  -0.557  -2.990  0.00  0.00     0.026 A 
ATOM      8  C6  UNL d   1      -3.807  -1.928  -2.637  0.00  0.00    -0.082 A 
ATOM      9  C7  UNL d   1      -3.197  -2.975  -3.368  0.00  0.00     0.045 A 
ENDROOT
TORSDOF 0
ENDMDL
