MODEL 1
REMARK minimizedAffinity -0.357032925
REMARK minimizedRMSD -1
REMARK  0 active torsions:
REMARK  status: ('A' for Active; 'I' for Inactive)
ROOT
ATOM      1  C   UNL d   1      -3.265   0.475   2.370  0.00  0.00    -0.002 A 
ATOM      2  C1  UNL d   1      -2.718  -0.780   2.140  0.00  0.00     0.010 A 
ATOM      3  C2  UNL d   1      -1.417  -0.908   1.650  0.00  0.00     0.041 A 
ATOM      4  C3  UNL d   1      -0.666   0.256   1.395  0.00  0.00    -0.075 A 
ATOM      5  S   UNL d   1       0.948   0.342   0.795  0.00  0.00     0.015 SA
ATOM      6  C4  UNL d   1       0.949   2.046   0.830  0.00  0.00     0.022 A 
ATOM      7  C5  UNL d   1      -0.244   2.554   1.286  0.00  0.00     0.026 A 
ATOM      8  C6  UNL d   1      -1.195   1.531   1.620  0.00  0.00    -0.082 A 
ATOM      9  C7  UNL d   1      -2.517   1.628   2.116  0.00  0.00     0.045 A 
ENDROOT
TORSDOF 0
ENDMDL
