MODEL 1
REMARK minimizedAffinity 0.741823018
REMARK minimizedRMSD -1
REMARK  0 active torsions:
REMARK  status: ('A' for Active; 'I' for Inactive)
ROOT
ATOM      1  C   UNL d   1      -2.070   1.629   1.996  0.00  0.00    -0.002 A 
ATOM      2  C1  UNL d   1      -2.011   0.244   2.065  0.00  0.00     0.010 A 
ATOM      3  C2  UNL d   1      -0.865  -0.439   1.656  0.00  0.00     0.041 A 
ATOM      4  C3  UNL d   1       0.234   0.299   1.174  0.00  0.00    -0.075 A 
ATOM      5  S   UNL d   1       1.743  -0.324   0.620  0.00  0.00     0.015 SA
ATOM      6  C4  UNL d   1       2.346   1.233   0.279  0.00  0.00     0.022 A 
ATOM      7  C5  UNL d   1       1.432   2.216   0.575  0.00  0.00     0.026 A 
ATOM      8  C6  UNL d   1       0.200   1.694   1.096  0.00  0.00    -0.082 A 
ATOM      9  C7  UNL d   1      -0.978   2.358   1.517  0.00  0.00     0.045 A 
ENDROOT
TORSDOF 0
ENDMDL
