MODEL 1
REMARK minimizedAffinity -3.36415315
REMARK minimizedRMSD -1
REMARK  0 active torsions:
REMARK  status: ('A' for Active; 'I' for Inactive)
ROOT
ATOM      1  C   UNL d   1       4.838  -5.947   5.970  0.00  0.00     0.078 C 
ATOM      2  C1  UNL d   1       5.220  -4.887   4.981  0.00  0.00    -0.077 A 
ATOM      3  C2  UNL d   1       5.142  -3.529   5.312  0.00  0.00    -0.001 A 
ATOM      4  C3  UNL d   1       5.491  -2.553   4.377  0.00  0.00     0.003 A 
ATOM      5  C4  UNL d   1       5.920  -2.925   3.105  0.00  0.00    -0.005 A 
ATOM      6  C5  UNL d   1       5.999  -4.274   2.765  0.00  0.00     0.003 A 
ATOM      7  C6  UNL d   1       5.650  -5.251   3.698  0.00  0.00    -0.001 A 
ENDROOT
TORSDOF 0
ENDMDL
