MODEL 1
REMARK minimizedAffinity -3.04546762
REMARK minimizedRMSD -1
REMARK  0 active torsions:
REMARK  status: ('A' for Active; 'I' for Inactive)
ROOT
ATOM      1  C   UNL d   1       4.539  -5.997   6.000  0.00  0.00     0.078 C 
ATOM      2  C1  UNL d   1       5.041  -4.947   5.055  0.00  0.00    -0.077 A 
ATOM      3  C2  UNL d   1       5.281  -5.243   3.708  0.00  0.00    -0.001 A 
ATOM      4  C3  UNL d   1       5.757  -4.258   2.842  0.00  0.00     0.003 A 
ATOM      5  C4  UNL d   1       6.000  -2.969   3.314  0.00  0.00    -0.005 A 
ATOM      6  C5  UNL d   1       5.766  -2.665   4.653  0.00  0.00     0.003 A 
ATOM      7  C6  UNL d   1       5.290  -3.649   5.521  0.00  0.00    -0.001 A 
ENDROOT
TORSDOF 0
ENDMDL
