MODEL 1
REMARK minimizedAffinity -3.25452471
REMARK minimizedRMSD -1
REMARK  0 active torsions:
REMARK  status: ('A' for Active; 'I' for Inactive)
ROOT
ATOM      1  C   UNL d   1       6.000  -5.987   5.806  0.00  0.00     0.078 C 
ATOM      2  C1  UNL d   1       5.862  -4.798   4.903  0.00  0.00    -0.077 A 
ATOM      3  C2  UNL d   1       5.760  -3.503   5.425  0.00  0.00    -0.001 A 
ATOM      4  C3  UNL d   1       5.622  -2.407   4.573  0.00  0.00     0.003 A 
ATOM      5  C4  UNL d   1       5.585  -2.594   3.192  0.00  0.00    -0.005 A 
ATOM      6  C5  UNL d   1       5.684  -3.879   2.663  0.00  0.00     0.003 A 
ATOM      7  C6  UNL d   1       5.821  -4.977   3.514  0.00  0.00    -0.001 A 
ENDROOT
TORSDOF 0
ENDMDL
