MODEL 1
REMARK minimizedAffinity -2.65465164
REMARK minimizedRMSD -1
REMARK  0 active torsions:
REMARK  status: ('A' for Active; 'I' for Inactive)
ROOT
ATOM      1  C   UNL d   1       6.000  -4.463   1.840  0.00  0.00     0.078 C 
ATOM      2  C1  UNL d   1       5.720  -4.216   3.292  0.00  0.00    -0.077 A 
ATOM      3  C2  UNL d   1       5.998  -5.193   4.256  0.00  0.00    -0.001 A 
ATOM      4  C3  UNL d   1       5.724  -4.953   5.603  0.00  0.00     0.003 A 
ATOM      5  C4  UNL d   1       5.169  -3.738   5.999  0.00  0.00    -0.005 A 
ATOM      6  C5  UNL d   1       4.887  -2.761   5.047  0.00  0.00     0.003 A 
ATOM      7  C6  UNL d   1       5.161  -2.998   3.699  0.00  0.00    -0.001 A 
ENDROOT
TORSDOF 0
ENDMDL
