MODEL 1
REMARK minimizedAffinity -3.46952486
REMARK minimizedRMSD -1
REMARK  0 active torsions:
REMARK  status: ('A' for Active; 'I' for Inactive)
ROOT
ATOM      1  C   UNL d   1       5.999  -4.614   1.645  0.00  0.00     0.078 C 
ATOM      2  C1  UNL d   1       5.830  -3.847   2.922  0.00  0.00    -0.077 A 
ATOM      3  C2  UNL d   1       5.490  -4.497   4.114  0.00  0.00    -0.001 A 
ATOM      4  C3  UNL d   1       5.326  -3.769   5.294  0.00  0.00     0.003 A 
ATOM      5  C4  UNL d   1       5.499  -2.387   5.292  0.00  0.00    -0.005 A 
ATOM      6  C5  UNL d   1       5.835  -1.730   4.110  0.00  0.00     0.003 A 
ATOM      7  C6  UNL d   1       5.999  -2.457   2.929  0.00  0.00    -0.001 A 
ENDROOT
TORSDOF 0
ENDMDL
