MODEL 1
REMARK minimizedAffinity -3.61527514
REMARK minimizedRMSD -1
REMARK  0 active torsions:
REMARK  status: ('A' for Active; 'I' for Inactive)
ROOT
ATOM      1  C   UNL d   1       4.803  -5.587   5.420  0.00  0.00     0.078 C 
ATOM      2  C1  UNL d   1       5.209  -4.561   4.405  0.00  0.00    -0.077 A 
ATOM      3  C2  UNL d   1       5.165  -3.194   4.703  0.00  0.00    -0.001 A 
ATOM      4  C3  UNL d   1       5.537  -2.249   3.745  0.00  0.00     0.003 A 
ATOM      5  C4  UNL d   1       5.955  -2.662   2.481  0.00  0.00    -0.005 A 
ATOM      6  C5  UNL d   1       6.000  -4.020   2.174  0.00  0.00     0.003 A 
ATOM      7  C6  UNL d   1       5.628  -4.966   3.131  0.00  0.00    -0.001 A 
ENDROOT
TORSDOF 0
ENDMDL
