MODEL 1
REMARK minimizedAffinity -3.18289876
REMARK minimizedRMSD -1
REMARK  0 active torsions:
REMARK  status: ('A' for Active; 'I' for Inactive)
ROOT
ATOM      1  C   UNL d   1       6.000  -2.412   2.963  0.00  0.00     0.078 C 
ATOM      2  C1  UNL d   1       5.338  -3.244   4.020  0.00  0.00    -0.077 A 
ATOM      3  C2  UNL d   1       4.552  -2.653   5.016  0.00  0.00    -0.001 A 
ATOM      4  C3  UNL d   1       3.949  -3.439   6.000  0.00  0.00     0.003 A 
ATOM      5  C4  UNL d   1       4.127  -4.821   5.997  0.00  0.00    -0.005 A 
ATOM      6  C5  UNL d   1       4.909  -5.418   5.010  0.00  0.00     0.003 A 
ATOM      7  C6  UNL d   1       5.512  -4.634   4.026  0.00  0.00    -0.001 A 
ENDROOT
TORSDOF 0
ENDMDL
