MODEL 1
REMARK minimizedAffinity -3.72471547
REMARK minimizedRMSD -1
REMARK  0 active torsions:
REMARK  status: ('A' for Active; 'I' for Inactive)
ROOT
ATOM      1  C   UNL d   1       6.000  -2.597   1.735  0.00  0.00     0.078 C 
ATOM      2  C1  UNL d   1       5.514  -2.992   3.098  0.00  0.00    -0.077 A 
ATOM      3  C2  UNL d   1       5.121  -2.026   4.032  0.00  0.00    -0.001 A 
ATOM      4  C3  UNL d   1       4.680  -2.408   5.300  0.00  0.00     0.003 A 
ATOM      5  C4  UNL d   1       4.629  -3.756   5.646  0.00  0.00    -0.005 A 
ATOM      6  C5  UNL d   1       5.020  -4.725   4.724  0.00  0.00     0.003 A 
ATOM      7  C6  UNL d   1       5.461  -4.345   3.456  0.00  0.00    -0.001 A 
ENDROOT
TORSDOF 0
ENDMDL
