MODEL 1
REMARK minimizedAffinity -3.20906758
REMARK minimizedRMSD -1
REMARK  0 active torsions:
REMARK  status: ('A' for Active; 'I' for Inactive)
ROOT
ATOM      1  C   UNL d   1       4.898  -5.988   5.826  0.00  0.00     0.078 C 
ATOM      2  C1  UNL d   1       5.232  -4.813   4.957  0.00  0.00    -0.077 A 
ATOM      3  C2  UNL d   1       5.683  -4.993   3.643  0.00  0.00    -0.001 A 
ATOM      4  C3  UNL d   1       6.000  -3.890   2.848  0.00  0.00     0.003 A 
ATOM      5  C4  UNL d   1       5.870  -2.600   3.358  0.00  0.00    -0.005 A 
ATOM      6  C5  UNL d   1       5.425  -2.411   4.665  0.00  0.00     0.003 A 
ATOM      7  C6  UNL d   1       5.108  -3.512   5.461  0.00  0.00    -0.001 A 
ENDROOT
TORSDOF 0
ENDMDL
