MODEL 1
REMARK minimizedAffinity -3.21571183
REMARK minimizedRMSD -1
REMARK  0 active torsions:
REMARK  status: ('A' for Active; 'I' for Inactive)
ROOT
ATOM      1  C   UNL d   1       5.999  -5.248   2.360  0.00  0.00     0.078 C 
ATOM      2  C1  UNL d   1       5.754  -4.498   3.635  0.00  0.00    -0.077 A 
ATOM      3  C2  UNL d   1       5.267  -5.150   4.774  0.00  0.00    -0.001 A 
ATOM      4  C3  UNL d   1       5.035  -4.437   5.951  0.00  0.00     0.003 A 
ATOM      5  C4  UNL d   1       5.284  -3.067   6.000  0.00  0.00    -0.005 A 
ATOM      6  C5  UNL d   1       5.766  -2.408   4.870  0.00  0.00     0.003 A 
ATOM      7  C6  UNL d   1       6.000  -3.120   3.693  0.00  0.00    -0.001 A 
ENDROOT
TORSDOF 0
ENDMDL
