MODEL 1
REMARK minimizedAffinity -3.5537293
REMARK minimizedRMSD -1
REMARK  0 active torsions:
REMARK  status: ('A' for Active; 'I' for Inactive)
ROOT
ATOM      1  C   UNL d   1       5.879  -2.078   5.756  0.00  0.00     0.078 C 
ATOM      2  C1  UNL d   1       5.889  -3.252   4.823  0.00  0.00    -0.077 A 
ATOM      3  C2  UNL d   1       5.956  -3.071   3.436  0.00  0.00    -0.001 A 
ATOM      4  C3  UNL d   1       5.955  -4.173   2.580  0.00  0.00     0.003 A 
ATOM      5  C4  UNL d   1       5.885  -5.464   3.100  0.00  0.00    -0.005 A 
ATOM      6  C5  UNL d   1       5.815  -5.654   4.478  0.00  0.00     0.003 A 
ATOM      7  C6  UNL d   1       5.817  -4.553   5.337  0.00  0.00    -0.001 A 
ENDROOT
TORSDOF 0
ENDMDL
