MODEL 1
REMARK minimizedAffinity -3.4951992
REMARK minimizedRMSD -1
REMARK  0 active torsions:
REMARK  status: ('A' for Active; 'I' for Inactive)
ROOT
ATOM      1  C   UNL d   1       5.990  -5.887   2.205  0.00  0.00     0.078 C 
ATOM      2  C1  UNL d   1       5.582  -5.025   3.362  0.00  0.00    -0.077 A 
ATOM      3  C2  UNL d   1       5.564  -3.630   3.252  0.00  0.00    -0.001 A 
ATOM      4  C3  UNL d   1       5.191  -2.840   4.341  0.00  0.00     0.003 A 
ATOM      5  C4  UNL d   1       4.836  -3.437   5.549  0.00  0.00    -0.005 A 
ATOM      6  C5  UNL d   1       4.853  -4.825   5.669  0.00  0.00     0.003 A 
ATOM      7  C6  UNL d   1       5.225  -5.616   4.581  0.00  0.00    -0.001 A 
ENDROOT
TORSDOF 0
ENDMDL
