MODEL 1
REMARK minimizedAffinity -3.31912732
REMARK minimizedRMSD -1
REMARK  0 active torsions:
REMARK  status: ('A' for Active; 'I' for Inactive)
ROOT
ATOM      1  C   UNL d   1       5.865  -4.192   2.081  0.00  0.00     0.078 C 
ATOM      2  C1  UNL d   1       5.253  -4.041   3.442  0.00  0.00    -0.077 A 
ATOM      3  C2  UNL d   1       3.940  -4.456   3.692  0.00  0.00    -0.001 A 
ATOM      4  C3  UNL d   1       3.380  -4.300   4.961  0.00  0.00     0.003 A 
ATOM      5  C4  UNL d   1       4.125  -3.726   5.989  0.00  0.00    -0.005 A 
ATOM      6  C5  UNL d   1       5.432  -3.308   5.749  0.00  0.00     0.003 A 
ATOM      7  C6  UNL d   1       5.994  -3.463   4.481  0.00  0.00    -0.001 A 
ENDROOT
TORSDOF 0
ENDMDL
