MODEL 1
REMARK minimizedAffinity -3.60194993
REMARK minimizedRMSD -1
REMARK  0 active torsions:
REMARK  status: ('A' for Active; 'I' for Inactive)
ROOT
ATOM      1  C   UNL d   1       6.000  -4.927   1.486  0.00  0.00     0.078 C 
ATOM      2  C1  UNL d   1       5.882  -3.870   2.544  0.00  0.00    -0.077 A 
ATOM      3  C2  UNL d   1       5.642  -4.212   3.881  0.00  0.00    -0.001 A 
ATOM      4  C3  UNL d   1       5.526  -3.217   4.853  0.00  0.00     0.003 A 
ATOM      5  C4  UNL d   1       5.646  -1.875   4.500  0.00  0.00    -0.005 A 
ATOM      6  C5  UNL d   1       5.883  -1.525   3.172  0.00  0.00     0.003 A 
ATOM      7  C6  UNL d   1       6.000  -2.518   2.198  0.00  0.00    -0.001 A 
ENDROOT
TORSDOF 0
ENDMDL
