MODEL 1
REMARK minimizedAffinity -2.65376472
REMARK minimizedRMSD -1
REMARK  0 active torsions:
REMARK  status: ('A' for Active; 'I' for Inactive)
ROOT
ATOM      1  C   UNL d   1       3.694  -5.890   5.951  0.00  0.00     0.078 C 
ATOM      2  C1  UNL d   1       4.490  -4.811   5.279  0.00  0.00    -0.077 A 
ATOM      3  C2  UNL d   1       4.883  -4.932   3.941  0.00  0.00    -0.001 A 
ATOM      4  C3  UNL d   1       5.632  -3.925   3.331  0.00  0.00     0.003 A 
ATOM      5  C4  UNL d   1       5.996  -2.790   4.052  0.00  0.00    -0.005 A 
ATOM      6  C5  UNL d   1       5.612  -2.661   5.385  0.00  0.00     0.003 A 
ATOM      7  C6  UNL d   1       4.863  -3.668   5.997  0.00  0.00    -0.001 A 
ENDROOT
TORSDOF 0
ENDMDL
