MODEL 1
REMARK minimizedAffinity 1.28180575
REMARK minimizedRMSD -1
REMARK  2 active torsions:
REMARK  status: ('A' for Active; 'I' for Inactive)
REMARK    1  A    between atoms: C1_2  and  C2_3 
REMARK    2  A    between atoms: C2_3  and  C3_4 
ROOT
ATOM      1  C3  UNL d   1      -1.059   0.080   0.334  0.00  0.00    -0.075 A 
ATOM      2  C4  UNL d   1      -1.576   0.654   1.505  0.00  0.00     0.002 A 
ATOM      3  C5  UNL d   1      -2.171  -0.144   2.482  0.00  0.00     0.002 A 
ATOM      4  C6  UNL d   1      -2.267  -1.522   2.298  0.00  0.00    -0.004 A 
ATOM      5  C7  UNL d   1      -1.771  -2.101   1.132  0.00  0.00     0.002 A 
ATOM      6  C8  UNL d   1      -1.171  -1.305   0.154  0.00  0.00     0.002 A 
ENDROOT
BRANCH   1   7
ATOM      7  C2  UNL d   1      -0.387   0.934  -0.714  0.00  0.00     0.056 C 
BRANCH   7   8
ATOM      8  C1  UNL d   1       0.882   0.312  -1.305  0.00  0.00     0.007 C 
ATOM      9  C   UNL d   1       0.659  -0.325  -2.670  0.00  0.00     0.009 C 
ENDBRANCH   7   8
ENDBRANCH   1   7
TORSDOF 2
ENDMDL
