MODEL 1
REMARK minimizedAffinity 5.56308794
REMARK minimizedRMSD -1
REMARK  2 active torsions:
REMARK  status: ('A' for Active; 'I' for Inactive)
REMARK    1  A    between atoms: C1_2  and  C2_3 
REMARK    2  A    between atoms: C2_3  and  C3_4 
ROOT
ATOM      1  C3  UNL d   1      -1.547  -1.347   1.027  0.00  0.00    -0.075 A 
ATOM      2  C4  UNL d   1      -0.905  -0.545   0.072  0.00  0.00     0.002 A 
ATOM      3  C5  UNL d   1      -0.765   0.828   0.279  0.00  0.00     0.002 A 
ATOM      4  C6  UNL d   1      -1.272   1.416   1.436  0.00  0.00    -0.004 A 
ATOM      5  C7  UNL d   1      -1.926   0.631   2.383  0.00  0.00     0.002 A 
ATOM      6  C8  UNL d   1      -2.064  -0.743   2.180  0.00  0.00     0.002 A 
ENDROOT
BRANCH   1   7
ATOM      7  C2  UNL d   1      -1.676  -2.838   0.822  0.00  0.00     0.056 C 
BRANCH   7   8
ATOM      8  C1  UNL d   1      -1.881  -3.251  -0.639  0.00  0.00     0.007 C 
ATOM      9  C   UNL d   1      -0.961  -4.383  -1.077  0.00  0.00     0.009 C 
ENDBRANCH   7   8
ENDBRANCH   1   7
TORSDOF 2
ENDMDL
