MODEL 1
REMARK minimizedAffinity -3.89290547
REMARK minimizedRMSD -1
REMARK  2 active torsions:
REMARK  status: ('A' for Active; 'I' for Inactive)
REMARK    1  A    between atoms: C1_2  and  C2_3 
REMARK    2  A    between atoms: C2_3  and  C3_4 
ROOT
ATOM      1  C3  UNL d   1       0.130  -1.700   0.439  0.00  0.00    -0.075 A 
ATOM      2  C4  UNL d   1      -1.182  -1.357   0.797  0.00  0.00     0.002 A 
ATOM      3  C5  UNL d   1      -1.630  -0.041   0.671  0.00  0.00     0.002 A 
ATOM      4  C6  UNL d   1      -0.771   0.948   0.197  0.00  0.00    -0.004 A 
ATOM      5  C7  UNL d   1       0.540   0.621  -0.145  0.00  0.00     0.002 A 
ATOM      6  C8  UNL d   1       0.989  -0.695  -0.024  0.00  0.00     0.002 A 
ENDROOT
BRANCH   1   7
ATOM      7  C2  UNL d   1       0.611  -3.127   0.545  0.00  0.00     0.056 C 
BRANCH   7   8
ATOM      8  C1  UNL d   1       0.057  -4.055  -0.541  0.00  0.00     0.007 C 
ATOM      9  C   UNL d   1      -0.543  -3.304  -1.722  0.00  0.00     0.009 C 
ENDBRANCH   7   8
ENDBRANCH   1   7
TORSDOF 2
ENDMDL
