MODEL 1
REMARK minimizedAffinity -2.5468657
REMARK minimizedRMSD -1
REMARK  2 active torsions:
REMARK  status: ('A' for Active; 'I' for Inactive)
REMARK    1  A    between atoms: C1_2  and  C2_3 
REMARK    2  A    between atoms: C2_3  and  C3_4 
ROOT
ATOM      1  C3  UNL d   1       0.621   1.223  -0.007  0.00  0.00    -0.075 A 
ATOM      2  C4  UNL d   1      -0.521   1.000  -0.790  0.00  0.00     0.002 A 
ATOM      3  C5  UNL d   1      -1.431  -0.000  -0.446  0.00  0.00     0.002 A 
ATOM      4  C6  UNL d   1      -1.207  -0.795   0.675  0.00  0.00    -0.004 A 
ATOM      5  C7  UNL d   1      -0.067  -0.593   1.451  0.00  0.00     0.002 A 
ATOM      6  C8  UNL d   1       0.843   0.410   1.113  0.00  0.00     0.002 A 
ENDROOT
BRANCH   1   7
ATOM      7  C2  UNL d   1       1.594   2.324  -0.356  0.00  0.00     0.056 C 
BRANCH   7   8
ATOM      8  C1  UNL d   1       1.375   3.622   0.428  0.00  0.00     0.007 C 
ATOM      9  C   UNL d   1       2.211   3.704   1.699  0.00  0.00     0.009 C 
ENDBRANCH   7   8
ENDBRANCH   1   7
TORSDOF 2
ENDMDL
