MODEL 1
REMARK minimizedAffinity -0.381719589
REMARK minimizedRMSD -1
REMARK  2 active torsions:
REMARK  status: ('A' for Active; 'I' for Inactive)
REMARK    1  A    between atoms: C1_2  and  C2_3 
REMARK    2  A    between atoms: C2_3  and  C3_4 
ROOT
ATOM      1  C3  UNL d   1      -0.274  -0.138  -0.609  0.00  0.00    -0.075 A 
ATOM      2  C4  UNL d   1       0.607   0.549   0.239  0.00  0.00     0.002 A 
ATOM      3  C5  UNL d   1       0.486   0.441   1.625  0.00  0.00     0.002 A 
ATOM      4  C6  UNL d   1      -0.521  -0.346   2.180  0.00  0.00    -0.004 A 
ATOM      5  C7  UNL d   1      -1.412  -1.020   1.347  0.00  0.00     0.002 A 
ATOM      6  C8  UNL d   1      -1.290  -0.917  -0.040  0.00  0.00     0.002 A 
ENDROOT
BRANCH   1   7
ATOM      7  C2  UNL d   1      -0.130  -0.049  -2.109  0.00  0.00     0.056 C 
BRANCH   7   8
ATOM      8  C1  UNL d   1       0.559  -1.262  -2.743  0.00  0.00     0.007 C 
ATOM      9  C   UNL d   1      -0.357  -2.472  -2.874  0.00  0.00     0.009 C 
ENDBRANCH   7   8
ENDBRANCH   1   7
TORSDOF 2
ENDMDL
