MODEL 1
REMARK minimizedAffinity -3.11294341
REMARK minimizedRMSD -1
REMARK  2 active torsions:
REMARK  status: ('A' for Active; 'I' for Inactive)
REMARK    1  A    between atoms: C1_2  and  C2_3 
REMARK    2  A    between atoms: C2_3  and  C3_4 
ROOT
ATOM      1  C3  UNL d   1       0.229   0.435   0.283  0.00  0.00    -0.075 A 
ATOM      2  C4  UNL d   1      -0.342  -0.551  -0.536  0.00  0.00     0.002 A 
ATOM      3  C5  UNL d   1      -0.835  -1.733   0.017  0.00  0.00     0.002 A 
ATOM      4  C6  UNL d   1      -0.755  -1.948   1.391  0.00  0.00    -0.004 A 
ATOM      5  C7  UNL d   1      -0.176  -0.983   2.212  0.00  0.00     0.002 A 
ATOM      6  C8  UNL d   1       0.315   0.202   1.662  0.00  0.00     0.002 A 
ENDROOT
BRANCH   1   7
ATOM      7  C2  UNL d   1       0.738   1.729  -0.306  0.00  0.00     0.056 C 
BRANCH   7   8
ATOM      8  C1  UNL d   1       0.798   2.888   0.694  0.00  0.00     0.007 C 
ATOM      9  C   UNL d   1       2.079   3.705   0.589  0.00  0.00     0.009 C 
ENDBRANCH   7   8
ENDBRANCH   1   7
TORSDOF 2
ENDMDL
