MODEL 1
REMARK minimizedAffinity -4.00829649
REMARK minimizedRMSD -1
REMARK  2 active torsions:
REMARK  status: ('A' for Active; 'I' for Inactive)
REMARK    1  A    between atoms: C1_2  and  C2_3 
REMARK    2  A    between atoms: C2_3  and  C3_4 
ROOT
ATOM      1  C3  UNL d   1       0.667   1.286   0.045  0.00  0.00    -0.075 A 
ATOM      2  C4  UNL d   1       1.412   1.304   1.233  0.00  0.00     0.002 A 
ATOM      3  C5  UNL d   1       2.246   2.382   1.530  0.00  0.00     0.002 A 
ATOM      4  C6  UNL d   1       2.354   3.449   0.641  0.00  0.00    -0.004 A 
ATOM      5  C7  UNL d   1       1.632   3.434  -0.550  0.00  0.00     0.002 A 
ATOM      6  C8  UNL d   1       0.793   2.359  -0.848  0.00  0.00     0.002 A 
ENDROOT
BRANCH   1   7
ATOM      7  C2  UNL d   1      -0.260   0.137  -0.269  0.00  0.00     0.056 C 
BRANCH   7   8
ATOM      8  C1  UNL d   1      -0.939  -0.471   0.963  0.00  0.00     0.007 C 
ATOM      9  C   UNL d   1      -1.262  -1.951   0.802  0.00  0.00     0.009 C 
ENDBRANCH   7   8
ENDBRANCH   1   7
TORSDOF 2
ENDMDL
