MODEL 1
REMARK minimizedAffinity -4.20079756
REMARK minimizedRMSD -1
REMARK  2 active torsions:
REMARK  status: ('A' for Active; 'I' for Inactive)
REMARK    1  A    between atoms: C1_2  and  C2_3 
REMARK    2  A    between atoms: C2_3  and  C3_4 
ROOT
ATOM      1  C3  UNL d   1      -0.017   0.163  -0.919  0.00  0.00    -0.075 A 
ATOM      2  C4  UNL d   1       0.018  -0.902  -1.831  0.00  0.00     0.002 A 
ATOM      3  C5  UNL d   1      -0.354  -2.187  -1.434  0.00  0.00     0.002 A 
ATOM      4  C6  UNL d   1      -0.755  -2.425  -0.122  0.00  0.00    -0.004 A 
ATOM      5  C7  UNL d   1      -0.778  -1.378   0.797  0.00  0.00     0.002 A 
ATOM      6  C8  UNL d   1      -0.411  -0.091   0.402  0.00  0.00     0.002 A 
ENDROOT
BRANCH   1   7
ATOM      7  C2  UNL d   1       0.355   1.562  -1.349  0.00  0.00     0.056 C 
BRANCH   7   8
ATOM      8  C1  UNL d   1       0.880   2.445  -0.212  0.00  0.00     0.007 C 
ATOM      9  C   UNL d   1       2.235   3.072  -0.515  0.00  0.00     0.009 C 
ENDBRANCH   7   8
ENDBRANCH   1   7
TORSDOF 2
ENDMDL
