MODEL 1
REMARK minimizedAffinity -3.47055817
REMARK minimizedRMSD -1
REMARK  2 active torsions:
REMARK  status: ('A' for Active; 'I' for Inactive)
REMARK    1  A    between atoms: C1_2  and  C2_3 
REMARK    2  A    between atoms: C2_3  and  C3_4 
ROOT
ATOM      1  C3  UNL d   1       0.079   0.618   0.054  0.00  0.00    -0.075 A 
ATOM      2  C4  UNL d   1      -0.225  -0.074  -1.127  0.00  0.00     0.002 A 
ATOM      3  C5  UNL d   1      -0.717  -1.378  -1.077  0.00  0.00     0.002 A 
ATOM      4  C6  UNL d   1      -0.903  -2.009   0.151  0.00  0.00    -0.004 A 
ATOM      5  C7  UNL d   1      -0.588  -1.337   1.330  0.00  0.00     0.002 A 
ATOM      6  C8  UNL d   1      -0.099  -0.030   1.283  0.00  0.00     0.002 A 
ENDROOT
BRANCH   1   7
ATOM      7  C2  UNL d   1       0.585   2.041   0.007  0.00  0.00     0.056 C 
BRANCH   7   8
ATOM      8  C1  UNL d   1       2.048   2.197   0.437  0.00  0.00     0.007 C 
ATOM      9  C   UNL d   1       2.248   3.254   1.514  0.00  0.00     0.009 C 
ENDBRANCH   7   8
ENDBRANCH   1   7
TORSDOF 2
ENDMDL
