MODEL 1
REMARK minimizedAffinity -3.29708123
REMARK minimizedRMSD -1
REMARK  2 active torsions:
REMARK  status: ('A' for Active; 'I' for Inactive)
REMARK    1  A    between atoms: C1_2  and  C2_3 
REMARK    2  A    between atoms: C2_3  and  C3_4 
ROOT
ATOM      1  C3  UNL d   1      -0.266  -1.676  -1.008  0.00  0.00    -0.075 A 
ATOM      2  C4  UNL d   1       0.085  -0.336  -0.788  0.00  0.00     0.002 A 
ATOM      3  C5  UNL d   1      -0.099   0.247   0.466  0.00  0.00     0.002 A 
ATOM      4  C6  UNL d   1      -0.644  -0.497   1.510  0.00  0.00    -0.004 A 
ATOM      5  C7  UNL d   1      -1.011  -1.824   1.298  0.00  0.00     0.002 A 
ATOM      6  C8  UNL d   1      -0.824  -2.411   0.046  0.00  0.00     0.002 A 
ENDROOT
BRANCH   1   7
ATOM      7  C2  UNL d   1      -0.042  -2.322  -2.355  0.00  0.00     0.056 C 
BRANCH   7   8
ATOM      8  C1  UNL d   1      -0.654  -3.720  -2.485  0.00  0.00     0.007 C 
ATOM      9  C   UNL d   1      -1.770  -3.793  -3.520  0.00  0.00     0.009 C 
ENDBRANCH   7   8
ENDBRANCH   1   7
TORSDOF 2
ENDMDL
