MODEL 1
REMARK minimizedAffinity -3.33776402
REMARK minimizedRMSD -1
REMARK  2 active torsions:
REMARK  status: ('A' for Active; 'I' for Inactive)
REMARK    1  A    between atoms: C1_2  and  C2_3 
REMARK    2  A    between atoms: C2_3  and  C3_4 
ROOT
ATOM      1  C3  UNL d   1       0.109   0.151   0.250  0.00  0.00    -0.075 A 
ATOM      2  C4  UNL d   1      -0.504  -0.719  -0.663  0.00  0.00     0.002 A 
ATOM      3  C5  UNL d   1      -1.231  -1.822  -0.213  0.00  0.00     0.002 A 
ATOM      4  C6  UNL d   1      -1.345  -2.075   1.152  0.00  0.00    -0.004 A 
ATOM      5  C7  UNL d   1      -0.726  -1.227   2.068  0.00  0.00     0.002 A 
ATOM      6  C8  UNL d   1      -0.002  -0.120   1.620  0.00  0.00     0.002 A 
ENDROOT
BRANCH   1   7
ATOM      7  C2  UNL d   1       0.872   1.362  -0.230  0.00  0.00     0.056 C 
BRANCH   7   8
ATOM      8  C1  UNL d   1       0.947   2.498   0.796  0.00  0.00     0.007 C 
ATOM      9  C   UNL d   1       2.240   3.298   0.712  0.00  0.00     0.009 C 
ENDBRANCH   7   8
ENDBRANCH   1   7
TORSDOF 2
ENDMDL
