MODEL 1
REMARK minimizedAffinity -3.60181713
REMARK minimizedRMSD -1
REMARK  0 active torsions:
REMARK  status: ('A' for Active; 'I' for Inactive)
ROOT
ATOM      1  C   UNL d   1      -0.896  -2.164  -0.006  0.00  0.00     0.077 C 
ATOM      2  C1  UNL d   1      -0.007  -0.971   0.182  0.00  0.00    -0.074 A 
ATOM      3  C2  UNL d   1       1.373  -1.123   0.357  0.00  0.00    -0.005 A 
ATOM      4  C3  UNL d   1       2.189  -0.004   0.520  0.00  0.00     0.006 A 
ATOM      5  C4  UNL d   1       1.634   1.277   0.512  0.00  0.00    -0.005 A 
ATOM      6  C5  UNL d   1       0.258   1.448   0.337  0.00  0.00    -0.074 A 
ATOM      7  C6  UNL d   1      -0.353   2.818   0.316  0.00  0.00     0.077 C 
ATOM      8  C7  UNL d   1      -0.555   0.319   0.166  0.00  0.00    -0.001 A 
ENDROOT
TORSDOF 0
ENDMDL
