MODEL 1
REMARK minimizedAffinity -5.87169456
REMARK minimizedRMSD -1
REMARK  0 active torsions:
REMARK  status: ('A' for Active; 'I' for Inactive)
ROOT
ATOM      1  C   UNL d   1      -0.101   3.196   0.068  0.00  0.00     0.077 C 
ATOM      2  C1  UNL d   1       0.577   1.860   0.144  0.00  0.00    -0.074 A 
ATOM      3  C2  UNL d   1       1.963   1.765   0.300  0.00  0.00    -0.005 A 
ATOM      4  C3  UNL d   1       2.578   0.516   0.379  0.00  0.00     0.006 A 
ATOM      5  C4  UNL d   1       1.814  -0.650   0.304  0.00  0.00    -0.005 A 
ATOM      6  C5  UNL d   1       0.427  -0.574   0.149  0.00  0.00    -0.074 A 
ATOM      7  C6  UNL d   1      -0.410  -1.817   0.077  0.00  0.00     0.077 C 
ATOM      8  C7  UNL d   1      -0.185   0.685   0.077  0.00  0.00    -0.001 A 
ENDROOT
TORSDOF 0
ENDMDL
