MODEL 1
REMARK minimizedAffinity -5.73767996
REMARK minimizedRMSD -1
REMARK  0 active torsions:
REMARK  status: ('A' for Active; 'I' for Inactive)
ROOT
ATOM      1  C   UNL d   1       0.673   3.425  -0.250  0.00  0.00     0.077 C 
ATOM      2  C1  UNL d   1       0.387   1.976   0.013  0.00  0.00    -0.074 A 
ATOM      3  C2  UNL d   1       1.362   0.999  -0.210  0.00  0.00    -0.005 A 
ATOM      4  C3  UNL d   1       1.084  -0.344   0.048  0.00  0.00     0.006 A 
ATOM      5  C4  UNL d   1      -0.169  -0.722   0.531  0.00  0.00    -0.005 A 
ATOM      6  C5  UNL d   1      -1.157   0.242   0.760  0.00  0.00    -0.074 A 
ATOM      7  C6  UNL d   1      -2.506  -0.147   1.288  0.00  0.00     0.077 C 
ATOM      8  C7  UNL d   1      -0.868   1.589   0.505  0.00  0.00    -0.001 A 
ENDROOT
TORSDOF 0
ENDMDL
