MODEL 1
REMARK minimizedAffinity -4.74849892
REMARK minimizedRMSD -1
REMARK  0 active torsions:
REMARK  status: ('A' for Active; 'I' for Inactive)
ROOT
ATOM      1  C   UNL d   1       0.686   3.500  -0.311  0.00  0.00     0.077 C 
ATOM      2  C1  UNL d   1       0.014   2.193  -0.014  0.00  0.00    -0.074 A 
ATOM      3  C2  UNL d   1      -1.273   2.154   0.534  0.00  0.00    -0.005 A 
ATOM      4  C3  UNL d   1      -1.889   0.931   0.795  0.00  0.00     0.006 A 
ATOM      5  C4  UNL d   1      -1.228  -0.265   0.512  0.00  0.00    -0.005 A 
ATOM      6  C5  UNL d   1       0.059  -0.246  -0.037  0.00  0.00    -0.074 A 
ATOM      7  C6  UNL d   1       0.780  -1.521  -0.357  0.00  0.00     0.077 C 
ATOM      8  C7  UNL d   1       0.669   0.987  -0.303  0.00  0.00    -0.001 A 
ENDROOT
TORSDOF 0
ENDMDL
