MODEL 1
REMARK minimizedAffinity -4.86084509
REMARK minimizedRMSD -1
REMARK  0 active torsions:
REMARK  status: ('A' for Active; 'I' for Inactive)
ROOT
ATOM      1  C   UNL d   1       0.023   3.176   0.214  0.00  0.00     0.077 C 
ATOM      2  C1  UNL d   1       0.591   1.788   0.214  0.00  0.00    -0.074 A 
ATOM      3  C2  UNL d   1       1.955   1.569   0.435  0.00  0.00    -0.005 A 
ATOM      4  C3  UNL d   1       2.467   0.272   0.441  0.00  0.00     0.006 A 
ATOM      5  C4  UNL d   1       1.623  -0.818   0.227  0.00  0.00    -0.005 A 
ATOM      6  C5  UNL d   1       0.257  -0.619   0.005  0.00  0.00    -0.074 A 
ATOM      7  C6  UNL d   1      -0.666  -1.780  -0.218  0.00  0.00     0.077 C 
ATOM      8  C7  UNL d   1      -0.252   0.687   0.007  0.00  0.00    -0.001 A 
ENDROOT
TORSDOF 0
ENDMDL
