MODEL 1
REMARK minimizedAffinity -5.15628433
REMARK minimizedRMSD -1
REMARK  0 active torsions:
REMARK  status: ('A' for Active; 'I' for Inactive)
ROOT
ATOM      1  C   UNL d   1       0.174  -1.663  -0.231  0.00  0.00     0.077 C 
ATOM      2  C1  UNL d   1       0.727  -0.321   0.144  0.00  0.00    -0.074 A 
ATOM      3  C2  UNL d   1       2.090  -0.154   0.413  0.00  0.00    -0.005 A 
ATOM      4  C3  UNL d   1       2.591   1.103   0.751  0.00  0.00     0.006 A 
ATOM      5  C4  UNL d   1       1.737   2.204   0.823  0.00  0.00    -0.005 A 
ATOM      6  C5  UNL d   1       0.372   2.057   0.557  0.00  0.00    -0.074 A 
ATOM      7  C6  UNL d   1      -0.558   3.232   0.621  0.00  0.00     0.077 C 
ATOM      8  C7  UNL d   1      -0.123   0.792   0.211  0.00  0.00    -0.001 A 
ENDROOT
TORSDOF 0
ENDMDL
