MODEL 1
REMARK minimizedAffinity -4.62580395
REMARK minimizedRMSD -1
REMARK  0 active torsions:
REMARK  status: ('A' for Active; 'I' for Inactive)
ROOT
ATOM      1  C   UNL d   1       0.803   2.628  -0.655  0.00  0.00     0.077 C 
ATOM      2  C1  UNL d   1       0.991   1.193  -0.265  0.00  0.00    -0.074 A 
ATOM      3  C2  UNL d   1       2.147   0.775   0.403  0.00  0.00    -0.005 A 
ATOM      4  C3  UNL d   1       2.304  -0.562   0.768  0.00  0.00     0.006 A 
ATOM      5  C4  UNL d   1       1.308  -1.493   0.471  0.00  0.00    -0.005 A 
ATOM      6  C5  UNL d   1       0.145  -1.094  -0.195  0.00  0.00    -0.074 A 
ATOM      7  C6  UNL d   1      -0.940  -2.080  -0.513  0.00  0.00     0.077 C 
ATOM      8  C7  UNL d   1      -0.008   0.253  -0.553  0.00  0.00    -0.001 A 
ENDROOT
TORSDOF 0
ENDMDL
