MODEL 1
REMARK minimizedAffinity -3.98069215
REMARK minimizedRMSD -1
REMARK  0 active torsions:
REMARK  status: ('A' for Active; 'I' for Inactive)
ROOT
ATOM      1  C   UNL d   1       0.510  -1.473  -0.028  0.00  0.00     0.077 C 
ATOM      2  C1  UNL d   1      -0.127  -0.117   0.036  0.00  0.00    -0.074 A 
ATOM      3  C2  UNL d   1      -1.487   0.025   0.326  0.00  0.00    -0.005 A 
ATOM      4  C3  UNL d   1      -2.064   1.294   0.392  0.00  0.00     0.006 A 
ATOM      5  C4  UNL d   1      -1.286   2.431   0.169  0.00  0.00    -0.005 A 
ATOM      6  C5  UNL d   1       0.076   2.308  -0.122  0.00  0.00    -0.074 A 
ATOM      7  C6  UNL d   1       0.928   3.521  -0.355  0.00  0.00     0.077 C 
ATOM      8  C7  UNL d   1       0.649   1.031  -0.179  0.00  0.00    -0.001 A 
ENDROOT
TORSDOF 0
ENDMDL
