MODEL 1
REMARK minimizedAffinity -5.12810707
REMARK minimizedRMSD -1
REMARK  0 active torsions:
REMARK  status: ('A' for Active; 'I' for Inactive)
ROOT
ATOM      1  C   UNL d   1       2.688  -0.902   0.479  0.00  0.00     0.077 C 
ATOM      2  C1  UNL d   1       1.373  -0.186   0.403  0.00  0.00    -0.074 A 
ATOM      3  C2  UNL d   1       0.185  -0.822   0.779  0.00  0.00    -0.005 A 
ATOM      4  C3  UNL d   1      -1.030  -0.139   0.711  0.00  0.00     0.006 A 
ATOM      5  C4  UNL d   1      -1.069   1.183   0.267  0.00  0.00    -0.005 A 
ATOM      6  C5  UNL d   1       0.108   1.835  -0.112  0.00  0.00    -0.074 A 
ATOM      7  C6  UNL d   1       0.085   3.259  -0.582  0.00  0.00     0.077 C 
ATOM      8  C7  UNL d   1       1.326   1.145  -0.035  0.00  0.00    -0.001 A 
ENDROOT
TORSDOF 0
ENDMDL
