MODEL 1
REMARK minimizedAffinity -3.18274689
REMARK minimizedRMSD -1
REMARK  0 active torsions:
REMARK  status: ('A' for Active; 'I' for Inactive)
ROOT
ATOM      1  C   UNL d   1      -1.933   2.635   0.740  0.00  0.00     0.077 C 
ATOM      2  C1  UNL d   1      -0.785   1.797   0.261  0.00  0.00    -0.074 A 
ATOM      3  C2  UNL d   1       0.422   2.387  -0.129  0.00  0.00    -0.005 A 
ATOM      4  C3  UNL d   1       1.484   1.594  -0.563  0.00  0.00     0.006 A 
ATOM      5  C4  UNL d   1       1.350   0.206  -0.613  0.00  0.00    -0.005 A 
ATOM      6  C5  UNL d   1       0.151  -0.401  -0.227  0.00  0.00    -0.074 A 
ATOM      7  C6  UNL d   1      -0.006  -1.892  -0.264  0.00  0.00     0.077 C 
ATOM      8  C7  UNL d   1      -0.909   0.402   0.216  0.00  0.00    -0.001 A 
ENDROOT
TORSDOF 0
ENDMDL
