MODEL 1
REMARK minimizedAffinity -2.61041808
REMARK minimizedRMSD -1
REMARK  0 active torsions:
REMARK  status: ('A' for Active; 'I' for Inactive)
ROOT
ATOM      1  C   UNL d   1       0.639  -1.535  -0.445  0.00  0.00     0.077 C 
ATOM      2  C1  UNL d   1      -0.032  -0.254  -0.045  0.00  0.00    -0.074 A 
ATOM      3  C2  UNL d   1      -1.086  -0.252   0.874  0.00  0.00    -0.005 A 
ATOM      4  C3  UNL d   1      -1.694   0.948   1.243  0.00  0.00     0.006 A 
ATOM      5  C4  UNL d   1      -1.255   2.155   0.698  0.00  0.00    -0.005 A 
ATOM      6  C5  UNL d   1      -0.202   2.172  -0.221  0.00  0.00    -0.074 A 
ATOM      7  C6  UNL d   1       0.289   3.462  -0.809  0.00  0.00     0.077 C 
ATOM      8  C7  UNL d   1       0.409   0.963  -0.582  0.00  0.00    -0.001 A 
ENDROOT
TORSDOF 0
ENDMDL
