MODEL 1
REMARK minimizedAffinity -5.19316912
REMARK minimizedRMSD -1
REMARK  0 active torsions:
REMARK  status: ('A' for Active; 'I' for Inactive)
ROOT
ATOM      1  C   UNL d   1      -0.653  -2.626  -0.360  0.00  0.00     0.077 C 
ATOM      2  C1  UNL d   1      -0.459  -1.150  -0.178  0.00  0.00    -0.074 A 
ATOM      3  C2  UNL d   1      -1.513  -0.333   0.243  0.00  0.00    -0.005 A 
ATOM      4  C3  UNL d   1      -1.315   1.037   0.417  0.00  0.00     0.006 A 
ATOM      5  C4  UNL d   1      -0.063   1.602   0.172  0.00  0.00    -0.005 A 
ATOM      6  C5  UNL d   1       1.003   0.801  -0.248  0.00  0.00    -0.074 A 
ATOM      7  C6  UNL d   1       2.358   1.391  -0.506  0.00  0.00     0.077 C 
ATOM      8  C7  UNL d   1       0.798  -0.576  -0.414  0.00  0.00    -0.001 A 
ENDROOT
TORSDOF 0
ENDMDL
