MODEL 1
REMARK minimizedAffinity -4.35503578
REMARK minimizedRMSD -1
REMARK  0 active torsions:
REMARK  status: ('A' for Active; 'I' for Inactive)
ROOT
ATOM      1  C   UNL d   1       0.776   3.563  -0.156  0.00  0.00     0.077 C 
ATOM      2  C1  UNL d   1       0.075   2.249   0.022  0.00  0.00    -0.074 A 
ATOM      3  C2  UNL d   1      -1.293   2.196   0.304  0.00  0.00    -0.005 A 
ATOM      4  C3  UNL d   1      -1.933   0.966   0.457  0.00  0.00     0.006 A 
ATOM      5  C4  UNL d   1      -1.212  -0.222   0.330  0.00  0.00    -0.005 A 
ATOM      6  C5  UNL d   1       0.158  -0.189   0.047  0.00  0.00    -0.074 A 
ATOM      7  C6  UNL d   1       0.946  -1.456  -0.102  0.00  0.00     0.077 C 
ATOM      8  C7  UNL d   1       0.792   1.051  -0.112  0.00  0.00    -0.001 A 
ENDROOT
TORSDOF 0
ENDMDL
