MODEL 1
REMARK minimizedAffinity -3.37206364
REMARK minimizedRMSD -1
REMARK  0 active torsions:
REMARK  status: ('A' for Active; 'I' for Inactive)
ROOT
ATOM      1  C   UNL d   1      -0.784   2.653  -0.076  0.00  0.00     0.077 C 
ATOM      2  C1  UNL d   1       0.020   1.389  -0.143  0.00  0.00    -0.074 A 
ATOM      3  C2  UNL d   1       1.413   1.416  -0.023  0.00  0.00    -0.005 A 
ATOM      4  C3  UNL d   1       2.147   0.231  -0.077  0.00  0.00     0.006 A 
ATOM      5  C4  UNL d   1       1.496  -0.991  -0.252  0.00  0.00    -0.005 A 
ATOM      6  C5  UNL d   1       0.104  -1.038  -0.374  0.00  0.00    -0.074 A 
ATOM      7  C6  UNL d   1      -0.612  -2.344  -0.552  0.00  0.00     0.077 C 
ATOM      8  C7  UNL d   1      -0.627   0.156  -0.311  0.00  0.00    -0.001 A 
ENDROOT
TORSDOF 0
ENDMDL
