MODEL 1
REMARK minimizedAffinity -3.99713039
REMARK minimizedRMSD -1
REMARK  0 active torsions:
REMARK  status: ('A' for Active; 'I' for Inactive)
ROOT
ATOM      1  C   UNL d   1       0.559   3.599  -0.175  0.00  0.00     0.077 C 
ATOM      2  C1  UNL d   1       0.401   2.128   0.070  0.00  0.00    -0.074 A 
ATOM      3  C2  UNL d   1       1.513   1.280   0.093  0.00  0.00    -0.005 A 
ATOM      4  C3  UNL d   1       1.352  -0.085   0.332  0.00  0.00     0.006 A 
ATOM      5  C4  UNL d   1       0.080  -0.614   0.551  0.00  0.00    -0.005 A 
ATOM      6  C5  UNL d   1      -1.044   0.219   0.533  0.00  0.00    -0.074 A 
ATOM      7  C6  UNL d   1      -2.417  -0.333   0.777  0.00  0.00     0.077 C 
ATOM      8  C7  UNL d   1      -0.873   1.590   0.299  0.00  0.00    -0.001 A 
ENDROOT
TORSDOF 0
ENDMDL
