MODEL 1
REMARK minimizedAffinity -2.56110907
REMARK minimizedRMSD -1
REMARK  0 active torsions:
REMARK  status: ('A' for Active; 'I' for Inactive)
ROOT
ATOM      1  C   UNL d   1       0.544   3.324  -0.473  0.00  0.00     0.077 C 
ATOM      2  C1  UNL d   1      -0.126   2.052  -0.046  0.00  0.00    -0.074 A 
ATOM      3  C2  UNL d   1      -1.240   2.075   0.799  0.00  0.00    -0.005 A 
ATOM      4  C3  UNL d   1      -1.858   0.884   1.180  0.00  0.00     0.006 A 
ATOM      5  C4  UNL d   1      -1.370  -0.340   0.721  0.00  0.00    -0.005 A 
ATOM      6  C5  UNL d   1      -0.258  -0.383  -0.126  0.00  0.00    -0.074 A 
ATOM      7  C6  UNL d   1       0.274  -1.689  -0.636  0.00  0.00     0.077 C 
ATOM      8  C7  UNL d   1       0.354   0.819  -0.510  0.00  0.00    -0.001 A 
ENDROOT
TORSDOF 0
ENDMDL
