MODEL 1
REMARK minimizedAffinity -4.16479683
REMARK minimizedRMSD -1
REMARK  0 active torsions:
REMARK  status: ('A' for Active; 'I' for Inactive)
ROOT
ATOM      1  C   UNL d   1      -0.359   2.806  -0.337  0.00  0.00     0.077 C 
ATOM      2  C1  UNL d   1       0.365   1.500  -0.197  0.00  0.00    -0.074 A 
ATOM      3  C2  UNL d   1       1.750   1.463  -0.007  0.00  0.00    -0.005 A 
ATOM      4  C3  UNL d   1       2.409   0.242   0.132  0.00  0.00     0.006 A 
ATOM      5  C4  UNL d   1       1.690  -0.954   0.082  0.00  0.00    -0.005 A 
ATOM      6  C5  UNL d   1       0.305  -0.936  -0.106  0.00  0.00    -0.074 A 
ATOM      7  C6  UNL d   1      -0.484  -2.211  -0.152  0.00  0.00     0.077 C 
ATOM      8  C7  UNL d   1      -0.351   0.296  -0.237  0.00  0.00    -0.001 A 
ENDROOT
TORSDOF 0
ENDMDL
