MODEL 1
REMARK minimizedAffinity -2.53441834
REMARK minimizedRMSD -1
REMARK  0 active torsions:
REMARK  status: ('A' for Active; 'I' for Inactive)
ROOT
ATOM      1  C   UNL d   1       0.476  -1.748  -0.284  0.00  0.00     0.077 C 
ATOM      2  C1  UNL d   1      -0.192  -0.426  -0.047  0.00  0.00    -0.074 A 
ATOM      3  C2  UNL d   1      -1.512  -0.360   0.409  0.00  0.00    -0.005 A 
ATOM      4  C3  UNL d   1      -2.117   0.877   0.635  0.00  0.00     0.006 A 
ATOM      5  C4  UNL d   1      -1.409   2.057   0.407  0.00  0.00    -0.005 A 
ATOM      6  C5  UNL d   1      -0.088   2.011  -0.049  0.00  0.00    -0.074 A 
ATOM      7  C6  UNL d   1       0.690   3.270  -0.290  0.00  0.00     0.077 C 
ATOM      8  C7  UNL d   1       0.515   0.765  -0.266  0.00  0.00    -0.001 A 
ENDROOT
TORSDOF 0
ENDMDL
