MODEL 1
REMARK minimizedAffinity -3.0856626
REMARK minimizedRMSD -1
REMARK  0 active torsions:
REMARK  status: ('A' for Active; 'I' for Inactive)
ROOT
ATOM      1  C   UNL d   1      -0.422   3.329   2.576  0.00  0.00     0.077 C 
ATOM      2  C1  UNL d   1      -0.162   2.702   1.239  0.00  0.00    -0.074 A 
ATOM      3  C2  UNL d   1       0.363   3.453   0.182  0.00  0.00    -0.005 A 
ATOM      4  C3  UNL d   1       0.609   2.853  -1.053  0.00  0.00     0.006 A 
ATOM      5  C4  UNL d   1       0.333   1.498  -1.244  0.00  0.00    -0.005 A 
ATOM      6  C5  UNL d   1      -0.191   0.731  -0.198  0.00  0.00    -0.074 A 
ATOM      7  C6  UNL d   1      -0.484  -0.728  -0.383  0.00  0.00     0.077 C 
ATOM      8  C7  UNL d   1      -0.429   1.340   1.042  0.00  0.00    -0.001 A 
ENDROOT
TORSDOF 0
ENDMDL
