MODEL 1
REMARK minimizedAffinity 9.45840931
REMARK minimizedRMSD -1
REMARK  3 active torsions:
REMARK  status: ('A' for Active; 'I' for Inactive)
REMARK    1  A    between atoms: C3'_2  and  C2'_3 
REMARK    2  A    between atoms: C2'_3  and  C1'_4 
REMARK    3  A    between atoms: C1'_4  and  C1_5 
ROOT
ATOM      1  C1  N4B d   1       0.123   3.321   0.376  0.00  0.00    -0.075 A 
ATOM      2  C2  N4B d   1       0.308   3.710  -0.969  0.00  0.00     0.002 A 
ATOM      3  C3  N4B d   1       0.331   5.043  -1.301  0.00  0.00     0.002 A 
ATOM      4  C4  N4B d   1       0.153   5.999  -0.313  0.00  0.00    -0.004 A 
ATOM      5  C5  N4B d   1       0.000   5.615   0.988  0.00  0.00     0.002 A 
ATOM      6  C6  N4B d   1      -0.021   4.280   1.336  0.00  0.00     0.002 A 
ENDROOT
BRANCH   1   7
ATOM      7  C1' N4B d   1       0.005   1.875   0.775  0.00  0.00     0.057 C 
BRANCH   7   8
ATOM      8  C2' N4B d   1       0.202   0.998  -0.458  0.00  0.00     0.009 C 
BRANCH   8   9
ATOM      9  C3' N4B d   1      -1.010   0.124  -0.733  0.00  0.00     0.004 C 
ATOM     10  C4' N4B d   1      -2.240   0.595  -0.017  0.00  0.00     0.003 C 
ENDBRANCH   8   9
ENDBRANCH   7   8
ENDBRANCH   1   7
TORSDOF 3
ENDMDL
