MODEL 1
REMARK minimizedAffinity 4.91916418
REMARK minimizedRMSD -1
REMARK  3 active torsions:
REMARK  status: ('A' for Active; 'I' for Inactive)
REMARK    1  A    between atoms: C3'_2  and  C2'_3 
REMARK    2  A    between atoms: C2'_3  and  C1'_4 
REMARK    3  A    between atoms: C1'_4  and  C1_5 
ROOT
ATOM      1  C1  N4B d   1      -0.665   4.140   1.482  0.00  0.00    -0.075 A 
ATOM      2  C2  N4B d   1      -0.056   3.370   0.467  0.00  0.00     0.002 A 
ATOM      3  C3  N4B d   1       0.209   3.933  -0.757  0.00  0.00     0.002 A 
ATOM      4  C4  N4B d   1      -0.141   5.254  -0.994  0.00  0.00    -0.004 A 
ATOM      5  C5  N4B d   1      -0.706   5.999  -0.000  0.00  0.00     0.002 A 
ATOM      6  C6  N4B d   1      -0.974   5.447   1.236  0.00  0.00     0.002 A 
ENDROOT
BRANCH   1   7
ATOM      7  C1' N4B d   1      -1.052   3.544   2.808  0.00  0.00     0.057 C 
BRANCH   7   8
ATOM      8  C2' N4B d   1       0.093   2.675   3.320  0.00  0.00     0.009 C 
BRANCH   8   9
ATOM      9  C3' N4B d   1       1.421   3.056   2.688  0.00  0.00     0.004 C 
ATOM     10  C4' N4B d   1       2.443   3.486   3.698  0.00  0.00     0.003 C 
ENDBRANCH   8   9
ENDBRANCH   7   8
ENDBRANCH   1   7
TORSDOF 3
ENDMDL
