MODEL 1
REMARK minimizedAffinity 11.1626072
REMARK minimizedRMSD -1
REMARK  3 active torsions:
REMARK  status: ('A' for Active; 'I' for Inactive)
REMARK    1  A    between atoms: C3'_2  and  C2'_3 
REMARK    2  A    between atoms: C2'_3  and  C1'_4 
REMARK    3  A    between atoms: C1'_4  and  C1_5 
ROOT
ATOM      1  C1  N4B d   1       0.213   5.375  -2.230  0.00  0.00    -0.075 A 
ATOM      2  C2  N4B d   1      -1.175   5.365  -2.488  0.00  0.00     0.002 A 
ATOM      3  C3  N4B d   1      -1.642   5.666  -3.744  0.00  0.00     0.002 A 
ATOM      4  C4  N4B d   1      -0.745   5.998  -4.748  0.00  0.00    -0.004 A 
ATOM      5  C5  N4B d   1       0.596   5.981  -4.497  0.00  0.00     0.002 A 
ATOM      6  C6  N4B d   1       1.079   5.676  -3.241  0.00  0.00     0.002 A 
ENDROOT
BRANCH   1   7
ATOM      7  C1' N4B d   1       0.766   5.136  -0.851  0.00  0.00     0.057 C 
BRANCH   7   8
ATOM      8  C2' N4B d   1      -0.036   4.029  -0.175  0.00  0.00     0.009 C 
BRANCH   8   9
ATOM      9  C3' N4B d   1      -0.795   4.537   1.038  0.00  0.00     0.004 C 
ATOM     10  C4' N4B d   1      -1.116   5.999   0.952  0.00  0.00     0.003 C 
ENDBRANCH   8   9
ENDBRANCH   7   8
ENDBRANCH   1   7
TORSDOF 3
ENDMDL
