MODEL 1
REMARK minimizedAffinity 11.5650749
REMARK minimizedRMSD -1
REMARK  3 active torsions:
REMARK  status: ('A' for Active; 'I' for Inactive)
REMARK    1  A    between atoms: C3'_2  and  C2'_3 
REMARK    2  A    between atoms: C2'_3  and  C1'_4 
REMARK    3  A    between atoms: C1'_4  and  C1_5 
ROOT
ATOM      1  C1  N4B d   1      -2.617  -0.599   0.088  0.00  0.00    -0.075 A 
ATOM      2  C2  N4B d   1      -3.305   0.620  -0.104  0.00  0.00     0.002 A 
ATOM      3  C3  N4B d   1      -4.229   1.039   0.821  0.00  0.00     0.002 A 
ATOM      4  C4  N4B d   1      -4.495   0.251   1.931  0.00  0.00    -0.004 A 
ATOM      5  C5  N4B d   1      -3.808  -0.912   2.122  0.00  0.00     0.002 A 
ATOM      6  C6  N4B d   1      -2.873  -1.344   1.202  0.00  0.00     0.002 A 
ENDROOT
BRANCH   1   7
ATOM      7  C1' N4B d   1      -1.661  -1.140  -0.939  0.00  0.00     0.057 C 
BRANCH   7   8
ATOM      8  C2' N4B d   1      -0.966   0.023  -1.640  0.00  0.00     0.009 C 
BRANCH   8   9
ATOM      9  C3' N4B d   1       0.053   0.701  -0.741  0.00  0.00     0.004 C 
ATOM     10  C4' N4B d   1       1.355  -0.041  -0.676  0.00  0.00     0.003 C 
ENDBRANCH   8   9
ENDBRANCH   7   8
ENDBRANCH   1   7
TORSDOF 3
ENDMDL
