MODEL 1
REMARK minimizedAffinity 5.66509342
REMARK minimizedRMSD -1
REMARK  3 active torsions:
REMARK  status: ('A' for Active; 'I' for Inactive)
REMARK    1  A    between atoms: C3'_2  and  C2'_3 
REMARK    2  A    between atoms: C2'_3  and  C1'_4 
REMARK    3  A    between atoms: C1'_4  and  C1_5 
ROOT
ATOM      1  C1  N4B d   1      -3.723   0.054   2.719  0.00  0.00    -0.075 A 
ATOM      2  C2  N4B d   1      -3.496  -1.093   3.512  0.00  0.00     0.002 A 
ATOM      3  C3  N4B d   1      -4.526  -1.644   4.233  0.00  0.00     0.002 A 
ATOM      4  C4  N4B d   1      -5.782  -1.058   4.192  0.00  0.00    -0.004 A 
ATOM      5  C5  N4B d   1      -6.000   0.034   3.404  0.00  0.00     0.002 A 
ATOM      6  C6  N4B d   1      -4.974   0.597   2.670  0.00  0.00     0.002 A 
ENDROOT
BRANCH   1   7
ATOM      7  C1' N4B d   1      -2.608   0.743   1.981  0.00  0.00     0.057 C 
BRANCH   7   8
ATOM      8  C2' N4B d   1      -1.672  -0.309   1.393  0.00  0.00     0.009 C 
BRANCH   8   9
ATOM      9  C3' N4B d   1      -0.353   0.294   0.939  0.00  0.00     0.004 C 
ATOM     10  C4' N4B d   1       0.796  -0.091   1.821  0.00  0.00     0.003 C 
ENDBRANCH   8   9
ENDBRANCH   7   8
ENDBRANCH   1   7
TORSDOF 3
ENDMDL
