MODEL 1
REMARK minimizedAffinity -2.17864251
REMARK minimizedRMSD -1
REMARK  0 active torsions:
REMARK  status: ('A' for Active; 'I' for Inactive)
ROOT
ATOM      1  C   UNL d   1       0.043   0.469  -1.107  0.00  0.00     0.172 C 
ATOM      2  N   UNL d   1       0.007   0.329   0.330  0.00  0.00    -0.070 N 
ATOM      3  C1  UNL d   1       1.073   0.012   1.129  0.00  0.00    -0.004 A 
ATOM      4  C2  UNL d   1       0.627  -0.024   2.433  0.00  0.00    -0.047 A 
ATOM      5  C3  UNL d   1      -0.755   0.280   2.417  0.00  0.00    -0.047 A 
ATOM      6  C4  UNL d   1      -1.113   0.494   1.102  0.00  0.00    -0.004 A 
ENDROOT
TORSDOF 0
ENDMDL
