MODEL 1
REMARK minimizedAffinity -3.76434159
REMARK minimizedRMSD -1
REMARK  0 active torsions:
REMARK  status: ('A' for Active; 'I' for Inactive)
ROOT
ATOM      1  C   UNL d   1      -0.379   0.324  -1.099  0.00  0.00     0.172 C 
ATOM      2  N   UNL d   1      -0.515  -0.017   0.298  0.00  0.00    -0.070 N 
ATOM      3  C1  UNL d   1      -1.692  -0.288   0.943  0.00  0.00    -0.004 A 
ATOM      4  C2  UNL d   1      -1.397  -0.567   2.260  0.00  0.00    -0.047 A 
ATOM      5  C3  UNL d   1       0.006  -0.458   2.412  0.00  0.00    -0.047 A 
ATOM      6  C4  UNL d   1       0.527  -0.117   1.182  0.00  0.00    -0.004 A 
ENDROOT
TORSDOF 0
ENDMDL
