MODEL 1
REMARK minimizedAffinity -3.75126982
REMARK minimizedRMSD -1
REMARK  0 active torsions:
REMARK  status: ('A' for Active; 'I' for Inactive)
ROOT
ATOM      1  C   UNL d   1       0.447  -0.167   0.696  0.00  0.00     0.172 C 
ATOM      2  N   UNL d   1      -0.672  -0.013   1.596  0.00  0.00    -0.070 N 
ATOM      3  C1  UNL d   1      -1.926   0.411   1.245  0.00  0.00    -0.004 A 
ATOM      4  C2  UNL d   1      -2.702   0.423   2.383  0.00  0.00    -0.047 A 
ATOM      5  C3  UNL d   1      -1.886  -0.009   3.456  0.00  0.00    -0.047 A 
ATOM      6  C4  UNL d   1      -0.634  -0.272   2.940  0.00  0.00    -0.004 A 
ENDROOT
TORSDOF 0
ENDMDL
