MODEL 1
REMARK minimizedAffinity -3.73165154
REMARK minimizedRMSD -1
REMARK  0 active torsions:
REMARK  status: ('A' for Active; 'I' for Inactive)
ROOT
ATOM      1  C   UNL d   1       0.040   0.248   0.598  0.00  0.00     0.172 C 
ATOM      2  N   UNL d   1      -0.999   0.338   1.596  0.00  0.00    -0.070 N 
ATOM      3  C1  UNL d   1      -0.863   0.021   2.921  0.00  0.00    -0.004 A 
ATOM      4  C2  UNL d   1      -2.077   0.242   3.535  0.00  0.00    -0.047 A 
ATOM      5  C3  UNL d   1      -2.974   0.708   2.545  0.00  0.00    -0.047 A 
ATOM      6  C4  UNL d   1      -2.280   0.758   1.354  0.00  0.00    -0.004 A 
ENDROOT
TORSDOF 0
ENDMDL
