MODEL 1
REMARK minimizedAffinity -2.30714869
REMARK minimizedRMSD -1
REMARK  0 active torsions:
REMARK  status: ('A' for Active; 'I' for Inactive)
ROOT
ATOM      1  C   UNL d   1       0.443  -1.461  -3.724  0.00  0.00     0.172 C 
ATOM      2  N   UNL d   1       0.536  -0.720  -2.488  0.00  0.00    -0.070 N 
ATOM      3  C1  UNL d   1       0.297  -1.221  -1.237  0.00  0.00    -0.004 A 
ATOM      4  C2  UNL d   1       0.491  -0.203  -0.329  0.00  0.00    -0.047 A 
ATOM      5  C3  UNL d   1       0.859   0.952  -1.061  0.00  0.00    -0.047 A 
ATOM      6  C4  UNL d   1       0.878   0.603  -2.395  0.00  0.00    -0.004 A 
ENDROOT
TORSDOF 0
ENDMDL
