MODEL 1
REMARK minimizedAffinity -2.17273021
REMARK minimizedRMSD -1
REMARK  0 active torsions:
REMARK  status: ('A' for Active; 'I' for Inactive)
ROOT
ATOM      1  C   UNL d   1       3.799  -0.379  -4.077  0.00  0.00     0.172 C 
ATOM      2  N   UNL d   1       2.455  -0.694  -3.654  0.00  0.00    -0.070 N 
ATOM      3  C1  UNL d   1       1.616   0.144  -2.970  0.00  0.00    -0.004 A 
ATOM      4  C2  UNL d   1       0.431  -0.526  -2.756  0.00  0.00    -0.047 A 
ATOM      5  C3  UNL d   1       0.562  -1.812  -3.331  0.00  0.00    -0.047 A 
ATOM      6  C4  UNL d   1       1.825  -1.890  -3.880  0.00  0.00    -0.004 A 
ENDROOT
TORSDOF 0
ENDMDL
