MODEL 1
REMARK minimizedAffinity -2.71735835
REMARK minimizedRMSD -1
REMARK  0 active torsions:
REMARK  status: ('A' for Active; 'I' for Inactive)
ROOT
ATOM      1  C   UNL d   1       0.170   0.296   2.528  0.00  0.00     0.172 C 
ATOM      2  N   UNL d   1      -0.005   0.449   1.103  0.00  0.00    -0.070 N 
ATOM      3  C1  UNL d   1       0.993   0.402   0.167  0.00  0.00    -0.004 A 
ATOM      4  C2  UNL d   1       0.419   0.590  -1.072  0.00  0.00    -0.047 A 
ATOM      5  C3  UNL d   1      -0.972   0.757  -0.873  0.00  0.00    -0.047 A 
ATOM      6  C4  UNL d   1      -1.207   0.665   0.483  0.00  0.00    -0.004 A 
ENDROOT
TORSDOF 0
ENDMDL
