MODEL 1
REMARK minimizedAffinity -1.9823395
REMARK minimizedRMSD -1
REMARK  0 active torsions:
REMARK  status: ('A' for Active; 'I' for Inactive)
ROOT
ATOM      1  C   UNL d   1      -0.768  -0.005   3.035  0.00  0.00     0.172 C 
ATOM      2  N   UNL d   1      -0.096   0.198   1.773  0.00  0.00    -0.070 N 
ATOM      3  C1  UNL d   1      -0.602  -0.115   0.540  0.00  0.00    -0.004 A 
ATOM      4  C2  UNL d   1       0.341   0.231  -0.404  0.00  0.00    -0.047 A 
ATOM      5  C3  UNL d   1       1.452   0.771   0.287  0.00  0.00    -0.047 A 
ATOM      6  C4  UNL d   1       1.155   0.739   1.633  0.00  0.00    -0.004 A 
ENDROOT
TORSDOF 0
ENDMDL
