MODEL 1
REMARK minimizedAffinity -3.71460295
REMARK minimizedRMSD -1
REMARK  0 active torsions:
REMARK  status: ('A' for Active; 'I' for Inactive)
ROOT
ATOM      1  C   UNL d   1       1.144   0.441   0.345  0.00  0.00     0.172 C 
ATOM      2  N   UNL d   1      -0.045  -0.101   0.959  0.00  0.00    -0.070 N 
ATOM      3  C1  UNL d   1      -0.244  -0.268   2.304  0.00  0.00    -0.004 A 
ATOM      4  C2  UNL d   1      -1.498  -0.811   2.481  0.00  0.00    -0.047 A 
ATOM      5  C3  UNL d   1      -2.073  -0.977   1.198  0.00  0.00    -0.047 A 
ATOM      6  C4  UNL d   1      -1.152  -0.529   0.275  0.00  0.00    -0.004 A 
ENDROOT
TORSDOF 0
ENDMDL
