MODEL 1
REMARK minimizedAffinity -2.02762151
REMARK minimizedRMSD -1
REMARK  0 active torsions:
REMARK  status: ('A' for Active; 'I' for Inactive)
ROOT
ATOM      1  C   UNL d   1       1.121  -2.319  -1.224  0.00  0.00     0.172 C 
ATOM      2  N   UNL d   1       0.305  -1.925  -0.099  0.00  0.00    -0.070 N 
ATOM      3  C1  UNL d   1      -0.557  -2.739   0.586  0.00  0.00    -0.004 A 
ATOM      4  C2  UNL d   1      -1.142  -1.990   1.583  0.00  0.00    -0.047 A 
ATOM      5  C3  UNL d   1      -0.615  -0.680   1.494  0.00  0.00    -0.047 A 
ATOM      6  C4  UNL d   1       0.279  -0.667   0.444  0.00  0.00    -0.004 A 
ENDROOT
TORSDOF 0
ENDMDL
