MODEL 1
REMARK minimizedAffinity -3.04162169
REMARK minimizedRMSD -1
REMARK  0 active torsions:
REMARK  status: ('A' for Active; 'I' for Inactive)
ROOT
ATOM      1  C   UNL d   1       0.791  -0.432  -1.666  0.00  0.00     0.172 C 
ATOM      2  N   UNL d   1       0.367  -0.101  -0.326  0.00  0.00    -0.070 N 
ATOM      3  C1  UNL d   1       1.068  -0.361   0.821  0.00  0.00    -0.004 A 
ATOM      4  C2  UNL d   1       0.328   0.109   1.884  0.00  0.00    -0.047 A 
ATOM      5  C3  UNL d   1      -0.860   0.669   1.359  0.00  0.00    -0.047 A 
ATOM      6  C4  UNL d   1      -0.810   0.526  -0.012  0.00  0.00    -0.004 A 
ENDROOT
TORSDOF 0
ENDMDL
