MODEL 1
REMARK minimizedAffinity -2.30706906
REMARK minimizedRMSD -1
REMARK  0 active torsions:
REMARK  status: ('A' for Active; 'I' for Inactive)
ROOT
ATOM      1  C   UNL d   1      -2.396   0.316   0.138  0.00  0.00     0.172 C 
ATOM      2  N   UNL d   1      -1.073   0.134  -0.411  0.00  0.00    -0.070 N 
ATOM      3  C1  UNL d   1      -0.659   0.545  -1.650  0.00  0.00    -0.004 A 
ATOM      4  C2  UNL d   1       0.664   0.186  -1.794  0.00  0.00    -0.047 A 
ATOM      5  C3  UNL d   1       1.058  -0.465  -0.601  0.00  0.00    -0.047 A 
ATOM      6  C4  UNL d   1      -0.036  -0.484   0.238  0.00  0.00    -0.004 A 
ENDROOT
TORSDOF 0
ENDMDL
