MODEL 1
REMARK minimizedAffinity -2.28465891
REMARK minimizedRMSD -1
REMARK  0 active torsions:
REMARK  status: ('A' for Active; 'I' for Inactive)
ROOT
ATOM      1  C   UNL d   1       0.589  -0.096  -1.483  0.00  0.00     0.172 C 
ATOM      2  N   UNL d   1       0.721   0.073  -0.055  0.00  0.00    -0.070 N 
ATOM      3  C1  UNL d   1       1.756   0.705   0.582  0.00  0.00    -0.004 A 
ATOM      4  C2  UNL d   1       1.511   0.655   1.937  0.00  0.00    -0.047 A 
ATOM      5  C3  UNL d   1       0.289  -0.033   2.122  0.00  0.00    -0.047 A 
ATOM      6  C4  UNL d   1      -0.179  -0.382   0.872  0.00  0.00    -0.004 A 
ENDROOT
TORSDOF 0
ENDMDL
