MODEL 1
REMARK minimizedAffinity -2.61463428
REMARK minimizedRMSD -1
REMARK  0 active torsions:
REMARK  status: ('A' for Active; 'I' for Inactive)
ROOT
ATOM      1  C   UNL d   1      -0.472   0.293   3.162  0.00  0.00     0.172 C 
ATOM      2  N   UNL d   1      -0.429   0.338   1.719  0.00  0.00    -0.070 N 
ATOM      3  C1  UNL d   1       0.704   0.270   0.952  0.00  0.00    -0.004 A 
ATOM      4  C2  UNL d   1       0.323   0.346  -0.370  0.00  0.00    -0.047 A 
ATOM      5  C3  UNL d   1      -1.087   0.465  -0.399  0.00  0.00    -0.047 A 
ATOM      6  C4  UNL d   1      -1.526   0.458   0.908  0.00  0.00    -0.004 A 
ENDROOT
TORSDOF 0
ENDMDL
