MODEL 1
REMARK minimizedAffinity -5.25672579
REMARK minimizedRMSD -1
REMARK  2 active torsions:
REMARK  status: ('A' for Active; 'I' for Inactive)
REMARK    1  A    between atoms: C1_2  and  C2_3 
REMARK    2  A    between atoms: C2_3  and  C3_4 
ROOT
ATOM      1  C3  UNL d   1       0.177   0.308   0.157  0.00  0.00    -0.075 A 
ATOM      2  C4  UNL d   1      -0.949   0.349   0.992  0.00  0.00     0.002 A 
ATOM      3  C5  UNL d   1      -0.832   0.063   2.353  0.00  0.00     0.002 A 
ATOM      4  C6  UNL d   1       0.406  -0.277   2.893  0.00  0.00    -0.004 A 
ATOM      5  C7  UNL d   1       1.528  -0.338   2.070  0.00  0.00     0.002 A 
ATOM      6  C8  UNL d   1       1.416  -0.047   0.709  0.00  0.00     0.002 A 
ENDROOT
BRANCH   1   7
ATOM      7  C2  UNL d   1       0.064   0.645  -1.310  0.00  0.00     0.056 C 
BRANCH   7   8
ATOM      8  C1  UNL d   1      -0.579   2.008  -1.589  0.00  0.00     0.007 C 
ATOM      9  C   UNL d   1       0.316   2.940  -2.396  0.00  0.00     0.009 C 
ENDBRANCH   7   8
ENDBRANCH   1   7
TORSDOF 2
ENDMDL
