MODEL 1
REMARK minimizedAffinity -3.60295534
REMARK minimizedRMSD -1
REMARK  2 active torsions:
REMARK  status: ('A' for Active; 'I' for Inactive)
REMARK    1  A    between atoms: C1_2  and  C2_3 
REMARK    2  A    between atoms: C2_3  and  C3_4 
ROOT
ATOM      1  C3  UNL d   1      -0.021   0.033  -0.030  0.00  0.00    -0.075 A 
ATOM      2  C4  UNL d   1       1.146   0.097   0.746  0.00  0.00     0.002 A 
ATOM      3  C5  UNL d   1       1.127  -0.287   2.087  0.00  0.00     0.002 A 
ATOM      4  C6  UNL d   1      -0.058  -0.728   2.672  0.00  0.00    -0.004 A 
ATOM      5  C7  UNL d   1      -1.227  -0.780   1.915  0.00  0.00     0.002 A 
ATOM      6  C8  UNL d   1      -1.210  -0.401   0.571  0.00  0.00     0.002 A 
ENDROOT
BRANCH   1   7
ATOM      7  C2  UNL d   1       0.000   0.418  -1.490  0.00  0.00     0.056 C 
BRANCH   7   8
ATOM      8  C1  UNL d   1      -0.980   1.538  -1.853  0.00  0.00     0.007 C 
ATOM      9  C   UNL d   1      -0.307   2.737  -2.508  0.00  0.00     0.009 C 
ENDBRANCH   7   8
ENDBRANCH   1   7
TORSDOF 2
ENDMDL
