MODEL 1
REMARK minimizedAffinity -4.80808163
REMARK minimizedRMSD -1
REMARK  2 active torsions:
REMARK  status: ('A' for Active; 'I' for Inactive)
REMARK    1  A    between atoms: C1_2  and  C2_3 
REMARK    2  A    between atoms: C2_3  and  C3_4 
ROOT
ATOM      1  C3  UNL d   1      -0.101  -0.161  -0.000  0.00  0.00    -0.075 A 
ATOM      2  C4  UNL d   1      -1.086  -0.346   0.980  0.00  0.00     0.002 A 
ATOM      3  C5  UNL d   1      -0.732  -0.705   2.281  0.00  0.00     0.002 A 
ATOM      4  C6  UNL d   1       0.607  -0.893   2.615  0.00  0.00    -0.004 A 
ATOM      5  C7  UNL d   1       1.593  -0.728   1.645  0.00  0.00     0.002 A 
ATOM      6  C8  UNL d   1       1.242  -0.365   0.343  0.00  0.00     0.002 A 
ENDROOT
BRANCH   1   7
ATOM      7  C2  UNL d   1      -0.475   0.256  -1.402  0.00  0.00     0.056 C 
BRANCH   7   8
ATOM      8  C1  UNL d   1      -0.028   1.674  -1.772  0.00  0.00     0.007 C 
ATOM      9  C   UNL d   1      -0.911   2.327  -2.827  0.00  0.00     0.009 C 
ENDBRANCH   7   8
ENDBRANCH   1   7
TORSDOF 2
ENDMDL
