MODEL 1
REMARK minimizedAffinity -3.89726353
REMARK minimizedRMSD -1
REMARK  2 active torsions:
REMARK  status: ('A' for Active; 'I' for Inactive)
REMARK    1  A    between atoms: C1_2  and  C2_3 
REMARK    2  A    between atoms: C2_3  and  C3_4 
ROOT
ATOM      1  C3  UNL d   1      -0.155   0.131   0.211  0.00  0.00    -0.075 A 
ATOM      2  C4  UNL d   1      -1.097  -0.309   1.152  0.00  0.00     0.002 A 
ATOM      3  C5  UNL d   1      -0.689  -0.735   2.416  0.00  0.00     0.002 A 
ATOM      4  C6  UNL d   1       0.663  -0.735   2.752  0.00  0.00    -0.004 A 
ATOM      5  C7  UNL d   1       1.609  -0.315   1.819  0.00  0.00     0.002 A 
ATOM      6  C8  UNL d   1       1.204   0.116   0.555  0.00  0.00     0.002 A 
ENDROOT
BRANCH   1   7
ATOM      7  C2  UNL d   1      -0.592   0.621  -1.149  0.00  0.00     0.056 C 
BRANCH   7   8
ATOM      8  C1  UNL d   1      -0.071   2.017  -1.507  0.00  0.00     0.007 C 
ATOM      9  C   UNL d   1      -1.069   2.843  -2.308  0.00  0.00     0.009 C 
ENDBRANCH   7   8
ENDBRANCH   1   7
TORSDOF 2
ENDMDL
