MODEL 1
REMARK minimizedAffinity -5.87816906
REMARK minimizedRMSD -1
REMARK  2 active torsions:
REMARK  status: ('A' for Active; 'I' for Inactive)
REMARK    1  A    between atoms: C1_2  and  C2_3 
REMARK    2  A    between atoms: C2_3  and  C3_4 
ROOT
ATOM      1  C3  UNL d   1       0.148  -0.693   0.179  0.00  0.00    -0.075 A 
ATOM      2  C4  UNL d   1      -0.142  -0.667   1.551  0.00  0.00     0.002 A 
ATOM      3  C5  UNL d   1       0.716  -1.275   2.468  0.00  0.00     0.002 A 
ATOM      4  C6  UNL d   1       1.867  -1.924   2.025  0.00  0.00    -0.004 A 
ATOM      5  C7  UNL d   1       2.156  -1.970   0.663  0.00  0.00     0.002 A 
ATOM      6  C8  UNL d   1       1.302  -1.358  -0.256  0.00  0.00     0.002 A 
ENDROOT
BRANCH   1   7
ATOM      7  C2  UNL d   1      -0.761  -0.011  -0.816  0.00  0.00     0.056 C 
BRANCH   7   8
ATOM      8  C1  UNL d   1      -0.786   1.516  -0.694  0.00  0.00     0.007 C 
ATOM      9  C   UNL d   1      -1.555   2.196  -1.819  0.00  0.00     0.009 C 
ENDBRANCH   7   8
ENDBRANCH   1   7
TORSDOF 2
ENDMDL
