MODEL 1
REMARK minimizedAffinity -5.11155033
REMARK minimizedRMSD -1
REMARK  2 active torsions:
REMARK  status: ('A' for Active; 'I' for Inactive)
REMARK    1  A    between atoms: C1_2  and  C2_3 
REMARK    2  A    between atoms: C2_3  and  C3_4 
ROOT
ATOM      1  C3  UNL d   1      -0.009   0.022  -0.216  0.00  0.00    -0.075 A 
ATOM      2  C4  UNL d   1      -0.945  -0.014   0.828  0.00  0.00     0.002 A 
ATOM      3  C5  UNL d   1      -0.558  -0.392   2.113  0.00  0.00     0.002 A 
ATOM      4  C6  UNL d   1       0.764  -0.749   2.369  0.00  0.00    -0.004 A 
ATOM      5  C7  UNL d   1       1.699  -0.734   1.336  0.00  0.00     0.002 A 
ATOM      6  C8  UNL d   1       1.315  -0.351   0.049  0.00  0.00     0.002 A 
ENDROOT
BRANCH   1   7
ATOM      7  C2  UNL d   1      -0.416   0.459  -1.603  0.00  0.00     0.056 C 
BRANCH   7   8
ATOM      8  C1  UNL d   1       0.188   1.799  -2.037  0.00  0.00     0.007 C 
ATOM      9  C   UNL d   1      -0.722   2.597  -2.961  0.00  0.00     0.009 C 
ENDBRANCH   7   8
ENDBRANCH   1   7
TORSDOF 2
ENDMDL
