MODEL 1
REMARK minimizedAffinity -4.71872377
REMARK minimizedRMSD -1
REMARK  2 active torsions:
REMARK  status: ('A' for Active; 'I' for Inactive)
REMARK    1  A    between atoms: C1_2  and  C2_3 
REMARK    2  A    between atoms: C2_3  and  C3_4 
ROOT
ATOM      1  C3  UNL d   1      -0.145   0.021   0.049  0.00  0.00    -0.075 A 
ATOM      2  C4  UNL d   1       1.197  -0.385   0.016  0.00  0.00     0.002 A 
ATOM      3  C5  UNL d   1       1.810  -0.900   1.158  0.00  0.00     0.002 A 
ATOM      4  C6  UNL d   1       1.094  -1.005   2.349  0.00  0.00    -0.004 A 
ATOM      5  C7  UNL d   1      -0.234  -0.588   2.398  0.00  0.00     0.002 A 
ATOM      6  C8  UNL d   1      -0.852  -0.077   1.255  0.00  0.00     0.002 A 
ENDROOT
BRANCH   1   7
ATOM      7  C2  UNL d   1      -0.823   0.551  -1.192  0.00  0.00     0.056 C 
BRANCH   7   8
ATOM      8  C1  UNL d   1      -0.007   1.606  -1.946  0.00  0.00     0.007 C 
ATOM      9  C   UNL d   1      -0.863   2.721  -2.531  0.00  0.00     0.009 C 
ENDBRANCH   7   8
ENDBRANCH   1   7
TORSDOF 2
ENDMDL
