MODEL 1
REMARK minimizedAffinity 26.252903
REMARK minimizedRMSD -1
REMARK  0 active torsions:
REMARK  status: ('A' for Active; 'I' for Inactive)
ROOT
ATOM      1  C   UNL d   1       1.741   0.290   3.323  0.00  0.00     0.124 A 
ATOM      2  C1  UNL d   1       1.507  -0.763   2.450  0.00  0.00     0.062 A 
ATOM      3  C2  UNL d   1       2.101  -0.774   1.192  0.00  0.00     0.162 A 
ATOM      4  C3  UNL d   1       2.936   0.272   0.798  0.00  0.00    -0.034 A 
ATOM      5  C4  UNL d   1       3.166   1.328   1.682  0.00  0.00     0.162 A 
ATOM      6  C5  UNL d   1       2.570   1.335   2.939  0.00  0.00     0.062 A 
ATOM      7  F   UNL d   1       2.798   2.353   3.781  0.00  0.00    -0.097 F 
ATOM      8  F1  UNL d   1       3.964   2.350   1.336  0.00  0.00    -0.096 F 
ATOM      9  I   UNL d   1       3.826   0.259  -1.083  0.00  0.00    -0.060 I 
ATOM     10  F2  UNL d   1       1.857  -1.804   0.368  0.00  0.00    -0.096 F 
ATOM     11  F3  UNL d   1       0.706  -1.772   2.819  0.00  0.00    -0.097 F 
ATOM     12  F4  UNL d   1       1.168   0.299   4.534  0.00  0.00    -0.092 F 
ENDROOT
TORSDOF 0
ENDMDL
