MODEL 1
REMARK minimizedAffinity 17.2295494
REMARK minimizedRMSD -1
REMARK  0 active torsions:
REMARK  status: ('A' for Active; 'I' for Inactive)
ROOT
ATOM      1  C   UNL d   1      -4.085   1.427  -4.516  0.00  0.00     0.124 A 
ATOM      2  C1  UNL d   1      -4.563   2.293  -3.542  0.00  0.00     0.062 A 
ATOM      3  C2  UNL d   1      -4.052   2.241  -2.248  0.00  0.00     0.162 A 
ATOM      4  C3  UNL d   1      -3.056   1.321  -1.921  0.00  0.00    -0.034 A 
ATOM      5  C4  UNL d   1      -2.581   0.453  -2.906  0.00  0.00     0.162 A 
ATOM      6  C5  UNL d   1      -3.095   0.509  -4.197  0.00  0.00     0.062 A 
ATOM      7  F   UNL d   1      -2.632  -0.328  -5.137  0.00  0.00    -0.097 F 
ATOM      8  F1  UNL d   1      -1.624  -0.444  -2.625  0.00  0.00    -0.096 F 
ATOM      9  I   UNL d   1      -2.290   1.241   0.012  0.00  0.00    -0.060 I 
ATOM     10  F2  UNL d   1      -4.533   3.089  -1.327  0.00  0.00    -0.096 F 
ATOM     11  F3  UNL d   1      -5.520   3.181  -3.847  0.00  0.00    -0.097 F 
ATOM     12  F4  UNL d   1      -4.579   1.478  -5.760  0.00  0.00    -0.092 F 
ENDROOT
TORSDOF 0
ENDMDL
