MODEL 1
REMARK minimizedAffinity 22.3396397
REMARK minimizedRMSD -1
REMARK  0 active torsions:
REMARK  status: ('A' for Active; 'I' for Inactive)
ROOT
ATOM      1  C   UNL d   1      -1.677   0.281  -0.950  0.00  0.00     0.124 A 
ATOM      2  C1  UNL d   1      -2.343   1.425  -0.533  0.00  0.00     0.062 A 
ATOM      3  C2  UNL d   1      -3.108   2.158  -1.435  0.00  0.00     0.162 A 
ATOM      4  C3  UNL d   1      -3.213   1.749  -2.764  0.00  0.00    -0.034 A 
ATOM      5  C4  UNL d   1      -2.540   0.598  -3.177  0.00  0.00     0.162 A 
ATOM      6  C5  UNL d   1      -1.776  -0.131  -2.272  0.00  0.00     0.062 A 
ATOM      7  F   UNL d   1      -1.134  -1.236  -2.677  0.00  0.00    -0.097 F 
ATOM      8  F1  UNL d   1      -2.619   0.176  -4.448  0.00  0.00    -0.096 F 
ATOM      9  I   UNL d   1      -4.356   2.843  -4.116  0.00  0.00    -0.060 I 
ATOM     10  F2  UNL d   1      -3.741   3.260  -1.004  0.00  0.00    -0.096 F 
ATOM     11  F3  UNL d   1      -2.248   1.826   0.743  0.00  0.00    -0.097 F 
ATOM     12  F4  UNL d   1      -0.941  -0.422  -0.081  0.00  0.00    -0.092 F 
ENDROOT
TORSDOF 0
ENDMDL
