MODEL 1
REMARK minimizedAffinity 11.7171421
REMARK minimizedRMSD -1
REMARK  0 active torsions:
REMARK  status: ('A' for Active; 'I' for Inactive)
ROOT
ATOM      1  C   UNL d   1       2.386  -0.297   2.249  0.00  0.00     0.124 A 
ATOM      2  C1  UNL d   1       2.432   1.026   1.832  0.00  0.00     0.062 A 
ATOM      3  C2  UNL d   1       1.289   1.644   1.335  0.00  0.00     0.162 A 
ATOM      4  C3  UNL d   1       0.087   0.940   1.253  0.00  0.00    -0.034 A 
ATOM      5  C4  UNL d   1       0.048  -0.391   1.674  0.00  0.00     0.162 A 
ATOM      6  C5  UNL d   1       1.194  -1.004   2.170  0.00  0.00     0.062 A 
ATOM      7  F   UNL d   1       1.147  -2.282   2.573  0.00  0.00    -0.097 F 
ATOM      8  F1  UNL d   1      -1.090  -1.097   1.609  0.00  0.00    -0.096 F 
ATOM      9  I   UNL d   1      -1.625   1.860   0.511  0.00  0.00    -0.060 I 
ATOM     10  F2  UNL d   1       1.363   2.924   0.939  0.00  0.00    -0.096 F 
ATOM     11  F3  UNL d   1       3.583   1.711   1.906  0.00  0.00    -0.097 F 
ATOM     12  F4  UNL d   1       3.488  -0.889   2.726  0.00  0.00    -0.092 F 
ENDROOT
TORSDOF 0
ENDMDL
