MODEL 1
REMARK minimizedAffinity 7.28809261
REMARK minimizedRMSD -1
REMARK  0 active torsions:
REMARK  status: ('A' for Active; 'I' for Inactive)
ROOT
ATOM      1  C   UNL d   1       0.729  -6.000   0.519  0.00  0.00     0.124 A 
ATOM      2  C1  UNL d   1       0.388  -6.000  -0.826  0.00  0.00     0.062 A 
ATOM      3  C2  UNL d   1       1.383  -5.999  -1.800  0.00  0.00     0.162 A 
ATOM      4  C3  UNL d   1       2.728  -6.000  -1.431  0.00  0.00    -0.034 A 
ATOM      5  C4  UNL d   1       3.063  -5.999  -0.076  0.00  0.00     0.162 A 
ATOM      6  C5  UNL d   1       2.065  -5.999   0.893  0.00  0.00     0.062 A 
ATOM      7  F   UNL d   1       2.396  -5.999   2.193  0.00  0.00    -0.097 F 
ATOM      8  F1  UNL d   1       4.347  -6.000   0.313  0.00  0.00    -0.096 F 
ATOM      9  I   UNL d   1       4.219  -5.999  -2.884  0.00  0.00    -0.060 I 
ATOM     10  F2  UNL d   1       1.025  -5.999  -3.092  0.00  0.00    -0.096 F 
ATOM     11  F3  UNL d   1      -0.902  -5.999  -1.190  0.00  0.00    -0.097 F 
ATOM     12  F4  UNL d   1      -0.230  -5.999   1.454  0.00  0.00    -0.092 F 
ENDROOT
TORSDOF 0
ENDMDL
