MODEL 1
REMARK minimizedAffinity 14.7709255
REMARK minimizedRMSD -1
REMARK  0 active torsions:
REMARK  status: ('A' for Active; 'I' for Inactive)
ROOT
ATOM      1  C   UNL d   1       1.583  -0.519   3.454  0.00  0.00     0.124 A 
ATOM      2  C1  UNL d   1       2.314   0.439   2.765  0.00  0.00     0.062 A 
ATOM      3  C2  UNL d   1       2.665   0.228   1.435  0.00  0.00     0.162 A 
ATOM      4  C3  UNL d   1       2.284  -0.945   0.784  0.00  0.00    -0.034 A 
ATOM      5  C4  UNL d   1       1.549  -1.904   1.484  0.00  0.00     0.162 A 
ATOM      6  C5  UNL d   1       1.201  -1.689   2.813  0.00  0.00     0.062 A 
ATOM      7  F   UNL d   1       0.495  -2.615   3.478  0.00  0.00    -0.097 F 
ATOM      8  F1  UNL d   1       1.166  -3.044   0.889  0.00  0.00    -0.096 F 
ATOM      9  I   UNL d   1       2.806  -1.264  -1.205  0.00  0.00    -0.060 I 
ATOM     10  F2  UNL d   1       3.372   1.170   0.793  0.00  0.00    -0.096 F 
ATOM     11  F3  UNL d   1       2.685   1.570   3.382  0.00  0.00    -0.097 F 
ATOM     12  F4  UNL d   1       1.248  -0.314   4.735  0.00  0.00    -0.092 F 
ENDROOT
TORSDOF 0
ENDMDL
