MODEL 1
REMARK minimizedAffinity 14.2770081
REMARK minimizedRMSD -1
REMARK  0 active torsions:
REMARK  status: ('A' for Active; 'I' for Inactive)
ROOT
ATOM      1  C   UNL d   1       2.418  -5.756  -2.312  0.00  0.00     0.124 A 
ATOM      2  C1  UNL d   1       1.967  -5.609  -3.616  0.00  0.00     0.062 A 
ATOM      3  C2  UNL d   1       2.874  -5.563  -4.670  0.00  0.00     0.162 A 
ATOM      4  C3  UNL d   1       4.244  -5.665  -4.425  0.00  0.00    -0.034 A 
ATOM      5  C4  UNL d   1       4.690  -5.812  -3.110  0.00  0.00     0.162 A 
ATOM      6  C5  UNL d   1       3.779  -5.858  -2.060  0.00  0.00     0.062 A 
ATOM      7  F   UNL d   1       4.217  -6.000  -0.801  0.00  0.00    -0.097 F 
ATOM      8  F1  UNL d   1       6.000  -5.913  -2.839  0.00  0.00    -0.096 F 
ATOM      9  I   UNL d   1       5.604  -5.596  -5.998  0.00  0.00    -0.060 I 
ATOM     10  F2  UNL d   1       2.410  -5.420  -5.920  0.00  0.00    -0.096 F 
ATOM     11  F3  UNL d   1       0.652  -5.510  -3.862  0.00  0.00    -0.097 F 
ATOM     12  F4  UNL d   1       1.543  -5.800  -1.300  0.00  0.00    -0.092 F 
ENDROOT
TORSDOF 0
ENDMDL
