MODEL 1
REMARK minimizedAffinity 12.2413988
REMARK minimizedRMSD -1
REMARK  0 active torsions:
REMARK  status: ('A' for Active; 'I' for Inactive)
ROOT
ATOM      1  C   UNL d   1       1.574  -1.483   3.981  0.00  0.00     0.124 A 
ATOM      2  C1  UNL d   1       1.830  -0.200   4.447  0.00  0.00     0.062 A 
ATOM      3  C2  UNL d   1       2.119   0.825   3.551  0.00  0.00     0.162 A 
ATOM      4  C3  UNL d   1       2.153   0.572   2.179  0.00  0.00    -0.034 A 
ATOM      5  C4  UNL d   1       1.895  -0.721   1.719  0.00  0.00     0.162 A 
ATOM      6  C5  UNL d   1       1.607  -1.742   2.618  0.00  0.00     0.062 A 
ATOM      7  F   UNL d   1       1.360  -2.980   2.167  0.00  0.00    -0.097 F 
ATOM      8  F1  UNL d   1       1.920  -0.999   0.407  0.00  0.00    -0.096 F 
ATOM      9  I   UNL d   1       2.585   2.102   0.836  0.00  0.00    -0.060 I 
ATOM     10  F2  UNL d   1       2.363   2.054   4.028  0.00  0.00    -0.096 F 
ATOM     11  F3  UNL d   1       1.800   0.052   5.763  0.00  0.00    -0.097 F 
ATOM     12  F4  UNL d   1       1.297  -2.467   4.846  0.00  0.00    -0.092 F 
ENDROOT
TORSDOF 0
ENDMDL
