MODEL 1
REMARK minimizedAffinity 12.7165022
REMARK minimizedRMSD -1
REMARK  0 active torsions:
REMARK  status: ('A' for Active; 'I' for Inactive)
ROOT
ATOM      1  C   UNL d   1       2.571   1.604   2.568  0.00  0.00     0.124 A 
ATOM      2  C1  UNL d   1       2.126   1.837   3.862  0.00  0.00     0.062 A 
ATOM      3  C2  UNL d   1       1.665   0.782   4.644  0.00  0.00     0.162 A 
ATOM      4  C3  UNL d   1       1.647  -0.516   4.135  0.00  0.00    -0.034 A 
ATOM      5  C4  UNL d   1       2.094  -0.742   2.832  0.00  0.00     0.162 A 
ATOM      6  C5  UNL d   1       2.554   0.315   2.054  0.00  0.00     0.062 A 
ATOM      7  F   UNL d   1       2.983   0.089   0.804  0.00  0.00    -0.097 F 
ATOM      8  F1  UNL d   1       2.090  -1.978   2.311  0.00  0.00    -0.096 F 
ATOM      9  I   UNL d   1       0.958  -2.097   5.301  0.00  0.00    -0.060 I 
ATOM     10  F2  UNL d   1       1.242   1.036   5.892  0.00  0.00    -0.096 F 
ATOM     11  F3  UNL d   1       2.140   3.082   4.361  0.00  0.00    -0.097 F 
ATOM     12  F4  UNL d   1       3.013   2.621   1.817  0.00  0.00    -0.092 F 
ENDROOT
TORSDOF 0
ENDMDL
