MODEL 1
REMARK minimizedAffinity 11.3411312
REMARK minimizedRMSD -1
REMARK  0 active torsions:
REMARK  status: ('A' for Active; 'I' for Inactive)
ROOT
ATOM      1  C   UNL d   1      -3.758  -0.167  -4.116  0.00  0.00     0.124 A 
ATOM      2  C1  UNL d   1      -3.532   0.898  -3.256  0.00  0.00     0.062 A 
ATOM      3  C2  UNL d   1      -2.793   0.714  -2.092  0.00  0.00     0.162 A 
ATOM      4  C3  UNL d   1      -2.272  -0.542  -1.780  0.00  0.00    -0.034 A 
ATOM      5  C4  UNL d   1      -2.503  -1.609  -2.650  0.00  0.00     0.162 A 
ATOM      6  C5  UNL d   1      -3.243  -1.420  -3.813  0.00  0.00     0.062 A 
ATOM      7  F   UNL d   1      -3.460  -2.451  -4.642  0.00  0.00    -0.097 F 
ATOM      8  F1  UNL d   1      -2.017  -2.830  -2.381  0.00  0.00    -0.096 F 
ATOM      9  I   UNL d   1      -1.165  -0.822  -0.040  0.00  0.00    -0.060 I 
ATOM     10  F2  UNL d   1      -2.591   1.762  -1.279  0.00  0.00    -0.096 F 
ATOM     11  F3  UNL d   1      -4.029   2.109  -3.547  0.00  0.00    -0.097 F 
ATOM     12  F4  UNL d   1      -4.471   0.013  -5.235  0.00  0.00    -0.092 F 
ENDROOT
TORSDOF 0
ENDMDL
