MODEL 1
REMARK minimizedAffinity 5.85332918
REMARK minimizedRMSD -1
REMARK  0 active torsions:
REMARK  status: ('A' for Active; 'I' for Inactive)
ROOT
ATOM      1  C   UNL d   1       1.863  -3.877   3.633  0.00  0.00     0.124 A 
ATOM      2  C1  UNL d   1       2.088  -3.491   2.319  0.00  0.00     0.062 A 
ATOM      3  C2  UNL d   1       2.040  -2.145   1.967  0.00  0.00     0.162 A 
ATOM      4  C3  UNL d   1       1.767  -1.175   2.931  0.00  0.00    -0.034 A 
ATOM      5  C4  UNL d   1       1.541  -1.571   4.250  0.00  0.00     0.162 A 
ATOM      6  C5  UNL d   1       1.591  -2.917   4.597  0.00  0.00     0.062 A 
ATOM      7  F   UNL d   1       1.373  -3.288   5.867  0.00  0.00    -0.097 F 
ATOM      8  F1  UNL d   1       1.277  -0.664   5.202  0.00  0.00    -0.096 F 
ATOM      9  I   UNL d   1       1.694   0.838   2.408  0.00  0.00    -0.060 I 
ATOM     10  F2  UNL d   1       2.261  -1.801   0.689  0.00  0.00    -0.096 F 
ATOM     11  F3  UNL d   1       2.351  -4.417   1.385  0.00  0.00    -0.097 F 
ATOM     12  F4  UNL d   1       1.909  -5.173   3.969  0.00  0.00    -0.092 F 
ENDROOT
TORSDOF 0
ENDMDL
