MODEL 1
REMARK minimizedAffinity 8.06325531
REMARK minimizedRMSD -1
REMARK  0 active torsions:
REMARK  status: ('A' for Active; 'I' for Inactive)
ROOT
ATOM      1  C   UNL d   1       2.251   3.384  -2.764  0.00  0.00    -0.002 A 
ATOM      2  C1  UNL d   1       1.504   4.128  -1.863  0.00  0.00     0.010 A 
ATOM      3  C2  UNL d   1       0.453   4.934  -2.305  0.00  0.00     0.041 A 
ATOM      4  C3  UNL d   1       0.162   4.978  -3.683  0.00  0.00    -0.075 A 
ATOM      5  S   UNL d   1      -1.078   5.894  -4.455  0.00  0.00     0.015 SA
ATOM      6  C4  UNL d   1      -0.646   5.317  -5.999  0.00  0.00     0.022 A 
ATOM      7  C5  UNL d   1       0.417   4.447  -5.946  0.00  0.00     0.026 A 
ATOM      8  C6  UNL d   1       0.900   4.237  -4.611  0.00  0.00    -0.082 A 
ATOM      9  C7  UNL d   1       1.960   3.430  -4.130  0.00  0.00     0.045 A 
ENDROOT
TORSDOF 0
ENDMDL
