MODEL 1
REMARK minimizedAffinity 10.9850321
REMARK minimizedRMSD -1
REMARK  0 active torsions:
REMARK  status: ('A' for Active; 'I' for Inactive)
ROOT
ATOM      1  C   UNL d   1      -5.571  -1.372   3.214  0.00  0.00    -0.002 A 
ATOM      2  C1  UNL d   1      -4.771  -1.170   2.098  0.00  0.00     0.010 A 
ATOM      3  C2  UNL d   1      -3.585  -0.441   2.197  0.00  0.00     0.041 A 
ATOM      4  C3  UNL d   1      -3.210   0.085   3.449  0.00  0.00    -0.075 A 
ATOM      5  S   UNL d   1      -1.800   1.009   3.809  0.00  0.00     0.015 SA
ATOM      6  C4  UNL d   1      -2.225   1.157   5.453  0.00  0.00     0.022 A 
ATOM      7  C5  UNL d   1      -3.411   0.523   5.737  0.00  0.00     0.026 A 
ATOM      8  C6  UNL d   1      -3.998  -0.106   4.587  0.00  0.00    -0.082 A 
ATOM      9  C7  UNL d   1      -5.196  -0.848   4.454  0.00  0.00     0.045 A 
ENDROOT
TORSDOF 0
ENDMDL
