MODEL 1
REMARK minimizedAffinity 8.33913994
REMARK minimizedRMSD -1
REMARK  0 active torsions:
REMARK  status: ('A' for Active; 'I' for Inactive)
ROOT
ATOM      1  C   UNL d   1      -0.655  -3.762  -0.238  0.00  0.00    -0.002 A 
ATOM      2  C1  UNL d   1      -1.863  -3.169   0.101  0.00  0.00     0.010 A 
ATOM      3  C2  UNL d   1      -1.939  -2.273   1.169  0.00  0.00     0.041 A 
ATOM      4  C3  UNL d   1      -0.769  -1.978   1.896  0.00  0.00    -0.075 A 
ATOM      5  S   UNL d   1      -0.623  -0.910   3.242  0.00  0.00     0.015 SA
ATOM      6  C4  UNL d   1       1.047  -1.214   3.397  0.00  0.00     0.022 A 
ATOM      7  C5  UNL d   1       1.498  -2.107   2.454  0.00  0.00     0.026 A 
ATOM      8  C6  UNL d   1       0.459  -2.561   1.573  0.00  0.00    -0.082 A 
ATOM      9  C7  UNL d   1       0.504  -3.467   0.485  0.00  0.00     0.045 A 
ENDROOT
TORSDOF 0
ENDMDL
