MODEL 1
REMARK minimizedAffinity 9.63506699
REMARK minimizedRMSD -1
REMARK  0 active torsions:
REMARK  status: ('A' for Active; 'I' for Inactive)
ROOT
ATOM      1  C   UNL d   1       6.000   2.253   3.457  0.00  0.00    -0.002 A 
ATOM      2  C1  UNL d   1       4.856   3.038   3.438  0.00  0.00     0.010 A 
ATOM      3  C2  UNL d   1       3.627   2.494   3.062  0.00  0.00     0.041 A 
ATOM      4  C3  UNL d   1       3.565   1.132   2.704  0.00  0.00    -0.075 A 
ATOM      5  S   UNL d   1       2.169   0.250   2.211  0.00  0.00     0.015 SA
ATOM      6  C4  UNL d   1       3.057  -1.191   2.015  0.00  0.00     0.022 A 
ATOM      7  C5  UNL d   1       4.388  -1.021   2.314  0.00  0.00     0.026 A 
ATOM      8  C6  UNL d   1       4.703   0.321   2.717  0.00  0.00    -0.082 A 
ATOM      9  C7  UNL d   1       5.935   0.903   3.101  0.00  0.00     0.045 A 
ENDROOT
TORSDOF 0
ENDMDL
