MODEL 1
REMARK minimizedAffinity 11.9252214
REMARK minimizedRMSD -1
REMARK  0 active torsions:
REMARK  status: ('A' for Active; 'I' for Inactive)
ROOT
ATOM      1  C   UNL d   1      -3.277  -3.342   0.522  0.00  0.00    -0.002 A 
ATOM      2  C1  UNL d   1      -3.070  -2.318   1.436  0.00  0.00     0.010 A 
ATOM      3  C2  UNL d   1      -1.776  -1.896   1.748  0.00  0.00     0.041 A 
ATOM      4  C3  UNL d   1      -0.683  -2.524   1.118  0.00  0.00    -0.075 A 
ATOM      5  S   UNL d   1       0.989  -2.172   1.343  0.00  0.00     0.015 SA
ATOM      6  C4  UNL d   1       1.468  -3.372   0.231  0.00  0.00     0.022 A 
ATOM      7  C5  UNL d   1       0.391  -4.034  -0.308  0.00  0.00     0.026 A 
ATOM      8  C6  UNL d   1      -0.867  -3.556   0.194  0.00  0.00    -0.082 A 
ATOM      9  C7  UNL d   1      -2.191  -3.963  -0.100  0.00  0.00     0.045 A 
ENDROOT
TORSDOF 0
ENDMDL
