MODEL 1
REMARK minimizedAffinity 17.9249973
REMARK minimizedRMSD -1
REMARK  0 active torsions:
REMARK  status: ('A' for Active; 'I' for Inactive)
ROOT
ATOM      1  C   UNL d   1       1.613   1.944  -2.292  0.00  0.00    -0.002 A 
ATOM      2  C1  UNL d   1       1.711   3.079  -3.084  0.00  0.00     0.010 A 
ATOM      3  C2  UNL d   1       1.907   4.335  -2.505  0.00  0.00     0.041 A 
ATOM      4  C3  UNL d   1       2.005   4.431  -1.103  0.00  0.00    -0.075 A 
ATOM      5  S   UNL d   1       2.245   5.862  -0.173  0.00  0.00     0.015 SA
ATOM      6  C4  UNL d   1       2.223   5.001   1.298  0.00  0.00     0.022 A 
ATOM      7  C5  UNL d   1       2.038   3.653   1.102  0.00  0.00     0.026 A 
ATOM      8  C6  UNL d   1       1.909   3.302  -0.284  0.00  0.00    -0.082 A 
ATOM      9  C7  UNL d   1       1.710   2.043  -0.901  0.00  0.00     0.045 A 
ENDROOT
TORSDOF 0
ENDMDL
