MODEL 1
REMARK minimizedAffinity 15.8864365
REMARK minimizedRMSD -1
REMARK  0 active torsions:
REMARK  status: ('A' for Active; 'I' for Inactive)
ROOT
ATOM      1  C   UNL d   1      -3.059   5.806  -5.269  0.00  0.00    -0.002 A 
ATOM      2  C1  UNL d   1      -3.012   5.253  -3.997  0.00  0.00     0.010 A 
ATOM      3  C2  UNL d   1      -1.791   4.882  -3.430  0.00  0.00     0.041 A 
ATOM      4  C3  UNL d   1      -0.608   5.078  -4.169  0.00  0.00    -0.075 A 
ATOM      5  S   UNL d   1       1.000   4.700  -3.676  0.00  0.00     0.015 SA
ATOM      6  C4  UNL d   1       1.662   5.263  -5.143  0.00  0.00     0.022 A 
ATOM      7  C5  UNL d   1       0.693   5.732  -5.999  0.00  0.00     0.026 A 
ATOM      8  C6  UNL d   1      -0.631   5.634  -5.452  0.00  0.00    -0.082 A 
ATOM      9  C7  UNL d   1      -1.884   5.999  -5.999  0.00  0.00     0.045 A 
ENDROOT
TORSDOF 0
ENDMDL
