MODEL 1
REMARK minimizedAffinity 16.2359123
REMARK minimizedRMSD -1
REMARK  0 active torsions:
REMARK  status: ('A' for Active; 'I' for Inactive)
ROOT
ATOM      1  C   UNL d   1       5.996   2.143   3.199  0.00  0.00    -0.002 A 
ATOM      2  C1  UNL d   1       4.825   2.880   3.101  0.00  0.00     0.010 A 
ATOM      3  C2  UNL d   1       3.634   2.272   2.699  0.00  0.00     0.041 A 
ATOM      4  C3  UNL d   1       3.640   0.896   2.397  0.00  0.00    -0.075 A 
ATOM      5  S   UNL d   1       2.301  -0.062   1.886  0.00  0.00     0.015 SA
ATOM      6  C4  UNL d   1       3.252  -1.473   1.787  0.00  0.00     0.022 A 
ATOM      7  C5  UNL d   1       4.561  -1.237   2.132  0.00  0.00     0.026 A 
ATOM      8  C6  UNL d   1       4.807   0.132   2.490  0.00  0.00    -0.082 A 
ATOM      9  C7  UNL d   1       5.998   0.778   2.899  0.00  0.00     0.045 A 
ENDROOT
TORSDOF 0
ENDMDL
