MODEL 1
REMARK minimizedAffinity 11.6977654
REMARK minimizedRMSD -1
REMARK  0 active torsions:
REMARK  status: ('A' for Active; 'I' for Inactive)
ROOT
ATOM      1  C   UNL d   1       5.002   3.424   2.752  0.00  0.00    -0.002 A 
ATOM      2  C1  UNL d   1       6.000   2.496   3.015  0.00  0.00     0.010 A 
ATOM      3  C2  UNL d   1       5.791   1.138   2.765  0.00  0.00     0.041 A 
ATOM      4  C3  UNL d   1       4.551   0.725   2.238  0.00  0.00    -0.075 A 
ATOM      5  S   UNL d   1       4.071  -0.885   1.851  0.00  0.00     0.015 SA
ATOM      6  C4  UNL d   1       2.531  -0.379   1.326  0.00  0.00     0.022 A 
ATOM      7  C5  UNL d   1       2.370   0.982   1.436  0.00  0.00     0.026 A 
ATOM      8  C6  UNL d   1       3.532   1.641   1.963  0.00  0.00    -0.082 A 
ATOM      9  C7  UNL d   1       3.774   3.010   2.229  0.00  0.00     0.045 A 
ENDROOT
TORSDOF 0
ENDMDL
