MODEL 1
REMARK minimizedAffinity 20.3574791
REMARK minimizedRMSD -1
REMARK  0 active torsions:
REMARK  status: ('A' for Active; 'I' for Inactive)
ROOT
ATOM      1  C   UNL d   1      -0.093  -3.996   1.177  0.00  0.00    -0.002 A 
ATOM      2  C1  UNL d   1      -1.002  -3.187   0.510  0.00  0.00     0.010 A 
ATOM      3  C2  UNL d   1      -1.467  -2.008   1.095  0.00  0.00     0.041 A 
ATOM      4  C3  UNL d   1      -0.997  -1.650   2.374  0.00  0.00    -0.075 A 
ATOM      5  S   UNL d   1      -1.426  -0.251   3.285  0.00  0.00     0.015 SA
ATOM      6  C4  UNL d   1      -0.412  -0.693   4.582  0.00  0.00     0.022 A 
ATOM      7  C5  UNL d   1       0.245  -1.877   4.342  0.00  0.00     0.026 A 
ATOM      8  C6  UNL d   1      -0.081  -2.447   3.065  0.00  0.00    -0.082 A 
ATOM      9  C7  UNL d   1       0.371  -3.638   2.446  0.00  0.00     0.045 A 
ENDROOT
TORSDOF 0
ENDMDL
