MODEL 1
REMARK minimizedAffinity 7.44538593
REMARK minimizedRMSD -1
REMARK  0 active torsions:
REMARK  status: ('A' for Active; 'I' for Inactive)
ROOT
ATOM      1  C   UNL d   1      -0.987   5.992  -5.935  0.00  0.00    -0.002 A 
ATOM      2  C1  UNL d   1      -0.341   5.992  -4.707  0.00  0.00     0.010 A 
ATOM      3  C2  UNL d   1      -1.074   5.995  -3.519  0.00  0.00     0.041 A 
ATOM      4  C3  UNL d   1      -2.482   5.996  -3.586  0.00  0.00    -0.075 A 
ATOM      5  S   UNL d   1      -3.586   5.999  -2.262  0.00  0.00     0.015 SA
ATOM      6  C4  UNL d   1      -4.941   5.999  -3.295  0.00  0.00     0.022 A 
ATOM      7  C5  UNL d   1      -4.578   5.997  -4.622  0.00  0.00     0.026 A 
ATOM      8  C6  UNL d   1      -3.155   5.995  -4.811  0.00  0.00    -0.082 A 
ATOM      9  C7  UNL d   1      -2.383   5.993  -5.998  0.00  0.00     0.045 A 
ENDROOT
TORSDOF 0
ENDMDL
