MODEL 1
REMARK minimizedAffinity 7.84049511
REMARK minimizedRMSD -1
REMARK  0 active torsions:
REMARK  status: ('A' for Active; 'I' for Inactive)
ROOT
ATOM      1  C   UNL d   1      -4.172   1.481   0.945  0.00  0.00    -0.002 A 
ATOM      2  C1  UNL d   1      -4.549   0.544  -0.007  0.00  0.00     0.010 A 
ATOM      3  C2  UNL d   1      -3.836  -0.649  -0.150  0.00  0.00     0.041 A 
ATOM      4  C3  UNL d   1      -2.729  -0.886   0.689  0.00  0.00    -0.075 A 
ATOM      5  S   UNL d   1      -1.709  -2.275   0.695  0.00  0.00     0.015 SA
ATOM      6  C4  UNL d   1      -0.750  -1.658   1.961  0.00  0.00     0.022 A 
ATOM      7  C5  UNL d   1      -1.183  -0.423   2.381  0.00  0.00     0.026 A 
ATOM      8  C6  UNL d   1      -2.332   0.042   1.655  0.00  0.00    -0.082 A 
ATOM      9  C7  UNL d   1      -3.074   1.242   1.775  0.00  0.00     0.045 A 
ENDROOT
TORSDOF 0
ENDMDL
