MODEL 1
REMARK minimizedAffinity 11.2538319
REMARK minimizedRMSD -1
REMARK  0 active torsions:
REMARK  status: ('A' for Active; 'I' for Inactive)
ROOT
ATOM      1  C   UNL d   1      -3.803   5.916  -5.209  0.00  0.00    -0.002 A 
ATOM      2  C1  UNL d   1      -3.728   5.731  -3.835  0.00  0.00     0.010 A 
ATOM      3  C2  UNL d   1      -2.508   5.437  -3.224  0.00  0.00     0.041 A 
ATOM      4  C3  UNL d   1      -1.352   5.334  -4.023  0.00  0.00    -0.075 A 
ATOM      5  S   UNL d   1       0.251   4.984  -3.493  0.00  0.00     0.015 SA
ATOM      6  C4  UNL d   1       0.874   5.073  -5.077  0.00  0.00     0.022 A 
ATOM      7  C5  UNL d   1      -0.103   5.362  -6.000  0.00  0.00     0.026 A 
ATOM      8  C6  UNL d   1      -1.402   5.517  -5.408  0.00  0.00    -0.082 A 
ATOM      9  C7  UNL d   1      -2.655   5.813  -5.998  0.00  0.00     0.045 A 
ENDROOT
TORSDOF 0
ENDMDL
