MODEL 1
REMARK minimizedAffinity 6.34065771
REMARK minimizedRMSD -1
REMARK  0 active torsions:
REMARK  status: ('A' for Active; 'I' for Inactive)
ROOT
ATOM      1  C   UNL d   1      -0.723  -5.367  -5.400  0.00  0.00    -0.002 A 
ATOM      2  C1  UNL d   1      -0.855  -4.306  -4.515  0.00  0.00     0.010 A 
ATOM      3  C2  UNL d   1      -2.120  -3.840  -4.150  0.00  0.00     0.041 A 
ATOM      4  C3  UNL d   1      -3.260  -4.465  -4.693  0.00  0.00    -0.075 A 
ATOM      5  S   UNL d   1      -4.909  -4.064  -4.389  0.00  0.00     0.015 SA
ATOM      6  C4  UNL d   1      -5.476  -5.292  -5.427  0.00  0.00     0.022 A 
ATOM      7  C5  UNL d   1      -4.446  -5.999  -6.000  0.00  0.00     0.026 A 
ATOM      8  C6  UNL d   1      -3.152  -5.535  -5.586  0.00  0.00    -0.082 A 
ATOM      9  C7  UNL d   1      -1.856  -5.984  -5.937  0.00  0.00     0.045 A 
ENDROOT
TORSDOF 0
ENDMDL
