MODEL 1
REMARK minimizedAffinity 7.66807318
REMARK minimizedRMSD -1
REMARK  0 active torsions:
REMARK  status: ('A' for Active; 'I' for Inactive)
ROOT
ATOM      1  C   UNL d   1      -4.141   1.467  -0.618  0.00  0.00    -0.002 A 
ATOM      2  C1  UNL d   1      -3.650   0.519  -1.504  0.00  0.00     0.010 A 
ATOM      3  C2  UNL d   1      -2.848  -0.530  -1.050  0.00  0.00     0.041 A 
ATOM      4  C3  UNL d   1      -2.546  -0.612   0.324  0.00  0.00    -0.075 A 
ATOM      5  S   UNL d   1      -1.584  -1.809   1.107  0.00  0.00     0.015 SA
ATOM      6  C4  UNL d   1      -1.804  -1.090   2.637  0.00  0.00     0.022 A 
ATOM      7  C5  UNL d   1      -2.588   0.037   2.570  0.00  0.00     0.026 A 
ATOM      8  C6  UNL d   1      -3.030   0.331   1.236  0.00  0.00    -0.082 A 
ATOM      9  C7  UNL d   1      -3.839   1.383   0.744  0.00  0.00     0.045 A 
ENDROOT
TORSDOF 0
ENDMDL
