MODEL 1
REMARK minimizedAffinity 6.9333849
REMARK minimizedRMSD -1
REMARK  0 active torsions:
REMARK  status: ('A' for Active; 'I' for Inactive)
ROOT
ATOM      1  C2' OXE d   1       2.673   4.759  -1.741  0.00  0.00     0.078 C 
ATOM      2  C1' OXE d   1       5.010   5.982  -0.780  0.00  0.00     0.078 C 
ATOM      3  C1  OXE d   1       4.935   5.669  -2.253  0.00  0.00    -0.078 A 
ATOM      4  C2  OXE d   1       3.807   5.029  -2.707  0.00  0.00    -0.078 A 
ATOM      5  C3  OXE d   1       3.662   4.766  -4.066  0.00  0.00     0.003 A 
ATOM      6  C4  OXE d   1       4.720   5.010  -4.951  0.00  0.00    -0.002 A 
ATOM      7  C5  OXE d   1       5.893   5.625  -4.503  0.00  0.00    -0.002 A 
ATOM      8  C6  OXE d   1       5.999   6.000  -3.168  0.00  0.00     0.003 A 
ENDROOT
TORSDOF 0
ENDMDL
