MODEL 1
REMARK minimizedAffinity 8.68417835
REMARK minimizedRMSD -1
REMARK  0 active torsions:
REMARK  status: ('A' for Active; 'I' for Inactive)
ROOT
ATOM      1  C2' OXE d   1       3.299   5.050  -1.541  0.00  0.00     0.078 C 
ATOM      2  C1' OXE d   1       5.940   6.000  -1.497  0.00  0.00     0.078 C 
ATOM      3  C1  OXE d   1       5.307   5.744  -2.842  0.00  0.00    -0.078 A 
ATOM      4  C2  OXE d   1       4.031   5.235  -2.853  0.00  0.00    -0.078 A 
ATOM      5  C3  OXE d   1       3.380   5.033  -4.067  0.00  0.00     0.003 A 
ATOM      6  C4  OXE d   1       4.067   5.197  -5.276  0.00  0.00    -0.002 A 
ATOM      7  C5  OXE d   1       5.381   5.677  -5.286  0.00  0.00    -0.002 A 
ATOM      8  C6  OXE d   1       6.000   5.995  -4.082  0.00  0.00     0.003 A 
ENDROOT
TORSDOF 0
ENDMDL
