MODEL 1
REMARK minimizedAffinity 3.30137563
REMARK minimizedRMSD -1
REMARK  0 active torsions:
REMARK  status: ('A' for Active; 'I' for Inactive)
ROOT
ATOM      1  C2' OXE d   1       5.930   4.928  -2.241  0.00  0.00     0.078 C 
ATOM      2  C1' OXE d   1       3.126   4.897  -2.364  0.00  0.00     0.078 C 
ATOM      3  C1  OXE d   1       3.881   5.249  -3.621  0.00  0.00    -0.078 A 
ATOM      4  C2  OXE d   1       5.252   5.307  -3.539  0.00  0.00    -0.078 A 
ATOM      5  C3  OXE d   1       6.000   5.573  -4.683  0.00  0.00     0.003 A 
ATOM      6  C4  OXE d   1       5.364   5.933  -5.877  0.00  0.00    -0.002 A 
ATOM      7  C5  OXE d   1       3.969   5.919  -5.972  0.00  0.00    -0.002 A 
ATOM      8  C6  OXE d   1       3.215   5.539  -4.867  0.00  0.00     0.003 A 
ENDROOT
TORSDOF 0
ENDMDL
