MODEL 1
REMARK minimizedAffinity 4.404212
REMARK minimizedRMSD -1
REMARK  0 active torsions:
REMARK  status: ('A' for Active; 'I' for Inactive)
ROOT
ATOM      1  C2' OXE d   1      -0.976  -4.499   0.766  0.00  0.00     0.078 C 
ATOM      2  C1' OXE d   1       1.026  -3.155  -0.673  0.00  0.00     0.078 C 
ATOM      3  C1  OXE d   1      -0.115  -2.336  -0.123  0.00  0.00    -0.078 A 
ATOM      4  C2  OXE d   1      -1.114  -3.009   0.539  0.00  0.00    -0.078 A 
ATOM      5  C3  OXE d   1      -2.162  -2.295   1.114  0.00  0.00     0.003 A 
ATOM      6  C4  OXE d   1      -2.288  -0.918   0.891  0.00  0.00    -0.002 A 
ATOM      7  C5  OXE d   1      -1.302  -0.220   0.185  0.00  0.00    -0.002 A 
ATOM      8  C6  OXE d   1      -0.191  -0.906  -0.291  0.00  0.00     0.003 A 
ENDROOT
TORSDOF 0
ENDMDL
