MODEL 1
REMARK minimizedAffinity 4.9591217
REMARK minimizedRMSD -1
REMARK  0 active torsions:
REMARK  status: ('A' for Active; 'I' for Inactive)
ROOT
ATOM      1  C2' OXE d   1      -4.489  -5.255  -2.296  0.00  0.00     0.078 C 
ATOM      2  C1' OXE d   1      -5.276  -2.560  -2.263  0.00  0.00     0.078 C 
ATOM      3  C1  OXE d   1      -5.306  -3.285  -3.585  0.00  0.00    -0.078 A 
ATOM      4  C2  OXE d   1      -4.874  -4.590  -3.600  0.00  0.00    -0.078 A 
ATOM      5  C3  OXE d   1      -4.933  -5.321  -4.783  0.00  0.00     0.003 A 
ATOM      6  C4  OXE d   1      -5.281  -4.696  -5.986  0.00  0.00    -0.002 A 
ATOM      7  C5  OXE d   1      -5.686  -3.357  -6.000  0.00  0.00    -0.002 A 
ATOM      8  C6  OXE d   1      -5.744  -2.651  -4.803  0.00  0.00     0.003 A 
ENDROOT
TORSDOF 0
ENDMDL
