MODEL 1
REMARK minimizedAffinity 4.71429014
REMARK minimizedRMSD -1
REMARK  0 active torsions:
REMARK  status: ('A' for Active; 'I' for Inactive)
ROOT
ATOM      1  C2' OXE d   1       0.338  -3.372   0.997  0.00  0.00     0.078 C 
ATOM      2  C1' OXE d   1       2.169  -1.261   0.733  0.00  0.00     0.078 C 
ATOM      3  C1  OXE d   1       0.699  -0.931   0.663  0.00  0.00    -0.078 A 
ATOM      4  C2  OXE d   1      -0.188  -1.976   0.746  0.00  0.00    -0.078 A 
ATOM      5  C3  OXE d   1      -1.557  -1.721   0.742  0.00  0.00     0.003 A 
ATOM      6  C4  OXE d   1      -2.036  -0.427   0.500  0.00  0.00    -0.002 A 
ATOM      7  C5  OXE d   1      -1.148   0.646   0.372  0.00  0.00    -0.002 A 
ATOM      8  C6  OXE d   1       0.219   0.418   0.493  0.00  0.00     0.003 A 
ENDROOT
TORSDOF 0
ENDMDL
