MODEL 1
REMARK minimizedAffinity 2.49518657
REMARK minimizedRMSD -1
REMARK  0 active torsions:
REMARK  status: ('A' for Active; 'I' for Inactive)
ROOT
ATOM      1  C2' OXE d   1       2.459  -0.397   1.896  0.00  0.00     0.078 C 
ATOM      2  C1' OXE d   1       0.081   0.893   1.146  0.00  0.00     0.078 C 
ATOM      3  C1  OXE d   1       1.375   1.413   0.571  0.00  0.00    -0.078 A 
ATOM      4  C2  OXE d   1       2.537   0.805   0.980  0.00  0.00    -0.078 A 
ATOM      5  C3  OXE d   1       3.754   1.210   0.438  0.00  0.00     0.003 A 
ATOM      6  C4  OXE d   1       3.819   2.329  -0.401  0.00  0.00    -0.002 A 
ATOM      7  C5  OXE d   1       2.651   2.987  -0.799  0.00  0.00    -0.002 A 
ATOM      8  C6  OXE d   1       1.419   2.516  -0.356  0.00  0.00     0.003 A 
ENDROOT
TORSDOF 0
ENDMDL
