MODEL 1
REMARK minimizedAffinity 9.3961916
REMARK minimizedRMSD -1
REMARK  0 active torsions:
REMARK  status: ('A' for Active; 'I' for Inactive)
ROOT
ATOM      1  C2' OXE d   1       2.669  -1.067   2.061  0.00  0.00     0.078 C 
ATOM      2  C1' OXE d   1       1.136   1.176   2.767  0.00  0.00     0.078 C 
ATOM      3  C1  OXE d   1       2.088   1.312   1.605  0.00  0.00    -0.078 A 
ATOM      4  C2  OXE d   1       2.868   0.224   1.297  0.00  0.00    -0.078 A 
ATOM      5  C3  OXE d   1       3.724   0.278   0.200  0.00  0.00     0.003 A 
ATOM      6  C4  OXE d   1       3.910   1.479  -0.495  0.00  0.00    -0.002 A 
ATOM      7  C5  OXE d   1       3.155   2.611  -0.172  0.00  0.00    -0.002 A 
ATOM      8  C6  OXE d   1       2.211   2.532   0.846  0.00  0.00     0.003 A 
ENDROOT
TORSDOF 0
ENDMDL
