MODEL 1
REMARK minimizedAffinity 3.8137536
REMARK minimizedRMSD -1
REMARK  0 active torsions:
REMARK  status: ('A' for Active; 'I' for Inactive)
ROOT
ATOM      1  C2' OXE d   1       1.326   0.482   4.808  0.00  0.00     0.078 C 
ATOM      2  C1' OXE d   1       1.725  -2.206   5.509  0.00  0.00     0.078 C 
ATOM      3  C1  OXE d   1       1.938  -1.816   4.068  0.00  0.00    -0.078 A 
ATOM      4  C2  OXE d   1       1.696  -0.508   3.724  0.00  0.00    -0.078 A 
ATOM      5  C3  OXE d   1       1.930  -0.082   2.420  0.00  0.00     0.003 A 
ATOM      6  C4  OXE d   1       2.263  -1.006   1.422  0.00  0.00    -0.002 A 
ATOM      7  C5  OXE d   1       2.476  -2.351   1.742  0.00  0.00    -0.002 A 
ATOM      8  C6  OXE d   1       2.360  -2.763   3.065  0.00  0.00     0.003 A 
ENDROOT
TORSDOF 0
ENDMDL
