MODEL 1
REMARK minimizedAffinity -0.807597637
REMARK minimizedRMSD -1
REMARK  0 active torsions:
REMARK  status: ('A' for Active; 'I' for Inactive)
ROOT
ATOM      1  C2' OXE d   1       2.258  -2.807   2.717  0.00  0.00     0.078 C 
ATOM      2  C1' OXE d   1       1.417  -2.491   5.376  0.00  0.00     0.078 C 
ATOM      3  C1  OXE d   1       1.453  -1.264   4.499  0.00  0.00    -0.078 A 
ATOM      4  C2  OXE d   1       1.911  -1.420   3.213  0.00  0.00    -0.078 A 
ATOM      5  C3  OXE d   1       1.912  -0.331   2.345  0.00  0.00     0.003 A 
ATOM      6  C4  OXE d   1       1.599   0.950   2.815  0.00  0.00    -0.002 A 
ATOM      7  C5  OXE d   1       1.168   1.137   4.133  0.00  0.00    -0.002 A 
ATOM      8  C6  OXE d   1       1.049   0.037   4.974  0.00  0.00     0.003 A 
ENDROOT
TORSDOF 0
ENDMDL
