MODEL 1
REMARK minimizedAffinity 3.91065121
REMARK minimizedRMSD -1
REMARK  0 active torsions:
REMARK  status: ('A' for Active; 'I' for Inactive)
ROOT
ATOM      1  C2' OXE d   1      -1.481   1.655   0.958  0.00  0.00     0.078 C 
ATOM      2  C1' OXE d   1       0.377  -0.286   1.769  0.00  0.00     0.078 C 
ATOM      3  C1  OXE d   1       0.910   0.989   1.167  0.00  0.00    -0.078 A 
ATOM      4  C2  OXE d   1      -0.007   1.914   0.730  0.00  0.00    -0.078 A 
ATOM      5  C3  OXE d   1       0.432   3.131   0.216  0.00  0.00     0.003 A 
ATOM      6  C4  OXE d   1       1.796   3.358  -0.002  0.00  0.00    -0.002 A 
ATOM      7  C5  OXE d   1       2.746   2.412   0.400  0.00  0.00    -0.002 A 
ATOM      8  C6  OXE d   1       2.323   1.243   1.023  0.00  0.00     0.003 A 
ENDROOT
TORSDOF 0
ENDMDL
