MODEL 1
REMARK minimizedAffinity -4.54962015
REMARK minimizedRMSD -1
REMARK  0 active torsions:
REMARK  status: ('A' for Active; 'I' for Inactive)
ROOT
ATOM      1  C2' OXE d   1      -5.998  -3.298  -5.449  0.00  0.00     0.078 C 
ATOM      2  C1' OXE d   1      -5.256  -6.000  -5.623  0.00  0.00     0.078 C 
ATOM      3  C1  OXE d   1      -5.101  -5.312  -4.290  0.00  0.00    -0.078 A 
ATOM      4  C2  OXE d   1      -5.422  -3.978  -4.225  0.00  0.00    -0.078 A 
ATOM      5  C3  OXE d   1      -5.350  -3.310  -3.007  0.00  0.00     0.003 A 
ATOM      6  C4  OXE d   1      -4.807  -3.943  -1.882  0.00  0.00    -0.002 A 
ATOM      7  C5  OXE d   1      -4.436  -5.291  -1.936  0.00  0.00    -0.002 A 
ATOM      8  C6  OXE d   1      -4.616  -6.000  -3.119  0.00  0.00     0.003 A 
ENDROOT
TORSDOF 0
ENDMDL
