MODEL 1
REMARK minimizedAffinity 6.53257847
REMARK minimizedRMSD -1
REMARK  0 active torsions:
REMARK  status: ('A' for Active; 'I' for Inactive)
ROOT
ATOM      1  N1  IND d   1       4.837  -1.535  -2.632  0.00  0.00    -0.196 N 
ATOM      2  C2  IND d   1       3.816  -0.900  -1.981  0.00  0.00     0.054 A 
ATOM      3  C3  IND d   1       3.384   0.158  -2.703  0.00  0.00    -0.031 A 
ATOM      4  C4  IND d   1       4.140   0.972  -5.025  0.00  0.00     0.051 A 
ATOM      5  C5  IND d   1       5.069   0.736  -6.000  0.00  0.00    -0.031 A 
ATOM      6  C6  IND d   1       5.984  -0.292  -5.901  0.00  0.00     0.015 A 
ATOM      7  C7  IND d   1       5.998  -1.132  -4.824  0.00  0.00    -0.016 A 
ATOM      8  C8  IND d   1       5.061  -0.891  -3.829  0.00  0.00    -0.047 A 
ATOM      9  C9  IND d   1       4.157   0.177  -3.904  0.00  0.00    -0.096 A 
ATOM     10  HN1 IND d   1       5.267  -2.221  -2.342  0.00  0.00     0.298 HD
ENDROOT
TORSDOF 0
ENDMDL
