MODEL 1
REMARK minimizedAffinity 12.7665148
REMARK minimizedRMSD -1
REMARK  0 active torsions:
REMARK  status: ('A' for Active; 'I' for Inactive)
ROOT
ATOM      1  N1  IND d   1       2.635  -5.147   3.318  0.00  0.00    -0.196 N 
ATOM      2  C2  IND d   1       2.472  -5.782   2.118  0.00  0.00     0.054 A 
ATOM      3  C3  IND d   1       1.784  -4.997   1.260  0.00  0.00    -0.031 A 
ATOM      4  C4  IND d   1       0.918  -2.593   1.578  0.00  0.00     0.051 A 
ATOM      5  C5  IND d   1       0.796  -1.608   2.517  0.00  0.00    -0.031 A 
ATOM      6  C6  IND d   1       1.293  -1.753   3.796  0.00  0.00     0.015 A 
ATOM      7  C7  IND d   1       1.944  -2.891   4.182  0.00  0.00    -0.016 A 
ATOM      8  C8  IND d   1       2.064  -3.896   3.233  0.00  0.00    -0.047 A 
ATOM      9  C9  IND d   1       1.524  -3.771   1.946  0.00  0.00    -0.096 A 
ATOM     10  HN1 IND d   1       3.029  -5.474   4.009  0.00  0.00     0.298 HD
ENDROOT
TORSDOF 0
ENDMDL
