MODEL 1
REMARK minimizedAffinity 9.82930756
REMARK minimizedRMSD -1
REMARK  0 active torsions:
REMARK  status: ('A' for Active; 'I' for Inactive)
ROOT
ATOM      1  N1  IND d   1      -3.855  -2.278  -4.587  0.00  0.00    -0.196 N 
ATOM      2  C2  IND d   1      -4.988  -1.546  -4.806  0.00  0.00     0.054 A 
ATOM      3  C3  IND d   1      -5.982  -2.342  -5.261  0.00  0.00    -0.031 A 
ATOM      4  C4  IND d   1      -5.999  -4.891  -5.624  0.00  0.00     0.051 A 
ATOM      5  C5  IND d   1      -5.185  -5.989  -5.594  0.00  0.00    -0.031 A 
ATOM      6  C6  IND d   1      -3.860  -5.904  -5.217  0.00  0.00     0.015 A 
ATOM      7  C7  IND d   1      -3.300  -4.716  -4.843  0.00  0.00    -0.016 A 
ATOM      8  C8  IND d   1      -4.122  -3.598  -4.878  0.00  0.00    -0.047 A 
ATOM      9  C9  IND d   1      -5.455  -3.670  -5.301  0.00  0.00    -0.096 A 
ATOM     10  HN1 IND d   1      -3.102  -1.967  -4.312  0.00  0.00     0.298 HD
ENDROOT
TORSDOF 0
ENDMDL
