MODEL 1
REMARK minimizedAffinity 15.0043945
REMARK minimizedRMSD -1
REMARK  0 active torsions:
REMARK  status: ('A' for Active; 'I' for Inactive)
ROOT
ATOM      1  N1  IND d   1      -1.670  -0.802   0.856  0.00  0.00    -0.196 N 
ATOM      2  C2  IND d   1      -2.289   0.401   0.654  0.00  0.00     0.054 A 
ATOM      3  C3  IND d   1      -1.414   1.415   0.833  0.00  0.00    -0.031 A 
ATOM      4  C4  IND d   1       1.105   1.330   1.359  0.00  0.00     0.051 A 
ATOM      5  C5  IND d   1       2.112   0.459   1.668  0.00  0.00    -0.031 A 
ATOM      6  C6  IND d   1       1.906  -0.905   1.720  0.00  0.00     0.015 A 
ATOM      7  C7  IND d   1       0.683  -1.451   1.453  0.00  0.00    -0.016 A 
ATOM      8  C8  IND d   1      -0.344  -0.569   1.146  0.00  0.00    -0.047 A 
ATOM      9  C9  IND d   1      -0.151   0.818   1.133  0.00  0.00    -0.096 A 
ATOM     10  HN1 IND d   1      -2.046  -1.574   0.809  0.00  0.00     0.298 HD
ENDROOT
TORSDOF 0
ENDMDL
