MODEL 1
REMARK minimizedAffinity 10.9299564
REMARK minimizedRMSD -1
REMARK  0 active torsions:
REMARK  status: ('A' for Active; 'I' for Inactive)
ROOT
ATOM      1  N1  IND d   1       3.044   0.050  -3.228  0.00  0.00    -0.196 N 
ATOM      2  C2  IND d   1       3.412  -1.128  -2.640  0.00  0.00     0.054 A 
ATOM      3  C3  IND d   1       4.522  -1.623  -3.234  0.00  0.00    -0.031 A 
ATOM      4  C4  IND d   1       5.956  -0.615  -5.119  0.00  0.00     0.051 A 
ATOM      5  C5  IND d   1       5.998   0.430  -5.999  0.00  0.00    -0.031 A 
ATOM      6  C6  IND d   1       5.040   1.423  -5.998  0.00  0.00     0.015 A 
ATOM      7  C7  IND d   1       4.006   1.414  -5.106  0.00  0.00    -0.016 A 
ATOM      8  C8  IND d   1       3.955   0.351  -4.216  0.00  0.00    -0.047 A 
ATOM      9  C9  IND d   1       4.901  -0.682  -4.239  0.00  0.00    -0.096 A 
ATOM     10  HN1 IND d   1       2.358   0.523  -3.016  0.00  0.00     0.298 HD
ENDROOT
TORSDOF 0
ENDMDL
