MODEL 1
REMARK minimizedAffinity 4.80339241
REMARK minimizedRMSD -1
REMARK  0 active torsions:
REMARK  status: ('A' for Active; 'I' for Inactive)
ROOT
ATOM      1  N1  IND d   1       5.261  -1.506  -2.286  0.00  0.00    -0.196 N 
ATOM      2  C2  IND d   1       4.329  -0.789  -1.589  0.00  0.00     0.054 A 
ATOM      3  C3  IND d   1       3.711   0.096  -2.403  0.00  0.00    -0.031 A 
ATOM      4  C4  IND d   1       4.002   0.470  -4.933  0.00  0.00     0.051 A 
ATOM      5  C5  IND d   1       4.763   0.079  -6.000  0.00  0.00    -0.031 A 
ATOM      6  C6  IND d   1       5.746  -0.882  -5.881  0.00  0.00     0.015 A 
ATOM      7  C7  IND d   1       5.999  -1.498  -4.688  0.00  0.00    -0.016 A 
ATOM      8  C8  IND d   1       5.234  -1.098  -3.601  0.00  0.00    -0.047 A 
ATOM      9  C9  IND d   1       4.263  -0.094  -3.707  0.00  0.00    -0.096 A 
ATOM     10  HN1 IND d   1       5.778  -2.109  -1.957  0.00  0.00     0.298 HD
ENDROOT
TORSDOF 0
ENDMDL
