MODEL 1
REMARK minimizedAffinity 1.69167876
REMARK minimizedRMSD -1
REMARK  0 active torsions:
REMARK  status: ('A' for Active; 'I' for Inactive)
ROOT
ATOM      1  N1  IND d   1       4.875  -2.864  -3.354  0.00  0.00    -0.196 N 
ATOM      2  C2  IND d   1       3.736  -2.642  -2.630  0.00  0.00     0.054 A 
ATOM      3  C3  IND d   1       3.135  -1.502  -3.038  0.00  0.00    -0.031 A 
ATOM      4  C4  IND d   1       3.789   0.102  -4.943  0.00  0.00     0.051 A 
ATOM      5  C5  IND d   1       4.771   0.337  -5.863  0.00  0.00    -0.031 A 
ATOM      6  C6  IND d   1       5.858  -0.502  -5.999  0.00  0.00     0.015 A 
ATOM      7  C7  IND d   1       5.999  -1.618  -5.224  0.00  0.00    -0.016 A 
ATOM      8  C8  IND d   1       5.007  -1.856  -4.283  0.00  0.00    -0.047 A 
ATOM      9  C9  IND d   1       3.923  -0.985  -4.111  0.00  0.00    -0.096 A 
ATOM     10  HN1 IND d   1       5.417  -3.523  -3.247  0.00  0.00     0.298 HD
ENDROOT
TORSDOF 0
ENDMDL
