MODEL 1
REMARK minimizedAffinity 1.37383139
REMARK minimizedRMSD -1
REMARK  0 active torsions:
REMARK  status: ('A' for Active; 'I' for Inactive)
ROOT
ATOM      1  N1  IND d   1       3.833  -2.897  -3.873  0.00  0.00    -0.196 N 
ATOM      2  C2  IND d   1       2.723  -2.610  -3.129  0.00  0.00     0.054 A 
ATOM      3  C3  IND d   1       2.354  -1.322  -3.311  0.00  0.00    -0.031 A 
ATOM      4  C4  IND d   1       3.368   0.466  -4.862  0.00  0.00     0.051 A 
ATOM      5  C5  IND d   1       4.416   0.686  -5.711  0.00  0.00    -0.031 A 
ATOM      6  C6  IND d   1       5.340  -0.298  -6.000  0.00  0.00     0.015 A 
ATOM      7  C7  IND d   1       5.244  -1.547  -5.455  0.00  0.00    -0.016 A 
ATOM      8  C8  IND d   1       4.185  -1.772  -4.587  0.00  0.00    -0.047 A 
ATOM      9  C9  IND d   1       3.269  -0.765  -4.257  0.00  0.00    -0.096 A 
ATOM     10  HN1 IND d   1       4.243  -3.652  -3.892  0.00  0.00     0.298 HD
ENDROOT
TORSDOF 0
ENDMDL
