MODEL 1
REMARK minimizedAffinity 5.59053278
REMARK minimizedRMSD -1
REMARK  0 active torsions:
REMARK  status: ('A' for Active; 'I' for Inactive)
ROOT
ATOM      1  N1  IND d   1      -5.974  -2.373  -5.600  0.00  0.00    -0.196 N 
ATOM      2  C2  IND d   1      -5.167  -1.549  -4.866  0.00  0.00     0.054 A 
ATOM      3  C3  IND d   1      -4.206  -2.266  -4.241  0.00  0.00    -0.031 A 
ATOM      4  C4  IND d   1      -3.710  -4.789  -4.361  0.00  0.00     0.051 A 
ATOM      5  C5  IND d   1      -4.196  -5.959  -4.873  0.00  0.00    -0.031 A 
ATOM      6  C6  IND d   1      -5.321  -5.994  -5.671  0.00  0.00     0.015 A 
ATOM      7  C7  IND d   1      -5.998  -4.854  -5.999  0.00  0.00    -0.016 A 
ATOM      8  C8  IND d   1      -5.511  -3.664  -5.475  0.00  0.00    -0.047 A 
ATOM      9  C9  IND d   1      -4.395  -3.627  -4.629  0.00  0.00    -0.096 A 
ATOM     10  HN1 IND d   1      -6.657  -2.126  -6.061  0.00  0.00     0.298 HD
ENDROOT
TORSDOF 0
ENDMDL
