MODEL 1
REMARK minimizedAffinity 13.1125612
REMARK minimizedRMSD -1
REMARK  0 active torsions:
REMARK  status: ('A' for Active; 'I' for Inactive)
ROOT
ATOM      1  N1  IND d   1       3.221  -2.121   1.985  0.00  0.00    -0.196 N 
ATOM      2  C2  IND d   1       1.875  -2.080   2.219  0.00  0.00     0.054 A 
ATOM      3  C3  IND d   1       1.558  -2.856   3.280  0.00  0.00    -0.031 A 
ATOM      4  C4  IND d   1       3.100  -4.202   4.840  0.00  0.00     0.051 A 
ATOM      5  C5  IND d   1       4.404  -4.577   5.006  0.00  0.00    -0.031 A 
ATOM      6  C6  IND d   1       5.401  -4.141   4.157  0.00  0.00     0.015 A 
ATOM      7  C7  IND d   1       5.131  -3.301   3.113  0.00  0.00    -0.016 A 
ATOM      8  C8  IND d   1       3.807  -2.924   2.938  0.00  0.00    -0.047 A 
ATOM      9  C9  IND d   1       2.785  -3.398   3.771  0.00  0.00    -0.096 A 
ATOM     10  HN1 IND d   1       3.632  -1.713   1.350  0.00  0.00     0.298 HD
ENDROOT
TORSDOF 0
ENDMDL
