MODEL 1
REMARK minimizedAffinity -2.56171465
REMARK minimizedRMSD -1
REMARK  0 active torsions:
REMARK  status: ('A' for Active; 'I' for Inactive)
ROOT
ATOM      1  N1  IND d   1       5.634  -2.747   2.766  0.00  0.00    -0.196 N 
ATOM      2  C2  IND d   1       5.676  -3.526   3.889  0.00  0.00     0.054 A 
ATOM      3  C3  IND d   1       4.439  -3.651   4.420  0.00  0.00    -0.031 A 
ATOM      4  C4  IND d   1       2.189  -2.746   3.557  0.00  0.00     0.051 A 
ATOM      5  C5  IND d   1       1.649  -1.948   2.588  0.00  0.00    -0.031 A 
ATOM      6  C6  IND d   1       2.425  -1.366   1.607  0.00  0.00     0.015 A 
ATOM      7  C7  IND d   1       3.775  -1.570   1.552  0.00  0.00    -0.016 A 
ATOM      8  C8  IND d   1       4.328  -2.375   2.539  0.00  0.00    -0.047 A 
ATOM      9  C9  IND d   1       3.551  -2.934   3.562  0.00  0.00    -0.096 A 
ATOM     10  HN1 IND d   1       6.311  -2.527   2.283  0.00  0.00     0.298 HD
ENDROOT
TORSDOF 0
ENDMDL
