MODEL 1
REMARK minimizedAffinity 19.1903248
REMARK minimizedRMSD -1
REMARK  0 active torsions:
REMARK  status: ('A' for Active; 'I' for Inactive)
ROOT
ATOM      1  N1  IND d   1      -4.875   2.296  -4.127  0.00  0.00    -0.196 N 
ATOM      2  C2  IND d   1      -5.995   3.001  -3.785  0.00  0.00     0.054 A 
ATOM      3  C3  IND d   1      -6.000   3.262  -2.458  0.00  0.00    -0.031 A 
ATOM      4  C4  IND d   1      -4.222   2.716  -0.678  0.00  0.00     0.051 A 
ATOM      5  C5  IND d   1      -3.041   2.051  -0.504  0.00  0.00    -0.031 A 
ATOM      6  C6  IND d   1      -2.396   1.423  -1.550  0.00  0.00     0.015 A 
ATOM      7  C7  IND d   1      -2.906   1.447  -2.818  0.00  0.00    -0.016 A 
ATOM      8  C8  IND d   1      -4.109   2.115  -2.997  0.00  0.00    -0.047 A 
ATOM      9  C9  IND d   1      -4.789   2.718  -1.931  0.00  0.00    -0.096 A 
ATOM     10  HN1 IND d   1      -4.682   2.012  -4.916  0.00  0.00     0.298 HD
ENDROOT
TORSDOF 0
ENDMDL
