MODEL 1
REMARK minimizedAffinity 5.12944794
REMARK minimizedRMSD -1
REMARK  0 active torsions:
REMARK  status: ('A' for Active; 'I' for Inactive)
ROOT
ATOM      1  N1  IND d   1      -5.557  -2.237  -5.602  0.00  0.00    -0.196 N 
ATOM      2  C2  IND d   1      -4.438  -1.529  -5.263  0.00  0.00     0.054 A 
ATOM      3  C3  IND d   1      -3.383  -2.362  -5.111  0.00  0.00    -0.031 A 
ATOM      4  C4  IND d   1      -3.244  -4.907  -5.468  0.00  0.00     0.051 A 
ATOM      5  C5  IND d   1      -4.017  -6.000  -5.747  0.00  0.00    -0.031 A 
ATOM      6  C6  IND d   1      -5.369  -5.892  -5.999  0.00  0.00     0.015 A 
ATOM      7  C7  IND d   1      -6.000  -4.680  -5.993  0.00  0.00    -0.016 A 
ATOM      8  C8  IND d   1      -5.220  -3.569  -5.704  0.00  0.00    -0.047 A 
ATOM      9  C9  IND d   1      -3.856  -3.678  -5.405  0.00  0.00    -0.096 A 
ATOM     10  HN1 IND d   1      -6.341  -1.906  -5.730  0.00  0.00     0.298 HD
ENDROOT
TORSDOF 0
ENDMDL
