MODEL 1
REMARK minimizedAffinity -1.3533299
REMARK minimizedRMSD -1
REMARK  0 active torsions:
REMARK  status: ('A' for Active; 'I' for Inactive)
ROOT
ATOM      1  C   UNL d   1       4.882  -3.477  -5.999  0.00  0.00     0.078 C 
ATOM      2  C1  UNL d   1       4.903  -3.334  -4.507  0.00  0.00    -0.077 A 
ATOM      3  C2  UNL d   1       5.997  -3.779  -3.755  0.00  0.00    -0.001 A 
ATOM      4  C3  UNL d   1       5.999  -3.648  -2.365  0.00  0.00     0.003 A 
ATOM      5  C4  UNL d   1       4.908  -3.073  -1.715  0.00  0.00    -0.005 A 
ATOM      6  C5  UNL d   1       3.814  -2.630  -2.455  0.00  0.00     0.003 A 
ATOM      7  C6  UNL d   1       3.810  -2.760  -3.845  0.00  0.00    -0.001 A 
ENDROOT
TORSDOF 0
ENDMDL
