MODEL 1
REMARK minimizedAffinity 6.40713882
REMARK minimizedRMSD -1
REMARK  0 active torsions:
REMARK  status: ('A' for Active; 'I' for Inactive)
ROOT
ATOM      1  C   UNL d   1      -1.535  -0.380   0.765  0.00  0.00     0.078 C 
ATOM      2  C1  UNL d   1      -2.609  -0.004   1.742  0.00  0.00    -0.077 A 
ATOM      3  C2  UNL d   1      -3.584   0.945   1.410  0.00  0.00    -0.001 A 
ATOM      4  C3  UNL d   1      -4.572   1.293   2.333  0.00  0.00     0.003 A 
ATOM      5  C4  UNL d   1      -4.594   0.699   3.593  0.00  0.00    -0.005 A 
ATOM      6  C5  UNL d   1      -3.627  -0.245   3.932  0.00  0.00     0.003 A 
ATOM      7  C6  UNL d   1      -2.638  -0.594   3.011  0.00  0.00    -0.001 A 
ENDROOT
TORSDOF 0
ENDMDL
