MODEL 1
REMARK minimizedAffinity 10.8616734
REMARK minimizedRMSD -1
REMARK  0 active torsions:
REMARK  status: ('A' for Active; 'I' for Inactive)
ROOT
ATOM      1  C   UNL d   1       1.618  -0.472  -2.263  0.00  0.00     0.078 C 
ATOM      2  C1  UNL d   1       0.442  -0.898  -1.434  0.00  0.00    -0.077 A 
ATOM      3  C2  UNL d   1      -0.482  -1.831  -1.919  0.00  0.00    -0.001 A 
ATOM      4  C3  UNL d   1      -1.577  -2.211  -1.141  0.00  0.00     0.003 A 
ATOM      5  C4  UNL d   1      -1.758  -1.661   0.126  0.00  0.00    -0.005 A 
ATOM      6  C5  UNL d   1      -0.845  -0.730   0.617  0.00  0.00     0.003 A 
ATOM      7  C6  UNL d   1       0.251  -0.349  -0.160  0.00  0.00    -0.001 A 
ENDROOT
TORSDOF 0
ENDMDL
