MODEL 1
REMARK minimizedAffinity 3.32331324
REMARK minimizedRMSD -1
REMARK  0 active torsions:
REMARK  status: ('A' for Active; 'I' for Inactive)
ROOT
ATOM      1  C   UNL d   1       5.989  -5.731  -0.743  0.00  0.00     0.078 C 
ATOM      2  C1  UNL d   1       5.980  -4.238  -0.882  0.00  0.00    -0.077 A 
ATOM      3  C2  UNL d   1       5.972  -3.409   0.247  0.00  0.00    -0.001 A 
ATOM      4  C3  UNL d   1       5.954  -2.021   0.103  0.00  0.00     0.003 A 
ATOM      5  C4  UNL d   1       5.944  -1.449  -1.168  0.00  0.00    -0.005 A 
ATOM      6  C5  UNL d   1       5.951  -2.266  -2.297  0.00  0.00     0.003 A 
ATOM      7  C6  UNL d   1       5.968  -3.654  -2.155  0.00  0.00    -0.001 A 
ENDROOT
TORSDOF 0
ENDMDL
