MODEL 1
REMARK minimizedAffinity 3.51666021
REMARK minimizedRMSD -1
REMARK  0 active torsions:
REMARK  status: ('A' for Active; 'I' for Inactive)
ROOT
ATOM      1  C   UNL d   1      -0.754  -0.893   0.322  0.00  0.00     0.078 C 
ATOM      2  C1  UNL d   1      -1.263  -1.753  -0.796  0.00  0.00    -0.077 A 
ATOM      3  C2  UNL d   1      -0.568  -1.846  -2.008  0.00  0.00    -0.001 A 
ATOM      4  C3  UNL d   1      -1.058  -2.642  -3.044  0.00  0.00     0.003 A 
ATOM      5  C4  UNL d   1      -2.247  -3.350  -2.879  0.00  0.00    -0.005 A 
ATOM      6  C5  UNL d   1      -2.947  -3.262  -1.678  0.00  0.00     0.003 A 
ATOM      7  C6  UNL d   1      -2.458  -2.466  -0.641  0.00  0.00    -0.001 A 
ENDROOT
TORSDOF 0
ENDMDL
