MODEL 1
REMARK minimizedAffinity 5.83286905
REMARK minimizedRMSD -1
REMARK  0 active torsions:
REMARK  status: ('A' for Active; 'I' for Inactive)
ROOT
ATOM      1  C   UNL d   1      -2.043  -2.794  -1.396  0.00  0.00     0.078 C 
ATOM      2  C1  UNL d   1      -1.088  -1.708  -1.000  0.00  0.00    -0.077 A 
ATOM      3  C2  UNL d   1      -1.554  -0.474  -0.528  0.00  0.00    -0.001 A 
ATOM      4  C3  UNL d   1      -0.653   0.531  -0.172  0.00  0.00     0.003 A 
ATOM      5  C4  UNL d   1       0.718   0.314  -0.285  0.00  0.00    -0.005 A 
ATOM      6  C5  UNL d   1       1.191  -0.910  -0.755  0.00  0.00     0.003 A 
ATOM      7  C6  UNL d   1       0.292  -1.916  -1.112  0.00  0.00    -0.001 A 
ENDROOT
TORSDOF 0
ENDMDL
