MODEL 1
REMARK minimizedAffinity 5.63000536
REMARK minimizedRMSD -1
REMARK  0 active torsions:
REMARK  status: ('A' for Active; 'I' for Inactive)
ROOT
ATOM      1  C   UNL d   1       4.848  -2.991  -0.323  0.00  0.00     0.078 C 
ATOM      2  C1  UNL d   1       4.838  -2.723  -1.798  0.00  0.00    -0.077 A 
ATOM      3  C2  UNL d   1       3.678  -2.276  -2.442  0.00  0.00    -0.001 A 
ATOM      4  C3  UNL d   1       3.680  -2.039  -3.817  0.00  0.00     0.003 A 
ATOM      5  C4  UNL d   1       4.840  -2.247  -4.561  0.00  0.00    -0.005 A 
ATOM      6  C5  UNL d   1       5.999  -2.694  -3.929  0.00  0.00     0.003 A 
ATOM      7  C6  UNL d   1       5.998  -2.931  -2.554  0.00  0.00    -0.001 A 
ENDROOT
TORSDOF 0
ENDMDL
