MODEL 1
REMARK minimizedAffinity 0.73124212
REMARK minimizedRMSD -1
REMARK  0 active torsions:
REMARK  status: ('A' for Active; 'I' for Inactive)
ROOT
ATOM      1  C   UNL d   1      -3.031  -1.868   5.050  0.00  0.00     0.078 C 
ATOM      2  C1  UNL d   1      -3.386  -0.749   4.117  0.00  0.00    -0.077 A 
ATOM      3  C2  UNL d   1      -4.356   0.199   4.463  0.00  0.00    -0.001 A 
ATOM      4  C3  UNL d   1      -4.683   1.229   3.581  0.00  0.00     0.003 A 
ATOM      5  C4  UNL d   1      -4.045   1.321   2.345  0.00  0.00    -0.005 A 
ATOM      6  C5  UNL d   1      -3.080   0.381   1.990  0.00  0.00     0.003 A 
ATOM      7  C6  UNL d   1      -2.751  -0.650   2.872  0.00  0.00    -0.001 A 
ENDROOT
TORSDOF 0
ENDMDL
