MODEL 1
REMARK minimizedAffinity 8.2235384
REMARK minimizedRMSD -1
REMARK  0 active torsions:
REMARK  status: ('A' for Active; 'I' for Inactive)
ROOT
ATOM      1  C   UNL d   1      -2.697  -1.839   4.896  0.00  0.00     0.078 C 
ATOM      2  C1  UNL d   1      -3.208  -0.778   3.968  0.00  0.00    -0.077 A 
ATOM      3  C2  UNL d   1      -4.082   0.217   4.422  0.00  0.00    -0.001 A 
ATOM      4  C3  UNL d   1      -4.558   1.193   3.544  0.00  0.00     0.003 A 
ATOM      5  C4  UNL d   1      -4.166   1.182   2.207  0.00  0.00    -0.005 A 
ATOM      6  C5  UNL d   1      -3.298   0.194   1.746  0.00  0.00     0.003 A 
ATOM      7  C6  UNL d   1      -2.821  -0.782   2.622  0.00  0.00    -0.001 A 
ENDROOT
TORSDOF 0
ENDMDL
