MODEL 1
REMARK minimizedAffinity 0.836630702
REMARK minimizedRMSD -1
REMARK  0 active torsions:
REMARK  status: ('A' for Active; 'I' for Inactive)
ROOT
ATOM      1  C   UNL d   1       1.208  -0.508  -1.903  0.00  0.00     0.078 C 
ATOM      2  C1  UNL d   1       0.025  -1.018  -1.136  0.00  0.00    -0.077 A 
ATOM      3  C2  UNL d   1      -0.778  -2.045  -1.647  0.00  0.00    -0.001 A 
ATOM      4  C3  UNL d   1      -1.883  -2.503  -0.927  0.00  0.00     0.003 A 
ATOM      5  C4  UNL d   1      -2.195  -1.939   0.308  0.00  0.00    -0.005 A 
ATOM      6  C5  UNL d   1      -1.403  -0.916   0.825  0.00  0.00     0.003 A 
ATOM      7  C6  UNL d   1      -0.298  -0.456   0.106  0.00  0.00    -0.001 A 
ENDROOT
TORSDOF 0
ENDMDL
