MODEL 1
REMARK minimizedAffinity 3.79215693
REMARK minimizedRMSD -1
REMARK  0 active torsions:
REMARK  status: ('A' for Active; 'I' for Inactive)
ROOT
ATOM      1  C   UNL d   1       1.944  -2.260  -1.513  0.00  0.00     0.078 C 
ATOM      2  C1  UNL d   1       3.359  -2.685  -1.769  0.00  0.00    -0.077 A 
ATOM      3  C2  UNL d   1       4.393  -2.306  -0.905  0.00  0.00    -0.001 A 
ATOM      4  C3  UNL d   1       5.707  -2.700  -1.161  0.00  0.00     0.003 A 
ATOM      5  C4  UNL d   1       6.000  -3.474  -2.282  0.00  0.00    -0.005 A 
ATOM      6  C5  UNL d   1       4.977  -3.854  -3.150  0.00  0.00     0.003 A 
ATOM      7  C6  UNL d   1       3.663  -3.461  -2.895  0.00  0.00    -0.001 A 
ENDROOT
TORSDOF 0
ENDMDL
