MODEL 1
REMARK minimizedAffinity 3.81848121
REMARK minimizedRMSD -1
REMARK  0 active torsions:
REMARK  status: ('A' for Active; 'I' for Inactive)
ROOT
ATOM      1  C   UNL d   1      -1.899  -3.584  -4.241  0.00  0.00     0.078 C 
ATOM      2  C1  UNL d   1      -1.955  -2.928  -2.893  0.00  0.00    -0.077 A 
ATOM      3  C2  UNL d   1      -0.929  -2.080  -2.460  0.00  0.00    -0.001 A 
ATOM      4  C3  UNL d   1      -0.990  -1.484  -1.199  0.00  0.00     0.003 A 
ATOM      5  C4  UNL d   1      -2.075  -1.732  -0.360  0.00  0.00    -0.005 A 
ATOM      6  C5  UNL d   1      -3.100  -2.576  -0.782  0.00  0.00     0.003 A 
ATOM      7  C6  UNL d   1      -3.040  -3.172  -2.042  0.00  0.00    -0.001 A 
ENDROOT
TORSDOF 0
ENDMDL
