MODEL 1
REMARK minimizedAffinity 6.77685785
REMARK minimizedRMSD -1
REMARK  0 active torsions:
REMARK  status: ('A' for Active; 'I' for Inactive)
ROOT
ATOM      1  C   UNL d   1       5.999  -3.188  -1.554  0.00  0.00     0.078 C 
ATOM      2  C1  UNL d   1       5.282  -3.192  -2.871  0.00  0.00    -0.077 A 
ATOM      3  C2  UNL d   1       3.906  -2.942  -2.945  0.00  0.00    -0.001 A 
ATOM      4  C3  UNL d   1       3.251  -2.959  -4.177  0.00  0.00     0.003 A 
ATOM      5  C4  UNL d   1       3.963  -3.225  -5.345  0.00  0.00    -0.005 A 
ATOM      6  C5  UNL d   1       5.332  -3.477  -5.281  0.00  0.00     0.003 A 
ATOM      7  C6  UNL d   1       5.989  -3.461  -4.050  0.00  0.00    -0.001 A 
ENDROOT
TORSDOF 0
ENDMDL
