MODEL 1
REMARK minimizedAffinity 7.64838076
REMARK minimizedRMSD -1
REMARK  0 active torsions:
REMARK  status: ('A' for Active; 'I' for Inactive)
ROOT
ATOM      1  C   UNL d   1       0.880  -0.664  -2.584  0.00  0.00     0.078 C 
ATOM      2  C1  UNL d   1      -0.117  -0.717  -1.465  0.00  0.00    -0.077 A 
ATOM      3  C2  UNL d   1      -0.438   0.430  -0.729  0.00  0.00    -0.001 A 
ATOM      4  C3  UNL d   1      -1.361   0.363   0.315  0.00  0.00     0.003 A 
ATOM      5  C4  UNL d   1      -1.970  -0.849   0.634  0.00  0.00    -0.005 A 
ATOM      6  C5  UNL d   1      -1.656  -1.996  -0.091  0.00  0.00     0.003 A 
ATOM      7  C6  UNL d   1      -0.733  -1.931  -1.136  0.00  0.00    -0.001 A 
ENDROOT
TORSDOF 0
ENDMDL
