MODEL 1
REMARK minimizedAffinity 2.33471227
REMARK minimizedRMSD -1
REMARK  0 active torsions:
REMARK  status: ('A' for Active; 'I' for Inactive)
ROOT
ATOM      1  C   UNL d   1      -1.576  -3.168  -1.059  0.00  0.00     0.078 C 
ATOM      2  C1  UNL d   1      -0.900  -1.831  -1.120  0.00  0.00    -0.077 A 
ATOM      3  C2  UNL d   1      -1.275  -0.794  -0.257  0.00  0.00    -0.001 A 
ATOM      4  C3  UNL d   1      -0.644   0.449  -0.331  0.00  0.00     0.003 A 
ATOM      5  C4  UNL d   1       0.364   0.667  -1.267  0.00  0.00    -0.005 A 
ATOM      6  C5  UNL d   1       0.742  -0.358  -2.132  0.00  0.00     0.003 A 
ATOM      7  C6  UNL d   1       0.113  -1.602  -2.059  0.00  0.00    -0.001 A 
ENDROOT
TORSDOF 0
ENDMDL
