MODEL 1
REMARK minimizedAffinity -0.291753918
REMARK minimizedRMSD -1
REMARK  0 active torsions:
REMARK  status: ('A' for Active; 'I' for Inactive)
ROOT
ATOM      1  C   UNL d   1      -2.783  -0.096   2.062  0.00  0.00     0.078 C 
ATOM      2  C1  UNL d   1      -1.790  -0.513   1.018  0.00  0.00    -0.077 A 
ATOM      3  C2  UNL d   1      -2.050  -1.595   0.168  0.00  0.00    -0.001 A 
ATOM      4  C3  UNL d   1      -1.113  -1.979  -0.793  0.00  0.00     0.003 A 
ATOM      5  C4  UNL d   1       0.091  -1.287  -0.911  0.00  0.00    -0.005 A 
ATOM      6  C5  UNL d   1       0.360  -0.211  -0.067  0.00  0.00     0.003 A 
ATOM      7  C6  UNL d   1      -0.576   0.174   0.894  0.00  0.00    -0.001 A 
ENDROOT
TORSDOF 0
ENDMDL
