MODEL 1
REMARK minimizedAffinity -4.65717077
REMARK minimizedRMSD -1
REMARK  0 active torsions:
REMARK  status: ('A' for Active; 'I' for Inactive)
ROOT
ATOM      1  C4' PXY d   1      -2.643   0.296  -0.589  0.00  0.00     0.077 C 
ATOM      2  C1' PXY d   1       2.099  -1.445  -3.400  0.00  0.00     0.077 C 
ATOM      3  C1  PXY d   1       0.848  -0.994  -2.672  0.00  0.00    -0.082 A 
ATOM      4  C2  PXY d   1       0.900   0.058  -1.871  0.00  0.00     0.003 A 
ATOM      5  C3  PXY d   1      -0.214   0.460  -1.180  0.00  0.00     0.003 A 
ATOM      6  C4  PXY d   1      -1.407  -0.189  -1.352  0.00  0.00    -0.082 A 
ATOM      7  C5  PXY d   1      -1.471  -1.257  -2.175  0.00  0.00     0.003 A 
ATOM      8  C6  PXY d   1      -0.319  -1.674  -2.836  0.00  0.00     0.003 A 
ENDROOT
TORSDOF 0
ENDMDL
