MODEL 1
REMARK minimizedAffinity -2.4707818
REMARK minimizedRMSD -1
REMARK  0 active torsions:
REMARK  status: ('A' for Active; 'I' for Inactive)
ROOT
ATOM      1  C4' PXY d   1      -2.094   0.519  -0.287  0.00  0.00     0.077 C 
ATOM      2  C1' PXY d   1       1.939  -1.983  -3.587  0.00  0.00     0.077 C 
ATOM      3  C1  PXY d   1       0.891  -1.321  -2.714  0.00  0.00    -0.082 A 
ATOM      4  C2  PXY d   1      -0.317  -1.853  -2.626  0.00  0.00     0.003 A 
ATOM      5  C3  PXY d   1      -1.287  -1.250  -1.866  0.00  0.00     0.003 A 
ATOM      6  C4  PXY d   1      -1.001  -0.120  -1.148  0.00  0.00    -0.082 A 
ATOM      7  C5  PXY d   1       0.232   0.423  -1.225  0.00  0.00     0.003 A 
ATOM      8  C6  PXY d   1       1.190  -0.181  -2.034  0.00  0.00     0.003 A 
ENDROOT
TORSDOF 0
ENDMDL
