MODEL 1
REMARK minimizedAffinity 1.1219672
REMARK minimizedRMSD -1
REMARK  0 active torsions:
REMARK  status: ('A' for Active; 'I' for Inactive)
ROOT
ATOM      1  C4' PXY d   1       2.193   0.740   0.954  0.00  0.00     0.077 C 
ATOM      2  C1' PXY d   1      -3.054   0.094  -1.384  0.00  0.00     0.077 C 
ATOM      3  C1  PXY d   1      -1.673   0.257  -0.781  0.00  0.00    -0.082 A 
ATOM      4  C2  PXY d   1      -1.548   0.469   0.519  0.00  0.00     0.003 A 
ATOM      5  C3  PXY d   1      -0.308   0.650   1.076  0.00  0.00     0.003 A 
ATOM      6  C4  PXY d   1       0.818   0.560   0.303  0.00  0.00    -0.082 A 
ATOM      7  C5  PXY d   1       0.700   0.334  -1.022  0.00  0.00     0.003 A 
ATOM      8  C6  PXY d   1      -0.570   0.194  -1.575  0.00  0.00     0.003 A 
ENDROOT
TORSDOF 0
ENDMDL
