MODEL 1
REMARK minimizedAffinity -4.29320812
REMARK minimizedRMSD -1
REMARK  0 active torsions:
REMARK  status: ('A' for Active; 'I' for Inactive)
ROOT
ATOM      1  C4' PXY d   1       2.434   0.608   1.640  0.00  0.00     0.077 C 
ATOM      2  C1' PXY d   1      -2.945  -1.033   0.303  0.00  0.00     0.077 C 
ATOM      3  C1  PXY d   1      -1.538  -0.602   0.667  0.00  0.00    -0.082 A 
ATOM      4  C2  PXY d   1      -0.772  -0.030  -0.248  0.00  0.00     0.003 A 
ATOM      5  C3  PXY d   1       0.514   0.337   0.054  0.00  0.00     0.003 A 
ATOM      6  C4  PXY d   1       1.004   0.165   1.321  0.00  0.00    -0.082 A 
ATOM      7  C5  PXY d   1       0.225  -0.408   2.263  0.00  0.00     0.003 A 
ATOM      8  C6  PXY d   1      -1.063  -0.811   1.925  0.00  0.00     0.003 A 
ENDROOT
TORSDOF 0
ENDMDL
