MODEL 1
REMARK minimizedAffinity -4.78806782
REMARK minimizedRMSD -1
REMARK  0 active torsions:
REMARK  status: ('A' for Active; 'I' for Inactive)
ROOT
ATOM      1  C4' PXY d   1       1.544  -0.022  -3.337  0.00  0.00     0.077 C 
ATOM      2  C1' PXY d   1      -2.471  -0.416   0.803  0.00  0.00     0.077 C 
ATOM      3  C1  PXY d   1      -1.412  -0.304  -0.276  0.00  0.00    -0.082 A 
ATOM      4  C2  PXY d   1      -1.706  -0.645  -1.520  0.00  0.00     0.003 A 
ATOM      5  C3  PXY d   1      -0.751  -0.580  -2.502  0.00  0.00     0.003 A 
ATOM      6  C4  PXY d   1       0.503  -0.110  -2.218  0.00  0.00    -0.082 A 
ATOM      7  C5  PXY d   1       0.808   0.250  -0.953  0.00  0.00     0.003 A 
ATOM      8  C6  PXY d   1      -0.163   0.137   0.037  0.00  0.00     0.003 A 
ENDROOT
TORSDOF 0
ENDMDL
