MODEL 1
REMARK minimizedAffinity -5.70607376
REMARK minimizedRMSD -1
REMARK  0 active torsions:
REMARK  status: ('A' for Active; 'I' for Inactive)
ROOT
ATOM      1  C4' PXY d   1      -2.720   0.656  -1.496  0.00  0.00     0.077 C 
ATOM      2  C1' PXY d   1      -0.591  -0.774   3.684  0.00  0.00     0.077 C 
ATOM      3  C1  PXY d   1      -1.161  -0.403   2.329  0.00  0.00    -0.082 A 
ATOM      4  C2  PXY d   1      -0.353  -0.293   1.288  0.00  0.00     0.003 A 
ATOM      5  C3  PXY d   1      -0.847   0.072   0.062  0.00  0.00     0.003 A 
ATOM      6  C4  PXY d   1      -2.190   0.275  -0.111  0.00  0.00    -0.082 A 
ATOM      7  C5  PXY d   1      -3.023   0.155   0.945  0.00  0.00     0.003 A 
ATOM      8  C6  PXY d   1      -2.496  -0.177   2.189  0.00  0.00     0.003 A 
ENDROOT
TORSDOF 0
ENDMDL
