MODEL 1
REMARK minimizedAffinity -6.06428576
REMARK minimizedRMSD -1
REMARK  0 active torsions:
REMARK  status: ('A' for Active; 'I' for Inactive)
ROOT
ATOM      1  C4' PXY d   1      -4.293   0.049   0.866  0.00  0.00     0.077 C 
ATOM      2  C1' PXY d   1       1.426   0.012   1.706  0.00  0.00     0.077 C 
ATOM      3  C1  PXY d   1      -0.071   0.025   1.474  0.00  0.00    -0.082 A 
ATOM      4  C2  PXY d   1      -0.891   0.190   2.499  0.00  0.00     0.003 A 
ATOM      5  C3  PXY d   1      -2.249   0.173   2.311  0.00  0.00     0.003 A 
ATOM      6  C4  PXY d   1      -2.773   0.038   1.053  0.00  0.00    -0.082 A 
ATOM      7  C5  PXY d   1      -1.943  -0.120   0.000  0.00  0.00     0.003 A 
ATOM      8  C6  PXY d   1      -0.568  -0.141   0.218  0.00  0.00     0.003 A 
ENDROOT
TORSDOF 0
ENDMDL
