MODEL 1
REMARK minimizedAffinity -3.57915235
REMARK minimizedRMSD -1
REMARK  0 active torsions:
REMARK  status: ('A' for Active; 'I' for Inactive)
ROOT
ATOM      1  C4' PXY d   1      -3.869  -0.445   1.914  0.00  0.00     0.077 C 
ATOM      2  C1' PXY d   1       1.703   0.650   0.834  0.00  0.00     0.077 C 
ATOM      3  C1  PXY d   1       0.245   0.356   1.128  0.00  0.00    -0.082 A 
ATOM      4  C2  PXY d   1      -0.639   0.382   0.143  0.00  0.00     0.003 A 
ATOM      5  C3  PXY d   1      -1.966   0.150   0.397  0.00  0.00     0.003 A 
ATOM      6  C4  PXY d   1      -2.385  -0.164   1.662  0.00  0.00    -0.082 A 
ATOM      7  C5  PXY d   1      -1.488  -0.203   2.669  0.00  0.00     0.003 A 
ATOM      8  C6  PXY d   1      -0.152   0.076   2.399  0.00  0.00     0.003 A 
ENDROOT
TORSDOF 0
ENDMDL
