MODEL 1
REMARK minimizedAffinity -6.39213991
REMARK minimizedRMSD -1
REMARK  0 active torsions:
REMARK  status: ('A' for Active; 'I' for Inactive)
ROOT
ATOM      1  C4' PXY d   1      -0.765  -0.334   3.677  0.00  0.00     0.077 C 
ATOM      2  C1' PXY d   1      -0.418   0.155  -2.073  0.00  0.00     0.077 C 
ATOM      3  C1  PXY d   1      -0.521   0.031  -0.565  0.00  0.00    -0.082 A 
ATOM      4  C2  PXY d   1       0.581   0.008   0.166  0.00  0.00     0.003 A 
ATOM      5  C3  PXY d   1       0.507  -0.135   1.528  0.00  0.00     0.003 A 
ATOM      6  C4  PXY d   1      -0.709  -0.202   2.152  0.00  0.00    -0.082 A 
ATOM      7  C5  PXY d   1      -1.839  -0.168   1.414  0.00  0.00     0.003 A 
ATOM      8  C6  PXY d   1      -1.741  -0.064   0.030  0.00  0.00     0.003 A 
ENDROOT
TORSDOF 0
ENDMDL
