MODEL 1
REMARK minimizedAffinity -6.43279219
REMARK minimizedRMSD -1
REMARK  0 active torsions:
REMARK  status: ('A' for Active; 'I' for Inactive)
ROOT
ATOM      1  C4' PXY d   1      -1.887   0.771  -1.872  0.00  0.00     0.077 C 
ATOM      2  C1' PXY d   1      -0.946  -0.855   3.595  0.00  0.00     0.077 C 
ATOM      3  C1  PXY d   1      -1.205  -0.433   2.162  0.00  0.00    -0.082 A 
ATOM      4  C2  PXY d   1      -0.198  -0.368   1.306  0.00  0.00     0.003 A 
ATOM      5  C3  PXY d   1      -0.410   0.043   0.016  0.00  0.00     0.003 A 
ATOM      6  C4  PXY d   1      -1.674   0.340  -0.419  0.00  0.00    -0.082 A 
ATOM      7  C5  PXY d   1      -2.708   0.267   0.445  0.00  0.00     0.003 A 
ATOM      8  C6  PXY d   1      -2.466  -0.113   1.762  0.00  0.00     0.003 A 
ENDROOT
TORSDOF 0
ENDMDL
