MODEL 1
REMARK minimizedAffinity -4.39804983
REMARK minimizedRMSD -1
REMARK  0 active torsions:
REMARK  status: ('A' for Active; 'I' for Inactive)
ROOT
ATOM      1  C4' PXY d   1       1.942  -1.384  -3.608  0.00  0.00     0.077 C 
ATOM      2  C1' PXY d   1      -2.588   0.399  -0.492  0.00  0.00     0.077 C 
ATOM      3  C1  PXY d   1      -1.406  -0.080  -1.311  0.00  0.00    -0.082 A 
ATOM      4  C2  PXY d   1      -0.215   0.467  -1.123  0.00  0.00     0.003 A 
ATOM      5  C3  PXY d   1       0.858   0.068  -1.878  0.00  0.00     0.003 A 
ATOM      6  C4  PXY d   1       0.723  -0.938  -2.797  0.00  0.00    -0.082 A 
ATOM      7  C5  PXY d   1      -0.486  -1.508  -2.987  0.00  0.00     0.003 A 
ATOM      8  C6  PXY d   1      -1.572  -1.060  -2.240  0.00  0.00     0.003 A 
ENDROOT
TORSDOF 0
ENDMDL
