MODEL 1
REMARK minimizedAffinity -5.85771179
REMARK minimizedRMSD -1
REMARK  0 active torsions:
REMARK  status: ('A' for Active; 'I' for Inactive)
ROOT
ATOM      1  C4' PXY d   1       1.027   0.115  -2.208  0.00  0.00     0.077 C 
ATOM      2  C1' PXY d   1      -1.624  -0.459   2.897  0.00  0.00     0.077 C 
ATOM      3  C1  PXY d   1      -0.919  -0.302   1.564  0.00  0.00    -0.082 A 
ATOM      4  C2  PXY d   1      -1.616  -0.380   0.442  0.00  0.00     0.003 A 
ATOM      5  C3  PXY d   1      -0.990  -0.272  -0.773  0.00  0.00     0.003 A 
ATOM      6  C4  PXY d   1       0.356  -0.028  -0.839  0.00  0.00    -0.082 A 
ATOM      7  C5  PXY d   1       1.073   0.063   0.301  0.00  0.00     0.003 A 
ATOM      8  C6  PXY d   1       0.425  -0.090   1.523  0.00  0.00     0.003 A 
ENDROOT
TORSDOF 0
ENDMDL
