MODEL 1
REMARK minimizedAffinity -5.93746328
REMARK minimizedRMSD -1
REMARK  0 active torsions:
REMARK  status: ('A' for Active; 'I' for Inactive)
ROOT
ATOM      1  C4' PXY d   1       1.556   0.044   0.734  0.00  0.00     0.077 C 
ATOM      2  C1' PXY d   1      -3.956  -0.271   2.447  0.00  0.00     0.077 C 
ATOM      3  C1  PXY d   1      -2.514  -0.192   1.986  0.00  0.00    -0.082 A 
ATOM      4  C2  PXY d   1      -1.537  -0.320   2.869  0.00  0.00     0.003 A 
ATOM      5  C3  PXY d   1      -0.227  -0.220   2.474  0.00  0.00     0.003 A 
ATOM      6  C4  PXY d   1       0.086  -0.038   1.153  0.00  0.00    -0.082 A 
ATOM      7  C5  PXY d   1      -0.905   0.083   0.245  0.00  0.00     0.003 A 
ATOM      8  C6  PXY d   1      -2.228   0.019   0.672  0.00  0.00     0.003 A 
ENDROOT
TORSDOF 0
ENDMDL
