MODEL 1
REMARK minimizedAffinity -2.39486527
REMARK minimizedRMSD -1
REMARK  0 active torsions:
REMARK  status: ('A' for Active; 'I' for Inactive)
ROOT
ATOM      1  C4' PXY d   1      -2.565  -0.222  -1.087  0.00  0.00     0.077 C 
ATOM      2  C1' PXY d   1       2.548  -0.942  -3.685  0.00  0.00     0.077 C 
ATOM      3  C1  PXY d   1       1.201  -0.758  -3.014  0.00  0.00    -0.082 A 
ATOM      4  C2  PXY d   1       1.069   0.134  -2.046  0.00  0.00     0.003 A 
ATOM      5  C3  PXY d   1      -0.134   0.291  -1.407  0.00  0.00     0.003 A 
ATOM      6  C4  PXY d   1      -1.226  -0.435  -1.799  0.00  0.00    -0.082 A 
ATOM      7  C5  PXY d   1      -1.102  -1.339  -2.794  0.00  0.00     0.003 A 
ATOM      8  C6  PXY d   1       0.138  -1.513  -3.402  0.00  0.00     0.003 A 
ENDROOT
TORSDOF 0
ENDMDL
