MODEL 1
REMARK minimizedAffinity -2.49077058
REMARK minimizedRMSD -1
REMARK  0 active torsions:
REMARK  status: ('A' for Active; 'I' for Inactive)
ROOT
ATOM      1  C4' PXY d   1       0.947  -0.227  -2.560  0.00  0.00     0.077 C 
ATOM      2  C1' PXY d   1      -0.416   0.575   3.000  0.00  0.00     0.077 C 
ATOM      3  C1  PXY d   1      -0.070   0.359   1.540  0.00  0.00    -0.082 A 
ATOM      4  C2  PXY d   1       1.199   0.295   1.171  0.00  0.00     0.003 A 
ATOM      5  C3  PXY d   1       1.529   0.132  -0.150  0.00  0.00     0.003 A 
ATOM      6  C4  PXY d   1       0.551  -0.020  -1.095  0.00  0.00    -0.082 A 
ATOM      7  C5  PXY d   1      -0.746   0.034  -0.725  0.00  0.00     0.003 A 
ATOM      8  C6  PXY d   1      -1.061   0.241   0.615  0.00  0.00     0.003 A 
ENDROOT
TORSDOF 0
ENDMDL
