MODEL 1
REMARK minimizedAffinity -5.05822277
REMARK minimizedRMSD -1
REMARK  0 active torsions:
REMARK  status: ('A' for Active; 'I' for Inactive)
ROOT
ATOM      1  C4' PXY d   1      -2.484   0.426  -0.216  0.00  0.00     0.077 C 
ATOM      2  C1' PXY d   1       1.741  -1.604  -3.598  0.00  0.00     0.077 C 
ATOM      3  C1  PXY d   1       0.642  -1.065  -2.705  0.00  0.00    -0.082 A 
ATOM      4  C2  PXY d   1      -0.485  -1.745  -2.571  0.00  0.00     0.003 A 
ATOM      5  C3  PXY d   1      -1.502  -1.256  -1.792  0.00  0.00     0.003 A 
ATOM      6  C4  PXY d   1      -1.343  -0.085  -1.101  0.00  0.00    -0.082 A 
ATOM      7  C5  PXY d   1      -0.193   0.609  -1.224  0.00  0.00     0.003 A 
ATOM      8  C6  PXY d   1       0.812   0.117  -2.052  0.00  0.00     0.003 A 
ENDROOT
TORSDOF 0
ENDMDL
