MODEL 1
REMARK minimizedAffinity -3.33130956
REMARK minimizedRMSD -1
REMARK  0 active torsions:
REMARK  status: ('A' for Active; 'I' for Inactive)
ROOT
ATOM      1  C4' PXY d   1       2.206  -1.159  -3.006  0.00  0.00     0.077 C 
ATOM      2  C1' PXY d   1      -2.618   0.542  -0.314  0.00  0.00     0.077 C 
ATOM      3  C1  PXY d   1      -1.358   0.084  -1.021  0.00  0.00    -0.082 A 
ATOM      4  C2  PXY d   1      -0.225   0.740  -0.829  0.00  0.00     0.003 A 
ATOM      5  C3  PXY d   1       0.917   0.359  -1.485  0.00  0.00     0.003 A 
ATOM      6  C4  PXY d   1       0.912  -0.738  -2.305  0.00  0.00    -0.082 A 
ATOM      7  C5  PXY d   1      -0.238  -1.419  -2.498  0.00  0.00     0.003 A 
ATOM      8  C6  PXY d   1      -1.395  -0.991  -1.854  0.00  0.00     0.003 A 
ENDROOT
TORSDOF 0
ENDMDL
