MODEL 1
REMARK minimizedAffinity -5.00035381
REMARK minimizedRMSD -1
REMARK  0 active torsions:
REMARK  status: ('A' for Active; 'I' for Inactive)
ROOT
ATOM      1  C4' PXY d   1       0.401   0.241   2.392  0.00  0.00     0.077 C 
ATOM      2  C1' PXY d   1      -0.064  -0.886  -3.258  0.00  0.00     0.077 C 
ATOM      3  C1  PXY d   1       0.068  -0.583  -1.779  0.00  0.00    -0.082 A 
ATOM      4  C2  PXY d   1      -0.446  -1.418  -0.891  0.00  0.00     0.003 A 
ATOM      5  C3  PXY d   1      -0.364  -1.143   0.449  0.00  0.00     0.003 A 
ATOM      6  C4  PXY d   1       0.299  -0.029   0.888  0.00  0.00    -0.082 A 
ATOM      7  C5  PXY d   1       0.837   0.823  -0.010  0.00  0.00     0.003 A 
ATOM      8  C6  PXY d   1       0.706   0.547  -1.368  0.00  0.00     0.003 A 
ENDROOT
TORSDOF 0
ENDMDL
