MODEL 1
REMARK minimizedAffinity -5.52285671
REMARK minimizedRMSD -1
REMARK  0 active torsions:
REMARK  status: ('A' for Active; 'I' for Inactive)
ROOT
ATOM      1  C4' PXY d   1       0.007  -0.030   2.662  0.00  0.00     0.077 C 
ATOM      2  C1' PXY d   1      -1.375  -1.686  -2.701  0.00  0.00     0.077 C 
ATOM      3  C1  PXY d   1      -1.025  -1.252  -1.291  0.00  0.00    -0.082 A 
ATOM      4  C2  PXY d   1       0.095  -0.583  -1.072  0.00  0.00     0.003 A 
ATOM      5  C3  PXY d   1       0.442  -0.210   0.201  0.00  0.00     0.003 A 
ATOM      6  C4  PXY d   1      -0.391  -0.480   1.254  0.00  0.00    -0.082 A 
ATOM      7  C5  PXY d   1      -1.540  -1.154   1.037  0.00  0.00     0.003 A 
ATOM      8  C6  PXY d   1      -1.855  -1.559  -0.257  0.00  0.00     0.003 A 
ENDROOT
TORSDOF 0
ENDMDL
