MODEL 1
REMARK minimizedAffinity -4.19894934
REMARK minimizedRMSD -1
REMARK  0 active torsions:
REMARK  status: ('A' for Active; 'I' for Inactive)
ROOT
ATOM      1  C4' PXY d   1       0.377  -0.965  -2.414  0.00  0.00     0.077 C 
ATOM      2  C1' PXY d   1      -0.103   0.219   3.224  0.00  0.00     0.077 C 
ATOM      3  C1  PXY d   1       0.010  -0.093   1.745  0.00  0.00    -0.082 A 
ATOM      4  C2  PXY d   1       1.136  -0.598   1.267  0.00  0.00     0.003 A 
ATOM      5  C3  PXY d   1       1.266  -0.856  -0.074  0.00  0.00     0.003 A 
ATOM      6  C4  PXY d   1       0.215  -0.644  -0.925  0.00  0.00    -0.082 A 
ATOM      7  C5  PXY d   1      -0.940  -0.139  -0.444  0.00  0.00     0.003 A 
ATOM      8  C6  PXY d   1      -1.038   0.154   0.914  0.00  0.00     0.003 A 
ENDROOT
TORSDOF 0
ENDMDL
