MODEL 1
REMARK minimizedAffinity 3.62874341
REMARK minimizedRMSD -1
REMARK  0 active torsions:
REMARK  status: ('A' for Active; 'I' for Inactive)
ROOT
ATOM      1  C1  BNZ d   1       5.831   0.518  -5.922  0.00  0.00     0.000 A 
ATOM      2  C2  BNZ d   1       4.577   1.062  -5.835  0.00  0.00     0.000 A 
ATOM      3  C3  BNZ d   1       3.468   0.262  -5.803  0.00  0.00     0.000 A 
ATOM      4  C4  BNZ d   1       3.613  -1.075  -5.897  0.00  0.00     0.000 A 
ATOM      5  C5  BNZ d   1       4.870  -1.638  -5.994  0.00  0.00     0.000 A 
ATOM      6  C6  BNZ d   1       5.985  -0.832  -5.987  0.00  0.00     0.000 A 
ENDROOT
TORSDOF 0
ENDMDL
