MODEL 1
REMARK minimizedAffinity 2.10727215
REMARK minimizedRMSD -1
REMARK  0 active torsions:
REMARK  status: ('A' for Active; 'I' for Inactive)
ROOT
ATOM      1  C1  BNZ d   1       4.089  -5.796   0.437  0.00  0.00     0.000 A 
ATOM      2  C2  BNZ d   1       3.630  -5.628   1.716  0.00  0.00     0.000 A 
ATOM      3  C3  BNZ d   1       2.291  -5.669   1.990  0.00  0.00     0.000 A 
ATOM      4  C4  BNZ d   1       1.413  -5.838   0.982  0.00  0.00     0.000 A 
ATOM      5  C5  BNZ d   1       1.859  -6.000  -0.315  0.00  0.00     0.000 A 
ATOM      6  C6  BNZ d   1       3.209  -5.997  -0.582  0.00  0.00     0.000 A 
ENDROOT
TORSDOF 0
ENDMDL
