MODEL 1
REMARK minimizedAffinity -0.836587667
REMARK minimizedRMSD -1
REMARK  0 active torsions:
REMARK  status: ('A' for Active; 'I' for Inactive)
ROOT
ATOM      1  C1  BNZ d   1       4.453  -5.981   1.225  0.00  0.00     0.000 A 
ATOM      2  C2  BNZ d   1       5.268  -5.978   0.124  0.00  0.00     0.000 A 
ATOM      3  C3  BNZ d   1       4.742  -5.961  -1.137  0.00  0.00     0.000 A 
ATOM      4  C4  BNZ d   1       3.403  -5.987  -1.297  0.00  0.00     0.000 A 
ATOM      5  C5  BNZ d   1       2.568  -5.999  -0.198  0.00  0.00     0.000 A 
ATOM      6  C6  BNZ d   1       3.101  -5.977   1.071  0.00  0.00     0.000 A 
ENDROOT
TORSDOF 0
ENDMDL
