MODEL 1
REMARK minimizedAffinity 1.34554207
REMARK minimizedRMSD -1
REMARK  0 active torsions:
REMARK  status: ('A' for Active; 'I' for Inactive)
ROOT
ATOM      1  C1  BNZ d   1       3.730  -6.000  -3.024  0.00  0.00     0.000 A 
ATOM      2  C2  BNZ d   1       3.468  -4.819  -3.667  0.00  0.00     0.000 A 
ATOM      3  C3  BNZ d   1       3.532  -3.629  -2.998  0.00  0.00     0.000 A 
ATOM      4  C4  BNZ d   1       3.818  -3.623  -1.681  0.00  0.00     0.000 A 
ATOM      5  C5  BNZ d   1       4.076  -4.806  -1.016  0.00  0.00     0.000 A 
ATOM      6  C6  BNZ d   1       4.049  -5.999  -1.701  0.00  0.00     0.000 A 
ENDROOT
TORSDOF 0
ENDMDL
