MODEL 1
REMARK minimizedAffinity 0.227496132
REMARK minimizedRMSD -1
REMARK  0 active torsions:
REMARK  status: ('A' for Active; 'I' for Inactive)
ROOT
ATOM      1  C1  BNZ d   1       4.943  -5.989  -2.763  0.00  0.00     0.000 A 
ATOM      2  C2  BNZ d   1       5.290  -5.999  -4.087  0.00  0.00     0.000 A 
ATOM      3  C3  BNZ d   1       4.333  -5.984  -5.062  0.00  0.00     0.000 A 
ATOM      4  C4  BNZ d   1       3.030  -6.000  -4.713  0.00  0.00     0.000 A 
ATOM      5  C5  BNZ d   1       2.664  -5.999  -3.382  0.00  0.00     0.000 A 
ATOM      6  C6  BNZ d   1       3.630  -5.974  -2.403  0.00  0.00     0.000 A 
ENDROOT
TORSDOF 0
ENDMDL
