MODEL 1
REMARK minimizedAffinity -1.03148031
REMARK minimizedRMSD -1
REMARK  0 active torsions:
REMARK  status: ('A' for Active; 'I' for Inactive)
ROOT
ATOM      1  C1  BNZ d   1       1.930  -1.297   3.585  0.00  0.00     0.000 A 
ATOM      2  C2  BNZ d   1       2.601  -1.927   4.600  0.00  0.00     0.000 A 
ATOM      3  C3  BNZ d   1       2.719  -3.289   4.621  0.00  0.00     0.000 A 
ATOM      4  C4  BNZ d   1       2.132  -4.020   3.652  0.00  0.00     0.000 A 
ATOM      5  C5  BNZ d   1       1.444  -3.400   2.628  0.00  0.00     0.000 A 
ATOM      6  C6  BNZ d   1       1.361  -2.027   2.588  0.00  0.00     0.000 A 
ENDROOT
TORSDOF 0
ENDMDL
