MODEL 1
REMARK minimizedAffinity 3.76502419
REMARK minimizedRMSD -1
REMARK  0 active torsions:
REMARK  status: ('A' for Active; 'I' for Inactive)
ROOT
ATOM      1  C   UNL d   1       1.804  -5.988  -5.568  0.00  0.00    -0.002 A 
ATOM      2  C1  UNL d   1       3.132  -5.983  -5.972  0.00  0.00     0.010 A 
ATOM      3  C2  UNL d   1       4.161  -5.981  -5.029  0.00  0.00     0.041 A 
ATOM      4  C3  UNL d   1       3.831  -5.987  -3.660  0.00  0.00    -0.075 A 
ATOM      5  S   UNL d   1       4.925  -5.987  -2.327  0.00  0.00     0.015 SA
ATOM      6  C4  UNL d   1       3.656  -5.995  -1.189  0.00  0.00     0.022 A 
ATOM      7  C5  UNL d   1       2.421  -5.997  -1.794  0.00  0.00     0.026 A 
ATOM      8  C6  UNL d   1       2.502  -5.993  -3.228  0.00  0.00    -0.082 A 
ATOM      9  C7  UNL d   1       1.481  -5.994  -4.208  0.00  0.00     0.045 A 
ENDROOT
TORSDOF 0
ENDMDL
