MODEL 1
REMARK minimizedAffinity 1.89287281
REMARK minimizedRMSD -1
REMARK  0 active torsions:
REMARK  status: ('A' for Active; 'I' for Inactive)
ROOT
ATOM      1  C   UNL d   1       4.323  -0.760  -1.553  0.00  0.00    -0.002 A 
ATOM      2  C1  UNL d   1       3.811   0.494  -1.853  0.00  0.00     0.010 A 
ATOM      3  C2  UNL d   1       4.022   1.066  -3.109  0.00  0.00     0.041 A 
ATOM      4  C3  UNL d   1       4.761   0.347  -4.069  0.00  0.00    -0.075 A 
ATOM      5  S   UNL d   1       5.144   0.848  -5.674  0.00  0.00     0.015 SA
ATOM      6  C4  UNL d   1       5.996  -0.592  -6.000  0.00  0.00     0.022 A 
ATOM      7  C5  UNL d   1       5.998  -1.445  -4.921  0.00  0.00     0.026 A 
ATOM      8  C6  UNL d   1       5.286  -0.918  -3.791  0.00  0.00    -0.082 A 
ATOM      9  C7  UNL d   1       5.056  -1.470  -2.508  0.00  0.00     0.045 A 
ENDROOT
TORSDOF 0
ENDMDL
