MODEL 1
REMARK minimizedAffinity 5.48161793
REMARK minimizedRMSD -1
REMARK  0 active torsions:
REMARK  status: ('A' for Active; 'I' for Inactive)
ROOT
ATOM      1  C   UNL d   1       2.208  -4.845   3.787  0.00  0.00    -0.002 A 
ATOM      2  C1  UNL d   1       1.412  -4.446   4.851  0.00  0.00     0.010 A 
ATOM      3  C2  UNL d   1       1.100  -3.098   5.038  0.00  0.00     0.041 A 
ATOM      4  C3  UNL d   1       1.606  -2.148   4.128  0.00  0.00    -0.075 A 
ATOM      5  S   UNL d   1       1.354  -0.443   4.158  0.00  0.00     0.015 SA
ATOM      6  C4  UNL d   1       2.297  -0.204   2.758  0.00  0.00     0.022 A 
ATOM      7  C5  UNL d   1       2.799  -1.386   2.267  0.00  0.00     0.026 A 
ATOM      8  C6  UNL d   1       2.409  -2.526   3.048  0.00  0.00    -0.082 A 
ATOM      9  C7  UNL d   1       2.708  -3.900   2.886  0.00  0.00     0.045 A 
ENDROOT
TORSDOF 0
ENDMDL
