MODEL 1
REMARK minimizedAffinity 1.71194029
REMARK minimizedRMSD -1
REMARK  1 active torsions:
REMARK  status: ('A' for Active; 'I' for Inactive)
REMARK    1  A    between atoms: C1_2  and  C2_3 
ROOT
ATOM      1  C2  UNL d   1       3.249  -3.419  -0.150  0.00  0.00    -0.077 A 
ATOM      2  C3  UNL d   1       1.866  -3.648  -0.194  0.00  0.00     0.002 A 
ATOM      3  C4  UNL d   1       0.989  -2.615  -0.531  0.00  0.00     0.002 A 
ATOM      4  C5  UNL d   1       1.485  -1.348  -0.829  0.00  0.00    -0.004 A 
ATOM      5  C6  UNL d   1       2.858  -1.109  -0.786  0.00  0.00     0.002 A 
ATOM      6  C7  UNL d   1       3.736  -2.140  -0.449  0.00  0.00     0.002 A 
ENDROOT
BRANCH   1   7
ATOM      7  C1  UNL d   1       4.199  -4.544   0.165  0.00  0.00     0.055 C 
ATOM      8  C   UNL d   1       5.624  -4.194  -0.239  0.00  0.00     0.019 C 
ENDBRANCH   1   7
TORSDOF 1
ENDMDL
