MODEL 1
REMARK minimizedAffinity 5.12547159
REMARK minimizedRMSD -1
REMARK  1 active torsions:
REMARK  status: ('A' for Active; 'I' for Inactive)
REMARK    1  A    between atoms: C1_2  and  C2_3 
ROOT
ATOM      1  C2  UNL d   1       4.243  -4.890   0.995  0.00  0.00    -0.077 A 
ATOM      2  C3  UNL d   1       4.600  -3.625   1.482  0.00  0.00     0.002 A 
ATOM      3  C4  UNL d   1       3.639  -2.621   1.612  0.00  0.00     0.002 A 
ATOM      4  C5  UNL d   1       2.314  -2.873   1.262  0.00  0.00    -0.004 A 
ATOM      5  C6  UNL d   1       1.949  -4.127   0.774  0.00  0.00     0.002 A 
ATOM      6  C7  UNL d   1       2.909  -5.132   0.642  0.00  0.00     0.002 A 
ENDROOT
BRANCH   1   7
ATOM      7  C1  UNL d   1       5.269  -5.990   0.900  0.00  0.00     0.055 C 
ATOM      8  C   UNL d   1       5.961  -5.986  -0.455  0.00  0.00     0.019 C 
ENDBRANCH   1   7
TORSDOF 1
ENDMDL
