MODEL 1
REMARK minimizedAffinity 1.63256299
REMARK minimizedRMSD -1
REMARK  1 active torsions:
REMARK  status: ('A' for Active; 'I' for Inactive)
REMARK    1  A    between atoms: C1_2  and  C2_3 
ROOT
ATOM      1  C2  UNL d   1      -4.222   0.812  -4.358  0.00  0.00    -0.077 A 
ATOM      2  C3  UNL d   1      -4.544   0.008  -3.256  0.00  0.00     0.002 A 
ATOM      3  C4  UNL d   1      -3.998  -1.271  -3.131  0.00  0.00     0.002 A 
ATOM      4  C5  UNL d   1      -3.124  -1.755  -4.102  0.00  0.00    -0.004 A 
ATOM      5  C6  UNL d   1      -2.800  -0.964  -5.203  0.00  0.00     0.002 A 
ATOM      6  C7  UNL d   1      -3.345   0.314  -5.331  0.00  0.00     0.002 A 
ENDROOT
BRANCH   1   7
ATOM      7  C1  UNL d   1      -4.771   2.211  -4.470  0.00  0.00     0.055 C 
ATOM      8  C   UNL d   1      -3.720   3.248  -4.102  0.00  0.00     0.019 C 
ENDBRANCH   1   7
TORSDOF 1
ENDMDL
