MODEL 1
REMARK minimizedAffinity 0.785944939
REMARK minimizedRMSD -1
REMARK  1 active torsions:
REMARK  status: ('A' for Active; 'I' for Inactive)
REMARK    1  A    between atoms: C1_2  and  C2_3 
ROOT
ATOM      1  C2  UNL d   1      -3.923   1.302  -3.954  0.00  0.00    -0.077 A 
ATOM      2  C3  UNL d   1      -5.135   1.144  -4.642  0.00  0.00     0.002 A 
ATOM      3  C4  UNL d   1      -5.774  -0.097  -4.671  0.00  0.00     0.002 A 
ATOM      4  C5  UNL d   1      -5.211  -1.188  -4.011  0.00  0.00    -0.004 A 
ATOM      5  C6  UNL d   1      -4.006  -1.042  -3.326  0.00  0.00     0.002 A 
ATOM      6  C7  UNL d   1      -3.365   0.198  -3.297  0.00  0.00     0.002 A 
ENDROOT
BRANCH   1   7
ATOM      7  C1  UNL d   1      -3.257   2.651  -3.880  0.00  0.00     0.055 C 
ATOM      8  C   UNL d   1      -2.349   2.754  -2.663  0.00  0.00     0.019 C 
ENDBRANCH   1   7
TORSDOF 1
ENDMDL
