MODEL 1
REMARK minimizedAffinity 2.24451041
REMARK minimizedRMSD -1
REMARK  1 active torsions:
REMARK  status: ('A' for Active; 'I' for Inactive)
REMARK    1  A    between atoms: C3_4  and  O_7 
ROOT
ATOM      1  C   UNL d   1       0.082  -0.670   1.808  0.00  0.00    -0.033 A 
ATOM      2  C1  UNL d   1       1.454  -0.582   1.565  0.00  0.00     0.039 A 
ATOM      3  C2  UNL d   1       2.365  -0.900   2.574  0.00  0.00    -0.080 A 
ATOM      4  C3  UNL d   1       1.891  -1.305   3.819  0.00  0.00     0.150 A 
ATOM      5  C4  UNL d   1       0.526  -1.398   4.067  0.00  0.00    -0.007 A 
ATOM      6  C5  UNL d   1      -0.382  -1.079   3.058  0.00  0.00     0.039 A 
ENDROOT
BRANCH   4   7
ATOM      7  O   UNL d   1       2.742  -1.621   4.836  0.00  0.00    -0.526 OA
ATOM      8  H5  UNL d   1       3.654  -1.483   4.529  0.00  0.00     0.418 HD
ENDBRANCH   4   7
TORSDOF 1
ENDMDL
