MODEL 1
REMARK minimizedAffinity -0.381906688
REMARK minimizedRMSD -1
REMARK  1 active torsions:
REMARK  status: ('A' for Active; 'I' for Inactive)
REMARK    1  A    between atoms: C3_4  and  O_7 
ROOT
ATOM      1  C   UNL d   1       0.398  -0.973  -0.010  0.00  0.00    -0.033 A 
ATOM      2  C1  UNL d   1      -0.912  -1.017  -0.491  0.00  0.00     0.039 A 
ATOM      3  C2  UNL d   1      -1.959  -0.510   0.281  0.00  0.00    -0.080 A 
ATOM      4  C3  UNL d   1      -1.683   0.039   1.530  0.00  0.00     0.150 A 
ATOM      5  C4  UNL d   1      -0.380   0.090   2.014  0.00  0.00    -0.007 A 
ATOM      6  C5  UNL d   1       0.664  -0.418   1.242  0.00  0.00     0.039 A 
ENDROOT
BRANCH   4   7
ATOM      7  O   UNL d   1      -2.672   0.542   2.321  0.00  0.00    -0.526 OA
ATOM      8  H5  UNL d   1      -3.523   0.413   1.870  0.00  0.00     0.418 HD
ENDBRANCH   4   7
TORSDOF 1
ENDMDL
