MODEL 1
REMARK minimizedAffinity -1.9104811
REMARK minimizedRMSD -1
REMARK  1 active torsions:
REMARK  status: ('A' for Active; 'I' for Inactive)
REMARK    1  A    between atoms: C3_4  and  O_7 
ROOT
ATOM      1  C   UNL d   1      -0.588  -2.353   5.179  0.00  0.00    -0.033 A 
ATOM      2  C1  UNL d   1      -1.979  -2.322   5.067  0.00  0.00     0.039 A 
ATOM      3  C2  UNL d   1      -2.590  -1.438   4.174  0.00  0.00    -0.080 A 
ATOM      4  C3  UNL d   1      -1.798  -0.592   3.402  0.00  0.00     0.150 A 
ATOM      5  C4  UNL d   1      -0.412  -0.621   3.506  0.00  0.00    -0.007 A 
ATOM      6  C5  UNL d   1       0.196  -1.504   4.398  0.00  0.00     0.039 A 
ENDROOT
BRANCH   4   7
ATOM      7  O   UNL d   1      -2.349   0.291   2.521  0.00  0.00    -0.526 OA
ATOM      8  H5  UNL d   1      -3.316   0.219   2.577  0.00  0.00     0.418 HD
ENDBRANCH   4   7
TORSDOF 1
ENDMDL
