MODEL 1
REMARK minimizedAffinity 5.44070911
REMARK minimizedRMSD -1
REMARK  1 active torsions:
REMARK  status: ('A' for Active; 'I' for Inactive)
REMARK    1  A    between atoms: C3_4  and  O_7 
ROOT
ATOM      1  C   UNL d   1       1.296  -1.304   5.239  0.00  0.00    -0.033 A 
ATOM      2  C1  UNL d   1       0.119  -1.024   4.542  0.00  0.00     0.039 A 
ATOM      3  C2  UNL d   1       0.162  -0.782   3.167  0.00  0.00    -0.080 A 
ATOM      4  C3  UNL d   1       1.384  -0.824   2.503  0.00  0.00     0.150 A 
ATOM      5  C4  UNL d   1       2.560  -1.106   3.191  0.00  0.00    -0.007 A 
ATOM      6  C5  UNL d   1       2.516  -1.347   4.564  0.00  0.00     0.039 A 
ENDROOT
BRANCH   4   7
ATOM      7  O   UNL d   1       1.476  -0.590   1.163  0.00  0.00    -0.526 OA
ATOM      8  H5  UNL d   1       0.589  -0.380   0.826  0.00  0.00     0.418 HD
ENDBRANCH   4   7
TORSDOF 1
ENDMDL
