MODEL 1
REMARK minimizedAffinity 5.54201794
REMARK minimizedRMSD -1
REMARK  1 active torsions:
REMARK  status: ('A' for Active; 'I' for Inactive)
REMARK    1  A    between atoms: C3_4  and  O_7 
ROOT
ATOM      1  C   UNL d   1       4.176   2.237   0.169  0.00  0.00    -0.033 A 
ATOM      2  C1  UNL d   1       3.327   1.621  -0.753  0.00  0.00     0.039 A 
ATOM      3  C2  UNL d   1       2.473   0.596  -0.341  0.00  0.00    -0.080 A 
ATOM      4  C3  UNL d   1       2.476   0.198   0.993  0.00  0.00     0.150 A 
ATOM      5  C4  UNL d   1       3.316   0.810   1.917  0.00  0.00    -0.007 A 
ATOM      6  C5  UNL d   1       4.169   1.833   1.505  0.00  0.00     0.039 A 
ENDROOT
BRANCH   4   7
ATOM      7  O   UNL d   1       1.663  -0.801   1.440  0.00  0.00    -0.526 OA
ATOM      8  H5  UNL d   1       1.160  -1.150   0.686  0.00  0.00     0.418 HD
ENDBRANCH   4   7
TORSDOF 1
ENDMDL
