MODEL 1
REMARK minimizedAffinity 3.03691888
REMARK minimizedRMSD -1
REMARK  1 active torsions:
REMARK  status: ('A' for Active; 'I' for Inactive)
REMARK    1  A    between atoms: C3_4  and  O_7 
ROOT
ATOM      1  C   UNL d   1      -2.635   0.337   1.064  0.00  0.00    -0.033 A 
ATOM      2  C1  UNL d   1      -1.736   0.168   0.009  0.00  0.00     0.039 A 
ATOM      3  C2  UNL d   1      -0.427  -0.246   0.264  0.00  0.00    -0.080 A 
ATOM      4  C3  UNL d   1      -0.031  -0.489   1.577  0.00  0.00     0.150 A 
ATOM      5  C4  UNL d   1      -0.922  -0.327   2.632  0.00  0.00    -0.007 A 
ATOM      6  C5  UNL d   1      -2.228   0.088   2.375  0.00  0.00     0.039 A 
ENDROOT
BRANCH   4   7
ATOM      7  O   UNL d   1       1.237  -0.891   1.875  0.00  0.00    -0.526 OA
ATOM      8  H5  UNL d   1       1.749  -0.932   1.050  0.00  0.00     0.418 HD
ENDBRANCH   4   7
TORSDOF 1
ENDMDL
