MODEL 1
REMARK minimizedAffinity 5.84334135
REMARK minimizedRMSD -1
REMARK  1 active torsions:
REMARK  status: ('A' for Active; 'I' for Inactive)
REMARK    1  A    between atoms: C3_4  and  O_7 
ROOT
ATOM      1  C   UNL d   1      -2.985   0.075  -0.264  0.00  0.00    -0.033 A 
ATOM      2  C1  UNL d   1      -2.738   0.598   1.006  0.00  0.00     0.039 A 
ATOM      3  C2  UNL d   1      -1.540   0.307   1.662  0.00  0.00    -0.080 A 
ATOM      4  C3  UNL d   1      -0.598  -0.506   1.036  0.00  0.00     0.150 A 
ATOM      5  C4  UNL d   1      -0.837  -1.027  -0.231  0.00  0.00    -0.007 A 
ATOM      6  C5  UNL d   1      -2.034  -0.736  -0.884  0.00  0.00     0.039 A 
ENDROOT
BRANCH   4   7
ATOM      7  O   UNL d   1       0.583  -0.822   1.639  0.00  0.00    -0.526 OA
ATOM      8  H5  UNL d   1       0.597  -0.415   2.521  0.00  0.00     0.418 HD
ENDBRANCH   4   7
TORSDOF 1
ENDMDL
