MODEL 1
REMARK minimizedAffinity -4.26280403
REMARK minimizedRMSD -1
REMARK  0 active torsions:
REMARK  status: ('A' for Active; 'I' for Inactive)
ROOT
ATOM      1  C   UNL d   1      -0.012  -4.217  -0.982  0.00  0.00    -0.002 A 
ATOM      2  C1  UNL d   1       0.666  -3.650  -2.051  0.00  0.00     0.010 A 
ATOM      3  C2  UNL d   1       0.860  -2.269  -2.117  0.00  0.00     0.041 A 
ATOM      4  C3  UNL d   1       0.357  -1.460  -1.079  0.00  0.00    -0.075 A 
ATOM      5  S   UNL d   1       0.477   0.255  -0.947  0.00  0.00     0.015 SA
ATOM      6  C4  UNL d   1      -0.369   0.275   0.533  0.00  0.00     0.022 A 
ATOM      7  C5  UNL d   1      -0.742  -0.987   0.931  0.00  0.00     0.026 A 
ATOM      8  C6  UNL d   1      -0.329  -2.008   0.009  0.00  0.00    -0.082 A 
ATOM      9  C7  UNL d   1      -0.510  -3.412   0.046  0.00  0.00     0.045 A 
ENDROOT
TORSDOF 0
ENDMDL
