MODEL 1
REMARK minimizedAffinity 0.106211849
REMARK minimizedRMSD -1
REMARK  0 active torsions:
REMARK  status: ('A' for Active; 'I' for Inactive)
ROOT
ATOM      1  C   UNL d   1       2.775   3.436   0.764  0.00  0.00    -0.002 A 
ATOM      2  C1  UNL d   1       1.530   3.837   1.227  0.00  0.00     0.010 A 
ATOM      3  C2  UNL d   1       0.376   3.147   0.850  0.00  0.00     0.041 A 
ATOM      4  C3  UNL d   1       0.496   2.036  -0.007  0.00  0.00    -0.075 A 
ATOM      5  S   UNL d   1      -0.779   1.038  -0.600  0.00  0.00     0.015 SA
ATOM      6  C4  UNL d   1       0.299   0.056  -1.481  0.00  0.00     0.022 A 
ATOM      7  C5  UNL d   1       1.604   0.465  -1.338  0.00  0.00     0.026 A 
ATOM      8  C6  UNL d   1       1.739   1.612  -0.486  0.00  0.00    -0.082 A 
ATOM      9  C7  UNL d   1       2.890   2.333  -0.086  0.00  0.00     0.045 A 
ENDROOT
TORSDOF 0
ENDMDL
