MODEL 1
REMARK minimizedAffinity -5.08776808
REMARK minimizedRMSD -1
REMARK  0 active torsions:
REMARK  status: ('A' for Active; 'I' for Inactive)
ROOT
ATOM      1  C   UNL d   1      -0.023  -3.024   0.789  0.00  0.00    -0.002 A 
ATOM      2  C1  UNL d   1      -0.510  -1.913   1.462  0.00  0.00     0.010 A 
ATOM      3  C2  UNL d   1      -0.599  -0.676   0.820  0.00  0.00     0.041 A 
ATOM      4  C3  UNL d   1      -0.189  -0.575  -0.524  0.00  0.00    -0.075 A 
ATOM      5  S   UNL d   1      -0.208   0.837  -1.513  0.00  0.00     0.015 SA
ATOM      6  C4  UNL d   1       0.428  -0.003  -2.853  0.00  0.00     0.022 A 
ATOM      7  C5  UNL d   1       0.656  -1.328  -2.570  0.00  0.00     0.026 A 
ATOM      8  C6  UNL d   1       0.304  -1.680  -1.223  0.00  0.00    -0.082 A 
ATOM      9  C7  UNL d   1       0.383  -2.920  -0.544  0.00  0.00     0.045 A 
ENDROOT
TORSDOF 0
ENDMDL
