MODEL 1
REMARK minimizedAffinity -6.09570599
REMARK minimizedRMSD -1
REMARK  0 active torsions:
REMARK  status: ('A' for Active; 'I' for Inactive)
ROOT
ATOM      1  C   UNL d   1      -0.308  -3.824  -0.250  0.00  0.00    -0.002 A 
ATOM      2  C1  UNL d   1       0.482  -3.423  -1.319  0.00  0.00     0.010 A 
ATOM      3  C2  UNL d   1       0.778  -2.073  -1.516  0.00  0.00     0.041 A 
ATOM      4  C3  UNL d   1       0.265  -1.124  -0.610  0.00  0.00    -0.075 A 
ATOM      5  S   UNL d   1       0.498   0.584  -0.652  0.00  0.00     0.015 SA
ATOM      6  C4  UNL d   1      -0.444   0.821   0.749  0.00  0.00     0.022 A 
ATOM      7  C5  UNL d   1      -0.932  -0.363   1.249  0.00  0.00     0.026 A 
ATOM      8  C6  UNL d   1      -0.531  -1.503   0.474  0.00  0.00    -0.082 A 
ATOM      9  C7  UNL d   1      -0.815  -2.880   0.646  0.00  0.00     0.045 A 
ENDROOT
TORSDOF 0
ENDMDL
