MODEL 1
REMARK minimizedAffinity 1.80821383
REMARK minimizedRMSD -1
REMARK  0 active torsions:
REMARK  status: ('A' for Active; 'I' for Inactive)
ROOT
ATOM      1  C   UNL d   1       1.144   4.261   1.127  0.00  0.00    -0.002 A 
ATOM      2  C1  UNL d   1       2.388   3.765   0.763  0.00  0.00     0.010 A 
ATOM      3  C2  UNL d   1       2.523   2.454   0.301  0.00  0.00     0.041 A 
ATOM      4  C3  UNL d   1       1.374   1.643   0.208  0.00  0.00    -0.075 A 
ATOM      5  S   UNL d   1       1.298   0.007  -0.331  0.00  0.00     0.015 SA
ATOM      6  C4  UNL d   1      -0.388  -0.071  -0.093  0.00  0.00     0.022 A 
ATOM      7  C5  UNL d   1      -0.896   1.113   0.386  0.00  0.00     0.026 A 
ATOM      8  C6  UNL d   1       0.111   2.121   0.567  0.00  0.00    -0.082 A 
ATOM      9  C7  UNL d   1       0.007   3.454   1.033  0.00  0.00     0.045 A 
ENDROOT
TORSDOF 0
ENDMDL
