MODEL 1
REMARK minimizedAffinity 1.51218617
REMARK minimizedRMSD -1
REMARK  0 active torsions:
REMARK  status: ('A' for Active; 'I' for Inactive)
ROOT
ATOM      1  C   UNL d   1       0.809  -0.436  -3.005  0.00  0.00    -0.002 A 
ATOM      2  C1  UNL d   1       0.406  -1.764  -3.021  0.00  0.00     0.010 A 
ATOM      3  C2  UNL d   1      -0.233  -2.325  -1.914  0.00  0.00     0.041 A 
ATOM      4  C3  UNL d   1      -0.465  -1.521  -0.781  0.00  0.00    -0.075 A 
ATOM      5  S   UNL d   1      -1.232  -1.994   0.689  0.00  0.00     0.015 SA
ATOM      6  C4  UNL d   1      -1.044  -0.444   1.373  0.00  0.00     0.022 A 
ATOM      7  C5  UNL d   1      -0.414   0.425   0.515  0.00  0.00     0.026 A 
ATOM      8  C6  UNL d   1      -0.070  -0.181  -0.741  0.00  0.00    -0.082 A 
ATOM      9  C7  UNL d   1       0.577   0.359  -1.879  0.00  0.00     0.045 A 
ENDROOT
TORSDOF 0
ENDMDL
