MODEL 1
REMARK minimizedAffinity -5.50271749
REMARK minimizedRMSD -1
REMARK  0 active torsions:
REMARK  status: ('A' for Active; 'I' for Inactive)
ROOT
ATOM      1  C   UNL d   1      -1.222   0.999   0.794  0.00  0.00    -0.002 A 
ATOM      2  C1  UNL d   1      -1.834  -0.076   1.421  0.00  0.00     0.010 A 
ATOM      3  C2  UNL d   1      -1.423  -1.383   1.153  0.00  0.00     0.041 A 
ATOM      4  C3  UNL d   1      -0.374  -1.593   0.237  0.00  0.00    -0.075 A 
ATOM      5  S   UNL d   1       0.298  -3.106  -0.246  0.00  0.00     0.015 SA
ATOM      6  C4  UNL d   1       1.414  -2.360  -1.296  0.00  0.00     0.022 A 
ATOM      7  C5  UNL d   1       1.291  -0.990  -1.291  0.00  0.00     0.026 A 
ATOM      8  C6  UNL d   1       0.259  -0.526  -0.407  0.00  0.00    -0.082 A 
ATOM      9  C7  UNL d   1      -0.182   0.787  -0.115  0.00  0.00     0.045 A 
ENDROOT
TORSDOF 0
ENDMDL
