MODEL 1
REMARK minimizedAffinity -5.68982506
REMARK minimizedRMSD -1
REMARK  0 active torsions:
REMARK  status: ('A' for Active; 'I' for Inactive)
ROOT
ATOM      1  C   UNL d   1       0.426  -4.034  -0.691  0.00  0.00    -0.002 A 
ATOM      2  C1  UNL d   1       0.372  -3.526   0.599  0.00  0.00     0.010 A 
ATOM      3  C2  UNL d   1       0.326  -2.148   0.819  0.00  0.00     0.041 A 
ATOM      4  C3  UNL d   1       0.334  -1.280  -0.290  0.00  0.00    -0.075 A 
ATOM      5  S   UNL d   1       0.283   0.443  -0.263  0.00  0.00     0.015 SA
ATOM      6  C4  UNL d   1       0.331   0.546  -1.963  0.00  0.00     0.022 A 
ATOM      7  C5  UNL d   1       0.385  -0.694  -2.554  0.00  0.00     0.026 A 
ATOM      8  C6  UNL d   1       0.387  -1.767  -1.599  0.00  0.00    -0.082 A 
ATOM      9  C7  UNL d   1       0.434  -3.169  -1.789  0.00  0.00     0.045 A 
ENDROOT
TORSDOF 0
ENDMDL
