MODEL 1
REMARK minimizedAffinity -2.69317985
REMARK minimizedRMSD -1
REMARK  0 active torsions:
REMARK  status: ('A' for Active; 'I' for Inactive)
ROOT
ATOM      1  C   UNL d   1       1.685   0.295  -2.127  0.00  0.00    -0.002 A 
ATOM      2  C1  UNL d   1       0.335   0.264  -1.809  0.00  0.00     0.010 A 
ATOM      3  C2  UNL d   1      -0.193   1.151  -0.868  0.00  0.00     0.041 A 
ATOM      4  C3  UNL d   1       0.667   2.080  -0.249  0.00  0.00    -0.075 A 
ATOM      5  S   UNL d   1       0.243   3.262   0.931  0.00  0.00     0.015 SA
ATOM      6  C4  UNL d   1       1.844   3.837   1.040  0.00  0.00     0.022 A 
ATOM      7  C5  UNL d   1       2.694   3.154   0.203  0.00  0.00     0.026 A 
ATOM      8  C6  UNL d   1       2.030   2.130  -0.554  0.00  0.00    -0.082 A 
ATOM      9  C7  UNL d   1       2.535   1.218  -1.511  0.00  0.00     0.045 A 
ENDROOT
TORSDOF 0
ENDMDL
