MODEL 1
REMARK minimizedAffinity -4.07347441
REMARK minimizedRMSD -1
REMARK  0 active torsions:
REMARK  status: ('A' for Active; 'I' for Inactive)
ROOT
ATOM      1  C   UNL d   1      -1.181  -1.881   0.811  0.00  0.00    -0.002 A 
ATOM      2  C1  UNL d   1      -0.153  -2.495   0.111  0.00  0.00     0.010 A 
ATOM      3  C2  UNL d   1       0.905  -1.742  -0.403  0.00  0.00     0.041 A 
ATOM      4  C3  UNL d   1       0.912  -0.348  -0.197  0.00  0.00    -0.075 A 
ATOM      5  S   UNL d   1       2.105   0.775  -0.734  0.00  0.00     0.015 SA
ATOM      6  C4  UNL d   1       1.277   2.097  -0.046  0.00  0.00     0.022 A 
ATOM      7  C5  UNL d   1       0.117   1.708   0.582  0.00  0.00     0.026 A 
ATOM      8  C6  UNL d   1      -0.112   0.293   0.505  0.00  0.00    -0.082 A 
ATOM      9  C7  UNL d   1      -1.171  -0.498   1.013  0.00  0.00     0.045 A 
ENDROOT
TORSDOF 0
ENDMDL
