MODEL 1
REMARK minimizedAffinity -5.17123604
REMARK minimizedRMSD -1
REMARK  0 active torsions:
REMARK  status: ('A' for Active; 'I' for Inactive)
ROOT
ATOM      1  C   UNL d   1      -0.349  -3.623  -1.275  0.00  0.00    -0.002 A 
ATOM      2  C1  UNL d   1       0.229  -2.978  -2.359  0.00  0.00     0.010 A 
ATOM      3  C2  UNL d   1       0.479  -1.605  -2.317  0.00  0.00     0.041 A 
ATOM      4  C3  UNL d   1       0.138  -0.885  -1.156  0.00  0.00    -0.075 A 
ATOM      5  S   UNL d   1       0.353   0.803  -0.879  0.00  0.00     0.015 SA
ATOM      6  C4  UNL d   1      -0.316   0.707   0.686  0.00  0.00     0.022 A 
ATOM      7  C5  UNL d   1      -0.700  -0.574   1.005  0.00  0.00     0.026 A 
ATOM      8  C6  UNL d   1      -0.444  -1.513  -0.051  0.00  0.00    -0.082 A 
ATOM      9  C7  UNL d   1      -0.687  -2.905  -0.124  0.00  0.00     0.045 A 
ENDROOT
TORSDOF 0
ENDMDL
