MODEL 1
REMARK minimizedAffinity -2.67530394
REMARK minimizedRMSD -1
REMARK  0 active torsions:
REMARK  status: ('A' for Active; 'I' for Inactive)
ROOT
ATOM      1  C   UNL d   1       0.386  -4.012  -1.398  0.00  0.00    -0.002 A 
ATOM      2  C1  UNL d   1       1.123  -3.105  -2.147  0.00  0.00     0.010 A 
ATOM      3  C2  UNL d   1       1.097  -1.743  -1.838  0.00  0.00     0.041 A 
ATOM      4  C3  UNL d   1       0.313  -1.305  -0.753  0.00  0.00    -0.075 A 
ATOM      5  S   UNL d   1       0.129   0.315  -0.191  0.00  0.00     0.015 SA
ATOM      6  C4  UNL d   1      -0.931  -0.160   1.057  0.00  0.00     0.022 A 
ATOM      7  C5  UNL d   1      -1.150  -1.517   1.059  0.00  0.00     0.026 A 
ATOM      8  C6  UNL d   1      -0.437  -2.199   0.016  0.00  0.00    -0.082 A 
ATOM      9  C7  UNL d   1      -0.391  -3.573  -0.323  0.00  0.00     0.045 A 
ENDROOT
TORSDOF 0
ENDMDL
