MODEL 1
REMARK minimizedAffinity 3.19073939
REMARK minimizedRMSD -1
REMARK  1 active torsions:
REMARK  status: ('A' for Active; 'I' for Inactive)
REMARK    1  A    between atoms: C3_4  and  O_7 
ROOT
ATOM      1  C   UNL d   1      -1.869   5.997  -3.132  0.00  0.00    -0.033 A 
ATOM      2  C1  UNL d   1      -2.672   5.999  -4.274  0.00  0.00     0.039 A 
ATOM      3  C2  UNL d   1      -4.063   6.000  -4.152  0.00  0.00    -0.080 A 
ATOM      4  C3  UNL d   1      -4.638   5.998  -2.884  0.00  0.00     0.150 A 
ATOM      5  C4  UNL d   1      -3.844   6.000  -1.742  0.00  0.00    -0.007 A 
ATOM      6  C5  UNL d   1      -2.455   5.998  -1.866  0.00  0.00     0.039 A 
ENDROOT
BRANCH   4   7
ATOM      7  O   UNL d   1      -5.990   5.994  -2.715  0.00  0.00    -0.526 OA
ATOM      8  H5  UNL d   1      -6.410   5.964  -3.591  0.00  0.00     0.418 HD
ENDBRANCH   4   7
TORSDOF 1
ENDMDL
