MODEL 1
REMARK minimizedAffinity -1.27098846
REMARK minimizedRMSD -1
REMARK  1 active torsions:
REMARK  status: ('A' for Active; 'I' for Inactive)
REMARK    1  A    between atoms: C3_4  and  O_7 
ROOT
ATOM      1  C   UNL d   1       1.013   5.996  -4.170  0.00  0.00    -0.033 A 
ATOM      2  C1  UNL d   1       0.034   5.997  -3.174  0.00  0.00     0.039 A 
ATOM      3  C2  UNL d   1      -1.319   5.997  -3.522  0.00  0.00    -0.080 A 
ATOM      4  C3  UNL d   1      -1.678   5.995  -4.867  0.00  0.00     0.150 A 
ATOM      5  C4  UNL d   1      -0.708   5.990  -5.864  0.00  0.00    -0.007 A 
ATOM      6  C5  UNL d   1       0.642   5.991  -5.515  0.00  0.00     0.039 A 
ENDROOT
BRANCH   4   7
ATOM      7  O   UNL d   1      -2.984   5.999  -5.256  0.00  0.00    -0.526 OA
ATOM      8  H5  UNL d   1      -3.542   6.032  -4.461  0.00  0.00     0.418 HD
ENDBRANCH   4   7
TORSDOF 1
ENDMDL
