MODEL 1
REMARK minimizedAffinity 1.747244
REMARK minimizedRMSD -1
REMARK  1 active torsions:
REMARK  status: ('A' for Active; 'I' for Inactive)
REMARK    1  A    between atoms: C3_4  and  O_7 
ROOT
ATOM      1  C   UNL d   1       0.737   4.809  -5.591  0.00  0.00    -0.033 A 
ATOM      2  C1  UNL d   1       1.464   3.683  -5.201  0.00  0.00     0.039 A 
ATOM      3  C2  UNL d   1       2.860   3.712  -5.212  0.00  0.00    -0.080 A 
ATOM      4  C3  UNL d   1       3.516   4.873  -5.613  0.00  0.00     0.150 A 
ATOM      5  C4  UNL d   1       2.798   6.000  -5.999  0.00  0.00    -0.007 A 
ATOM      6  C5  UNL d   1       1.404   5.968  -5.989  0.00  0.00     0.039 A 
ENDROOT
BRANCH   4   7
ATOM      7  O   UNL d   1       4.876   4.948  -5.644  0.00  0.00    -0.526 OA
ATOM      8  H5  UNL d   1       5.238   4.086  -5.379  0.00  0.00     0.418 HD
ENDBRANCH   4   7
TORSDOF 1
ENDMDL
