MODEL 1
REMARK minimizedAffinity 6.84971762
REMARK minimizedRMSD -1
REMARK  1 active torsions:
REMARK  status: ('A' for Active; 'I' for Inactive)
REMARK    1  A    between atoms: C3_4  and  O_7 
ROOT
ATOM      1  C   UNL d   1       1.547   0.094  -3.305  0.00  0.00    -0.033 A 
ATOM      2  C1  UNL d   1       0.227  -0.116  -2.901  0.00  0.00     0.039 A 
ATOM      3  C2  UNL d   1      -0.702  -0.650  -3.796  0.00  0.00    -0.080 A 
ATOM      4  C3  UNL d   1      -0.299  -0.971  -5.089  0.00  0.00     0.150 A 
ATOM      5  C4  UNL d   1       1.015  -0.768  -5.498  0.00  0.00    -0.007 A 
ATOM      6  C5  UNL d   1       1.941  -0.233  -4.603  0.00  0.00     0.039 A 
ENDROOT
BRANCH   4   7
ATOM      7  O   UNL d   1      -1.171  -1.490  -5.999  0.00  0.00    -0.526 OA
ATOM      8  H5  UNL d   1      -2.049  -1.548  -5.586  0.00  0.00     0.418 HD
ENDBRANCH   4   7
TORSDOF 1
ENDMDL
