MODEL 1
REMARK minimizedAffinity -2.75031757
REMARK minimizedRMSD -1
REMARK  1 active torsions:
REMARK  status: ('A' for Active; 'I' for Inactive)
REMARK    1  A    between atoms: C3_4  and  O_7 
ROOT
ATOM      1  C   UNL d   1       1.834   4.524  -4.987  0.00  0.00    -0.033 A 
ATOM      2  C1  UNL d   1       2.808   4.025  -4.120  0.00  0.00     0.039 A 
ATOM      3  C2  UNL d   1       4.117   4.505  -4.188  0.00  0.00    -0.080 A 
ATOM      4  C3  UNL d   1       4.439   5.483  -5.124  0.00  0.00     0.150 A 
ATOM      5  C4  UNL d   1       3.472   5.988  -5.988  0.00  0.00    -0.007 A 
ATOM      6  C5  UNL d   1       2.166   5.507  -5.920  0.00  0.00     0.039 A 
ENDROOT
BRANCH   4   7
ATOM      7  O   UNL d   1       5.704   5.979  -5.231  0.00  0.00    -0.526 OA
ATOM      8  H5  UNL d   1       6.271   5.517  -4.591  0.00  0.00     0.418 HD
ENDBRANCH   4   7
TORSDOF 1
ENDMDL
