MODEL 1
REMARK minimizedAffinity -0.256100029
REMARK minimizedRMSD -1
REMARK  1 active torsions:
REMARK  status: ('A' for Active; 'I' for Inactive)
REMARK    1  A    between atoms: C3_4  and  O_7 
ROOT
ATOM      1  C   UNL d   1       0.388   5.997  -3.754  0.00  0.00    -0.033 A 
ATOM      2  C1  UNL d   1      -0.043   5.999  -2.426  0.00  0.00     0.039 A 
ATOM      3  C2  UNL d   1      -1.408   5.993  -2.133  0.00  0.00    -0.080 A 
ATOM      4  C3  UNL d   1      -2.331   5.983  -3.176  0.00  0.00     0.150 A 
ATOM      5  C4  UNL d   1      -1.908   5.977  -4.501  0.00  0.00    -0.007 A 
ATOM      6  C5  UNL d   1      -0.545   5.984  -4.792  0.00  0.00     0.039 A 
ENDROOT
BRANCH   4   7
ATOM      7  O   UNL d   1      -3.673   5.982  -2.940  0.00  0.00    -0.526 OA
ATOM      8  H5  UNL d   1      -3.817   6.016  -1.979  0.00  0.00     0.418 HD
ENDBRANCH   4   7
TORSDOF 1
ENDMDL
