MODEL 1
REMARK minimizedAffinity -0.0519516505
REMARK minimizedRMSD -1
REMARK  1 active torsions:
REMARK  status: ('A' for Active; 'I' for Inactive)
REMARK    1  A    between atoms: C3_4  and  O_7 
ROOT
ATOM      1  C   UNL d   1      -0.287   0.130  -0.569  0.00  0.00    -0.033 A 
ATOM      2  C1  UNL d   1      -0.092   0.133   0.814  0.00  0.00     0.039 A 
ATOM      3  C2  UNL d   1       0.412   1.272   1.447  0.00  0.00    -0.080 A 
ATOM      4  C3  UNL d   1       0.715   2.398   0.687  0.00  0.00     0.150 A 
ATOM      5  C4  UNL d   1       0.519   2.403  -0.690  0.00  0.00    -0.007 A 
ATOM      6  C5  UNL d   1       0.017   1.266  -1.320  0.00  0.00     0.039 A 
ENDROOT
BRANCH   4   7
ATOM      7  O   UNL d   1       1.213   3.531   1.260  0.00  0.00    -0.526 OA
ATOM      8  H5  UNL d   1       1.323   3.371   2.212  0.00  0.00     0.418 HD
ENDBRANCH   4   7
TORSDOF 1
ENDMDL
