MODEL 1
REMARK minimizedAffinity -3.35042477
REMARK minimizedRMSD -1
REMARK  1 active torsions:
REMARK  status: ('A' for Active; 'I' for Inactive)
REMARK    1  A    between atoms: C3_4  and  O_7 
ROOT
ATOM      1  C   UNL d   1       0.953   0.796   1.888  0.00  0.00    -0.033 A 
ATOM      2  C1  UNL d   1       0.372  -0.109   0.997  0.00  0.00     0.039 A 
ATOM      3  C2  UNL d   1       0.642  -0.017  -0.370  0.00  0.00    -0.080 A 
ATOM      4  C3  UNL d   1       1.494   0.983  -0.832  0.00  0.00     0.150 A 
ATOM      5  C4  UNL d   1       2.079   1.885   0.051  0.00  0.00    -0.007 A 
ATOM      6  C5  UNL d   1       1.807   1.792   1.415  0.00  0.00     0.039 A 
ENDROOT
BRANCH   4   7
ATOM      7  O   UNL d   1       1.784   1.115  -2.157  0.00  0.00    -0.526 OA
ATOM      8  H5  UNL d   1       1.287   0.441  -2.650  0.00  0.00     0.418 HD
ENDBRANCH   4   7
TORSDOF 1
ENDMDL
