MODEL 1
REMARK minimizedAffinity 7.24262762
REMARK minimizedRMSD -1
REMARK  1 active torsions:
REMARK  status: ('A' for Active; 'I' for Inactive)
REMARK    1  A    between atoms: C3_4  and  O_7 
ROOT
ATOM      1  C   UNL d   1       0.488   5.999  -5.937  0.00  0.00    -0.033 A 
ATOM      2  C1  UNL d   1       1.321   5.993  -4.817  0.00  0.00     0.039 A 
ATOM      3  C2  UNL d   1       0.770   5.992  -3.534  0.00  0.00    -0.080 A 
ATOM      4  C3  UNL d   1      -0.614   5.995  -3.385  0.00  0.00     0.150 A 
ATOM      5  C4  UNL d   1      -1.450   5.997  -4.496  0.00  0.00    -0.007 A 
ATOM      6  C5  UNL d   1      -0.898   5.999  -5.777  0.00  0.00     0.039 A 
ENDROOT
BRANCH   4   7
ATOM      7  O   UNL d   1      -1.198   5.999  -2.153  0.00  0.00    -0.526 OA
ATOM      8  H5  UNL d   1      -0.497   6.027  -1.481  0.00  0.00     0.418 HD
ENDBRANCH   4   7
TORSDOF 1
ENDMDL
