MODEL 1
REMARK minimizedAffinity -1.64753687
REMARK minimizedRMSD -1
REMARK  1 active torsions:
REMARK  status: ('A' for Active; 'I' for Inactive)
REMARK    1  A    between atoms: C3_4  and  O_7 
ROOT
ATOM      1  C   UNL d   1      -0.408   5.995  -4.377  0.00  0.00    -0.033 A 
ATOM      2  C1  UNL d   1      -0.276   5.993  -2.987  0.00  0.00     0.039 A 
ATOM      3  C2  UNL d   1      -1.413   5.994  -2.176  0.00  0.00    -0.080 A 
ATOM      4  C3  UNL d   1      -2.674   5.995  -2.767  0.00  0.00     0.150 A 
ATOM      5  C4  UNL d   1      -2.813   5.993  -4.151  0.00  0.00    -0.007 A 
ATOM      6  C5  UNL d   1      -1.677   5.993  -4.959  0.00  0.00     0.039 A 
ENDROOT
BRANCH   4   7
ATOM      7  O   UNL d   1      -3.812   6.000  -2.016  0.00  0.00    -0.526 OA
ATOM      8  H5  UNL d   1      -3.562   6.030  -1.078  0.00  0.00     0.418 HD
ENDBRANCH   4   7
TORSDOF 1
ENDMDL
