MODEL 1
REMARK minimizedAffinity 0.00128124526
REMARK minimizedRMSD -1
REMARK  1 active torsions:
REMARK  status: ('A' for Active; 'I' for Inactive)
REMARK    1  A    between atoms: C3_4  and  O_7 
ROOT
ATOM      1  C   UNL d   1      -2.144  -2.101  -4.120  0.00  0.00    -0.033 A 
ATOM      2  C1  UNL d   1      -0.750  -2.070  -4.181  0.00  0.00     0.039 A 
ATOM      3  C2  UNL d   1      -0.006  -1.762  -3.040  0.00  0.00    -0.080 A 
ATOM      4  C3  UNL d   1      -0.667  -1.489  -1.846  0.00  0.00     0.150 A 
ATOM      5  C4  UNL d   1      -2.056  -1.522  -1.777  0.00  0.00    -0.007 A 
ATOM      6  C5  UNL d   1      -2.797  -1.829  -2.917  0.00  0.00     0.039 A 
ENDROOT
BRANCH   4   7
ATOM      7  O   UNL d   1       0.016  -1.178  -0.708  0.00  0.00    -0.526 OA
ATOM      8  H5  UNL d   1       0.966  -1.165  -0.913  0.00  0.00     0.418 HD
ENDBRANCH   4   7
TORSDOF 1
ENDMDL
