MODEL 1
REMARK minimizedAffinity 0.631939411
REMARK minimizedRMSD -1
REMARK  1 active torsions:
REMARK  status: ('A' for Active; 'I' for Inactive)
REMARK    1  A    between atoms: C3_4  and  O_7 
ROOT
ATOM      1  C   UNL d   1       3.015   3.341  -4.801  0.00  0.00    -0.033 A 
ATOM      2  C1  UNL d   1       2.904   3.253  -3.412  0.00  0.00     0.039 A 
ATOM      3  C2  UNL d   1       3.900   3.791  -2.594  0.00  0.00    -0.080 A 
ATOM      4  C3  UNL d   1       5.000   4.414  -3.177  0.00  0.00     0.150 A 
ATOM      5  C4  UNL d   1       5.115   4.509  -4.560  0.00  0.00    -0.007 A 
ATOM      6  C5  UNL d   1       4.120   3.971  -5.375  0.00  0.00     0.039 A 
ENDROOT
BRANCH   4   7
ATOM      7  O   UNL d   1       5.999   4.950  -2.421  0.00  0.00    -0.526 OA
ATOM      8  H5  UNL d   1       5.799   4.785  -1.484  0.00  0.00     0.418 HD
ENDBRANCH   4   7
TORSDOF 1
ENDMDL
