MODEL 1
REMARK minimizedAffinity 2.5054183
REMARK minimizedRMSD -1
REMARK  1 active torsions:
REMARK  status: ('A' for Active; 'I' for Inactive)
REMARK    1  A    between atoms: C1_2  and  C2_3 
ROOT
ATOM      1  C2  UNL d   1       2.957   0.449  -0.762  0.00  0.00    -0.081 A 
ATOM      2  C3  UNL d   1       4.063   1.157  -0.275  0.00  0.00     0.006 A 
ATOM      3  C4  UNL d   1       5.030   1.650  -1.153  0.00  0.00     0.002 A 
ATOM      4  C5  UNL d   1       4.905   1.451  -2.532  0.00  0.00    -0.080 A 
ATOM      5  C6  UNL d   1       5.921   2.001  -3.489  0.00  0.00     0.076 C 
ATOM      6  C7  UNL d   1       3.809   0.728  -3.017  0.00  0.00     0.002 A 
ATOM      7  C8  UNL d   1       2.842   0.234  -2.140  0.00  0.00     0.006 A 
ENDROOT
BRANCH   1   8
ATOM      8  C1  UNL d   1       1.879  -0.028   0.177  0.00  0.00     0.054 C 
ATOM      9  C   UNL d   1       2.163   0.400   1.610  0.00  0.00     0.018 C 
ENDBRANCH   1   8
TORSDOF 1
ENDMDL
