MODEL 1
REMARK minimizedAffinity 4.33914804
REMARK minimizedRMSD -1
REMARK  1 active torsions:
REMARK  status: ('A' for Active; 'I' for Inactive)
REMARK    1  A    between atoms: C1_2  and  C2_3 
ROOT
ATOM      1  C2  UNL d   1       0.807   1.083  -0.391  0.00  0.00    -0.081 A 
ATOM      2  C3  UNL d   1      -0.447   0.864  -0.975  0.00  0.00     0.006 A 
ATOM      3  C4  UNL d   1      -1.492   1.767  -0.767  0.00  0.00     0.002 A 
ATOM      4  C5  UNL d   1      -1.300   2.906   0.021  0.00  0.00    -0.080 A 
ATOM      5  C6  UNL d   1      -2.405   3.899   0.228  0.00  0.00     0.076 C 
ATOM      6  C7  UNL d   1      -0.053   3.116   0.619  0.00  0.00     0.002 A 
ATOM      7  C8  UNL d   1       0.993   2.213   0.412  0.00  0.00     0.006 A 
ENDROOT
BRANCH   1   8
ATOM      8  C1  UNL d   1       1.955   0.145  -0.666  0.00  0.00     0.054 C 
ATOM      9  C   UNL d   1       3.143   0.446   0.237  0.00  0.00     0.018 C 
ENDBRANCH   1   8
TORSDOF 1
ENDMDL
