MODEL 1
REMARK minimizedAffinity 10.4041529
REMARK minimizedRMSD -1
REMARK  1 active torsions:
REMARK  status: ('A' for Active; 'I' for Inactive)
REMARK    1  A    between atoms: C1_2  and  C2_3 
ROOT
ATOM      1  C2  UNL d   1       2.504   0.394   1.232  0.00  0.00    -0.081 A 
ATOM      2  C3  UNL d   1       1.465  -0.014   0.388  0.00  0.00     0.006 A 
ATOM      3  C4  UNL d   1       1.662  -0.089  -0.993  0.00  0.00     0.002 A 
ATOM      4  C5  UNL d   1       2.903   0.235  -1.551  0.00  0.00    -0.080 A 
ATOM      5  C6  UNL d   1       3.137   0.130  -3.029  0.00  0.00     0.076 C 
ATOM      6  C7  UNL d   1       3.937   0.660  -0.709  0.00  0.00     0.002 A 
ATOM      7  C8  UNL d   1       3.740   0.736   0.671  0.00  0.00     0.006 A 
ENDROOT
BRANCH   1   8
ATOM      8  C1  UNL d   1       2.314   0.414   2.728  0.00  0.00     0.054 C 
ATOM      9  C   UNL d   1       2.029   1.822   3.231  0.00  0.00     0.018 C 
ENDBRANCH   1   8
TORSDOF 1
ENDMDL
