MODEL 1
REMARK minimizedAffinity 0.1339508
REMARK minimizedRMSD -1
REMARK  1 active torsions:
REMARK  status: ('A' for Active; 'I' for Inactive)
REMARK    1  A    between atoms: C1_2  and  C2_3 
ROOT
ATOM      1  C2  UNL d   1       0.402   0.607  -1.044  0.00  0.00    -0.081 A 
ATOM      2  C3  UNL d   1      -0.660   1.431  -1.436  0.00  0.00     0.006 A 
ATOM      3  C4  UNL d   1      -0.883   2.653  -0.796  0.00  0.00     0.002 A 
ATOM      4  C5  UNL d   1      -0.044   3.073   0.242  0.00  0.00    -0.080 A 
ATOM      5  C6  UNL d   1      -0.254   4.396   0.918  0.00  0.00     0.076 C 
ATOM      6  C7  UNL d   1       1.006   2.242   0.646  0.00  0.00     0.002 A 
ATOM      7  C8  UNL d   1       1.229   1.021   0.006  0.00  0.00     0.006 A 
ENDROOT
BRANCH   1   8
ATOM      8  C1  UNL d   1       0.684  -0.680  -1.776  0.00  0.00     0.054 C 
ATOM      9  C   UNL d   1      -0.520  -1.127  -2.593  0.00  0.00     0.018 C 
ENDBRANCH   1   8
TORSDOF 1
ENDMDL
