MODEL 1
REMARK minimizedAffinity 4.21204042
REMARK minimizedRMSD -1
REMARK  1 active torsions:
REMARK  status: ('A' for Active; 'I' for Inactive)
REMARK    1  A    between atoms: C1_2  and  C2_3 
ROOT
ATOM      1  C2  UNL d   1      -0.398   3.332   0.474  0.00  0.00    -0.081 A 
ATOM      2  C3  UNL d   1      -1.021   2.597  -0.542  0.00  0.00     0.006 A 
ATOM      3  C4  UNL d   1      -0.352   1.541  -1.164  0.00  0.00     0.002 A 
ATOM      4  C5  UNL d   1       0.947   1.197  -0.777  0.00  0.00    -0.080 A 
ATOM      5  C6  UNL d   1       1.666   0.046  -1.416  0.00  0.00     0.076 C 
ATOM      6  C7  UNL d   1       1.577   1.942   0.226  0.00  0.00     0.002 A 
ATOM      7  C8  UNL d   1       0.908   2.999   0.848  0.00  0.00     0.006 A 
ENDROOT
BRANCH   1   8
ATOM      8  C1  UNL d   1      -1.141   4.430   1.192  0.00  0.00     0.054 C 
ATOM      9  C   UNL d   1      -0.697   4.540   2.644  0.00  0.00     0.018 C 
ENDBRANCH   1   8
TORSDOF 1
ENDMDL
