MODEL 1
REMARK minimizedAffinity 0.275037467
REMARK minimizedRMSD -1
REMARK  1 active torsions:
REMARK  status: ('A' for Active; 'I' for Inactive)
REMARK    1  A    between atoms: C1_2  and  C2_3 
ROOT
ATOM      1  C2  UNL d   1       2.949   0.100  -1.653  0.00  0.00    -0.081 A 
ATOM      2  C3  UNL d   1       3.945   0.561  -0.783  0.00  0.00     0.006 A 
ATOM      3  C4  UNL d   1       3.686   0.696   0.583  0.00  0.00     0.002 A 
ATOM      4  C5  UNL d   1       2.430   0.366   1.103  0.00  0.00    -0.080 A 
ATOM      5  C6  UNL d   1       2.147   0.477   2.571  0.00  0.00     0.076 C 
ATOM      6  C7  UNL d   1       1.429  -0.078   0.231  0.00  0.00     0.002 A 
ATOM      7  C8  UNL d   1       1.688  -0.212  -1.135  0.00  0.00     0.006 A 
ENDROOT
BRANCH   1   8
ATOM      8  C1  UNL d   1       3.246  -0.108  -3.116  0.00  0.00     0.054 C 
ATOM      9  C   UNL d   1       4.452   0.708  -3.558  0.00  0.00     0.018 C 
ENDBRANCH   1   8
TORSDOF 1
ENDMDL
