MODEL 1
REMARK minimizedAffinity 4.90851355
REMARK minimizedRMSD -1
REMARK  1 active torsions:
REMARK  status: ('A' for Active; 'I' for Inactive)
REMARK    1  A    between atoms: C1_2  and  C2_3 
ROOT
ATOM      1  C2  UNL d   1       4.626   1.394  -1.765  0.00  0.00    -0.081 A 
ATOM      2  C3  UNL d   1       3.770   1.047  -2.818  0.00  0.00     0.006 A 
ATOM      3  C4  UNL d   1       2.503   0.520  -2.557  0.00  0.00     0.002 A 
ATOM      4  C5  UNL d   1       2.068   0.337  -1.240  0.00  0.00    -0.080 A 
ATOM      5  C6  UNL d   1       0.699  -0.200  -0.945  0.00  0.00     0.076 C 
ATOM      6  C7  UNL d   1       2.929   0.667  -0.188  0.00  0.00     0.002 A 
ATOM      7  C8  UNL d   1       4.196   1.194  -0.448  0.00  0.00     0.006 A 
ENDROOT
BRANCH   1   8
ATOM      8  C1  UNL d   1       5.967   2.023  -2.042  0.00  0.00     0.054 C 
ATOM      9  C   UNL d   1       5.908   2.938  -3.257  0.00  0.00     0.018 C 
ENDBRANCH   1   8
TORSDOF 1
ENDMDL
