MODEL 1
REMARK minimizedAffinity 5.4030757
REMARK minimizedRMSD -1
REMARK  1 active torsions:
REMARK  status: ('A' for Active; 'I' for Inactive)
REMARK    1  A    between atoms: C1_2  and  C2_3 
ROOT
ATOM      1  C2  UNL d   1       2.522  -0.421   1.633  0.00  0.00    -0.081 A 
ATOM      2  C3  UNL d   1       2.004  -1.132   0.543  0.00  0.00     0.006 A 
ATOM      3  C4  UNL d   1       2.235  -0.694  -0.763  0.00  0.00     0.002 A 
ATOM      4  C5  UNL d   1       2.993   0.456  -1.002  0.00  0.00    -0.080 A 
ATOM      5  C6  UNL d   1       3.274   0.920  -2.401  0.00  0.00     0.076 C 
ATOM      6  C7  UNL d   1       3.497   1.177   0.086  0.00  0.00     0.002 A 
ATOM      7  C8  UNL d   1       3.266   0.740   1.393  0.00  0.00     0.006 A 
ENDROOT
BRANCH   1   8
ATOM      8  C1  UNL d   1       2.330  -0.926   3.040  0.00  0.00     0.054 C 
ATOM      9  C   UNL d   1       1.584  -2.253   3.054  0.00  0.00     0.018 C 
ENDBRANCH   1   8
TORSDOF 1
ENDMDL
