MODEL 1
REMARK minimizedAffinity 9.52733898
REMARK minimizedRMSD -1
REMARK  1 active torsions:
REMARK  status: ('A' for Active; 'I' for Inactive)
REMARK    1  A    between atoms: C1_2  and  C2_3 
ROOT
ATOM      1  C2  UNL d   1       5.197   2.112  -2.015  0.00  0.00    -0.081 A 
ATOM      2  C3  UNL d   1       4.090   1.327  -2.361  0.00  0.00     0.006 A 
ATOM      3  C4  UNL d   1       3.345   0.680  -1.373  0.00  0.00     0.002 A 
ATOM      4  C5  UNL d   1       3.688   0.812  -0.023  0.00  0.00    -0.080 A 
ATOM      5  C6  UNL d   1       2.879   0.147   1.050  0.00  0.00     0.076 C 
ATOM      6  C7  UNL d   1       4.805   1.582   0.321  0.00  0.00     0.002 A 
ATOM      7  C8  UNL d   1       5.551   2.229  -0.667  0.00  0.00     0.006 A 
ENDROOT
BRANCH   1   8
ATOM      8  C1  UNL d   1       5.964   2.863  -3.073  0.00  0.00     0.054 C 
ATOM      9  C   UNL d   1       5.537   4.323  -3.134  0.00  0.00     0.018 C 
ENDBRANCH   1   8
TORSDOF 1
ENDMDL
