MODEL 1
REMARK minimizedAffinity 3.03835106
REMARK minimizedRMSD -1
REMARK  1 active torsions:
REMARK  status: ('A' for Active; 'I' for Inactive)
REMARK    1  A    between atoms: C1_2  and  C2_3 
ROOT
ATOM      1  C2  UNL d   1       5.092   2.036  -1.903  0.00  0.00    -0.081 A 
ATOM      2  C3  UNL d   1       3.986   1.225  -2.188  0.00  0.00     0.006 A 
ATOM      3  C4  UNL d   1       3.238   0.659  -1.153  0.00  0.00     0.002 A 
ATOM      4  C5  UNL d   1       3.577   0.901   0.183  0.00  0.00    -0.080 A 
ATOM      5  C6  UNL d   1       2.764   0.324   1.304  0.00  0.00     0.076 C 
ATOM      6  C7  UNL d   1       4.692   1.697   0.467  0.00  0.00     0.002 A 
ATOM      7  C8  UNL d   1       5.441   2.262  -0.567  0.00  0.00     0.006 A 
ENDROOT
BRANCH   1   8
ATOM      8  C1  UNL d   1       5.861   2.700  -3.016  0.00  0.00     0.054 C 
ATOM      9  C   UNL d   1       5.520   4.180  -3.118  0.00  0.00     0.018 C 
ENDBRANCH   1   8
TORSDOF 1
ENDMDL
