MODEL 1
REMARK minimizedAffinity 8.37016964
REMARK minimizedRMSD -1
REMARK  0 active torsions:
REMARK  status: ('A' for Active; 'I' for Inactive)
ROOT
ATOM      1  C4' PXY d   1       2.453   0.955  -0.844  0.00  0.00     0.077 C 
ATOM      2  C1' PXY d   1      -2.908   1.885   1.108  0.00  0.00     0.077 C 
ATOM      3  C1  PXY d   1      -1.504   1.650   0.587  0.00  0.00    -0.082 A 
ATOM      4  C2  PXY d   1      -0.896   0.502   0.839  0.00  0.00     0.003 A 
ATOM      5  C3  PXY d   1       0.385   0.286   0.403  0.00  0.00     0.003 A 
ATOM      6  C4  PXY d   1       1.032   1.233  -0.345  0.00  0.00    -0.082 A 
ATOM      7  C5  PXY d   1       0.415   2.402  -0.616  0.00  0.00     0.003 A 
ATOM      8  C6  PXY d   1      -0.871   2.619  -0.129  0.00  0.00     0.003 A 
ENDROOT
TORSDOF 0
ENDMDL
