MODEL 1
REMARK minimizedAffinity 8.05253315
REMARK minimizedRMSD -1
REMARK  0 active torsions:
REMARK  status: ('A' for Active; 'I' for Inactive)
ROOT
ATOM      1  C4' PXY d   1      -3.225  -0.497   2.136  0.00  0.00     0.077 C 
ATOM      2  C1' PXY d   1      -0.386   2.943  -1.541  0.00  0.00     0.077 C 
ATOM      3  C1  PXY d   1      -1.142   2.044  -0.583  0.00  0.00    -0.082 A 
ATOM      4  C2  PXY d   1      -0.625   1.772   0.605  0.00  0.00     0.003 A 
ATOM      5  C3  PXY d   1      -1.280   0.935   1.471  0.00  0.00     0.003 A 
ATOM      6  C4  PXY d   1      -2.501   0.413   1.140  0.00  0.00    -0.082 A 
ATOM      7  C5  PXY d   1      -3.041   0.694  -0.065  0.00  0.00     0.003 A 
ATOM      8  C6  PXY d   1      -2.341   1.513  -0.947  0.00  0.00     0.003 A 
ENDROOT
TORSDOF 0
ENDMDL
