MODEL 1
REMARK minimizedAffinity -1.49669814
REMARK minimizedRMSD -1
REMARK  0 active torsions:
REMARK  status: ('A' for Active; 'I' for Inactive)
ROOT
ATOM      1  C4' PXY d   1      -5.919   6.000  -5.994  0.00  0.00     0.077 C 
ATOM      2  C1' PXY d   1      -1.159   2.721  -5.981  0.00  0.00     0.077 C 
ATOM      3  C1  PXY d   1      -2.400   3.591  -5.979  0.00  0.00    -0.082 A 
ATOM      4  C2  PXY d   1      -3.596   3.024  -5.968  0.00  0.00     0.003 A 
ATOM      5  C3  PXY d   1      -4.729   3.795  -5.998  0.00  0.00     0.003 A 
ATOM      6  C4  PXY d   1      -4.638   5.161  -5.987  0.00  0.00    -0.082 A 
ATOM      7  C5  PXY d   1      -3.422   5.747  -5.988  0.00  0.00     0.003 A 
ATOM      8  C6  PXY d   1      -2.284   4.946  -5.999  0.00  0.00     0.003 A 
ENDROOT
TORSDOF 0
ENDMDL
