MODEL 1
REMARK minimizedAffinity 5.67124128
REMARK minimizedRMSD -1
REMARK  0 active torsions:
REMARK  status: ('A' for Active; 'I' for Inactive)
ROOT
ATOM      1  C4' PXY d   1      -0.178   2.295  -5.995  0.00  0.00     0.077 C 
ATOM      2  C1' PXY d   1      -4.615   5.998  -5.875  0.00  0.00     0.077 C 
ATOM      3  C1  PXY d   1      -3.444   5.037  -5.911  0.00  0.00    -0.082 A 
ATOM      4  C2  PXY d   1      -3.668   3.735  -5.997  0.00  0.00     0.003 A 
ATOM      5  C3  PXY d   1      -2.621   2.850  -5.999  0.00  0.00     0.003 A 
ATOM      6  C4  PXY d   1      -1.330   3.303  -5.965  0.00  0.00    -0.082 A 
ATOM      7  C5  PXY d   1      -1.092   4.630  -5.888  0.00  0.00     0.003 A 
ATOM      8  C6  PXY d   1      -2.170   5.510  -5.846  0.00  0.00     0.003 A 
ENDROOT
TORSDOF 0
ENDMDL
