MODEL 1
REMARK minimizedAffinity 7.97981596
REMARK minimizedRMSD -1
REMARK  0 active torsions:
REMARK  status: ('A' for Active; 'I' for Inactive)
ROOT
ATOM      1  C4' PXY d   1       0.750   2.013  -5.993  0.00  0.00     0.077 C 
ATOM      2  C1' PXY d   1      -4.521   4.388  -5.980  0.00  0.00     0.077 C 
ATOM      3  C1  PXY d   1      -3.143   3.755  -5.979  0.00  0.00    -0.082 A 
ATOM      4  C2  PXY d   1      -2.068   4.526  -5.968  0.00  0.00     0.003 A 
ATOM      5  C3  PXY d   1      -0.815   3.970  -5.998  0.00  0.00     0.003 A 
ATOM      6  C4  PXY d   1      -0.661   2.610  -5.986  0.00  0.00    -0.082 A 
ATOM      7  C5  PXY d   1      -1.752   1.816  -5.986  0.00  0.00     0.003 A 
ATOM      8  C6  PXY d   1      -3.016   2.400  -5.997  0.00  0.00     0.003 A 
ENDROOT
TORSDOF 0
ENDMDL
