MODEL 1
REMARK minimizedAffinity 3.0741868
REMARK minimizedRMSD -1
REMARK  0 active torsions:
REMARK  status: ('A' for Active; 'I' for Inactive)
ROOT
ATOM      1  C4' PXY d   1       0.065   2.023  -5.999  0.00  0.00     0.077 C 
ATOM      2  C1' PXY d   1      -3.589   5.999  -3.936  0.00  0.00     0.077 C 
ATOM      3  C1  PXY d   1      -2.640   4.949  -4.480  0.00  0.00    -0.082 A 
ATOM      4  C2  PXY d   1      -1.397   4.894  -4.030  0.00  0.00     0.003 A 
ATOM      5  C3  PXY d   1      -0.518   3.971  -4.535  0.00  0.00     0.003 A 
ATOM      6  C4  PXY d   1      -0.929   3.061  -5.471  0.00  0.00    -0.082 A 
ATOM      7  C5  PXY d   1      -2.199   3.104  -5.928  0.00  0.00     0.003 A 
ATOM      8  C6  PXY d   1      -3.065   4.075  -5.433  0.00  0.00     0.003 A 
ENDROOT
TORSDOF 0
ENDMDL
