MODEL 1
REMARK minimizedAffinity 6.64917898
REMARK minimizedRMSD -1
REMARK  0 active torsions:
REMARK  status: ('A' for Active; 'I' for Inactive)
ROOT
ATOM      1  C4' PXY d   1      -0.749   0.205   1.422  0.00  0.00     0.077 C 
ATOM      2  C1' PXY d   1       3.217  -0.666  -2.693  0.00  0.00     0.077 C 
ATOM      3  C1  PXY d   1       2.185  -0.430  -1.608  0.00  0.00    -0.082 A 
ATOM      4  C2  PXY d   1       1.263  -1.348  -1.370  0.00  0.00     0.003 A 
ATOM      5  C3  PXY d   1       0.303  -1.136  -0.414  0.00  0.00     0.003 A 
ATOM      6  C4  PXY d   1       0.319   0.004   0.343  0.00  0.00    -0.082 A 
ATOM      7  C5  PXY d   1       1.263   0.942   0.114  0.00  0.00     0.003 A 
ATOM      8  C6  PXY d   1       2.204   0.726  -0.889  0.00  0.00     0.003 A 
ENDROOT
TORSDOF 0
ENDMDL
