MODEL 1
REMARK minimizedAffinity -1.63045466
REMARK minimizedRMSD -1
REMARK  0 active torsions:
REMARK  status: ('A' for Active; 'I' for Inactive)
ROOT
ATOM      1  C4' PXY d   1      -5.923   6.000  -5.930  0.00  0.00     0.077 C 
ATOM      2  C1' PXY d   1      -1.163   2.721  -5.998  0.00  0.00     0.077 C 
ATOM      3  C1  PXY d   1      -2.404   3.591  -5.975  0.00  0.00    -0.082 A 
ATOM      4  C2  PXY d   1      -3.600   3.024  -5.940  0.00  0.00     0.003 A 
ATOM      5  C3  PXY d   1      -4.733   3.795  -5.951  0.00  0.00     0.003 A 
ATOM      6  C4  PXY d   1      -4.642   5.161  -5.945  0.00  0.00    -0.082 A 
ATOM      7  C5  PXY d   1      -3.426   5.747  -5.970  0.00  0.00     0.003 A 
ATOM      8  C6  PXY d   1      -2.288   4.946  -6.000  0.00  0.00     0.003 A 
ENDROOT
TORSDOF 0
ENDMDL
