MODEL 1
REMARK minimizedAffinity 2.60507798
REMARK minimizedRMSD -1
REMARK  0 active torsions:
REMARK  status: ('A' for Active; 'I' for Inactive)
ROOT
ATOM      1  C4' PXY d   1      -3.823   5.112  -3.745  0.00  0.00     0.077 C 
ATOM      2  C1' PXY d   1       0.662   2.242  -5.995  0.00  0.00     0.077 C 
ATOM      3  C1  PXY d   1      -0.520   2.994  -5.416  0.00  0.00    -0.082 A 
ATOM      4  C2  PXY d   1      -0.355   3.742  -4.337  0.00  0.00     0.003 A 
ATOM      5  C3  PXY d   1      -1.420   4.404  -3.783  0.00  0.00     0.003 A 
ATOM      6  C4  PXY d   1      -2.656   4.342  -4.369  0.00  0.00    -0.082 A 
ATOM      7  C5  PXY d   1      -2.830   3.590  -5.476  0.00  0.00     0.003 A 
ATOM      8  C6  PXY d   1      -1.745   2.893  -6.000  0.00  0.00     0.003 A 
ENDROOT
TORSDOF 0
ENDMDL
