MODEL 1
REMARK minimizedAffinity 13.1348848
REMARK minimizedRMSD -1
REMARK  0 active torsions:
REMARK  status: ('A' for Active; 'I' for Inactive)
ROOT
ATOM      1  C4' PXY d   1       2.359   0.591  -1.010  0.00  0.00     0.077 C 
ATOM      2  C1' PXY d   1      -2.893   1.938   0.994  0.00  0.00     0.077 C 
ATOM      3  C1  PXY d   1      -1.517   1.593   0.459  0.00  0.00    -0.082 A 
ATOM      4  C2  PXY d   1      -0.992   0.407   0.719  0.00  0.00     0.003 A 
ATOM      5  C3  PXY d   1       0.264   0.091   0.270  0.00  0.00     0.003 A 
ATOM      6  C4  PXY d   1       0.969   0.979  -0.498  0.00  0.00    -0.082 A 
ATOM      7  C5  PXY d   1       0.436   2.187  -0.777  0.00  0.00     0.003 A 
ATOM      8  C6  PXY d   1      -0.824   2.504  -0.277  0.00  0.00     0.003 A 
ENDROOT
TORSDOF 0
ENDMDL
