MODEL 1
REMARK minimizedAffinity 8.62502384
REMARK minimizedRMSD -1
REMARK  0 active torsions:
REMARK  status: ('A' for Active; 'I' for Inactive)
ROOT
ATOM      1  C4' PXY d   1       2.758   2.664   1.868  0.00  0.00     0.077 C 
ATOM      2  C1' PXY d   1      -2.565   3.351   4.015  0.00  0.00     0.077 C 
ATOM      3  C1  PXY d   1      -1.174   3.163   3.442  0.00  0.00    -0.082 A 
ATOM      4  C2  PXY d   1      -0.120   3.277   4.234  0.00  0.00     0.003 A 
ATOM      5  C3  PXY d   1       1.146   3.142   3.726  0.00  0.00     0.003 A 
ATOM      6  C4  PXY d   1       1.334   2.835   2.405  0.00  0.00    -0.082 A 
ATOM      7  C5  PXY d   1       0.263   2.707   1.593  0.00  0.00     0.003 A 
ATOM      8  C6  PXY d   1      -1.012   2.888   2.120  0.00  0.00     0.003 A 
ENDROOT
TORSDOF 0
ENDMDL
