MODEL 1
REMARK minimizedAffinity 2.80378795
REMARK minimizedRMSD -1
REMARK  0 active torsions:
REMARK  status: ('A' for Active; 'I' for Inactive)
ROOT
ATOM      1  C4' PXY d   1      -3.743   5.931  -5.968  0.00  0.00     0.077 C 
ATOM      2  C1' PXY d   1       0.304   1.803  -5.997  0.00  0.00     0.077 C 
ATOM      3  C1  PXY d   1      -0.765   2.878  -5.995  0.00  0.00    -0.082 A 
ATOM      4  C2  PXY d   1      -0.412   4.153  -5.987  0.00  0.00     0.003 A 
ATOM      5  C3  PXY d   1      -1.367   5.137  -5.952  0.00  0.00     0.003 A 
ATOM      6  C4  PXY d   1      -2.697   4.813  -5.980  0.00  0.00    -0.082 A 
ATOM      7  C5  PXY d   1      -3.065   3.514  -5.999  0.00  0.00     0.003 A 
ATOM      8  C6  PXY d   1      -2.081   2.530  -5.992  0.00  0.00     0.003 A 
ENDROOT
TORSDOF 0
ENDMDL
