MODEL 1
REMARK minimizedAffinity 6.41497898
REMARK minimizedRMSD -1
REMARK  0 active torsions:
REMARK  status: ('A' for Active; 'I' for Inactive)
ROOT
ATOM      1  C4' PXY d   1       0.683   2.174  -5.902  0.00  0.00     0.077 C 
ATOM      2  C1' PXY d   1      -3.768   5.860  -6.000  0.00  0.00     0.077 C 
ATOM      3  C1  PXY d   1      -2.609   4.884  -5.969  0.00  0.00    -0.082 A 
ATOM      4  C2  PXY d   1      -1.368   5.343  -5.981  0.00  0.00     0.003 A 
ATOM      5  C3  PXY d   1      -0.307   4.474  -5.986  0.00  0.00     0.003 A 
ATOM      6  C4  PXY d   1      -0.519   3.122  -5.923  0.00  0.00    -0.082 A 
ATOM      7  C5  PXY d   1      -1.782   2.647  -5.899  0.00  0.00     0.003 A 
ATOM      8  C6  PXY d   1      -2.845   3.545  -5.936  0.00  0.00     0.003 A 
ENDROOT
TORSDOF 0
ENDMDL
