MODEL 1
REMARK minimizedAffinity 15.0181522
REMARK minimizedRMSD -1
REMARK  0 active torsions:
REMARK  status: ('A' for Active; 'I' for Inactive)
ROOT
ATOM      1  C4' PXY d   1      -2.747   1.739   1.105  0.00  0.00     0.077 C 
ATOM      2  C1' PXY d   1       2.420   0.488  -1.165  0.00  0.00     0.077 C 
ATOM      3  C1  PXY d   1       1.068   0.829  -0.570  0.00  0.00    -0.082 A 
ATOM      4  C2  PXY d   1       0.401  -0.091   0.108  0.00  0.00     0.003 A 
ATOM      5  C3  PXY d   1      -0.837   0.190   0.626  0.00  0.00     0.003 A 
ATOM      6  C4  PXY d   1      -1.375   1.442   0.494  0.00  0.00    -0.082 A 
ATOM      7  C5  PXY d   1      -0.696   2.390  -0.187  0.00  0.00     0.003 A 
ATOM      8  C6  PXY d   1       0.541   2.072  -0.740  0.00  0.00     0.003 A 
ENDROOT
TORSDOF 0
ENDMDL
