MODEL 1
REMARK minimizedAffinity 4.74124813
REMARK minimizedRMSD -1
REMARK  0 active torsions:
REMARK  status: ('A' for Active; 'I' for Inactive)
ROOT
ATOM      1  C4' PXY d   1       2.494   1.139  -0.495  0.00  0.00     0.077 C 
ATOM      2  C1' PXY d   1      -2.957   0.862   1.408  0.00  0.00     0.077 C 
ATOM      3  C1  PXY d   1      -1.530   0.946   0.902  0.00  0.00    -0.082 A 
ATOM      4  C2  PXY d   1      -0.781  -0.145   0.875  0.00  0.00     0.003 A 
ATOM      5  C3  PXY d   1       0.521  -0.081   0.451  0.00  0.00     0.003 A 
ATOM      6  C4  PXY d   1       1.046   1.100  -0.001  0.00  0.00    -0.082 A 
ATOM      7  C5  PXY d   1       0.284   2.215   0.013  0.00  0.00     0.003 A 
ATOM      8  C6  PXY d   1      -1.022   2.138   0.486  0.00  0.00     0.003 A 
ENDROOT
TORSDOF 0
ENDMDL
