MODEL 1
REMARK minimizedAffinity -1.21325421
REMARK minimizedRMSD -1
REMARK  0 active torsions:
REMARK  status: ('A' for Active; 'I' for Inactive)
ROOT
ATOM      1  C4' PXY d   1      -4.781   3.900  -5.999  0.00  0.00     0.077 C 
ATOM      2  C1' PXY d   1       0.997   3.744  -5.975  0.00  0.00     0.077 C 
ATOM      3  C1  PXY d   1      -0.519   3.773  -5.987  0.00  0.00    -0.082 A 
ATOM      4  C2  PXY d   1      -1.150   4.935  -5.995  0.00  0.00     0.003 A 
ATOM      5  C3  PXY d   1      -2.521   4.980  -5.973  0.00  0.00     0.003 A 
ATOM      6  C4  PXY d   1      -3.252   3.823  -5.997  0.00  0.00    -0.082 A 
ATOM      7  C5  PXY d   1      -2.615   2.633  -6.000  0.00  0.00     0.003 A 
ATOM      8  C6  PXY d   1      -1.223   2.609  -5.980  0.00  0.00     0.003 A 
ENDROOT
TORSDOF 0
ENDMDL
