MODEL 1
REMARK minimizedAffinity 7.02663851
REMARK minimizedRMSD -1
REMARK  0 active torsions:
REMARK  status: ('A' for Active; 'I' for Inactive)
ROOT
ATOM      1  C4' PXY d   1      -5.754  -5.325   0.707  0.00  0.00     0.077 C 
ATOM      2  C1' PXY d   1      -0.838  -4.014  -2.037  0.00  0.00     0.077 C 
ATOM      3  C1  PXY d   1      -2.128  -4.369  -1.324  0.00  0.00    -0.082 A 
ATOM      4  C2  PXY d   1      -2.885  -3.406  -0.823  0.00  0.00     0.003 A 
ATOM      5  C3  PXY d   1      -4.038  -3.711  -0.147  0.00  0.00     0.003 A 
ATOM      6  C4  PXY d   1      -4.448  -5.012  -0.029  0.00  0.00    -0.082 A 
ATOM      7  C5  PXY d   1      -3.687  -6.000  -0.547  0.00  0.00     0.003 A 
ATOM      8  C6  PXY d   1      -2.499  -5.672  -1.193  0.00  0.00     0.003 A 
ENDROOT
TORSDOF 0
ENDMDL
