MODEL 1
REMARK minimizedAffinity 11.6908398
REMARK minimizedRMSD -1
REMARK  0 active torsions:
REMARK  status: ('A' for Active; 'I' for Inactive)
ROOT
ATOM      1  C4' PXY d   1      -2.447   0.432   0.990  0.00  0.00     0.077 C 
ATOM      2  C1' PXY d   1       3.004   1.502  -0.612  0.00  0.00     0.077 C 
ATOM      3  C1  PXY d   1       1.573   1.234  -0.187  0.00  0.00    -0.082 A 
ATOM      4  C2  PXY d   1       1.183  -0.008   0.049  0.00  0.00     0.003 A 
ATOM      5  C3  PXY d   1      -0.115  -0.272   0.403  0.00  0.00     0.003 A 
ATOM      6  C4  PXY d   1      -1.010   0.751   0.568  0.00  0.00    -0.082 A 
ATOM      7  C5  PXY d   1      -0.616   2.022   0.340  0.00  0.00     0.003 A 
ATOM      8  C6  PXY d   1       0.695   2.265  -0.058  0.00  0.00     0.003 A 
ENDROOT
TORSDOF 0
ENDMDL
