MODEL 1
REMARK minimizedAffinity 0.750237048
REMARK minimizedRMSD -1
REMARK  0 active torsions:
REMARK  status: ('A' for Active; 'I' for Inactive)
ROOT
ATOM      1  C4' PXY d   1      -2.067   2.632  -5.993  0.00  0.00     0.077 C 
ATOM      2  C1' PXY d   1       3.213   4.963  -5.675  0.00  0.00     0.077 C 
ATOM      3  C1  PXY d   1       1.833   4.341  -5.765  0.00  0.00    -0.082 A 
ATOM      4  C2  PXY d   1       0.762   5.115  -5.697  0.00  0.00     0.003 A 
ATOM      5  C3  PXY d   1      -0.494   4.566  -5.745  0.00  0.00     0.003 A 
ATOM      6  C4  PXY d   1      -0.654   3.217  -5.917  0.00  0.00    -0.082 A 
ATOM      7  C5  PXY d   1       0.434   2.423  -5.998  0.00  0.00     0.003 A 
ATOM      8  C6  PXY d   1       1.699   2.995  -5.906  0.00  0.00     0.003 A 
ENDROOT
TORSDOF 0
ENDMDL
