MODEL 1
REMARK minimizedAffinity 3.24797821
REMARK minimizedRMSD -1
REMARK  0 active torsions:
REMARK  status: ('A' for Active; 'I' for Inactive)
ROOT
ATOM      1  C4' PXY d   1      -4.143   3.016  -5.977  0.00  0.00     0.077 C 
ATOM      2  C1' PXY d   1       1.602   3.660  -6.000  0.00  0.00     0.077 C 
ATOM      3  C1  PXY d   1       0.097   3.479  -5.999  0.00  0.00    -0.082 A 
ATOM      4  C2  PXY d   1      -0.690   4.543  -5.999  0.00  0.00     0.003 A 
ATOM      5  C3  PXY d   1      -2.053   4.398  -5.966  0.00  0.00     0.003 A 
ATOM      6  C4  PXY d   1      -2.617   3.151  -5.987  0.00  0.00    -0.082 A 
ATOM      7  C5  PXY d   1      -1.822   2.060  -5.998  0.00  0.00     0.003 A 
ATOM      8  C6  PXY d   1      -0.440   2.229  -5.990  0.00  0.00     0.003 A 
ENDROOT
TORSDOF 0
ENDMDL
