MODEL 1
REMARK minimizedAffinity -3.32582402
REMARK minimizedRMSD -1
REMARK  0 active torsions:
REMARK  status: ('A' for Active; 'I' for Inactive)
ROOT
ATOM      1  C1  BNZ d   1       3.031  -0.797  -2.574  0.00  0.00     0.000 A 
ATOM      2  C2  BNZ d   1       3.744   0.347  -2.815  0.00  0.00     0.000 A 
ATOM      3  C3  BNZ d   1       3.919   1.282  -1.834  0.00  0.00     0.000 A 
ATOM      4  C4  BNZ d   1       3.348   1.092  -0.627  0.00  0.00     0.000 A 
ATOM      5  C5  BNZ d   1       2.619  -0.052  -0.371  0.00  0.00     0.000 A 
ATOM      6  C6  BNZ d   1       2.477  -1.010  -1.349  0.00  0.00     0.000 A 
ENDROOT
TORSDOF 0
ENDMDL
