MODEL 1
REMARK minimizedAffinity -4.34311676
REMARK minimizedRMSD -1
REMARK  0 active torsions:
REMARK  status: ('A' for Active; 'I' for Inactive)
ROOT
ATOM      1  C1  BNZ d   1      -4.760   0.718  -4.437  0.00  0.00     0.000 A 
ATOM      2  C2  BNZ d   1      -5.742   1.442  -3.814  0.00  0.00     0.000 A 
ATOM      3  C3  BNZ d   1      -5.444   2.601  -3.153  0.00  0.00     0.000 A 
ATOM      4  C4  BNZ d   1      -4.162   3.014  -3.083  0.00  0.00     0.000 A 
ATOM      5  C5  BNZ d   1      -3.160   2.290  -3.698  0.00  0.00     0.000 A 
ATOM      6  C6  BNZ d   1      -3.468   1.144  -4.395  0.00  0.00     0.000 A 
ENDROOT
TORSDOF 0
ENDMDL
