MODEL 1
REMARK minimizedAffinity -4.08949947
REMARK minimizedRMSD -1
REMARK  0 active torsions:
REMARK  status: ('A' for Active; 'I' for Inactive)
ROOT
ATOM      1  C1  BNZ d   1      -3.379   2.139  -3.449  0.00  0.00     0.000 A 
ATOM      2  C2  BNZ d   1      -3.449   1.045  -4.268  0.00  0.00     0.000 A 
ATOM      3  C3  BNZ d   1      -4.622   0.704  -4.882  0.00  0.00     0.000 A 
ATOM      4  C4  BNZ d   1      -5.731   1.434  -4.644  0.00  0.00     0.000 A 
ATOM      5  C5  BNZ d   1      -5.678   2.535  -3.813  0.00  0.00     0.000 A 
ATOM      6  C6  BNZ d   1      -4.487   2.898  -3.228  0.00  0.00     0.000 A 
ENDROOT
TORSDOF 0
ENDMDL
