MODEL 1
REMARK minimizedAffinity -1.75539815
REMARK minimizedRMSD -1
REMARK  0 active torsions:
REMARK  status: ('A' for Active; 'I' for Inactive)
ROOT
ATOM      1  C1  BNZ d   1       2.383   1.584   0.818  0.00  0.00     0.000 A 
ATOM      2  C2  BNZ d   1       2.996   1.169  -0.334  0.00  0.00     0.000 A 
ATOM      3  C3  BNZ d   1       4.330   1.390  -0.536  0.00  0.00     0.000 A 
ATOM      4  C4  BNZ d   1       5.039   2.060   0.394  0.00  0.00     0.000 A 
ATOM      5  C5  BNZ d   1       4.434   2.494   1.557  0.00  0.00     0.000 A 
ATOM      6  C6  BNZ d   1       3.100   2.235   1.774  0.00  0.00     0.000 A 
ENDROOT
TORSDOF 0
ENDMDL
