MODEL 1
REMARK minimizedAffinity 0.70847863
REMARK minimizedRMSD -1
REMARK  0 active torsions:
REMARK  status: ('A' for Active; 'I' for Inactive)
ROOT
ATOM      1  C1  BNZ d   1      -5.734   4.791   4.120  0.00  0.00     0.000 A 
ATOM      2  C2  BNZ d   1      -5.937   3.608   3.461  0.00  0.00     0.000 A 
ATOM      3  C3  BNZ d   1      -5.999   3.569   2.096  0.00  0.00     0.000 A 
ATOM      4  C4  BNZ d   1      -5.898   4.716   1.395  0.00  0.00     0.000 A 
ATOM      5  C5  BNZ d   1      -5.702   5.918   2.045  0.00  0.00     0.000 A 
ATOM      6  C6  BNZ d   1      -5.601   5.949   3.417  0.00  0.00     0.000 A 
ENDROOT
TORSDOF 0
ENDMDL
