MODEL 1
REMARK minimizedAffinity -2.41895604
REMARK minimizedRMSD -1
REMARK  0 active torsions:
REMARK  status: ('A' for Active; 'I' for Inactive)
ROOT
ATOM      1  C1  BNZ d   1      -3.136   1.307  -3.383  0.00  0.00     0.000 A 
ATOM      2  C2  BNZ d   1      -4.033   2.100  -2.718  0.00  0.00     0.000 A 
ATOM      3  C3  BNZ d   1      -5.378   1.944  -2.904  0.00  0.00     0.000 A 
ATOM      4  C4  BNZ d   1      -5.824   1.024  -3.783  0.00  0.00     0.000 A 
ATOM      5  C5  BNZ d   1      -4.932   0.223  -4.469  0.00  0.00     0.000 A 
ATOM      6  C6  BNZ d   1      -3.580   0.356  -4.250  0.00  0.00     0.000 A 
ENDROOT
TORSDOF 0
ENDMDL
