MODEL 1
REMARK minimizedAffinity -2.61316538
REMARK minimizedRMSD -1
REMARK  0 active torsions:
REMARK  status: ('A' for Active; 'I' for Inactive)
ROOT
ATOM      1  C1  BNZ d   1       2.973  -0.745   0.407  0.00  0.00     0.000 A 
ATOM      2  C2  BNZ d   1       3.667   0.410   0.163  0.00  0.00     0.000 A 
ATOM      3  C3  BNZ d   1       3.980   0.782  -1.115  0.00  0.00     0.000 A 
ATOM      4  C4  BNZ d   1       3.634  -0.020  -2.143  0.00  0.00     0.000 A 
ATOM      5  C5  BNZ d   1       2.942  -1.193  -1.912  0.00  0.00     0.000 A 
ATOM      6  C6  BNZ d   1       2.594  -1.544  -0.628  0.00  0.00     0.000 A 
ENDROOT
TORSDOF 0
ENDMDL
