MODEL 1
REMARK minimizedAffinity -3.37584949
REMARK minimizedRMSD -1
REMARK  0 active torsions:
REMARK  status: ('A' for Active; 'I' for Inactive)
ROOT
ATOM      1  C1  BNZ d   1      -5.267   2.595  -3.566  0.00  0.00     0.000 A 
ATOM      2  C2  BNZ d   1      -3.916   2.814  -3.563  0.00  0.00     0.000 A 
ATOM      3  C3  BNZ d   1      -3.037   1.768  -3.617  0.00  0.00     0.000 A 
ATOM      4  C4  BNZ d   1      -3.510   0.505  -3.633  0.00  0.00     0.000 A 
ATOM      5  C5  BNZ d   1      -4.870   0.268  -3.627  0.00  0.00     0.000 A 
ATOM      6  C6  BNZ d   1      -5.752   1.324  -3.612  0.00  0.00     0.000 A 
ENDROOT
TORSDOF 0
ENDMDL
