MODEL 1
REMARK minimizedAffinity -1.10736775
REMARK minimizedRMSD -1
REMARK  0 active torsions:
REMARK  status: ('A' for Active; 'I' for Inactive)
ROOT
ATOM      1  C1  BNZ d   1      -4.537   0.003  -3.497  0.00  0.00     0.000 A 
ATOM      2  C2  BNZ d   1      -4.540  -0.343  -2.172  0.00  0.00     0.000 A 
ATOM      3  C3  BNZ d   1      -5.288   0.358  -1.268  0.00  0.00     0.000 A 
ATOM      4  C4  BNZ d   1      -6.000   1.426  -1.682  0.00  0.00     0.000 A 
ATOM      5  C5  BNZ d   1      -6.000   1.792  -3.013  0.00  0.00     0.000 A 
ATOM      6  C6  BNZ d   1      -5.276   1.061  -3.927  0.00  0.00     0.000 A 
ENDROOT
TORSDOF 0
ENDMDL
