MODEL 1
REMARK minimizedAffinity 0.325525016
REMARK minimizedRMSD -1
REMARK  0 active torsions:
REMARK  status: ('A' for Active; 'I' for Inactive)
ROOT
ATOM      1  C1  BNZ d   1       0.503  -2.632  -0.800  0.00  0.00     0.000 A 
ATOM      2  C2  BNZ d   1      -0.611  -1.838  -0.871  0.00  0.00     0.000 A 
ATOM      3  C3  BNZ d   1      -0.499  -0.476  -0.887  0.00  0.00     0.000 A 
ATOM      4  C4  BNZ d   1       0.722   0.090  -0.792  0.00  0.00     0.000 A 
ATOM      5  C5  BNZ d   1       1.853  -0.697  -0.711  0.00  0.00     0.000 A 
ATOM      6  C6  BNZ d   1       1.739  -2.068  -0.734  0.00  0.00     0.000 A 
ENDROOT
TORSDOF 0
ENDMDL
