MODEL 1
REMARK minimizedAffinity 13.358532
REMARK minimizedRMSD -1
REMARK  0 active torsions:
REMARK  status: ('A' for Active; 'I' for Inactive)
ROOT
ATOM      1  C2' OXE d   1       2.850  -4.752  -0.397  0.00  0.00     0.078 C 
ATOM      2  C1' OXE d   1       0.866  -4.491  -2.365  0.00  0.00     0.078 C 
ATOM      3  C1  OXE d   1       1.446  -3.228  -1.779  0.00  0.00    -0.078 A 
ATOM      4  C2  OXE d   1       2.383  -3.365  -0.784  0.00  0.00    -0.078 A 
ATOM      5  C3  OXE d   1       2.991  -2.233  -0.248  0.00  0.00     0.003 A 
ATOM      6  C4  OXE d   1       2.546  -0.954  -0.604  0.00  0.00    -0.002 A 
ATOM      7  C5  OXE d   1       1.564  -0.792  -1.587  0.00  0.00    -0.002 A 
ATOM      8  C6  OXE d   1       1.036  -1.916  -2.214  0.00  0.00     0.003 A 
ENDROOT
TORSDOF 0
ENDMDL
