MODEL 1
REMARK minimizedAffinity 11.0434284
REMARK minimizedRMSD -1
REMARK  0 active torsions:
REMARK  status: ('A' for Active; 'I' for Inactive)
ROOT
ATOM      1  C2' OXE d   1       3.048  -6.000  -1.935  0.00  0.00     0.078 C 
ATOM      2  C1' OXE d   1       1.015  -5.209  -3.702  0.00  0.00     0.078 C 
ATOM      3  C1  OXE d   1       1.584  -4.166  -2.773  0.00  0.00    -0.078 A 
ATOM      4  C2  OXE d   1       2.546  -4.573  -1.879  0.00  0.00    -0.078 A 
ATOM      5  C3  OXE d   1       3.143  -3.640  -1.037  0.00  0.00     0.003 A 
ATOM      6  C4  OXE d   1       2.666  -2.325  -0.984  0.00  0.00    -0.002 A 
ATOM      7  C5  OXE d   1       1.660  -1.899  -1.858  0.00  0.00    -0.002 A 
ATOM      8  C6  OXE d   1       1.139  -2.795  -2.786  0.00  0.00     0.003 A 
ENDROOT
TORSDOF 0
ENDMDL
