MODEL 1
REMARK minimizedAffinity 5.46084023
REMARK minimizedRMSD -1
REMARK  0 active torsions:
REMARK  status: ('A' for Active; 'I' for Inactive)
ROOT
ATOM      1  C2' OXE d   1      -5.006  -1.499  -5.999  0.00  0.00     0.078 C 
ATOM      2  C1' OXE d   1      -2.989  -0.972  -4.119  0.00  0.00     0.078 C 
ATOM      3  C1  OXE d   1      -3.150  -2.393  -4.599  0.00  0.00    -0.078 A 
ATOM      4  C2  OXE d   1      -4.170  -2.650  -5.484  0.00  0.00    -0.078 A 
ATOM      5  C3  OXE d   1      -4.328  -3.933  -6.000  0.00  0.00     0.003 A 
ATOM      6  C4  OXE d   1      -3.556  -4.994  -5.510  0.00  0.00    -0.002 A 
ATOM      7  C5  OXE d   1      -2.538  -4.761  -4.579  0.00  0.00    -0.002 A 
ATOM      8  C6  OXE d   1      -2.295  -3.463  -4.147  0.00  0.00     0.003 A 
ENDROOT
TORSDOF 0
ENDMDL
