MODEL 1
REMARK minimizedAffinity 18.8345795
REMARK minimizedRMSD -1
REMARK  0 active torsions:
REMARK  status: ('A' for Active; 'I' for Inactive)
ROOT
ATOM      1  C2' OXE d   1       0.509   4.162   1.431  0.00  0.00     0.078 C 
ATOM      2  C1' OXE d   1       1.365   4.607  -1.205  0.00  0.00     0.078 C 
ATOM      3  C1  OXE d   1       2.062   3.530  -0.411  0.00  0.00    -0.078 A 
ATOM      4  C2  OXE d   1       1.668   3.351   0.893  0.00  0.00    -0.078 A 
ATOM      5  C3  OXE d   1       2.241   2.335   1.652  0.00  0.00     0.003 A 
ATOM      6  C4  OXE d   1       3.319   1.596   1.150  0.00  0.00    -0.002 A 
ATOM      7  C5  OXE d   1       3.762   1.790  -0.162  0.00  0.00    -0.002 A 
ATOM      8  C6  OXE d   1       3.117   2.721  -0.969  0.00  0.00     0.003 A 
ENDROOT
TORSDOF 0
ENDMDL
