MODEL 1
REMARK minimizedAffinity 8.46154213
REMARK minimizedRMSD -1
REMARK  0 active torsions:
REMARK  status: ('A' for Active; 'I' for Inactive)
ROOT
ATOM      1  C2' OXE d   1       1.285   0.401  -2.998  0.00  0.00     0.078 C 
ATOM      2  C1' OXE d   1       2.926   1.196  -0.864  0.00  0.00     0.078 C 
ATOM      3  C1  OXE d   1       2.629  -0.275  -1.012  0.00  0.00    -0.078 A 
ATOM      4  C2  OXE d   1       1.788  -0.650  -2.032  0.00  0.00    -0.078 A 
ATOM      5  C3  OXE d   1       1.525  -2.000  -2.246  0.00  0.00     0.003 A 
ATOM      6  C4  OXE d   1       1.985  -2.965  -1.342  0.00  0.00    -0.002 A 
ATOM      7  C5  OXE d   1       2.812  -2.600  -0.274  0.00  0.00    -0.002 A 
ATOM      8  C6  OXE d   1       3.177  -1.267  -0.120  0.00  0.00     0.003 A 
ENDROOT
TORSDOF 0
ENDMDL
