MODEL 1
REMARK minimizedAffinity 15.4498882
REMARK minimizedRMSD -1
REMARK  0 active torsions:
REMARK  status: ('A' for Active; 'I' for Inactive)
ROOT
ATOM      1  C2' OXE d   1      -0.756  -3.375  -3.741  0.00  0.00     0.078 C 
ATOM      2  C1' OXE d   1      -2.620  -5.217  -2.734  0.00  0.00     0.078 C 
ATOM      3  C1  OXE d   1      -3.044  -4.349  -3.893  0.00  0.00    -0.078 A 
ATOM      4  C2  OXE d   1      -2.142  -3.418  -4.349  0.00  0.00    -0.078 A 
ATOM      5  C3  OXE d   1      -2.462  -2.630  -5.450  0.00  0.00     0.003 A 
ATOM      6  C4  OXE d   1      -3.749  -2.668  -6.000  0.00  0.00    -0.002 A 
ATOM      7  C5  OXE d   1      -4.696  -3.581  -5.525  0.00  0.00    -0.002 A 
ATOM      8  C6  OXE d   1      -4.347  -4.456  -4.502  0.00  0.00     0.003 A 
ENDROOT
TORSDOF 0
ENDMDL
