MODEL 1
REMARK minimizedAffinity 8.75133896
REMARK minimizedRMSD -1
REMARK  0 active torsions:
REMARK  status: ('A' for Active; 'I' for Inactive)
ROOT
ATOM      1  C2' OXE d   1       2.673  -5.654  -1.499  0.00  0.00     0.078 C 
ATOM      2  C1' OXE d   1       3.425  -3.474   0.102  0.00  0.00     0.078 C 
ATOM      3  C1  OXE d   1       2.520  -3.204  -1.074  0.00  0.00    -0.078 A 
ATOM      4  C2  OXE d   1       2.195  -4.269  -1.879  0.00  0.00    -0.078 A 
ATOM      5  C3  OXE d   1       1.320  -4.084  -2.946  0.00  0.00     0.003 A 
ATOM      6  C4  OXE d   1       0.890  -2.799  -3.296  0.00  0.00    -0.002 A 
ATOM      7  C5  OXE d   1       1.242  -1.695  -2.512  0.00  0.00    -0.002 A 
ATOM      8  C6  OXE d   1       2.020  -1.886  -1.376  0.00  0.00     0.003 A 
ENDROOT
TORSDOF 0
ENDMDL
