MODEL 1
REMARK minimizedAffinity -0.35461399
REMARK minimizedRMSD -1
REMARK  0 active torsions:
REMARK  status: ('A' for Active; 'I' for Inactive)
ROOT
ATOM      1  C2' OXE d   1       3.465  -3.499  -0.491  0.00  0.00     0.078 C 
ATOM      2  C1' OXE d   1       1.936  -3.220  -2.828  0.00  0.00     0.078 C 
ATOM      3  C1  OXE d   1       2.251  -1.973  -2.041  0.00  0.00    -0.078 A 
ATOM      4  C2  OXE d   1       2.961  -2.124  -0.874  0.00  0.00    -0.078 A 
ATOM      5  C3  OXE d   1       3.325  -1.000  -0.138  0.00  0.00     0.003 A 
ATOM      6  C4  OXE d   1       2.846   0.266  -0.494  0.00  0.00    -0.002 A 
ATOM      7  C5  OXE d   1       2.089   0.437  -1.657  0.00  0.00    -0.002 A 
ATOM      8  C6  OXE d   1       1.819  -0.663  -2.463  0.00  0.00     0.003 A 
ENDROOT
TORSDOF 0
ENDMDL
