MODEL 1
REMARK minimizedAffinity 11.1619215
REMARK minimizedRMSD -1
REMARK  0 active torsions:
REMARK  status: ('A' for Active; 'I' for Inactive)
ROOT
ATOM      1  C2' OXE d   1       1.145   1.526  -3.888  0.00  0.00     0.078 C 
ATOM      2  C1' OXE d   1       2.017   3.330  -1.923  0.00  0.00     0.078 C 
ATOM      3  C1  OXE d   1       2.145   1.856  -1.631  0.00  0.00    -0.078 A 
ATOM      4  C2  OXE d   1       1.673   0.980  -2.579  0.00  0.00    -0.078 A 
ATOM      5  C3  OXE d   1       1.816  -0.390  -2.384  0.00  0.00     0.003 A 
ATOM      6  C4  OXE d   1       2.296  -0.886  -1.166  0.00  0.00    -0.002 A 
ATOM      7  C5  OXE d   1       2.746  -0.012  -0.171  0.00  0.00    -0.002 A 
ATOM      8  C6  OXE d   1       2.717   1.359  -0.404  0.00  0.00     0.003 A 
ENDROOT
TORSDOF 0
ENDMDL
