MODEL 1
REMARK minimizedAffinity 17.8830013
REMARK minimizedRMSD -1
REMARK  0 active torsions:
REMARK  status: ('A' for Active; 'I' for Inactive)
ROOT
ATOM      1  C2' OXE d   1      -3.422  -0.867   2.885  0.00  0.00     0.078 C 
ATOM      2  C1' OXE d   1      -4.106   1.845   3.124  0.00  0.00     0.078 C 
ATOM      3  C1  OXE d   1      -2.683   1.508   2.753  0.00  0.00    -0.078 A 
ATOM      4  C2  OXE d   1      -2.346   0.178   2.684  0.00  0.00    -0.078 A 
ATOM      5  C3  OXE d   1      -1.062  -0.188   2.293  0.00  0.00     0.003 A 
ATOM      6  C4  OXE d   1      -0.069   0.784   2.118  0.00  0.00    -0.002 A 
ATOM      7  C5  OXE d   1      -0.382   2.144   2.223  0.00  0.00    -0.002 A 
ATOM      8  C6  OXE d   1      -1.691   2.523   2.497  0.00  0.00     0.003 A 
ENDROOT
TORSDOF 0
ENDMDL
