MODEL 1
REMARK minimizedAffinity 15.0743198
REMARK minimizedRMSD -1
REMARK  0 active torsions:
REMARK  status: ('A' for Active; 'I' for Inactive)
ROOT
ATOM      1  C2' OXE d   1      -5.938  -2.055  -5.425  0.00  0.00     0.078 C 
ATOM      2  C1' OXE d   1      -3.240  -2.312  -4.693  0.00  0.00     0.078 C 
ATOM      3  C1  OXE d   1      -3.965  -3.552  -5.155  0.00  0.00    -0.078 A 
ATOM      4  C2  OXE d   1      -5.297  -3.426  -5.467  0.00  0.00    -0.078 A 
ATOM      5  C3  OXE d   1      -5.999  -4.526  -5.950  0.00  0.00     0.003 A 
ATOM      6  C4  OXE d   1      -5.402  -5.792  -5.976  0.00  0.00    -0.002 A 
ATOM      7  C5  OXE d   1      -4.057  -5.950  -5.625  0.00  0.00    -0.002 A 
ATOM      8  C6  OXE d   1      -3.314  -4.835  -5.254  0.00  0.00     0.003 A 
ENDROOT
TORSDOF 0
ENDMDL
