MODEL 1
REMARK minimizedAffinity 11.3870945
REMARK minimizedRMSD -1
REMARK  0 active torsions:
REMARK  status: ('A' for Active; 'I' for Inactive)
ROOT
ATOM      1  C2' OXE d   1       2.846  -4.161  -0.355  0.00  0.00     0.078 C 
ATOM      2  C1' OXE d   1       1.556  -4.301  -2.845  0.00  0.00     0.078 C 
ATOM      3  C1  OXE d   1       1.681  -2.947  -2.193  0.00  0.00    -0.078 A 
ATOM      4  C2  OXE d   1       2.272  -2.894  -0.953  0.00  0.00    -0.078 A 
ATOM      5  C3  OXE d   1       2.462  -1.663  -0.332  0.00  0.00     0.003 A 
ATOM      6  C4  OXE d   1       1.919  -0.498  -0.887  0.00  0.00    -0.002 A 
ATOM      7  C5  OXE d   1       1.278  -0.535  -2.129  0.00  0.00    -0.002 A 
ATOM      8  C6  OXE d   1       1.189  -1.742  -2.814  0.00  0.00     0.003 A 
ENDROOT
TORSDOF 0
ENDMDL
