MODEL 1
REMARK minimizedAffinity 3.71700263
REMARK minimizedRMSD -1
REMARK  0 active torsions:
REMARK  status: ('A' for Active; 'I' for Inactive)
ROOT
ATOM      1  C2' OXE d   1       3.382  -6.000  -1.914  0.00  0.00     0.078 C 
ATOM      2  C1' OXE d   1       1.255  -5.117  -3.520  0.00  0.00     0.078 C 
ATOM      3  C1  OXE d   1       1.808  -4.159  -2.495  0.00  0.00    -0.078 A 
ATOM      4  C2  OXE d   1       2.817  -4.615  -1.682  0.00  0.00    -0.078 A 
ATOM      5  C3  OXE d   1       3.400  -3.754  -0.756  0.00  0.00     0.003 A 
ATOM      6  C4  OXE d   1       2.865  -2.478  -0.541  0.00  0.00    -0.002 A 
ATOM      7  C5  OXE d   1       1.810  -2.008  -1.331  0.00  0.00    -0.002 A 
ATOM      8  C6  OXE d   1       1.300  -2.818  -2.339  0.00  0.00     0.003 A 
ENDROOT
TORSDOF 0
ENDMDL
