MODEL 1
REMARK minimizedAffinity 6.75066328
REMARK minimizedRMSD -1
REMARK  0 active torsions:
REMARK  status: ('A' for Active; 'I' for Inactive)
ROOT
ATOM      1  C2' OXE d   1       1.035   3.099   1.961  0.00  0.00     0.078 C 
ATOM      2  C1' OXE d   1       1.291   4.703  -0.329  0.00  0.00     0.078 C 
ATOM      3  C1  OXE d   1       2.451   3.812   0.039  0.00  0.00    -0.078 A 
ATOM      4  C2  OXE d   1       2.335   3.066   1.187  0.00  0.00    -0.078 A 
ATOM      5  C3  OXE d   1       3.354   2.187   1.543  0.00  0.00     0.003 A 
ATOM      6  C4  OXE d   1       4.558   2.169   0.828  0.00  0.00    -0.002 A 
ATOM      7  C5  OXE d   1       4.711   2.951  -0.322  0.00  0.00    -0.002 A 
ATOM      8  C6  OXE d   1       3.654   3.744  -0.753  0.00  0.00     0.003 A 
ENDROOT
TORSDOF 0
ENDMDL
