MODEL 1
REMARK minimizedAffinity 2.85809684
REMARK minimizedRMSD -1
REMARK  0 active torsions:
REMARK  status: ('A' for Active; 'I' for Inactive)
ROOT
ATOM      1  C2' OXE d   1      -1.846  -4.314  -5.939  0.00  0.00     0.078 C 
ATOM      2  C1' OXE d   1      -4.090  -6.000  -5.934  0.00  0.00     0.078 C 
ATOM      3  C1  OXE d   1      -4.329  -4.511  -5.956  0.00  0.00    -0.078 A 
ATOM      4  C2  OXE d   1      -3.226  -3.693  -5.911  0.00  0.00    -0.078 A 
ATOM      5  C3  OXE d   1      -3.388  -2.312  -5.983  0.00  0.00     0.003 A 
ATOM      6  C4  OXE d   1      -4.668  -1.746  -5.947  0.00  0.00    -0.002 A 
ATOM      7  C5  OXE d   1      -5.805  -2.560  -5.953  0.00  0.00    -0.002 A 
ATOM      8  C6  OXE d   1      -5.653  -3.942  -6.000  0.00  0.00     0.003 A 
ENDROOT
TORSDOF 0
ENDMDL
