MODEL 1
REMARK minimizedAffinity 14.6234236
REMARK minimizedRMSD -1
REMARK  0 active torsions:
REMARK  status: ('A' for Active; 'I' for Inactive)
ROOT
ATOM      1  C2' OXE d   1       3.278   2.343   2.416  0.00  0.00     0.078 C 
ATOM      2  C1' OXE d   1       1.506   3.677   0.695  0.00  0.00     0.078 C 
ATOM      3  C1  OXE d   1       2.631   2.889   0.073  0.00  0.00    -0.078 A 
ATOM      4  C2  OXE d   1       3.521   2.278   0.923  0.00  0.00    -0.078 A 
ATOM      5  C3  OXE d   1       4.546   1.494   0.402  0.00  0.00     0.003 A 
ATOM      6  C4  OXE d   1       4.770   1.447  -0.980  0.00  0.00    -0.002 A 
ATOM      7  C5  OXE d   1       3.899   2.094  -1.862  0.00  0.00    -0.002 A 
ATOM      8  C6  OXE d   1       2.803   2.783  -1.355  0.00  0.00     0.003 A 
ENDROOT
TORSDOF 0
ENDMDL
