MODEL 1
REMARK minimizedAffinity 19.9696121
REMARK minimizedRMSD -1
REMARK  0 active torsions:
REMARK  status: ('A' for Active; 'I' for Inactive)
ROOT
ATOM      1  C2' OXE d   1      -6.000  -2.293   1.566  0.00  0.00     0.078 C 
ATOM      2  C1' OXE d   1      -5.436  -2.288   4.316  0.00  0.00     0.078 C 
ATOM      3  C1  OXE d   1      -4.631  -1.370   3.432  0.00  0.00    -0.078 A 
ATOM      4  C2  OXE d   1      -4.881  -1.412   2.081  0.00  0.00    -0.078 A 
ATOM      5  C3  OXE d   1      -4.205  -0.546   1.227  0.00  0.00     0.003 A 
ATOM      6  C4  OXE d   1      -3.165   0.257   1.710  0.00  0.00    -0.002 A 
ATOM      7  C5  OXE d   1      -2.867   0.287   3.076  0.00  0.00    -0.002 A 
ATOM      8  C6  OXE d   1      -3.617  -0.487   3.954  0.00  0.00     0.003 A 
ENDROOT
TORSDOF 0
ENDMDL
