MODEL 1
REMARK minimizedAffinity 10.1966867
REMARK minimizedRMSD -1
REMARK  0 active torsions:
REMARK  status: ('A' for Active; 'I' for Inactive)
ROOT
ATOM      1  C   UNL d   1      -0.272  -3.636  -2.283  0.00  0.00     0.023 A 
ATOM      2  C1  UNL d   1       0.379  -4.202  -3.379  0.00  0.00     0.003 A 
ATOM      3  C2  UNL d   1       1.587  -4.880  -3.201  0.00  0.00     0.048 A 
ATOM      4  C3  UNL d   1       2.137  -4.990  -1.924  0.00  0.00     0.023 A 
ATOM      5  C4  UNL d   1       1.488  -4.427  -0.825  0.00  0.00     0.048 A 
ATOM      6  C5  UNL d   1       0.281  -3.748  -1.007  0.00  0.00     0.003 A 
ATOM      7  I   UNL d   1       3.934  -6.000  -1.657  0.00  0.00    -0.146 I 
ENDROOT
TORSDOF 0
ENDMDL
