MODEL 1
REMARK minimizedAffinity 2.49431491
REMARK minimizedRMSD -1
REMARK  0 active torsions:
REMARK  status: ('A' for Active; 'I' for Inactive)
ROOT
ATOM      1  C   UNL d   1      -5.825  -4.875  -5.931  0.00  0.00     0.023 A 
ATOM      2  C1  UNL d   1      -5.429  -5.995  -5.200  0.00  0.00     0.003 A 
ATOM      3  C2  UNL d   1      -4.200  -5.998  -4.537  0.00  0.00     0.048 A 
ATOM      4  C3  UNL d   1      -3.373  -4.878  -4.608  0.00  0.00     0.023 A 
ATOM      5  C4  UNL d   1      -3.766  -3.754  -5.337  0.00  0.00     0.048 A 
ATOM      6  C5  UNL d   1      -4.995  -3.756  -5.999  0.00  0.00     0.003 A 
ATOM      7  I   UNL d   1      -1.543  -4.880  -3.622  0.00  0.00    -0.146 I 
ENDROOT
TORSDOF 0
ENDMDL
