MODEL 1
REMARK minimizedAffinity 5.48347807
REMARK minimizedRMSD -1
REMARK  0 active torsions:
REMARK  status: ('A' for Active; 'I' for Inactive)
ROOT
ATOM      1  C   UNL d   1       0.827  -4.273  -5.092  0.00  0.00     0.023 A 
ATOM      2  C1  UNL d   1      -0.174  -4.440  -4.135  0.00  0.00     0.003 A 
ATOM      3  C2  UNL d   1       0.146  -4.416  -2.776  0.00  0.00     0.048 A 
ATOM      4  C3  UNL d   1       1.470  -4.222  -2.381  0.00  0.00     0.023 A 
ATOM      5  C4  UNL d   1       2.474  -4.054  -3.335  0.00  0.00     0.048 A 
ATOM      6  C5  UNL d   1       2.149  -4.080  -4.693  0.00  0.00     0.003 A 
ATOM      7  I   UNL d   1       1.949  -4.185  -0.359  0.00  0.00    -0.146 I 
ENDROOT
TORSDOF 0
ENDMDL
