MODEL 1
REMARK minimizedAffinity 13.8793354
REMARK minimizedRMSD -1
REMARK  0 active torsions:
REMARK  status: ('A' for Active; 'I' for Inactive)
ROOT
ATOM      1  C   UNL d   1       0.937  -4.224  -1.944  0.00  0.00     0.023 A 
ATOM      2  C1  UNL d   1       1.527  -3.105  -2.534  0.00  0.00     0.003 A 
ATOM      3  C2  UNL d   1       2.184  -2.162  -1.741  0.00  0.00     0.048 A 
ATOM      4  C3  UNL d   1       2.249  -2.343  -0.360  0.00  0.00     0.023 A 
ATOM      5  C4  UNL d   1       1.660  -3.461   0.234  0.00  0.00     0.048 A 
ATOM      6  C5  UNL d   1       1.004  -4.401  -0.562  0.00  0.00     0.003 A 
ATOM      7  I   UNL d   1       3.226  -0.940   0.821  0.00  0.00    -0.146 I 
ENDROOT
TORSDOF 0
ENDMDL
