MODEL 1
REMARK minimizedAffinity 12.0072031
REMARK minimizedRMSD -1
REMARK  0 active torsions:
REMARK  status: ('A' for Active; 'I' for Inactive)
ROOT
ATOM      1  C   UNL d   1       2.626   4.423  -0.716  0.00  0.00     0.023 A 
ATOM      2  C1  UNL d   1       1.854   3.751  -1.663  0.00  0.00     0.003 A 
ATOM      3  C2  UNL d   1       1.819   4.203  -2.984  0.00  0.00     0.048 A 
ATOM      4  C3  UNL d   1       2.561   5.326  -3.351  0.00  0.00     0.023 A 
ATOM      5  C4  UNL d   1       3.336   6.000  -2.406  0.00  0.00     0.048 A 
ATOM      6  C5  UNL d   1       3.367   5.545  -1.086  0.00  0.00     0.003 A 
ATOM      7  I   UNL d   1       2.512   5.999  -5.316  0.00  0.00    -0.146 I 
ENDROOT
TORSDOF 0
ENDMDL
