MODEL 1
REMARK minimizedAffinity 16.4179249
REMARK minimizedRMSD -1
REMARK  0 active torsions:
REMARK  status: ('A' for Active; 'I' for Inactive)
ROOT
ATOM      1  C   UNL d   1       1.512  -3.048   4.946  0.00  0.00     0.023 A 
ATOM      2  C1  UNL d   1       2.270  -2.632   3.851  0.00  0.00     0.003 A 
ATOM      3  C2  UNL d   1       2.052  -1.373   3.287  0.00  0.00     0.048 A 
ATOM      4  C3  UNL d   1       1.075  -0.535   3.824  0.00  0.00     0.023 A 
ATOM      5  C4  UNL d   1       0.315  -0.947   4.920  0.00  0.00     0.048 A 
ATOM      6  C5  UNL d   1       0.535  -2.207   5.479  0.00  0.00     0.003 A 
ATOM      7  I   UNL d   1       0.749   1.339   2.986  0.00  0.00    -0.146 I 
ENDROOT
TORSDOF 0
ENDMDL
