MODEL 1
REMARK minimizedAffinity 13.4749804
REMARK minimizedRMSD -1
REMARK  0 active torsions:
REMARK  status: ('A' for Active; 'I' for Inactive)
ROOT
ATOM      1  C   UNL d   1      -0.712   3.389  -1.191  0.00  0.00     0.023 A 
ATOM      2  C1  UNL d   1      -1.157   2.717  -0.053  0.00  0.00     0.003 A 
ATOM      3  C2  UNL d   1      -0.238   2.267   0.898  0.00  0.00     0.048 A 
ATOM      4  C3  UNL d   1       1.124   2.493   0.704  0.00  0.00     0.023 A 
ATOM      5  C4  UNL d   1       1.574   3.166  -0.433  0.00  0.00     0.048 A 
ATOM      6  C5  UNL d   1       0.652   3.613  -1.381  0.00  0.00     0.003 A 
ATOM      7  I   UNL d   1       2.493   1.825   2.118  0.00  0.00    -0.146 I 
ENDROOT
TORSDOF 0
ENDMDL
