MODEL 1
REMARK minimizedAffinity 13.3539209
REMARK minimizedRMSD -1
REMARK  0 active torsions:
REMARK  status: ('A' for Active; 'I' for Inactive)
ROOT
ATOM      1  C   UNL d   1      -1.238   1.558   1.910  0.00  0.00     0.023 A 
ATOM      2  C1  UNL d   1       0.131   1.450   1.662  0.00  0.00     0.003 A 
ATOM      3  C2  UNL d   1       0.681   2.025   0.514  0.00  0.00     0.048 A 
ATOM      4  C3  UNL d   1      -0.143   2.706  -0.381  0.00  0.00     0.023 A 
ATOM      5  C4  UNL d   1      -1.513   2.817  -0.137  0.00  0.00     0.048 A 
ATOM      6  C5  UNL d   1      -2.059   2.240   1.012  0.00  0.00     0.003 A 
ATOM      7  I   UNL d   1       0.674   3.562  -2.089  0.00  0.00    -0.146 I 
ENDROOT
TORSDOF 0
ENDMDL
