MODEL 1
REMARK minimizedAffinity 22.5435162
REMARK minimizedRMSD -1
REMARK  0 active torsions:
REMARK  status: ('A' for Active; 'I' for Inactive)
ROOT
ATOM      1  C   UNL d   1      -1.285  -2.618   5.979  0.00  0.00     0.023 A 
ATOM      2  C1  UNL d   1      -2.259  -2.499   4.987  0.00  0.00     0.003 A 
ATOM      3  C2  UNL d   1      -2.148  -1.504   4.014  0.00  0.00     0.048 A 
ATOM      4  C3  UNL d   1      -1.061  -0.632   4.037  0.00  0.00     0.023 A 
ATOM      5  C4  UNL d   1      -0.083  -0.747   5.027  0.00  0.00     0.048 A 
ATOM      6  C5  UNL d   1      -0.199  -1.743   5.999  0.00  0.00     0.003 A 
ATOM      7  I   UNL d   1      -0.893   0.850   2.589  0.00  0.00    -0.146 I 
ENDROOT
TORSDOF 0
ENDMDL
