MODEL 1
REMARK minimizedAffinity 10.0348625
REMARK minimizedRMSD -1
REMARK  0 active torsions:
REMARK  status: ('A' for Active; 'I' for Inactive)
ROOT
ATOM      1  C   UNL d   1      -1.641   2.767   0.363  0.00  0.00     0.023 A 
ATOM      2  C1  UNL d   1      -1.600   2.117   1.597  0.00  0.00     0.003 A 
ATOM      3  C2  UNL d   1      -0.380   1.937   2.252  0.00  0.00     0.048 A 
ATOM      4  C3  UNL d   1       0.795   2.410   1.668  0.00  0.00     0.023 A 
ATOM      5  C4  UNL d   1       0.758   3.061   0.434  0.00  0.00     0.048 A 
ATOM      6  C5  UNL d   1      -0.464   3.239  -0.217  0.00  0.00     0.003 A 
ATOM      7  I   UNL d   1       2.612   2.143   2.641  0.00  0.00    -0.146 I 
ENDROOT
TORSDOF 0
ENDMDL
