MODEL 1
REMARK minimizedAffinity 11.8662605
REMARK minimizedRMSD -1
REMARK  0 active torsions:
REMARK  status: ('A' for Active; 'I' for Inactive)
ROOT
ATOM      1  C   UNL d   1      -0.432   1.636   0.223  0.00  0.00     0.023 A 
ATOM      2  C1  UNL d   1       0.864   1.365  -0.217  0.00  0.00     0.003 A 
ATOM      3  C2  UNL d   1       1.517   2.261  -1.065  0.00  0.00     0.048 A 
ATOM      4  C3  UNL d   1       0.869   3.428  -1.468  0.00  0.00     0.023 A 
ATOM      5  C4  UNL d   1      -0.427   3.705  -1.030  0.00  0.00     0.048 A 
ATOM      6  C5  UNL d   1      -1.076   2.805  -0.183  0.00  0.00     0.003 A 
ATOM      7  I   UNL d   1       1.839   4.764  -2.731  0.00  0.00    -0.146 I 
ENDROOT
TORSDOF 0
ENDMDL
