MODEL 1
REMARK minimizedAffinity 8.11895943
REMARK minimizedRMSD -1
REMARK  0 active torsions:
REMARK  status: ('A' for Active; 'I' for Inactive)
ROOT
ATOM      1  C   UNL d   1       4.609   3.679   0.409  0.00  0.00    -0.002 A 
ATOM      2  C1  UNL d   1       3.709   4.475   1.104  0.00  0.00     0.010 A 
ATOM      3  C2  UNL d   1       2.534   3.930   1.625  0.00  0.00     0.041 A 
ATOM      4  C3  UNL d   1       2.276   2.558   1.434  0.00  0.00    -0.075 A 
ATOM      5  S   UNL d   1       0.902   1.673   1.983  0.00  0.00     0.015 SA
ATOM      6  C4  UNL d   1       1.477   0.217   1.308  0.00  0.00     0.022 A 
ATOM      7  C5  UNL d   1       2.686   0.385   0.675  0.00  0.00     0.026 A 
ATOM      8  C6  UNL d   1       3.167   1.736   0.738  0.00  0.00    -0.082 A 
ATOM      9  C7  UNL d   1       4.349   2.319   0.222  0.00  0.00     0.045 A 
ENDROOT
TORSDOF 0
ENDMDL
