MODEL 1
REMARK minimizedAffinity 25.1785011
REMARK minimizedRMSD -1
REMARK  0 active torsions:
REMARK  status: ('A' for Active; 'I' for Inactive)
ROOT
ATOM      1  C   UNL d   1       0.516   0.766   4.090  0.00  0.00    -0.002 A 
ATOM      2  C1  UNL d   1       0.053  -0.540   4.020  0.00  0.00     0.010 A 
ATOM      3  C2  UNL d   1      -1.268  -0.806   3.655  0.00  0.00     0.041 A 
ATOM      4  C3  UNL d   1      -2.124   0.272   3.356  0.00  0.00    -0.075 A 
ATOM      5  S   UNL d   1      -3.780   0.186   2.884  0.00  0.00     0.015 SA
ATOM      6  C4  UNL d   1      -3.911   1.881   2.764  0.00  0.00     0.022 A 
ATOM      7  C5  UNL d   1      -2.730   2.513   3.072  0.00  0.00     0.026 A 
ATOM      8  C6  UNL d   1      -1.680   1.596   3.418  0.00  0.00    -0.082 A 
ATOM      9  C7  UNL d   1      -0.335   1.834   3.793  0.00  0.00     0.045 A 
ENDROOT
TORSDOF 0
ENDMDL
