MODEL 1
REMARK minimizedAffinity 15.5438528
REMARK minimizedRMSD -1
REMARK  0 active torsions:
REMARK  status: ('A' for Active; 'I' for Inactive)
ROOT
ATOM      1  C   UNL d   1       2.333   0.809   1.436  0.00  0.00    -0.002 A 
ATOM      2  C1  UNL d   1       1.121   1.389   1.785  0.00  0.00     0.010 A 
ATOM      3  C2  UNL d   1       1.049   2.746   2.102  0.00  0.00     0.041 A 
ATOM      4  C3  UNL d   1       2.226   3.519   2.062  0.00  0.00    -0.075 A 
ATOM      5  S   UNL d   1       2.378   5.201   2.410  0.00  0.00     0.015 SA
ATOM      6  C4  UNL d   1       4.054   5.190   2.104  0.00  0.00     0.022 A 
ATOM      7  C5  UNL d   1       4.504   3.941   1.744  0.00  0.00     0.026 A 
ATOM      8  C6  UNL d   1       3.458   2.958   1.713  0.00  0.00    -0.082 A 
ATOM      9  C7  UNL d   1       3.498   1.579   1.397  0.00  0.00     0.045 A 
ENDROOT
TORSDOF 0
ENDMDL
