MODEL 1
REMARK minimizedAffinity 18.8681355
REMARK minimizedRMSD -1
REMARK  0 active torsions:
REMARK  status: ('A' for Active; 'I' for Inactive)
ROOT
ATOM      1  C   UNL d   1      -5.496   6.000   4.623  0.00  0.00    -0.002 A 
ATOM      2  C1  UNL d   1      -5.999   6.000   3.329  0.00  0.00     0.010 A 
ATOM      3  C2  UNL d   1      -5.864   4.874   2.515  0.00  0.00     0.041 A 
ATOM      4  C3  UNL d   1      -5.211   3.736   3.028  0.00  0.00    -0.075 A 
ATOM      5  S   UNL d   1      -4.930   2.243   2.213  0.00  0.00     0.015 SA
ATOM      6  C4  UNL d   1      -4.137   1.570   3.563  0.00  0.00     0.022 A 
ATOM      7  C5  UNL d   1      -4.078   2.449   4.618  0.00  0.00     0.026 A 
ATOM      8  C6  UNL d   1      -4.697   3.712   4.327  0.00  0.00    -0.082 A 
ATOM      9  C7  UNL d   1      -4.849   4.869   5.128  0.00  0.00     0.045 A 
ENDROOT
TORSDOF 0
ENDMDL
