MODEL 1
REMARK minimizedAffinity 8.98600769
REMARK minimizedRMSD -1
REMARK  0 active torsions:
REMARK  status: ('A' for Active; 'I' for Inactive)
ROOT
ATOM      1  C   UNL d   1       3.336   3.075  -2.569  0.00  0.00    -0.002 A 
ATOM      2  C1  UNL d   1       2.079   3.464  -3.010  0.00  0.00     0.010 A 
ATOM      3  C2  UNL d   1       1.946   4.369  -4.066  0.00  0.00     0.041 A 
ATOM      4  C3  UNL d   1       3.108   4.879  -4.677  0.00  0.00    -0.075 A 
ATOM      5  S   UNL d   1       3.188   5.997  -5.986  0.00  0.00     0.015 SA
ATOM      6  C4  UNL d   1       4.893   5.984  -5.991  0.00  0.00     0.022 A 
ATOM      7  C5  UNL d   1       5.404   5.152  -5.024  0.00  0.00     0.026 A 
ATOM      8  C6  UNL d   1       4.384   4.501  -4.251  0.00  0.00    -0.082 A 
ATOM      9  C7  UNL d   1       4.486   3.583  -3.178  0.00  0.00     0.045 A 
ENDROOT
TORSDOF 0
ENDMDL
