MODEL 1
REMARK minimizedAffinity 11.2632837
REMARK minimizedRMSD -1
REMARK  0 active torsions:
REMARK  status: ('A' for Active; 'I' for Inactive)
ROOT
ATOM      1  C   UNL d   1       4.811   4.868   1.869  0.00  0.00    -0.002 A 
ATOM      2  C1  UNL d   1       4.104   6.000   2.247  0.00  0.00     0.010 A 
ATOM      3  C2  UNL d   1       2.707   6.000   2.241  0.00  0.00     0.041 A 
ATOM      4  C3  UNL d   1       2.028   4.831   1.845  0.00  0.00    -0.075 A 
ATOM      5  S   UNL d   1       0.322   4.599   1.760  0.00  0.00     0.015 SA
ATOM      6  C4  UNL d   1       0.492   2.992   1.220  0.00  0.00     0.022 A 
ATOM      7  C5  UNL d   1       1.811   2.624   1.102  0.00  0.00     0.026 A 
ATOM      8  C6  UNL d   1       2.718   3.678   1.460  0.00  0.00    -0.082 A 
ATOM      9  C7  UNL d   1       4.134   3.710   1.477  0.00  0.00     0.045 A 
ENDROOT
TORSDOF 0
ENDMDL
