MODEL 1
REMARK minimizedAffinity 2.68058634
REMARK minimizedRMSD -1
REMARK  0 active torsions:
REMARK  status: ('A' for Active; 'I' for Inactive)
ROOT
ATOM      1  C   UNL d   1       1.212   4.880  -5.518  0.00  0.00    -0.002 A 
ATOM      2  C1  UNL d   1       1.934   5.963  -5.999  0.00  0.00     0.010 A 
ATOM      3  C2  UNL d   1       3.324   6.000  -5.878  0.00  0.00     0.041 A 
ATOM      4  C3  UNL d   1       3.983   4.919  -5.260  0.00  0.00    -0.075 A 
ATOM      5  S   UNL d   1       5.679   4.746  -5.002  0.00  0.00     0.015 SA
ATOM      6  C4  UNL d   1       5.485   3.230  -4.248  0.00  0.00     0.022 A 
ATOM      7  C5  UNL d   1       4.165   2.850  -4.185  0.00  0.00     0.026 A 
ATOM      8  C6  UNL d   1       3.278   3.817  -4.768  0.00  0.00    -0.082 A 
ATOM      9  C7  UNL d   1       1.869   3.810  -4.906  0.00  0.00     0.045 A 
ENDROOT
TORSDOF 0
ENDMDL
