MODEL 1
REMARK minimizedAffinity 14.5587673
REMARK minimizedRMSD -1
REMARK  0 active torsions:
REMARK  status: ('A' for Active; 'I' for Inactive)
ROOT
ATOM      1  C   UNL d   1      -5.256  -4.894  -2.014  0.00  0.00    -0.002 A 
ATOM      2  C1  UNL d   1      -4.450  -6.000  -1.783  0.00  0.00     0.010 A 
ATOM      3  C2  UNL d   1      -3.103  -5.985  -2.150  0.00  0.00     0.041 A 
ATOM      4  C3  UNL d   1      -2.574  -4.829  -2.756  0.00  0.00    -0.075 A 
ATOM      5  S   UNL d   1      -0.953  -4.583  -3.288  0.00  0.00     0.015 SA
ATOM      6  C4  UNL d   1      -1.292  -3.004  -3.833  0.00  0.00     0.022 A 
ATOM      7  C5  UNL d   1      -2.605  -2.657  -3.623  0.00  0.00     0.026 A 
ATOM      8  C6  UNL d   1      -3.366  -3.703  -2.998  0.00  0.00    -0.082 A 
ATOM      9  C7  UNL d   1      -4.728  -3.749  -2.615  0.00  0.00     0.045 A 
ENDROOT
TORSDOF 0
ENDMDL
