MODEL 1
REMARK minimizedAffinity 20.8705654
REMARK minimizedRMSD -1
REMARK  0 active torsions:
REMARK  status: ('A' for Active; 'I' for Inactive)
ROOT
ATOM      1  C   UNL d   1       3.959   3.084  -3.678  0.00  0.00    -0.002 A 
ATOM      2  C1  UNL d   1       5.070   2.733  -2.926  0.00  0.00     0.010 A 
ATOM      3  C2  UNL d   1       5.761   1.548  -3.187  0.00  0.00     0.041 A 
ATOM      4  C3  UNL d   1       5.311   0.714  -4.230  0.00  0.00    -0.075 A 
ATOM      5  S   UNL d   1       6.000  -0.785  -4.732  0.00  0.00     0.015 SA
ATOM      6  C4  UNL d   1       4.835  -0.995  -5.958  0.00  0.00     0.022 A 
ATOM      7  C5  UNL d   1       3.935   0.044  -5.997  0.00  0.00     0.026 A 
ATOM      8  C6  UNL d   1       4.195   1.046  -5.003  0.00  0.00    -0.082 A 
ATOM      9  C7  UNL d   1       3.516   2.254  -4.712  0.00  0.00     0.045 A 
ENDROOT
TORSDOF 0
ENDMDL
