MODEL 1
REMARK minimizedAffinity 15.5244131
REMARK minimizedRMSD -1
REMARK  0 active torsions:
REMARK  status: ('A' for Active; 'I' for Inactive)
ROOT
ATOM      1  C   UNL d   1      -2.500  -2.402  -3.676  0.00  0.00    -0.002 A 
ATOM      2  C1  UNL d   1      -3.458  -3.016  -2.881  0.00  0.00     0.010 A 
ATOM      3  C2  UNL d   1      -3.245  -3.180  -1.511  0.00  0.00     0.041 A 
ATOM      4  C3  UNL d   1      -2.043  -2.711  -0.947  0.00  0.00    -0.075 A 
ATOM      5  S   UNL d   1      -1.566  -2.802   0.707  0.00  0.00     0.015 SA
ATOM      6  C4  UNL d   1      -0.079  -2.028   0.399  0.00  0.00     0.022 A 
ATOM      7  C5  UNL d   1       0.066  -1.701  -0.928  0.00  0.00     0.026 A 
ATOM      8  C6  UNL d   1      -1.063  -2.089  -1.726  0.00  0.00    -0.082 A 
ATOM      9  C7  UNL d   1      -1.308  -1.938  -3.112  0.00  0.00     0.045 A 
ENDROOT
TORSDOF 0
ENDMDL
