MODEL 1
REMARK minimizedAffinity 16.9792843
REMARK minimizedRMSD -1
REMARK  0 active torsions:
REMARK  status: ('A' for Active; 'I' for Inactive)
ROOT
ATOM      1  C   UNL d   1      -1.088  -2.659  -5.997  0.00  0.00    -0.002 A 
ATOM      2  C1  UNL d   1      -0.406  -1.910  -5.049  0.00  0.00     0.010 A 
ATOM      3  C2  UNL d   1      -0.826  -1.897  -3.718  0.00  0.00     0.041 A 
ATOM      4  C3  UNL d   1      -1.953  -2.659  -3.351  0.00  0.00    -0.075 A 
ATOM      5  S   UNL d   1      -2.649  -2.797  -1.780  0.00  0.00     0.015 SA
ATOM      6  C4  UNL d   1      -3.867  -3.854  -2.330  0.00  0.00     0.022 A 
ATOM      7  C5  UNL d   1      -3.760  -4.107  -3.677  0.00  0.00     0.026 A 
ATOM      8  C6  UNL d   1      -2.655  -3.423  -4.288  0.00  0.00    -0.082 A 
ATOM      9  C7  UNL d   1      -2.205  -3.414  -5.630  0.00  0.00     0.045 A 
ENDROOT
TORSDOF 0
ENDMDL
