MODEL 1
REMARK minimizedAffinity 7.78408003
REMARK minimizedRMSD -1
REMARK  0 active torsions:
REMARK  status: ('A' for Active; 'I' for Inactive)
ROOT
ATOM      1  C1  BNZ d   1       2.140  -0.242   1.808  0.00  0.00     0.000 A 
ATOM      2  C2  BNZ d   1       2.172  -1.554   1.416  0.00  0.00     0.000 A 
ATOM      3  C3  BNZ d   1       1.069  -2.147   0.868  0.00  0.00     0.000 A 
ATOM      4  C4  BNZ d   1      -0.074  -1.442   0.750  0.00  0.00     0.000 A 
ATOM      5  C5  BNZ d   1      -0.125  -0.121   1.149  0.00  0.00     0.000 A 
ATOM      6  C6  BNZ d   1       0.998   0.485   1.664  0.00  0.00     0.000 A 
ENDROOT
TORSDOF 0
ENDMDL
