MODEL 1
REMARK minimizedAffinity 6.24726486
REMARK minimizedRMSD -1
REMARK  0 active torsions:
REMARK  status: ('A' for Active; 'I' for Inactive)
ROOT
ATOM      1  C1  BNZ d   1       2.417  -6.000  -0.689  0.00  0.00     0.000 A 
ATOM      2  C2  BNZ d   1       1.105  -5.688  -0.454  0.00  0.00     0.000 A 
ATOM      3  C3  BNZ d   1       0.262  -5.383  -1.486  0.00  0.00     0.000 A 
ATOM      4  C4  BNZ d   1       0.742  -5.352  -2.746  0.00  0.00     0.000 A 
ATOM      5  C5  BNZ d   1       2.065  -5.655  -2.998  0.00  0.00     0.000 A 
ATOM      6  C6  BNZ d   1       2.901  -5.999  -1.961  0.00  0.00     0.000 A 
ENDROOT
TORSDOF 0
ENDMDL
