MODEL 1
REMARK minimizedAffinity 5.26115322
REMARK minimizedRMSD -1
REMARK  0 active torsions:
REMARK  status: ('A' for Active; 'I' for Inactive)
ROOT
ATOM      1  C1  BNZ d   1      -5.962  -5.206  -5.963  0.00  0.00     0.000 A 
ATOM      2  C2  BNZ d   1      -5.196  -5.884  -5.052  0.00  0.00     0.000 A 
ATOM      3  C3  BNZ d   1      -4.414  -5.211  -4.156  0.00  0.00     0.000 A 
ATOM      4  C4  BNZ d   1      -4.366  -3.864  -4.198  0.00  0.00     0.000 A 
ATOM      5  C5  BNZ d   1      -5.124  -3.166  -5.117  0.00  0.00     0.000 A 
ATOM      6  C6  BNZ d   1      -5.941  -3.846  -5.991  0.00  0.00     0.000 A 
ENDROOT
TORSDOF 0
ENDMDL
