MODEL 1
REMARK minimizedAffinity 0.82305187
REMARK minimizedRMSD -1
REMARK  0 active torsions:
REMARK  status: ('A' for Active; 'I' for Inactive)
ROOT
ATOM      1  C1  BNZ d   1      -4.424  -5.977  -5.967  0.00  0.00     0.000 A 
ATOM      2  C2  BNZ d   1      -3.399  -5.070  -5.914  0.00  0.00     0.000 A 
ATOM      3  C3  BNZ d   1      -3.654  -3.728  -5.871  0.00  0.00     0.000 A 
ATOM      4  C4  BNZ d   1      -4.930  -3.293  -5.923  0.00  0.00     0.000 A 
ATOM      5  C5  BNZ d   1      -5.973  -4.194  -5.986  0.00  0.00     0.000 A 
ATOM      6  C6  BNZ d   1      -5.715  -5.546  -5.990  0.00  0.00     0.000 A 
ENDROOT
TORSDOF 0
ENDMDL
