MODEL 1
REMARK minimizedAffinity 7.47068834
REMARK minimizedRMSD -1
REMARK  0 active torsions:
REMARK  status: ('A' for Active; 'I' for Inactive)
ROOT
ATOM      1  C1  BNZ d   1       1.494  -0.098   2.072  0.00  0.00     0.000 A 
ATOM      2  C2  BNZ d   1       1.560   1.259   1.897  0.00  0.00     0.000 A 
ATOM      3  C3  BNZ d   1       2.318   1.799   0.897  0.00  0.00     0.000 A 
ATOM      4  C4  BNZ d   1       3.040   0.987   0.099  0.00  0.00     0.000 A 
ATOM      5  C5  BNZ d   1       2.991  -0.383   0.268  0.00  0.00     0.000 A 
ATOM      6  C6  BNZ d   1       2.196  -0.926   1.252  0.00  0.00     0.000 A 
ENDROOT
TORSDOF 0
ENDMDL
