MODEL 1
REMARK minimizedAffinity 2.17174411
REMARK minimizedRMSD -1
REMARK  0 active torsions:
REMARK  status: ('A' for Active; 'I' for Inactive)
ROOT
ATOM      1  C1  BNZ d   1       4.594  -1.133  -5.036  0.00  0.00     0.000 A 
ATOM      2  C2  BNZ d   1       4.242  -2.025  -4.059  0.00  0.00     0.000 A 
ATOM      3  C3  BNZ d   1       4.782  -3.281  -4.030  0.00  0.00     0.000 A 
ATOM      4  C4  BNZ d   1       5.642  -3.655  -4.999  0.00  0.00     0.000 A 
ATOM      5  C5  BNZ d   1       6.000  -2.769  -5.996  0.00  0.00     0.000 A 
ATOM      6  C6  BNZ d   1       5.484  -1.494  -6.000  0.00  0.00     0.000 A 
ENDROOT
TORSDOF 0
ENDMDL
