MODEL 1
REMARK minimizedAffinity 1.99595761
REMARK minimizedRMSD -1
REMARK  0 active torsions:
REMARK  status: ('A' for Active; 'I' for Inactive)
ROOT
ATOM      1  C1  BNZ d   1      -4.438  -3.870  -4.187  0.00  0.00     0.000 A 
ATOM      2  C2  BNZ d   1      -4.503  -5.238  -4.193  0.00  0.00     0.000 A 
ATOM      3  C3  BNZ d   1      -5.269  -5.898  -5.113  0.00  0.00     0.000 A 
ATOM      4  C4  BNZ d   1      -5.999  -5.189  -5.999  0.00  0.00     0.000 A 
ATOM      5  C5  BNZ d   1      -5.951  -3.810  -5.999  0.00  0.00     0.000 A 
ATOM      6  C6  BNZ d   1      -5.149  -3.150  -5.096  0.00  0.00     0.000 A 
ENDROOT
TORSDOF 0
ENDMDL
