MODEL 1
REMARK minimizedAffinity 12.0296803
REMARK minimizedRMSD -1
REMARK  2 active torsions:
REMARK  status: ('A' for Active; 'I' for Inactive)
REMARK    1  A    between atoms: C2'_3  and  C1'_4 
REMARK    2  A    between atoms: C1'_4  and  C1_5 
ROOT
ATOM      1  C1  I4B d   1       2.585   0.280   0.771  0.00  0.00    -0.075 A 
ATOM      2  C2  I4B d   1       3.691   0.550   0.003  0.00  0.00     0.003 A 
ATOM      3  C3  I4B d   1       3.616   0.470  -1.408  0.00  0.00     0.002 A 
ATOM      4  C4  I4B d   1       2.438   0.068  -2.005  0.00  0.00    -0.004 A 
ATOM      5  C5  I4B d   1       1.312  -0.184  -1.226  0.00  0.00     0.002 A 
ATOM      6  C6  I4B d   1       1.382  -0.065   0.169  0.00  0.00     0.003 A 
ENDROOT
BRANCH   1   7
ATOM      7  C1' I4B d   1       2.709   0.342   2.260  0.00  0.00     0.060 C 
BRANCH   7   8
ATOM      8  C2' I4B d   1       2.132   1.666   2.721  0.00  0.00    -0.013 C 
ATOM      9  C4' I4B d   1       1.808   1.637   4.191  0.00  0.00     0.013 C 
ATOM     10  C3' I4B d   1       3.130   2.740   2.407  0.00  0.00     0.013 C 
ENDBRANCH   7   8
ENDBRANCH   1   7
TORSDOF 2
ENDMDL
