MODEL 1
REMARK minimizedAffinity -1.51787829
REMARK minimizedRMSD -1
REMARK  2 active torsions:
REMARK  status: ('A' for Active; 'I' for Inactive)
REMARK    1  A    between atoms: C2'_3  and  C1'_4 
REMARK    2  A    between atoms: C1'_4  and  C1_5 
ROOT
ATOM      1  C1  I4B d   1       3.428   0.194  -1.982  0.00  0.00    -0.075 A 
ATOM      2  C2  I4B d   1       3.871   0.036  -3.272  0.00  0.00     0.003 A 
ATOM      3  C3  I4B d   1       5.185   0.426  -3.627  0.00  0.00     0.002 A 
ATOM      4  C4  I4B d   1       6.000   1.011  -2.679  0.00  0.00    -0.004 A 
ATOM      5  C5  I4B d   1       5.557   1.149  -1.367  0.00  0.00     0.002 A 
ATOM      6  C6  I4B d   1       4.267   0.727  -1.013  0.00  0.00     0.003 A 
ENDROOT
BRANCH   1   7
ATOM      7  C1' I4B d   1       2.023  -0.198  -1.650  0.00  0.00     0.060 C 
BRANCH   7   8
ATOM      8  C2' I4B d   1       1.475   0.818  -0.669  0.00  0.00    -0.013 C 
ATOM      9  C4' I4B d   1       0.065   1.212  -1.022  0.00  0.00     0.013 C 
ATOM     10  C3' I4B d   1       1.541   0.219   0.704  0.00  0.00     0.013 C 
ENDBRANCH   7   8
ENDBRANCH   1   7
TORSDOF 2
ENDMDL
