MODEL 1
REMARK minimizedAffinity 4.39550257
REMARK minimizedRMSD -1
REMARK  2 active torsions:
REMARK  status: ('A' for Active; 'I' for Inactive)
REMARK    1  A    between atoms: C2'_3  and  C1'_4 
REMARK    2  A    between atoms: C1'_4  and  C1_5 
ROOT
ATOM      1  C1  I4B d   1      -0.312   2.166  -0.302  0.00  0.00    -0.075 A 
ATOM      2  C2  I4B d   1      -1.661   2.355  -0.473  0.00  0.00     0.003 A 
ATOM      3  C3  I4B d   1      -2.302   3.477   0.106  0.00  0.00     0.002 A 
ATOM      4  C4  I4B d   1      -1.571   4.350   0.885  0.00  0.00    -0.004 A 
ATOM      5  C5  I4B d   1      -0.200   4.169   1.038  0.00  0.00     0.002 A 
ATOM      6  C6  I4B d   1       0.436   3.077   0.431  0.00  0.00     0.003 A 
ENDROOT
BRANCH   1   7
ATOM      7  C1' I4B d   1       0.327   0.953  -0.901  0.00  0.00     0.060 C 
BRANCH   7   8
ATOM      8  C2' I4B d   1       1.828   1.102  -0.766  0.00  0.00    -0.013 C 
ATOM      9  C4' I4B d   1       2.319   0.526   0.536  0.00  0.00     0.013 C 
ATOM     10  C3' I4B d   1       2.468   0.417  -1.936  0.00  0.00     0.013 C 
ENDBRANCH   7   8
ENDBRANCH   1   7
TORSDOF 2
ENDMDL
