MODEL 1
REMARK minimizedAffinity 4.65519094
REMARK minimizedRMSD -1
REMARK  2 active torsions:
REMARK  status: ('A' for Active; 'I' for Inactive)
REMARK    1  A    between atoms: C2'_3  and  C1'_4 
REMARK    2  A    between atoms: C1'_4  and  C1_5 
ROOT
ATOM      1  C1  I4B d   1      -2.683   3.367   0.900  0.00  0.00    -0.075 A 
ATOM      2  C2  I4B d   1      -2.971   3.521   2.233  0.00  0.00     0.003 A 
ATOM      3  C3  I4B d   1      -2.041   4.152   3.095  0.00  0.00     0.002 A 
ATOM      4  C4  I4B d   1      -0.823   4.566   2.595  0.00  0.00    -0.004 A 
ATOM      5  C5  I4B d   1      -0.542   4.430   1.239  0.00  0.00     0.002 A 
ATOM      6  C6  I4B d   1      -1.483   3.838   0.383  0.00  0.00     0.003 A 
ENDROOT
BRANCH   1   7
ATOM      7  C1' I4B d   1      -3.673   2.667   0.025  0.00  0.00     0.060 C 
BRANCH   7   8
ATOM      8  C2' I4B d   1      -3.330   1.191   0.020  0.00  0.00    -0.013 C 
ATOM      9  C4' I4B d   1      -4.557   0.345   0.234  0.00  0.00     0.013 C 
ATOM     10  C3' I4B d   1      -2.675   0.873  -1.291  0.00  0.00     0.013 C 
ENDBRANCH   7   8
ENDBRANCH   1   7
TORSDOF 2
ENDMDL
