MODEL 1
REMARK minimizedAffinity 7.37416792
REMARK minimizedRMSD -1
REMARK  2 active torsions:
REMARK  status: ('A' for Active; 'I' for Inactive)
REMARK    1  A    between atoms: C2'_3  and  C1'_4 
REMARK    2  A    between atoms: C1'_4  and  C1_5 
ROOT
ATOM      1  C1  I4B d   1       1.560   1.551   0.706  0.00  0.00    -0.075 A 
ATOM      2  C2  I4B d   1       1.491   0.449  -0.109  0.00  0.00     0.003 A 
ATOM      3  C3  I4B d   1       0.484   0.357  -1.101  0.00  0.00     0.002 A 
ATOM      4  C4  I4B d   1      -0.457   1.361  -1.208  0.00  0.00    -0.004 A 
ATOM      5  C5  I4B d   1      -0.372   2.488  -0.396  0.00  0.00     0.002 A 
ATOM      6  C6  I4B d   1       0.650   2.590   0.559  0.00  0.00     0.003 A 
ENDROOT
BRANCH   1   7
ATOM      7  C1' I4B d   1       2.616   1.599   1.764  0.00  0.00     0.060 C 
BRANCH   7   8
ATOM      8  C2' I4B d   1       2.307   0.520   2.782  0.00  0.00    -0.013 C 
ATOM      9  C4' I4B d   1       3.370  -0.546   2.786  0.00  0.00     0.013 C 
ATOM     10  C3' I4B d   1       2.189   1.172   4.127  0.00  0.00     0.013 C 
ENDBRANCH   7   8
ENDBRANCH   1   7
TORSDOF 2
ENDMDL
