MODEL 1
REMARK minimizedAffinity 6.0273056
REMARK minimizedRMSD -1
REMARK  2 active torsions:
REMARK  status: ('A' for Active; 'I' for Inactive)
REMARK    1  A    between atoms: C2'_3  and  C1'_4 
REMARK    2  A    between atoms: C1'_4  and  C1_5 
ROOT
ATOM      1  C1  I4B d   1       3.177   0.699  -0.509  0.00  0.00    -0.075 A 
ATOM      2  C2  I4B d   1       3.374   0.702  -1.867  0.00  0.00     0.003 A 
ATOM      3  C3  I4B d   1       4.553   1.264  -2.416  0.00  0.00     0.002 A 
ATOM      4  C4  I4B d   1       5.477   1.853  -1.578  0.00  0.00    -0.004 A 
ATOM      5  C5  I4B d   1       5.287   1.829  -0.200  0.00  0.00     0.002 A 
ATOM      6  C6  I4B d   1       4.136   1.237   0.340  0.00  0.00     0.003 A 
ENDROOT
BRANCH   1   7
ATOM      7  C1' I4B d   1       1.906   0.126   0.034  0.00  0.00     0.060 C 
BRANCH   7   8
ATOM      8  C2' I4B d   1       0.804   0.402  -0.969  0.00  0.00    -0.013 C 
ATOM      9  C4' I4B d   1      -0.341  -0.561  -0.799  0.00  0.00     0.013 C 
ATOM     10  C3' I4B d   1       0.352   1.820  -0.781  0.00  0.00     0.013 C 
ENDBRANCH   7   8
ENDBRANCH   1   7
TORSDOF 2
ENDMDL
