MODEL 1
REMARK minimizedAffinity 3.95127225
REMARK minimizedRMSD -1
REMARK  2 active torsions:
REMARK  status: ('A' for Active; 'I' for Inactive)
REMARK    1  A    between atoms: C2'_3  and  C1'_4 
REMARK    2  A    between atoms: C1'_4  and  C1_5 
ROOT
ATOM      1  C1  I4B d   1       3.749   0.669  -1.805  0.00  0.00    -0.075 A 
ATOM      2  C2  I4B d   1       4.076   0.989  -3.099  0.00  0.00     0.003 A 
ATOM      3  C3  I4B d   1       5.166   1.852  -3.366  0.00  0.00     0.002 A 
ATOM      4  C4  I4B d   1       5.866   2.408  -2.315  0.00  0.00    -0.004 A 
ATOM      5  C5  I4B d   1       5.547   2.065  -1.004  0.00  0.00     0.002 A 
ATOM      6  C6  I4B d   1       4.489   1.181  -0.747  0.00  0.00     0.003 A 
ENDROOT
BRANCH   1   7
ATOM      7  C1' I4B d   1       2.570  -0.219  -1.557  0.00  0.00     0.060 C 
BRANCH   7   8
ATOM      8  C2' I4B d   1       1.585   0.543  -0.695  0.00  0.00    -0.013 C 
ATOM      9  C4' I4B d   1       0.173   0.354  -1.184  0.00  0.00     0.013 C 
ATOM     10  C3' I4B d   1       1.738   0.062   0.717  0.00  0.00     0.013 C 
ENDBRANCH   7   8
ENDBRANCH   1   7
TORSDOF 2
ENDMDL
