MODEL 1
REMARK minimizedAffinity 1.34071171
REMARK minimizedRMSD -1
REMARK  2 active torsions:
REMARK  status: ('A' for Active; 'I' for Inactive)
REMARK    1  A    between atoms: C2'_3  and  C1'_4 
REMARK    2  A    between atoms: C1'_4  and  C1_5 
ROOT
ATOM      1  C1  I4B d   1       2.709   0.114  -1.505  0.00  0.00    -0.075 A 
ATOM      2  C2  I4B d   1       1.480  -0.090  -0.929  0.00  0.00     0.003 A 
ATOM      3  C3  I4B d   1       1.310   0.080   0.467  0.00  0.00     0.002 A 
ATOM      4  C4  I4B d   1       2.400   0.403   1.250  0.00  0.00    -0.004 A 
ATOM      5  C5  I4B d   1       3.640   0.632   0.660  0.00  0.00     0.002 A 
ATOM      6  C6  I4B d   1       3.793   0.499  -0.727  0.00  0.00     0.003 A 
ENDROOT
BRANCH   1   7
ATOM      7  C1' I4B d   1       2.860  -0.106  -2.977  0.00  0.00     0.060 C 
BRANCH   7   8
ATOM      8  C2' I4B d   1       4.329   0.032  -3.321  0.00  0.00    -0.013 C 
ATOM      9  C4' I4B d   1       4.639  -0.601  -4.652  0.00  0.00     0.013 C 
ATOM     10  C3' I4B d   1       4.668   1.493  -3.324  0.00  0.00     0.013 C 
ENDBRANCH   7   8
ENDBRANCH   1   7
TORSDOF 2
ENDMDL
