MODEL 1
REMARK minimizedAffinity 2.76447797
REMARK minimizedRMSD -1
REMARK  0 active torsions:
REMARK  status: ('A' for Active; 'I' for Inactive)
ROOT
ATOM      1  C   UNL d   1      -2.004  -0.428  -0.891  0.00  0.00    -0.002 A 
ATOM      2  C1  UNL d   1      -2.246  -0.554   0.470  0.00  0.00     0.010 A 
ATOM      3  C2  UNL d   1      -1.192  -0.754   1.363  0.00  0.00     0.041 A 
ATOM      4  C3  UNL d   1       0.122  -0.824   0.862  0.00  0.00    -0.075 A 
ATOM      5  S   UNL d   1       1.570  -1.062   1.768  0.00  0.00     0.015 SA
ATOM      6  C4  UNL d   1       2.543  -1.001   0.371  0.00  0.00     0.022 A 
ATOM      7  C5  UNL d   1       1.799  -0.804  -0.768  0.00  0.00     0.026 A 
ATOM      8  C6  UNL d   1       0.392  -0.698  -0.504  0.00  0.00    -0.082 A 
ATOM      9  C7  UNL d   1      -0.699  -0.497  -1.385  0.00  0.00     0.045 A 
ENDROOT
TORSDOF 0
ENDMDL
