MODEL 1
REMARK minimizedAffinity 0.841589451
REMARK minimizedRMSD -1
REMARK  0 active torsions:
REMARK  status: ('A' for Active; 'I' for Inactive)
ROOT
ATOM      1  C   UNL d   1       2.253   4.215   4.150  0.00  0.00    -0.002 A 
ATOM      2  C1  UNL d   1       2.731   5.419   4.648  0.00  0.00     0.010 A 
ATOM      3  C2  UNL d   1       3.885   5.999   4.118  0.00  0.00     0.041 A 
ATOM      4  C3  UNL d   1       4.556   5.344   3.067  0.00  0.00    -0.075 A 
ATOM      5  S   UNL d   1       5.987   5.868   2.261  0.00  0.00     0.015 SA
ATOM      6  C4  UNL d   1       5.998   4.506   1.236  0.00  0.00     0.022 A 
ATOM      7  C5  UNL d   1       4.943   3.662   1.489  0.00  0.00     0.026 A 
ATOM      8  C6  UNL d   1       4.094   4.131   2.548  0.00  0.00    -0.082 A 
ATOM      9  C7  UNL d   1       2.922   3.567   3.108  0.00  0.00     0.045 A 
ENDROOT
TORSDOF 0
ENDMDL
