MODEL 1
REMARK minimizedAffinity 4.18394995
REMARK minimizedRMSD -1
REMARK  0 active torsions:
REMARK  status: ('A' for Active; 'I' for Inactive)
ROOT
ATOM      1  C   UNL d   1       0.088  -3.335   2.924  0.00  0.00    -0.002 A 
ATOM      2  C1  UNL d   1       1.099  -3.513   1.990  0.00  0.00     0.010 A 
ATOM      3  C2  UNL d   1       1.316  -2.565   0.989  0.00  0.00     0.041 A 
ATOM      4  C3  UNL d   1       0.493  -1.422   0.942  0.00  0.00    -0.075 A 
ATOM      5  S   UNL d   1       0.575  -0.128  -0.194  0.00  0.00     0.015 SA
ATOM      6  C4  UNL d   1      -0.729   0.692   0.534  0.00  0.00     0.022 A 
ATOM      7  C5  UNL d   1      -1.227   0.010   1.619  0.00  0.00     0.026 A 
ATOM      8  C6  UNL d   1      -0.531  -1.220   1.872  0.00  0.00    -0.082 A 
ATOM      9  C7  UNL d   1      -0.726  -2.200   2.875  0.00  0.00     0.045 A 
ENDROOT
TORSDOF 0
ENDMDL
