MODEL 1
REMARK minimizedAffinity 10.6196499
REMARK minimizedRMSD -1
REMARK  0 active torsions:
REMARK  status: ('A' for Active; 'I' for Inactive)
ROOT
ATOM      1  C   UNL d   1       4.381  -4.927   4.725  0.00  0.00    -0.002 A 
ATOM      2  C1  UNL d   1       4.213  -3.780   5.487  0.00  0.00     0.010 A 
ATOM      3  C2  UNL d   1       3.244  -2.834   5.144  0.00  0.00     0.041 A 
ATOM      4  C3  UNL d   1       2.439  -3.064   4.011  0.00  0.00    -0.075 A 
ATOM      5  S   UNL d   1       1.189  -2.046   3.400  0.00  0.00     0.015 SA
ATOM      6  C4  UNL d   1       0.848  -3.110   2.113  0.00  0.00     0.022 A 
ATOM      7  C5  UNL d   1       1.659  -4.220   2.134  0.00  0.00     0.026 A 
ATOM      8  C6  UNL d   1       2.589  -4.212   3.228  0.00  0.00    -0.082 A 
ATOM      9  C7  UNL d   1       3.580  -5.151   3.602  0.00  0.00     0.045 A 
ENDROOT
TORSDOF 0
ENDMDL
