MODEL 1
REMARK minimizedAffinity 1.0381099
REMARK minimizedRMSD -1
REMARK  0 active torsions:
REMARK  status: ('A' for Active; 'I' for Inactive)
ROOT
ATOM      1  C   UNL d   1       5.701   5.993   2.606  0.00  0.00    -0.002 A 
ATOM      2  C1  UNL d   1       4.705   5.989   1.640  0.00  0.00     0.010 A 
ATOM      3  C2  UNL d   1       3.358   5.988   2.008  0.00  0.00     0.041 A 
ATOM      4  C3  UNL d   1       3.026   5.992   3.378  0.00  0.00    -0.075 A 
ATOM      5  S   UNL d   1       1.444   5.991   4.063  0.00  0.00     0.015 SA
ATOM      6  C4  UNL d   1       2.053   5.997   5.655  0.00  0.00     0.022 A 
ATOM      7  C5  UNL d   1       3.428   5.999   5.681  0.00  0.00     0.026 A 
ATOM      8  C6  UNL d   1       4.011   5.997   4.369  0.00  0.00    -0.082 A 
ATOM      9  C7  UNL d   1       5.367   5.998   3.963  0.00  0.00     0.045 A 
ENDROOT
TORSDOF 0
ENDMDL
