MODEL 1
REMARK minimizedAffinity -2.93769884
REMARK minimizedRMSD -1
REMARK  0 active torsions:
REMARK  status: ('A' for Active; 'I' for Inactive)
ROOT
ATOM      1  C   UNL d   1       4.839   5.346   1.447  0.00  0.00    -0.002 A 
ATOM      2  C1  UNL d   1       5.995   5.764   2.089  0.00  0.00     0.010 A 
ATOM      3  C2  UNL d   1       6.000   5.990   3.467  0.00  0.00     0.041 A 
ATOM      4  C3  UNL d   1       4.811   5.786   4.195  0.00  0.00    -0.075 A 
ATOM      5  S   UNL d   1       4.581   6.000   5.891  0.00  0.00     0.015 SA
ATOM      6  C4  UNL d   1       2.942   5.540   5.802  0.00  0.00     0.022 A 
ATOM      7  C5  UNL d   1       2.563   5.229   4.517  0.00  0.00     0.026 A 
ATOM      8  C6  UNL d   1       3.634   5.364   3.571  0.00  0.00    -0.082 A 
ATOM      9  C7  UNL d   1       3.662   5.144   2.172  0.00  0.00     0.045 A 
ENDROOT
TORSDOF 0
ENDMDL
