MODEL 1
REMARK minimizedAffinity 3.62037468
REMARK minimizedRMSD -1
REMARK  0 active torsions:
REMARK  status: ('A' for Active; 'I' for Inactive)
ROOT
ATOM      1  C   UNL d   1      -2.515   0.353   1.138  0.00  0.00    -0.002 A 
ATOM      2  C1  UNL d   1      -1.907  -0.095  -0.026  0.00  0.00     0.010 A 
ATOM      3  C2  UNL d   1      -0.866  -1.024   0.029  0.00  0.00     0.041 A 
ATOM      4  C3  UNL d   1      -0.445  -1.502   1.286  0.00  0.00    -0.075 A 
ATOM      5  S   UNL d   1       0.809  -2.644   1.596  0.00  0.00     0.015 SA
ATOM      6  C4  UNL d   1       0.566  -2.565   3.281  0.00  0.00     0.022 A 
ATOM      7  C5  UNL d   1      -0.443  -1.693   3.616  0.00  0.00     0.026 A 
ATOM      8  C6  UNL d   1      -1.043  -1.067   2.472  0.00  0.00    -0.082 A 
ATOM      9  C7  UNL d   1      -2.094  -0.123   2.383  0.00  0.00     0.045 A 
ENDROOT
TORSDOF 0
ENDMDL
