MODEL 1
REMARK minimizedAffinity 4.87879038
REMARK minimizedRMSD -1
REMARK  0 active torsions:
REMARK  status: ('A' for Active; 'I' for Inactive)
ROOT
ATOM      1  C   UNL d   1      -2.320  -0.812   1.821  0.00  0.00    -0.002 A 
ATOM      2  C1  UNL d   1      -1.376  -1.204   2.760  0.00  0.00     0.010 A 
ATOM      3  C2  UNL d   1      -0.020  -0.940   2.557  0.00  0.00     0.041 A 
ATOM      4  C3  UNL d   1       0.375  -0.267   1.384  0.00  0.00    -0.075 A 
ATOM      5  S   UNL d   1       1.979   0.165   0.923  0.00  0.00     0.015 SA
ATOM      6  C4  UNL d   1       1.450   0.880  -0.530  0.00  0.00     0.022 A 
ATOM      7  C5  UNL d   1       0.085   0.800  -0.677  0.00  0.00     0.026 A 
ATOM      8  C6  UNL d   1      -0.557   0.138   0.424  0.00  0.00    -0.082 A 
ATOM      9  C7  UNL d   1      -1.924  -0.145   0.659  0.00  0.00     0.045 A 
ENDROOT
TORSDOF 0
ENDMDL
