MODEL 1
REMARK minimizedAffinity 6.58933353
REMARK minimizedRMSD -1
REMARK  0 active torsions:
REMARK  status: ('A' for Active; 'I' for Inactive)
ROOT
ATOM      1  C   UNL d   1      -3.672  -0.469   0.165  0.00  0.00    -0.002 A 
ATOM      2  C1  UNL d   1      -3.860  -0.548   1.537  0.00  0.00     0.010 A 
ATOM      3  C2  UNL d   1      -2.766  -0.592   2.403  0.00  0.00     0.041 A 
ATOM      4  C3  UNL d   1      -1.466  -0.554   1.861  0.00  0.00    -0.075 A 
ATOM      5  S   UNL d   1       0.024  -0.595   2.728  0.00  0.00     0.015 SA
ATOM      6  C4  UNL d   1       0.945  -0.508   1.297  0.00  0.00     0.022 A 
ATOM      7  C5  UNL d   1       0.152  -0.449   0.176  0.00  0.00     0.026 A 
ATOM      8  C6  UNL d   1      -1.251  -0.474   0.482  0.00  0.00    -0.082 A 
ATOM      9  C7  UNL d   1      -2.381  -0.432  -0.369  0.00  0.00     0.045 A 
ENDROOT
TORSDOF 0
ENDMDL
