MODEL 1
REMARK minimizedAffinity 6.75475264
REMARK minimizedRMSD -1
REMARK  1 active torsions:
REMARK  status: ('A' for Active; 'I' for Inactive)
REMARK    1  A    between atoms: C1_2  and  C2_3 
ROOT
ATOM      1  C2  UNL d   1       3.234   0.451  -0.747  0.00  0.00    -0.076 A 
ATOM      2  C3  UNL d   1       3.846   1.686  -1.025  0.00  0.00     0.004 A 
ATOM      3  C4  UNL d   1       5.217   1.863  -0.851  0.00  0.00    -0.003 A 
ATOM      4  C5  UNL d   1       6.000   0.808  -0.395  0.00  0.00     0.000 A 
ATOM      5  C6  UNL d   1       5.413  -0.429  -0.130  0.00  0.00     0.000 A 
ATOM      6  C7  UNL d   1       4.034  -0.629  -0.317  0.00  0.00    -0.073 A 
ATOM      7  C8  UNL d   1       3.453  -1.982  -0.010  0.00  0.00     0.078 C 
ENDROOT
BRANCH   1   8
ATOM      8  C1  UNL d   1       1.738   0.326  -0.929  0.00  0.00     0.053 C 
ATOM      9  C   UNL d   1       0.966   0.678   0.333  0.00  0.00     0.018 C 
ENDBRANCH   1   8
TORSDOF 1
ENDMDL
