MODEL 1
REMARK minimizedAffinity 0.875433385
REMARK minimizedRMSD -1
REMARK  1 active torsions:
REMARK  status: ('A' for Active; 'I' for Inactive)
REMARK    1  A    between atoms: C1_2  and  C2_3 
ROOT
ATOM      1  C2  UNL d   1       5.162   2.376  -0.779  0.00  0.00    -0.076 A 
ATOM      2  C3  UNL d   1       5.202   3.422  -1.717  0.00  0.00     0.004 A 
ATOM      3  C4  UNL d   1       5.613   4.701  -1.348  0.00  0.00    -0.003 A 
ATOM      4  C5  UNL d   1       5.991   4.956  -0.034  0.00  0.00     0.000 A 
ATOM      5  C6  UNL d   1       5.974   3.926   0.906  0.00  0.00     0.000 A 
ATOM      6  C7  UNL d   1       5.578   2.626   0.546  0.00  0.00    -0.073 A 
ATOM      7  C8  UNL d   1       5.573   1.555   1.602  0.00  0.00     0.078 C 
ENDROOT
BRANCH   1   8
ATOM      8  C1  UNL d   1       4.682   1.015  -1.231  0.00  0.00     0.053 C 
ATOM      9  C   UNL d   1       3.808   0.330  -0.191  0.00  0.00     0.018 C 
ENDBRANCH   1   8
TORSDOF 1
ENDMDL
