MODEL 1
REMARK minimizedAffinity 4.67738247
REMARK minimizedRMSD -1
REMARK  1 active torsions:
REMARK  status: ('A' for Active; 'I' for Inactive)
REMARK    1  A    between atoms: C1_2  and  C2_3 
ROOT
ATOM      1  C2  UNL d   1       5.353   2.476  -0.598  0.00  0.00    -0.076 A 
ATOM      2  C3  UNL d   1       5.083   1.921  -1.861  0.00  0.00     0.004 A 
ATOM      3  C4  UNL d   1       4.511   0.656  -1.981  0.00  0.00    -0.003 A 
ATOM      4  C5  UNL d   1       4.199  -0.075  -0.840  0.00  0.00     0.000 A 
ATOM      5  C6  UNL d   1       4.443   0.468   0.421  0.00  0.00     0.000 A 
ATOM      6  C7  UNL d   1       5.005   1.749   0.560  0.00  0.00    -0.073 A 
ATOM      7  C8  UNL d   1       5.252   2.282   1.944  0.00  0.00     0.078 C 
ENDROOT
BRANCH   1   8
ATOM      8  C1  UNL d   1       6.000   3.841  -0.530  0.00  0.00     0.053 C 
ATOM      9  C   UNL d   1       5.993   4.557  -1.872  0.00  0.00     0.018 C 
ENDBRANCH   1   8
TORSDOF 1
ENDMDL
