MODEL 1
REMARK minimizedAffinity 8.21906853
REMARK minimizedRMSD -1
REMARK  1 active torsions:
REMARK  status: ('A' for Active; 'I' for Inactive)
REMARK    1  A    between atoms: C1_2  and  C2_3 
ROOT
ATOM      1  C2  UNL d   1       0.802   2.442   2.286  0.00  0.00    -0.076 A 
ATOM      2  C3  UNL d   1       0.224   3.683   1.963  0.00  0.00     0.004 A 
ATOM      3  C4  UNL d   1      -0.955   3.754   1.223  0.00  0.00    -0.003 A 
ATOM      4  C5  UNL d   1      -1.576   2.586   0.794  0.00  0.00     0.000 A 
ATOM      5  C6  UNL d   1      -1.027   1.347   1.121  0.00  0.00     0.000 A 
ATOM      6  C7  UNL d   1       0.153   1.257   1.880  0.00  0.00    -0.073 A 
ATOM      7  C8  UNL d   1       0.704  -0.106   2.198  0.00  0.00     0.078 C 
ENDROOT
BRANCH   1   8
ATOM      8  C1  UNL d   1       2.096   2.428   3.067  0.00  0.00     0.053 C 
ATOM      9  C   UNL d   1       2.769   3.791   3.106  0.00  0.00     0.018 C 
ENDBRANCH   1   8
TORSDOF 1
ENDMDL
