MODEL 1
REMARK minimizedAffinity 10.7074499
REMARK minimizedRMSD -1
REMARK  1 active torsions:
REMARK  status: ('A' for Active; 'I' for Inactive)
REMARK    1  A    between atoms: C1_2  and  C2_3 
ROOT
ATOM      1  C2  UNL d   1      -5.513   3.503   3.398  0.00  0.00    -0.076 A 
ATOM      2  C3  UNL d   1      -5.740   2.612   4.461  0.00  0.00     0.004 A 
ATOM      3  C4  UNL d   1      -5.982   3.080   5.751  0.00  0.00    -0.003 A 
ATOM      4  C5  UNL d   1      -6.000   4.448   6.000  0.00  0.00     0.000 A 
ATOM      5  C6  UNL d   1      -5.794   5.348   4.954  0.00  0.00     0.000 A 
ATOM      6  C7  UNL d   1      -5.565   4.892   3.644  0.00  0.00    -0.073 A 
ATOM      7  C8  UNL d   1      -5.343   5.906   2.555  0.00  0.00     0.078 C 
ENDROOT
BRANCH   1   8
ATOM      8  C1  UNL d   1      -5.229   2.936   2.025  0.00  0.00     0.053 C 
ATOM      9  C   UNL d   1      -4.255   1.769   2.067  0.00  0.00     0.018 C 
ENDBRANCH   1   8
TORSDOF 1
ENDMDL
