MODEL 1
REMARK minimizedAffinity 16.1854935
REMARK minimizedRMSD -1
REMARK  1 active torsions:
REMARK  status: ('A' for Active; 'I' for Inactive)
REMARK    1  A    between atoms: C1_2  and  C2_3 
ROOT
ATOM      1  C2  UNL d   1      -5.255   1.763  -2.979  0.00  0.00    -0.076 A 
ATOM      2  C3  UNL d   1      -5.995   2.782  -2.355  0.00  0.00     0.004 A 
ATOM      3  C4  UNL d   1      -6.000   4.080  -2.863  0.00  0.00    -0.003 A 
ATOM      4  C5  UNL d   1      -5.264   4.380  -4.004  0.00  0.00     0.000 A 
ATOM      5  C6  UNL d   1      -4.538   3.378  -4.646  0.00  0.00     0.000 A 
ATOM      6  C7  UNL d   1      -4.536   2.061  -4.157  0.00  0.00    -0.073 A 
ATOM      7  C8  UNL d   1      -3.730   1.021  -4.886  0.00  0.00     0.078 C 
ENDROOT
BRANCH   1   8
ATOM      8  C1  UNL d   1      -5.267   0.381  -2.367  0.00  0.00     0.053 C 
ATOM      9  C   UNL d   1      -5.998   0.339  -1.035  0.00  0.00     0.018 C 
ENDBRANCH   1   8
TORSDOF 1
ENDMDL
