MODEL 1
REMARK minimizedAffinity 7.4894948
REMARK minimizedRMSD -1
REMARK  1 active torsions:
REMARK  status: ('A' for Active; 'I' for Inactive)
REMARK    1  A    between atoms: C1_2  and  C2_3 
ROOT
ATOM      1  C2  UNL d   1       2.091  -2.771  -0.802  0.00  0.00    -0.076 A 
ATOM      2  C3  UNL d   1       2.147  -2.004  -1.979  0.00  0.00     0.004 A 
ATOM      3  C4  UNL d   1       2.849  -0.800  -2.019  0.00  0.00    -0.003 A 
ATOM      4  C5  UNL d   1       3.506  -0.344  -0.882  0.00  0.00     0.000 A 
ATOM      5  C6  UNL d   1       3.476  -1.100   0.290  0.00  0.00     0.000 A 
ATOM      6  C7  UNL d   1       2.786  -2.324   0.341  0.00  0.00    -0.073 A 
ATOM      7  C8  UNL d   1       2.781  -3.095   1.633  0.00  0.00     0.078 C 
ENDROOT
BRANCH   1   8
ATOM      8  C1  UNL d   1       1.292  -4.054  -0.812  0.00  0.00     0.053 C 
ATOM      9  C   UNL d   1      -0.072  -3.887  -1.464  0.00  0.00     0.018 C 
ENDBRANCH   1   8
TORSDOF 1
ENDMDL
