MODEL 1
REMARK minimizedAffinity 16.6029148
REMARK minimizedRMSD -1
REMARK  1 active torsions:
REMARK  status: ('A' for Active; 'I' for Inactive)
REMARK    1  A    between atoms: C1_2  and  C2_3 
ROOT
ATOM      1  C2  UNL d   1       4.305  -0.002   0.370  0.00  0.00    -0.076 A 
ATOM      2  C3  UNL d   1       3.313  -0.968   0.608  0.00  0.00     0.004 A 
ATOM      3  C4  UNL d   1       2.296  -1.196  -0.317  0.00  0.00    -0.003 A 
ATOM      4  C5  UNL d   1       2.255  -0.461  -1.497  0.00  0.00     0.000 A 
ATOM      5  C6  UNL d   1       3.242   0.489  -1.758  0.00  0.00     0.000 A 
ATOM      6  C7  UNL d   1       4.283   0.719  -0.843  0.00  0.00    -0.073 A 
ATOM      7  C8  UNL d   1       5.318   1.761  -1.173  0.00  0.00     0.078 C 
ENDROOT
BRANCH   1   8
ATOM      8  C1  UNL d   1       5.368   0.220   1.423  0.00  0.00     0.053 C 
ATOM      9  C   UNL d   1       5.998  -1.080   1.897  0.00  0.00     0.018 C 
ENDBRANCH   1   8
TORSDOF 1
ENDMDL
