MODEL 1
REMARK minimizedAffinity 11.4830332
REMARK minimizedRMSD -1
REMARK  1 active torsions:
REMARK  status: ('A' for Active; 'I' for Inactive)
REMARK    1  A    between atoms: C1_2  and  C2_3 
ROOT
ATOM      1  C2  UNL d   1       2.007  -0.857   0.952  0.00  0.00    -0.076 A 
ATOM      2  C3  UNL d   1       2.423  -2.197   1.026  0.00  0.00     0.004 A 
ATOM      3  C4  UNL d   1       1.925  -3.050   2.010  0.00  0.00    -0.003 A 
ATOM      4  C5  UNL d   1       1.003  -2.576   2.936  0.00  0.00     0.000 A 
ATOM      5  C6  UNL d   1       0.566  -1.253   2.866  0.00  0.00     0.000 A 
ATOM      6  C7  UNL d   1       1.045  -0.385   1.871  0.00  0.00    -0.073 A 
ATOM      7  C8  UNL d   1       0.544   1.033   1.846  0.00  0.00     0.078 C 
ENDROOT
BRANCH   1   8
ATOM      8  C1  UNL d   1       2.602   0.028  -0.120  0.00  0.00     0.053 C 
ATOM      9  C   UNL d   1       4.099   0.229   0.054  0.00  0.00     0.018 C 
ENDBRANCH   1   8
TORSDOF 1
ENDMDL
