MODEL 1
REMARK minimizedAffinity 5.11309719
REMARK minimizedRMSD -1
REMARK  1 active torsions:
REMARK  status: ('A' for Active; 'I' for Inactive)
REMARK    1  A    between atoms: C1_2  and  C2_3 
ROOT
ATOM      1  C2  UNL d   1       5.089   2.089  -0.071  0.00  0.00    -0.076 A 
ATOM      2  C3  UNL d   1       4.771   1.481  -1.298  0.00  0.00     0.004 A 
ATOM      3  C4  UNL d   1       3.956   0.352  -1.348  0.00  0.00    -0.003 A 
ATOM      4  C5  UNL d   1       3.445  -0.188  -0.173  0.00  0.00     0.000 A 
ATOM      5  C6  UNL d   1       3.736   0.413   1.051  0.00  0.00     0.000 A 
ATOM      6  C7  UNL d   1       4.543   1.561   1.119  0.00  0.00    -0.073 A 
ATOM      7  C8  UNL d   1       4.829   2.165   2.467  0.00  0.00     0.078 C 
ENDROOT
BRANCH   1   8
ATOM      8  C1  UNL d   1       6.000   3.296  -0.076  0.00  0.00     0.053 C 
ATOM      9  C   UNL d   1       5.288   4.562  -0.527  0.00  0.00     0.018 C 
ENDBRANCH   1   8
TORSDOF 1
ENDMDL
