MODEL 1
REMARK minimizedAffinity -3.76303482
REMARK minimizedRMSD -1
REMARK  0 active torsions:
REMARK  status: ('A' for Active; 'I' for Inactive)
ROOT
ATOM      1  C   UNL d   1      -1.289  -0.062   0.004  0.00  0.00     0.078 C 
ATOM      2  C1  UNL d   1       0.184   0.097   0.229  0.00  0.00    -0.077 A 
ATOM      3  C2  UNL d   1       0.977  -0.990   0.617  0.00  0.00    -0.001 A 
ATOM      4  C3  UNL d   1       2.346  -0.824   0.833  0.00  0.00     0.003 A 
ATOM      5  C4  UNL d   1       2.934   0.427   0.665  0.00  0.00    -0.005 A 
ATOM      6  C5  UNL d   1       2.153   1.516   0.282  0.00  0.00     0.003 A 
ATOM      7  C6  UNL d   1       0.784   1.352   0.065  0.00  0.00    -0.001 A 
ENDROOT
TORSDOF 0
ENDMDL
