MODEL 1
REMARK minimizedAffinity -5.75057602
REMARK minimizedRMSD -1
REMARK  0 active torsions:
REMARK  status: ('A' for Active; 'I' for Inactive)
ROOT
ATOM      1  C   UNL d   1      -0.774   0.006  -0.068  0.00  0.00     0.078 C 
ATOM      2  C1  UNL d   1       0.665  -0.028   0.354  0.00  0.00    -0.077 A 
ATOM      3  C2  UNL d   1       1.372   1.155   0.600  0.00  0.00    -0.001 A 
ATOM      4  C3  UNL d   1       2.714   1.109   0.982  0.00  0.00     0.003 A 
ATOM      5  C4  UNL d   1       3.360  -0.118   1.120  0.00  0.00    -0.005 A 
ATOM      6  C5  UNL d   1       2.665  -1.300   0.875  0.00  0.00     0.003 A 
ATOM      7  C6  UNL d   1       1.323  -1.256   0.493  0.00  0.00    -0.001 A 
ENDROOT
TORSDOF 0
ENDMDL
