MODEL 1
REMARK minimizedAffinity -3.70044017
REMARK minimizedRMSD -1
REMARK  0 active torsions:
REMARK  status: ('A' for Active; 'I' for Inactive)
ROOT
ATOM      1  C   UNL d   1      -1.374  -0.134  -0.713  0.00  0.00     0.078 C 
ATOM      2  C1  UNL d   1      -0.095   0.145   0.018  0.00  0.00    -0.077 A 
ATOM      3  C2  UNL d   1       0.018   1.242   0.882  0.00  0.00    -0.001 A 
ATOM      4  C3  UNL d   1       1.218   1.495   1.548  0.00  0.00     0.003 A 
ATOM      5  C4  UNL d   1       2.315   0.657   1.357  0.00  0.00    -0.005 A 
ATOM      6  C5  UNL d   1       2.213  -0.435   0.497  0.00  0.00     0.003 A 
ATOM      7  C6  UNL d   1       1.014  -0.690  -0.170  0.00  0.00    -0.001 A 
ENDROOT
TORSDOF 0
ENDMDL
