MODEL 1
REMARK minimizedAffinity -4.75766706
REMARK minimizedRMSD -1
REMARK  0 active torsions:
REMARK  status: ('A' for Active; 'I' for Inactive)
ROOT
ATOM      1  C   UNL d   1       1.429  -2.346   2.074  0.00  0.00     0.078 C 
ATOM      2  C1  UNL d   1       1.565  -1.003   1.422  0.00  0.00    -0.077 A 
ATOM      3  C2  UNL d   1       2.804  -0.355   1.357  0.00  0.00    -0.001 A 
ATOM      4  C3  UNL d   1       2.915   0.900   0.755  0.00  0.00     0.003 A 
ATOM      5  C4  UNL d   1       1.789   1.517   0.214  0.00  0.00    -0.005 A 
ATOM      6  C5  UNL d   1       0.551   0.881   0.276  0.00  0.00     0.003 A 
ATOM      7  C6  UNL d   1       0.439  -0.374   0.877  0.00  0.00    -0.001 A 
ENDROOT
TORSDOF 0
ENDMDL
