MODEL 1
REMARK minimizedAffinity -5.82884932
REMARK minimizedRMSD -1
REMARK  0 active torsions:
REMARK  status: ('A' for Active; 'I' for Inactive)
ROOT
ATOM      1  C   UNL d   1      -1.186   0.240  -0.275  0.00  0.00     0.078 C 
ATOM      2  C1  UNL d   1       0.259   0.280   0.121  0.00  0.00    -0.077 A 
ATOM      3  C2  UNL d   1       0.874   1.483   0.489  0.00  0.00    -0.001 A 
ATOM      4  C3  UNL d   1       2.223   1.507   0.846  0.00  0.00     0.003 A 
ATOM      5  C4  UNL d   1       2.969   0.330   0.839  0.00  0.00    -0.005 A 
ATOM      6  C5  UNL d   1       2.367  -0.872   0.473  0.00  0.00     0.003 A 
ATOM      7  C6  UNL d   1       1.018  -0.897   0.115  0.00  0.00    -0.001 A 
ENDROOT
TORSDOF 0
ENDMDL
