MODEL 1
REMARK minimizedAffinity -1.21647429
REMARK minimizedRMSD -1
REMARK  0 active torsions:
REMARK  status: ('A' for Active; 'I' for Inactive)
ROOT
ATOM      1  C   UNL d   1       2.217  -1.773  -0.071  0.00  0.00     0.078 C 
ATOM      2  C1  UNL d   1       0.819  -1.262   0.105  0.00  0.00    -0.077 A 
ATOM      3  C2  UNL d   1      -0.164  -2.048   0.719  0.00  0.00    -0.001 A 
ATOM      4  C3  UNL d   1      -1.465  -1.563   0.868  0.00  0.00     0.003 A 
ATOM      5  C4  UNL d   1      -1.794  -0.290   0.405  0.00  0.00    -0.005 A 
ATOM      6  C5  UNL d   1      -0.824   0.498  -0.209  0.00  0.00     0.003 A 
ATOM      7  C6  UNL d   1       0.477   0.015  -0.359  0.00  0.00    -0.001 A 
ENDROOT
TORSDOF 0
ENDMDL
