MODEL 1
REMARK minimizedAffinity 2.54233241
REMARK minimizedRMSD -1
REMARK  0 active torsions:
REMARK  status: ('A' for Active; 'I' for Inactive)
ROOT
ATOM      1  C   UNL d   1      -0.880   3.351  -0.585  0.00  0.00     0.172 C 
ATOM      2  N   UNL d   1      -0.652   2.908   0.770  0.00  0.00    -0.070 N 
ATOM      3  C1  UNL d   1      -1.564   2.959   1.790  0.00  0.00    -0.004 A 
ATOM      4  C2  UNL d   1      -0.964   2.444   2.919  0.00  0.00    -0.047 A 
ATOM      5  C3  UNL d   1       0.355   2.072   2.565  0.00  0.00    -0.047 A 
ATOM      6  C4  UNL d   1       0.521   2.370   1.230  0.00  0.00    -0.004 A 
ENDROOT
TORSDOF 0
ENDMDL
