MODEL 1
REMARK minimizedAffinity 0.170022354
REMARK minimizedRMSD -1
REMARK  0 active torsions:
REMARK  status: ('A' for Active; 'I' for Inactive)
ROOT
ATOM      1  C   UNL d   1      -0.140  -1.003   3.540  0.00  0.00     0.172 C 
ATOM      2  N   UNL d   1      -0.050   0.265   2.855  0.00  0.00    -0.070 N 
ATOM      3  C1  UNL d   1       0.312   0.441   1.546  0.00  0.00    -0.004 A 
ATOM      4  C2  UNL d   1       0.275   1.792   1.276  0.00  0.00    -0.047 A 
ATOM      5  C3  UNL d   1      -0.122   2.451   2.464  0.00  0.00    -0.047 A 
ATOM      6  C4  UNL d   1      -0.317   1.482   3.425  0.00  0.00    -0.004 A 
ENDROOT
TORSDOF 0
ENDMDL
