MODEL 1
REMARK minimizedAffinity -1.13540602
REMARK minimizedRMSD -1
REMARK  0 active torsions:
REMARK  status: ('A' for Active; 'I' for Inactive)
ROOT
ATOM      1  C   UNL d   1      -0.851   0.242   3.390  0.00  0.00     0.172 C 
ATOM      2  N   UNL d   1      -1.106   1.466   2.668  0.00  0.00    -0.070 N 
ATOM      3  C1  UNL d   1      -1.920   2.485   3.085  0.00  0.00    -0.004 A 
ATOM      4  C2  UNL d   1      -1.895   3.467   2.118  0.00  0.00    -0.047 A 
ATOM      5  C3  UNL d   1      -1.038   3.023   1.084  0.00  0.00    -0.047 A 
ATOM      6  C4  UNL d   1      -0.563   1.781   1.450  0.00  0.00    -0.004 A 
ENDROOT
TORSDOF 0
ENDMDL
