MODEL 1
REMARK minimizedAffinity 7.17511177
REMARK minimizedRMSD -1
REMARK  0 active torsions:
REMARK  status: ('A' for Active; 'I' for Inactive)
ROOT
ATOM      1  C   UNL d   1       4.797  -4.145   4.934  0.00  0.00     0.172 C 
ATOM      2  N   UNL d   1       3.735  -3.281   4.475  0.00  0.00    -0.070 N 
ATOM      3  C1  UNL d   1       2.584  -3.690   3.856  0.00  0.00    -0.004 A 
ATOM      4  C2  UNL d   1       1.833  -2.569   3.577  0.00  0.00    -0.047 A 
ATOM      5  C3  UNL d   1       2.558  -1.446   4.043  0.00  0.00    -0.047 A 
ATOM      6  C4  UNL d   1       3.732  -1.916   4.594  0.00  0.00    -0.004 A 
ENDROOT
TORSDOF 0
ENDMDL
