MODEL 1
REMARK minimizedAffinity -1.22473454
REMARK minimizedRMSD -1
REMARK  0 active torsions:
REMARK  status: ('A' for Active; 'I' for Inactive)
ROOT
ATOM      1  C   UNL d   1      -4.937   1.812  -2.744  0.00  0.00     0.172 C 
ATOM      2  N   UNL d   1      -4.952   3.093  -3.410  0.00  0.00    -0.070 N 
ATOM      3  C1  UNL d   1      -4.080   4.123  -3.178  0.00  0.00    -0.004 A 
ATOM      4  C2  UNL d   1      -4.427   5.165  -4.011  0.00  0.00    -0.047 A 
ATOM      5  C3  UNL d   1      -5.546   4.746  -4.770  0.00  0.00    -0.047 A 
ATOM      6  C4  UNL d   1      -5.850   3.460  -4.377  0.00  0.00    -0.004 A 
ENDROOT
TORSDOF 0
ENDMDL
