MODEL 1
REMARK minimizedAffinity 5.15061188
REMARK minimizedRMSD -1
REMARK  0 active torsions:
REMARK  status: ('A' for Active; 'I' for Inactive)
ROOT
ATOM      1  C   UNL d   1      -0.524   2.487   2.157  0.00  0.00     0.172 C 
ATOM      2  N   UNL d   1      -0.742   2.892   0.788  0.00  0.00    -0.070 N 
ATOM      3  C1  UNL d   1      -1.285   2.112  -0.198  0.00  0.00    -0.004 A 
ATOM      4  C2  UNL d   1      -1.323   2.861  -1.355  0.00  0.00    -0.047 A 
ATOM      5  C3  UNL d   1      -0.785   4.134  -1.053  0.00  0.00    -0.047 A 
ATOM      6  C4  UNL d   1      -0.433   4.126   0.280  0.00  0.00    -0.004 A 
ENDROOT
TORSDOF 0
ENDMDL
