MODEL 1
REMARK minimizedAffinity 0.356025755
REMARK minimizedRMSD -1
REMARK  0 active torsions:
REMARK  status: ('A' for Active; 'I' for Inactive)
ROOT
ATOM      1  C   UNL d   1      -5.567   5.980  -5.643  0.00  0.00     0.172 C 
ATOM      2  N   UNL d   1      -4.960   5.338  -4.501  0.00  0.00    -0.070 N 
ATOM      3  C1  UNL d   1      -4.933   3.989  -4.265  0.00  0.00    -0.004 A 
ATOM      4  C2  UNL d   1      -4.264   3.782  -3.078  0.00  0.00    -0.047 A 
ATOM      5  C3  UNL d   1      -3.876   5.050  -2.584  0.00  0.00    -0.047 A 
ATOM      6  C4  UNL d   1      -4.319   5.995  -3.485  0.00  0.00    -0.004 A 
ENDROOT
TORSDOF 0
ENDMDL
