MODEL 1
REMARK minimizedAffinity -2.94215441
REMARK minimizedRMSD -1
REMARK  0 active torsions:
REMARK  status: ('A' for Active; 'I' for Inactive)
ROOT
ATOM      1  C   UNL d   1      -1.694   2.423   0.208  0.00  0.00    -0.002 A 
ATOM      2  C1  UNL d   1      -1.855   1.909   1.487  0.00  0.00     0.010 A 
ATOM      3  C2  UNL d   1      -1.214   0.726   1.863  0.00  0.00     0.041 A 
ATOM      4  C3  UNL d   1      -0.400   0.064   0.923  0.00  0.00    -0.075 A 
ATOM      5  S   UNL d   1       0.483  -1.397   1.160  0.00  0.00     0.015 SA
ATOM      6  C4  UNL d   1       1.096  -1.373  -0.430  0.00  0.00     0.022 A 
ATOM      7  C5  UNL d   1       0.647  -0.283  -1.139  0.00  0.00     0.026 A 
ATOM      8  C6  UNL d   1      -0.222   0.563  -0.370  0.00  0.00    -0.082 A 
ATOM      9  C7  UNL d   1      -0.885   1.763  -0.721  0.00  0.00     0.045 A 
ENDROOT
TORSDOF 0
ENDMDL
