MODEL 1
REMARK minimizedAffinity -1.46172726
REMARK minimizedRMSD -1
REMARK  0 active torsions:
REMARK  status: ('A' for Active; 'I' for Inactive)
ROOT
ATOM      1  C   UNL d   1      -1.102   3.301  -0.371  0.00  0.00    -0.002 A 
ATOM      2  C1  UNL d   1      -1.669   2.975   0.853  0.00  0.00     0.010 A 
ATOM      3  C2  UNL d   1      -1.399   1.746   1.456  0.00  0.00     0.041 A 
ATOM      4  C3  UNL d   1      -0.539   0.841   0.804  0.00  0.00    -0.075 A 
ATOM      5  S   UNL d   1      -0.063  -0.723   1.355  0.00  0.00     0.015 SA
ATOM      6  C4  UNL d   1       0.905  -0.995  -0.021  0.00  0.00     0.022 A 
ATOM      7  C5  UNL d   1       0.878   0.071  -0.890  0.00  0.00     0.026 A 
ATOM      8  C6  UNL d   1       0.046   1.146  -0.428  0.00  0.00    -0.082 A 
ATOM      9  C7  UNL d   1      -0.249   2.401  -1.015  0.00  0.00     0.045 A 
ENDROOT
TORSDOF 0
ENDMDL
