MODEL 1
REMARK minimizedAffinity -1.3977474
REMARK minimizedRMSD -1
REMARK  0 active torsions:
REMARK  status: ('A' for Active; 'I' for Inactive)
ROOT
ATOM      1  C   UNL d   1      -1.324   2.412   0.194  0.00  0.00    -0.002 A 
ATOM      2  C1  UNL d   1      -1.474   2.230   1.562  0.00  0.00     0.010 A 
ATOM      3  C2  UNL d   1      -0.908   1.123   2.197  0.00  0.00     0.041 A 
ATOM      4  C3  UNL d   1      -0.180   0.194   1.427  0.00  0.00    -0.075 A 
ATOM      5  S   UNL d   1       0.603  -1.236   1.989  0.00  0.00     0.015 SA
ATOM      6  C4  UNL d   1       1.155  -1.637   0.428  0.00  0.00     0.022 A 
ATOM      7  C5  UNL d   1       0.761  -0.714  -0.512  0.00  0.00     0.026 A 
ATOM      8  C6  UNL d   1      -0.014   0.357   0.049  0.00  0.00    -0.082 A 
ATOM      9  C7  UNL d   1      -0.601   1.489  -0.566  0.00  0.00     0.045 A 
ENDROOT
TORSDOF 0
ENDMDL
