MODEL 1
REMARK minimizedAffinity -0.935493588
REMARK minimizedRMSD -1
REMARK  0 active torsions:
REMARK  status: ('A' for Active; 'I' for Inactive)
ROOT
ATOM      1  C   UNL d   1      -0.740   0.626  -0.676  0.00  0.00    -0.002 A 
ATOM      2  C1  UNL d   1      -0.093   0.052   0.410  0.00  0.00     0.010 A 
ATOM      3  C2  UNL d   1       0.506  -1.204   0.297  0.00  0.00     0.041 A 
ATOM      4  C3  UNL d   1       0.446  -1.880  -0.938  0.00  0.00    -0.075 A 
ATOM      5  S   UNL d   1       1.109  -3.427  -1.309  0.00  0.00     0.015 SA
ATOM      6  C4  UNL d   1       0.551  -3.363  -2.918  0.00  0.00     0.022 A 
ATOM      7  C5  UNL d   1      -0.128  -2.196  -3.182  0.00  0.00     0.026 A 
ATOM      8  C6  UNL d   1      -0.199  -1.322  -2.046  0.00  0.00    -0.082 A 
ATOM      9  C7  UNL d   1      -0.798  -0.048  -1.899  0.00  0.00     0.045 A 
ENDROOT
TORSDOF 0
ENDMDL
