MODEL 1
REMARK minimizedAffinity 2.35946298
REMARK minimizedRMSD -1
REMARK  0 active torsions:
REMARK  status: ('A' for Active; 'I' for Inactive)
ROOT
ATOM      1  C   UNL d   1      -1.815   1.759   2.140  0.00  0.00    -0.002 A 
ATOM      2  C1  UNL d   1      -2.503   2.037   0.967  0.00  0.00     0.010 A 
ATOM      3  C2  UNL d   1      -2.153   1.408  -0.229  0.00  0.00     0.041 A 
ATOM      4  C3  UNL d   1      -1.090   0.483  -0.226  0.00  0.00    -0.075 A 
ATOM      5  S   UNL d   1      -0.486  -0.410  -1.572  0.00  0.00     0.015 SA
ATOM      6  C4  UNL d   1       0.700  -1.182  -0.622  0.00  0.00     0.022 A 
ATOM      7  C5  UNL d   1       0.650  -0.781   0.692  0.00  0.00     0.026 A 
ATOM      8  C6  UNL d   1      -0.382   0.185   0.942  0.00  0.00    -0.082 A 
ATOM      9  C7  UNL d   1      -0.761   0.841   2.138  0.00  0.00     0.045 A 
ENDROOT
TORSDOF 0
ENDMDL
