MODEL 1
REMARK minimizedAffinity -1.18559337
REMARK minimizedRMSD -1
REMARK  0 active torsions:
REMARK  status: ('A' for Active; 'I' for Inactive)
ROOT
ATOM      1  C   UNL d   1      -1.473   1.702   0.754  0.00  0.00    -0.002 A 
ATOM      2  C1  UNL d   1      -0.903   2.514  -0.216  0.00  0.00     0.010 A 
ATOM      3  C2  UNL d   1       0.109   2.026  -1.046  0.00  0.00     0.041 A 
ATOM      4  C3  UNL d   1       0.540   0.695  -0.884  0.00  0.00    -0.075 A 
ATOM      5  S   UNL d   1       1.763  -0.119  -1.787  0.00  0.00     0.015 SA
ATOM      6  C4  UNL d   1       1.557  -1.564  -0.906  0.00  0.00     0.022 A 
ATOM      7  C5  UNL d   1       0.583  -1.446   0.057  0.00  0.00     0.026 A 
ATOM      8  C6  UNL d   1      -0.020  -0.143   0.085  0.00  0.00    -0.082 A 
ATOM      9  C7  UNL d   1      -1.042   0.382   0.911  0.00  0.00     0.045 A 
ENDROOT
TORSDOF 0
ENDMDL
