MODEL 1
REMARK minimizedAffinity -3.49232554
REMARK minimizedRMSD -1
REMARK  0 active torsions:
REMARK  status: ('A' for Active; 'I' for Inactive)
ROOT
ATOM      1  C   UNL d   1      -0.302  -0.235   3.224  0.00  0.00    -0.002 A 
ATOM      2  C1  UNL d   1      -1.011  -1.135   2.441  0.00  0.00     0.010 A 
ATOM      3  C2  UNL d   1      -0.914  -1.095   1.049  0.00  0.00     0.041 A 
ATOM      4  C3  UNL d   1      -0.083  -0.128   0.451  0.00  0.00    -0.075 A 
ATOM      5  S   UNL d   1       0.192   0.107  -1.235  0.00  0.00     0.015 SA
ATOM      6  C4  UNL d   1       1.259   1.407  -0.956  0.00  0.00     0.022 A 
ATOM      7  C5  UNL d   1       1.413   1.669   0.385  0.00  0.00     0.026 A 
ATOM      8  C6  UNL d   1       0.643   0.788   1.218  0.00  0.00    -0.082 A 
ATOM      9  C7  UNL d   1       0.522   0.723   2.627  0.00  0.00     0.045 A 
ENDROOT
TORSDOF 0
ENDMDL
