MODEL 1
REMARK minimizedAffinity -0.511374772
REMARK minimizedRMSD -1
REMARK  0 active torsions:
REMARK  status: ('A' for Active; 'I' for Inactive)
ROOT
ATOM      1  C   UNL d   1       0.325   0.040   2.334  0.00  0.00    -0.002 A 
ATOM      2  C1  UNL d   1      -0.410  -1.109   2.078  0.00  0.00     0.010 A 
ATOM      3  C2  UNL d   1      -0.677  -1.504   0.766  0.00  0.00     0.041 A 
ATOM      4  C3  UNL d   1      -0.185  -0.719  -0.295  0.00  0.00    -0.075 A 
ATOM      5  S   UNL d   1      -0.387  -1.009  -1.983  0.00  0.00     0.015 SA
ATOM      6  C4  UNL d   1       0.500   0.384  -2.404  0.00  0.00     0.022 A 
ATOM      7  C5  UNL d   1       0.946   1.066  -1.297  0.00  0.00     0.026 A 
ATOM      8  C6  UNL d   1       0.559   0.441  -0.063  0.00  0.00    -0.082 A 
ATOM      9  C7  UNL d   1       0.812   0.816   1.279  0.00  0.00     0.045 A 
ENDROOT
TORSDOF 0
ENDMDL
