MODEL 1
REMARK minimizedAffinity -5.58902693
REMARK minimizedRMSD -1
REMARK  0 active torsions:
REMARK  status: ('A' for Active; 'I' for Inactive)
ROOT
ATOM      1  C   UNL d   1      -2.135   0.352   3.089  0.00  0.00    -0.002 A 
ATOM      2  C1  UNL d   1      -2.820   0.355   1.882  0.00  0.00     0.010 A 
ATOM      3  C2  UNL d   1      -2.125   0.339   0.671  0.00  0.00     0.041 A 
ATOM      4  C3  UNL d   1      -0.716   0.316   0.694  0.00  0.00    -0.075 A 
ATOM      5  S   UNL d   1       0.345   0.292  -0.665  0.00  0.00     0.015 SA
ATOM      6  C4  UNL d   1       1.733   0.275   0.325  0.00  0.00     0.022 A 
ATOM      7  C5  UNL d   1       1.412   0.288   1.662  0.00  0.00     0.026 A 
ATOM      8  C6  UNL d   1      -0.004   0.311   1.897  0.00  0.00    -0.082 A 
ATOM      9  C7  UNL d   1      -0.738   0.329   3.107  0.00  0.00     0.045 A 
ENDROOT
TORSDOF 0
ENDMDL
