MODEL 1
REMARK minimizedAffinity -1.83406854
REMARK minimizedRMSD -1
REMARK  0 active torsions:
REMARK  status: ('A' for Active; 'I' for Inactive)
ROOT
ATOM      1  C   UNL d   1       0.609   0.684   3.489  0.00  0.00    -0.002 A 
ATOM      2  C1  UNL d   1      -0.119  -0.497   3.528  0.00  0.00     0.010 A 
ATOM      3  C2  UNL d   1      -0.510  -1.129   2.346  0.00  0.00     0.041 A 
ATOM      4  C3  UNL d   1      -0.151  -0.550   1.112  0.00  0.00    -0.075 A 
ATOM      5  S   UNL d   1      -0.519  -1.148  -0.463  0.00  0.00     0.015 SA
ATOM      6  C4  UNL d   1       0.282   0.149  -1.223  0.00  0.00     0.022 A 
ATOM      7  C5  UNL d   1       0.823   1.027  -0.313  0.00  0.00     0.026 A 
ATOM      8  C6  UNL d   1       0.582   0.638   1.048  0.00  0.00    -0.082 A 
ATOM      9  C7  UNL d   1       0.962   1.255   2.264  0.00  0.00     0.045 A 
ENDROOT
TORSDOF 0
ENDMDL
