MODEL 1
REMARK minimizedAffinity -3.82393026
REMARK minimizedRMSD -1
REMARK  0 active torsions:
REMARK  status: ('A' for Active; 'I' for Inactive)
ROOT
ATOM      1  C   UNL d   1       0.114  -0.787   2.860  0.00  0.00    -0.002 A 
ATOM      2  C1  UNL d   1      -0.621  -1.632   2.041  0.00  0.00     0.010 A 
ATOM      3  C2  UNL d   1      -0.675  -1.417   0.662  0.00  0.00     0.041 A 
ATOM      4  C3  UNL d   1       0.032  -0.328   0.115  0.00  0.00    -0.075 A 
ATOM      5  S   UNL d   1       0.113   0.131  -1.545  0.00  0.00     0.015 SA
ATOM      6  C4  UNL d   1       1.127   1.458  -1.206  0.00  0.00     0.022 A 
ATOM      7  C5  UNL d   1       1.406   1.565   0.136  0.00  0.00     0.026 A 
ATOM      8  C6  UNL d   1       0.781   0.537   0.920  0.00  0.00    -0.082 A 
ATOM      9  C7  UNL d   1       0.814   0.292   2.314  0.00  0.00     0.045 A 
ENDROOT
TORSDOF 0
ENDMDL
