MODEL 1
REMARK minimizedAffinity -4.15620661
REMARK minimizedRMSD -1
REMARK  0 active torsions:
REMARK  status: ('A' for Active; 'I' for Inactive)
ROOT
ATOM      1  C   UNL d   1      -1.517  -1.253   2.635  0.00  0.00    -0.002 A 
ATOM      2  C1  UNL d   1      -0.845  -0.457   3.552  0.00  0.00     0.010 A 
ATOM      3  C2  UNL d   1       0.054   0.520   3.119  0.00  0.00     0.041 A 
ATOM      4  C3  UNL d   1       0.267   0.686   1.736  0.00  0.00    -0.075 A 
ATOM      5  S   UNL d   1       1.320   1.820   0.975  0.00  0.00     0.015 SA
ATOM      6  C4  UNL d   1       0.901   1.274  -0.584  0.00  0.00     0.022 A 
ATOM      7  C5  UNL d   1      -0.018   0.253  -0.544  0.00  0.00     0.026 A 
ATOM      8  C6  UNL d   1      -0.399  -0.103   0.794  0.00  0.00    -0.082 A 
ATOM      9  C7  UNL d   1      -1.303  -1.085   1.264  0.00  0.00     0.045 A 
ENDROOT
TORSDOF 0
ENDMDL
