MODEL 1
REMARK minimizedAffinity 0.141849473
REMARK minimizedRMSD -1
REMARK  0 active torsions:
REMARK  status: ('A' for Active; 'I' for Inactive)
ROOT
ATOM      1  C   UNL d   1      -0.980  -0.893   3.792  0.00  0.00    -0.002 A 
ATOM      2  C1  UNL d   1      -0.030   0.117   3.856  0.00  0.00     0.010 A 
ATOM      3  C2  UNL d   1       0.565   0.606   2.691  0.00  0.00     0.041 A 
ATOM      4  C3  UNL d   1       0.185   0.060   1.450  0.00  0.00    -0.075 A 
ATOM      5  S   UNL d   1       0.779   0.504  -0.107  0.00  0.00     0.015 SA
ATOM      6  C4  UNL d   1      -0.215  -0.636  -0.893  0.00  0.00     0.022 A 
ATOM      7  C5  UNL d   1      -0.988  -1.346  -0.005  0.00  0.00     0.026 A 
ATOM      8  C6  UNL d   1      -0.770  -0.956   1.360  0.00  0.00    -0.082 A 
ATOM      9  C7  UNL d   1      -1.355  -1.432   2.559  0.00  0.00     0.045 A 
ENDROOT
TORSDOF 0
ENDMDL
