MODEL 1
REMARK minimizedAffinity -1.80813396
REMARK minimizedRMSD -1
REMARK  0 active torsions:
REMARK  status: ('A' for Active; 'I' for Inactive)
ROOT
ATOM      1  C   UNL d   1       1.895   1.306   1.533  0.00  0.00    -0.002 A 
ATOM      2  C1  UNL d   1       1.458   0.413   2.501  0.00  0.00     0.010 A 
ATOM      3  C2  UNL d   1       0.196  -0.177   2.406  0.00  0.00     0.041 A 
ATOM      4  C3  UNL d   1      -0.626   0.147   1.309  0.00  0.00    -0.075 A 
ATOM      5  S   UNL d   1      -2.210  -0.454   0.984  0.00  0.00     0.015 SA
ATOM      6  C4  UNL d   1      -2.343   0.460  -0.448  0.00  0.00     0.022 A 
ATOM      7  C5  UNL d   1      -1.216   1.211  -0.688  0.00  0.00     0.026 A 
ATOM      8  C6  UNL d   1      -0.208   1.043   0.321  0.00  0.00    -0.082 A 
ATOM      9  C7  UNL d   1       1.076   1.625   0.447  0.00  0.00     0.045 A 
ENDROOT
TORSDOF 0
ENDMDL
