MODEL 1
REMARK minimizedAffinity -2.7623632
REMARK minimizedRMSD -1
REMARK  0 active torsions:
REMARK  status: ('A' for Active; 'I' for Inactive)
ROOT
ATOM      1  C   UNL d   1      -0.048   0.212  -1.300  0.00  0.00    -0.002 A 
ATOM      2  C1  UNL d   1       0.923   1.087  -0.833  0.00  0.00     0.010 A 
ATOM      3  C2  UNL d   1       1.082   1.306   0.537  0.00  0.00     0.041 A 
ATOM      4  C3  UNL d   1       0.243   0.622   1.438  0.00  0.00    -0.075 A 
ATOM      5  S   UNL d   1       0.257   0.731   3.159  0.00  0.00     0.015 SA
ATOM      6  C4  UNL d   1      -1.024  -0.382   3.315  0.00  0.00     0.022 A 
ATOM      7  C5  UNL d   1      -1.464  -0.836   2.094  0.00  0.00     0.026 A 
ATOM      8  C6  UNL d   1      -0.741  -0.265   0.992  0.00  0.00    -0.082 A 
ATOM      9  C7  UNL d   1      -0.879  -0.464  -0.403  0.00  0.00     0.045 A 
ENDROOT
TORSDOF 0
ENDMDL
