MODEL 1
REMARK minimizedAffinity -3.91641665
REMARK minimizedRMSD -1
REMARK  0 active torsions:
REMARK  status: ('A' for Active; 'I' for Inactive)
ROOT
ATOM      1  C   UNL d   1       1.540  -0.369   3.217  0.00  0.00    -0.002 A 
ATOM      2  C1  UNL d   1       0.184  -0.577   3.423  0.00  0.00     0.010 A 
ATOM      3  C2  UNL d   1      -0.704  -0.597   2.345  0.00  0.00     0.041 A 
ATOM      4  C3  UNL d   1      -0.200  -0.403   1.043  0.00  0.00    -0.075 A 
ATOM      5  S   UNL d   1      -1.098  -0.387  -0.428  0.00  0.00     0.015 SA
ATOM      6  C4  UNL d   1       0.297  -0.104  -1.364  0.00  0.00     0.022 A 
ATOM      7  C5  UNL d   1       1.430  -0.021  -0.590  0.00  0.00     0.026 A 
ATOM      8  C6  UNL d   1       1.162  -0.192   0.811  0.00  0.00    -0.082 A 
ATOM      9  C7  UNL d   1       2.036  -0.177   1.924  0.00  0.00     0.045 A 
ENDROOT
TORSDOF 0
ENDMDL
