MODEL 1
REMARK minimizedAffinity -4.23433161
REMARK minimizedRMSD -1
REMARK  0 active torsions:
REMARK  status: ('A' for Active; 'I' for Inactive)
ROOT
ATOM      1  C   UNL d   1       1.748   0.384   2.636  0.00  0.00    -0.002 A 
ATOM      2  C1  UNL d   1       2.150   0.891   1.409  0.00  0.00     0.010 A 
ATOM      3  C2  UNL d   1       1.298   0.837   0.304  0.00  0.00     0.041 A 
ATOM      4  C3  UNL d   1       0.022   0.261   0.455  0.00  0.00    -0.075 A 
ATOM      5  S   UNL d   1      -1.190   0.087  -0.759  0.00  0.00     0.015 SA
ATOM      6  C4  UNL d   1      -2.272  -0.664   0.324  0.00  0.00     0.022 A 
ATOM      7  C5  UNL d   1      -1.737  -0.787   1.585  0.00  0.00     0.026 A 
ATOM      8  C6  UNL d   1      -0.407  -0.255   1.681  0.00  0.00    -0.082 A 
ATOM      9  C7  UNL d   1       0.480  -0.186   2.782  0.00  0.00     0.045 A 
ENDROOT
TORSDOF 0
ENDMDL
