MODEL 1
REMARK minimizedAffinity -2.89402866
REMARK minimizedRMSD -1
REMARK  0 active torsions:
REMARK  status: ('A' for Active; 'I' for Inactive)
ROOT
ATOM      1  C   UNL d   1       2.263   0.335   2.132  0.00  0.00    -0.002 A 
ATOM      2  C1  UNL d   1       1.220   0.470   3.038  0.00  0.00     0.010 A 
ATOM      3  C2  UNL d   1      -0.106   0.441   2.603  0.00  0.00     0.041 A 
ATOM      4  C3  UNL d   1      -0.370   0.271   1.230  0.00  0.00    -0.075 A 
ATOM      5  S   UNL d   1      -1.916   0.204   0.469  0.00  0.00     0.015 SA
ATOM      6  C4  UNL d   1      -1.228  -0.006  -1.077  0.00  0.00     0.022 A 
ATOM      7  C5  UNL d   1       0.145  -0.027  -1.032  0.00  0.00     0.026 A 
ATOM      8  C6  UNL d   1       0.663   0.132   0.299  0.00  0.00    -0.082 A 
ATOM      9  C7  UNL d   1       1.997   0.166   0.770  0.00  0.00     0.045 A 
ENDROOT
TORSDOF 0
ENDMDL
