MODEL 1
REMARK minimizedAffinity -3.59663391
REMARK minimizedRMSD -1
REMARK  0 active torsions:
REMARK  status: ('A' for Active; 'I' for Inactive)
ROOT
ATOM      1  C   UNL d   1      -0.079  -0.430   2.966  0.00  0.00    -0.002 A 
ATOM      2  C1  UNL d   1       0.881   0.542   2.718  0.00  0.00     0.010 A 
ATOM      3  C2  UNL d   1       1.241   0.867   1.409  0.00  0.00     0.041 A 
ATOM      4  C3  UNL d   1       0.613   0.194   0.342  0.00  0.00    -0.075 A 
ATOM      5  S   UNL d   1       0.894   0.427  -1.343  0.00  0.00     0.015 SA
ATOM      6  C4  UNL d   1      -0.254  -0.756  -1.774  0.00  0.00     0.022 A 
ATOM      7  C5  UNL d   1      -0.846  -1.326  -0.672  0.00  0.00     0.026 A 
ATOM      8  C6  UNL d   1      -0.357  -0.787   0.566  0.00  0.00    -0.082 A 
ATOM      9  C7  UNL d   1      -0.700  -1.095   1.905  0.00  0.00     0.045 A 
ENDROOT
TORSDOF 0
ENDMDL
