MODEL 1
REMARK minimizedAffinity -1.80127561
REMARK minimizedRMSD -1
REMARK  0 active torsions:
REMARK  status: ('A' for Active; 'I' for Inactive)
ROOT
ATOM      1  C   UNL d   1       1.139   0.609   2.388  0.00  0.00    -0.002 A 
ATOM      2  C1  UNL d   1      -0.033  -0.081   2.665  0.00  0.00     0.010 A 
ATOM      3  C2  UNL d   1      -0.823  -0.583   1.628  0.00  0.00     0.041 A 
ATOM      4  C3  UNL d   1      -0.411  -0.379   0.297  0.00  0.00    -0.075 A 
ATOM      5  S   UNL d   1      -1.218  -0.904  -1.133  0.00  0.00     0.015 SA
ATOM      6  C4  UNL d   1      -0.026  -0.225  -2.145  0.00  0.00     0.022 A 
ATOM      7  C5  UNL d   1       0.970   0.392  -1.426  0.00  0.00     0.026 A 
ATOM      8  C6  UNL d   1       0.765   0.313  -0.007  0.00  0.00    -0.082 A 
ATOM      9  C7  UNL d   1       1.544   0.810   1.066  0.00  0.00     0.045 A 
ENDROOT
TORSDOF 0
ENDMDL
