MODEL 1
REMARK minimizedAffinity 2.68057966
REMARK minimizedRMSD -1
REMARK  0 active torsions:
REMARK  status: ('A' for Active; 'I' for Inactive)
ROOT
ATOM      1  C   UNL d   1       4.687   2.620   5.896  0.00  0.00     0.124 A 
ATOM      2  C1  UNL d   1       4.597   4.005   5.897  0.00  0.00     0.062 A 
ATOM      3  C2  UNL d   1       3.352   4.626   5.925  0.00  0.00     0.162 A 
ATOM      4  C3  UNL d   1       2.185   3.862   5.953  0.00  0.00    -0.034 A 
ATOM      5  C4  UNL d   1       2.283   2.469   5.951  0.00  0.00     0.162 A 
ATOM      6  C5  UNL d   1       3.531   1.854   5.923  0.00  0.00     0.062 A 
ATOM      7  F   UNL d   1       3.615   0.515   5.922  0.00  0.00    -0.097 F 
ATOM      8  F1  UNL d   1       1.182   1.704   5.978  0.00  0.00    -0.096 F 
ATOM      9  I   UNL d   1       0.321   4.786   5.994  0.00  0.00    -0.060 I 
ATOM     10  F2  UNL d   1       3.295   5.966   5.925  0.00  0.00    -0.096 F 
ATOM     11  F3  UNL d   1       5.713   4.748   5.870  0.00  0.00    -0.097 F 
ATOM     12  F4  UNL d   1       5.887   2.025   5.869  0.00  0.00    -0.092 F 
ENDROOT
TORSDOF 0
ENDMDL
