MODEL 1
REMARK minimizedAffinity 21.9105415
REMARK minimizedRMSD -1
REMARK  0 active torsions:
REMARK  status: ('A' for Active; 'I' for Inactive)
ROOT
ATOM      1  C   UNL d   1       2.423  -1.664   2.014  0.00  0.00     0.124 A 
ATOM      2  C1  UNL d   1       2.202  -1.406   3.360  0.00  0.00     0.062 A 
ATOM      3  C2  UNL d   1       1.358  -2.228   4.101  0.00  0.00     0.162 A 
ATOM      4  C3  UNL d   1       0.728  -3.317   3.497  0.00  0.00    -0.034 A 
ATOM      5  C4  UNL d   1       0.954  -3.569   2.143  0.00  0.00     0.162 A 
ATOM      6  C5  UNL d   1       1.799  -2.744   1.407  0.00  0.00     0.062 A 
ATOM      7  F   UNL d   1       2.010  -2.994   0.106  0.00  0.00    -0.097 F 
ATOM      8  F1  UNL d   1       0.365  -4.607   1.531  0.00  0.00    -0.096 F 
ATOM      9  I   UNL d   1      -0.535  -4.549   4.601  0.00  0.00    -0.060 I 
ATOM     10  F2  UNL d   1       1.163  -1.956   5.400  0.00  0.00    -0.096 F 
ATOM     11  F3  UNL d   1       2.803  -0.362   3.949  0.00  0.00    -0.097 F 
ATOM     12  F4  UNL d   1       3.235  -0.870   1.304  0.00  0.00    -0.092 F 
ENDROOT
TORSDOF 0
ENDMDL
