MODEL 1
REMARK minimizedAffinity 22.2524643
REMARK minimizedRMSD -1
REMARK  0 active torsions:
REMARK  status: ('A' for Active; 'I' for Inactive)
ROOT
ATOM      1  C   UNL d   1      -2.583   0.384   0.043  0.00  0.00     0.124 A 
ATOM      2  C1  UNL d   1      -1.985   0.174  -1.191  0.00  0.00     0.062 A 
ATOM      3  C2  UNL d   1      -2.739   0.261  -2.358  0.00  0.00     0.162 A 
ATOM      4  C3  UNL d   1      -4.100   0.561  -2.296  0.00  0.00    -0.034 A 
ATOM      5  C4  UNL d   1      -4.694   0.771  -1.050  0.00  0.00     0.162 A 
ATOM      6  C5  UNL d   1      -3.936   0.683   0.113  0.00  0.00     0.062 A 
ATOM      7  F   UNL d   1      -4.515   0.886   1.305  0.00  0.00    -0.097 F 
ATOM      8  F1  UNL d   1      -6.000   1.061  -0.954  0.00  0.00    -0.096 F 
ATOM      9  I   UNL d   1      -5.231   0.692  -4.038  0.00  0.00    -0.060 I 
ATOM     10  F2  UNL d   1      -2.135   0.052  -3.538  0.00  0.00    -0.096 F 
ATOM     11  F3  UNL d   1      -0.677  -0.115  -1.261  0.00  0.00    -0.097 F 
ATOM     12  F4  UNL d   1      -1.855   0.299   1.164  0.00  0.00    -0.092 F 
ENDROOT
TORSDOF 0
ENDMDL
