MODEL 1
REMARK minimizedAffinity 4.11304569
REMARK minimizedRMSD -1
REMARK  0 active torsions:
REMARK  status: ('A' for Active; 'I' for Inactive)
ROOT
ATOM      1  C   UNL d   1       1.818  -2.139   4.656  0.00  0.00     0.124 A 
ATOM      2  C1  UNL d   1       2.238  -3.304   5.284  0.00  0.00     0.062 A 
ATOM      3  C2  UNL d   1       1.378  -4.393   5.387  0.00  0.00     0.162 A 
ATOM      4  C3  UNL d   1       0.089  -4.324   4.859  0.00  0.00    -0.034 A 
ATOM      5  C4  UNL d   1      -0.327  -3.150   4.229  0.00  0.00     0.162 A 
ATOM      6  C5  UNL d   1       0.536  -2.063   4.129  0.00  0.00     0.062 A 
ATOM      7  F   UNL d   1       0.128  -0.939   3.522  0.00  0.00    -0.097 F 
ATOM      8  F1  UNL d   1      -1.560  -3.050   3.711  0.00  0.00    -0.096 F 
ATOM      9  I   UNL d   1      -1.200  -5.952   5.010  0.00  0.00    -0.060 I 
ATOM     10  F2  UNL d   1       1.811  -5.506   5.999  0.00  0.00    -0.096 F 
ATOM     11  F3  UNL d   1       3.475  -3.379   5.795  0.00  0.00    -0.097 F 
ATOM     12  F4  UNL d   1       2.647  -1.092   4.560  0.00  0.00    -0.092 F 
ENDROOT
TORSDOF 0
ENDMDL
