MODEL 1
REMARK minimizedAffinity 18.0580769
REMARK minimizedRMSD -1
REMARK  0 active torsions:
REMARK  status: ('A' for Active; 'I' for Inactive)
ROOT
ATOM      1  C   UNL d   1       1.539  -2.556   3.763  0.00  0.00     0.124 A 
ATOM      2  C1  UNL d   1       1.318  -2.639   2.395  0.00  0.00     0.062 A 
ATOM      3  C2  UNL d   1       1.921  -1.727   1.532  0.00  0.00     0.162 A 
ATOM      4  C3  UNL d   1       2.751  -0.726   2.035  0.00  0.00    -0.034 A 
ATOM      5  C4  UNL d   1       2.968  -0.649   3.412  0.00  0.00     0.162 A 
ATOM      6  C5  UNL d   1       2.363  -1.562   4.270  0.00  0.00     0.062 A 
ATOM      7  F   UNL d   1       2.578  -1.481   5.591  0.00  0.00    -0.097 F 
ATOM      8  F1  UNL d   1       3.761   0.302   3.929  0.00  0.00    -0.096 F 
ATOM      9  I   UNL d   1       3.654   0.639   0.749  0.00  0.00    -0.060 I 
ATOM     10  F2  UNL d   1       1.690  -1.831   0.215  0.00  0.00    -0.096 F 
ATOM     11  F3  UNL d   1       0.522  -3.598   1.902  0.00  0.00    -0.097 F 
ATOM     12  F4  UNL d   1       0.957  -3.434   4.590  0.00  0.00    -0.092 F 
ENDROOT
TORSDOF 0
ENDMDL
