MODEL 1
REMARK minimizedAffinity 6.92996597
REMARK minimizedRMSD -1
REMARK  0 active torsions:
REMARK  status: ('A' for Active; 'I' for Inactive)
ROOT
ATOM      1  C   UNL d   1       4.056   2.377   5.994  0.00  0.00     0.124 A 
ATOM      2  C1  UNL d   1       4.224   3.755   5.991  0.00  0.00     0.062 A 
ATOM      3  C2  UNL d   1       3.114   4.595   5.988  0.00  0.00     0.162 A 
ATOM      4  C3  UNL d   1       1.826   4.059   5.990  0.00  0.00    -0.034 A 
ATOM      5  C4  UNL d   1       1.666   2.672   5.993  0.00  0.00     0.162 A 
ATOM      6  C5  UNL d   1       2.778   1.837   5.995  0.00  0.00     0.062 A 
ATOM      7  F   UNL d   1       2.614   0.506   5.999  0.00  0.00    -0.097 F 
ATOM      8  F1  UNL d   1       0.441   2.124   5.995  0.00  0.00    -0.096 F 
ATOM      9  I   UNL d   1       0.164   5.312   5.987  0.00  0.00    -0.060 I 
ATOM     10  F2  UNL d   1       3.305   5.922   5.985  0.00  0.00    -0.096 F 
ATOM     11  F3  UNL d   1       5.458   4.279   5.989  0.00  0.00    -0.097 F 
ATOM     12  F4  UNL d   1       5.126   1.571   5.996  0.00  0.00    -0.092 F 
ENDROOT
TORSDOF 0
ENDMDL
