MODEL 1
REMARK minimizedAffinity 10.4767084
REMARK minimizedRMSD -1
REMARK  0 active torsions:
REMARK  status: ('A' for Active; 'I' for Inactive)
ROOT
ATOM      1  C   UNL d   1      -2.634   0.341   0.699  0.00  0.00     0.124 A 
ATOM      2  C1  UNL d   1      -2.070  -0.063  -0.503  0.00  0.00     0.062 A 
ATOM      3  C2  UNL d   1      -2.817  -0.021  -1.676  0.00  0.00     0.162 A 
ATOM      4  C3  UNL d   1      -4.138   0.428  -1.654  0.00  0.00    -0.034 A 
ATOM      5  C4  UNL d   1      -4.699   0.831  -0.441  0.00  0.00     0.162 A 
ATOM      6  C5  UNL d   1      -3.948   0.787   0.729  0.00  0.00     0.062 A 
ATOM      7  F   UNL d   1      -4.495   1.177   1.890  0.00  0.00    -0.097 F 
ATOM      8  F1  UNL d   1      -5.966   1.267  -0.383  0.00  0.00    -0.096 F 
ATOM      9  I   UNL d   1      -5.259   0.492  -3.406  0.00  0.00    -0.060 I 
ATOM     10  F2  UNL d   1      -2.246  -0.416  -2.823  0.00  0.00    -0.096 F 
ATOM     11  F3  UNL d   1      -0.801  -0.495  -0.534  0.00  0.00    -0.097 F 
ATOM     12  F4  UNL d   1      -1.913   0.299   1.827  0.00  0.00    -0.092 F 
ENDROOT
TORSDOF 0
ENDMDL
