MODEL 1
REMARK minimizedAffinity 9.33113766
REMARK minimizedRMSD -1
REMARK  0 active torsions:
REMARK  status: ('A' for Active; 'I' for Inactive)
ROOT
ATOM      1  N1  IND d   1      -3.931   2.000   3.128  0.00  0.00    -0.196 N 
ATOM      2  C2  IND d   1      -2.575   1.873   3.014  0.00  0.00     0.054 A 
ATOM      3  C3  IND d   1      -2.205   0.588   3.208  0.00  0.00    -0.031 A 
ATOM      4  C4  IND d   1      -3.667  -1.490   3.624  0.00  0.00     0.051 A 
ATOM      5  C5  IND d   1      -4.962  -1.870   3.845  0.00  0.00    -0.031 A 
ATOM      6  C6  IND d   1      -6.000  -0.961   3.835  0.00  0.00     0.015 A 
ATOM      7  C7  IND d   1      -5.783   0.366   3.591  0.00  0.00    -0.016 A 
ATOM      8  C8  IND d   1      -4.469   0.756   3.374  0.00  0.00    -0.047 A 
ATOM      9  C9  IND d   1      -3.406  -0.155   3.425  0.00  0.00    -0.096 A 
ATOM     10  HN1 IND d   1      -4.374   2.734   3.057  0.00  0.00     0.298 HD
ENDROOT
TORSDOF 0
ENDMDL
