MODEL 1
REMARK minimizedAffinity 4.24199486
REMARK minimizedRMSD -1
REMARK  0 active torsions:
REMARK  status: ('A' for Active; 'I' for Inactive)
ROOT
ATOM      1  N1  IND d   1      -2.167  -5.810  -5.620  0.00  0.00    -0.196 N 
ATOM      2  C2  IND d   1      -3.534  -5.831  -5.646  0.00  0.00     0.054 A 
ATOM      3  C3  IND d   1      -4.022  -4.574  -5.752  0.00  0.00    -0.031 A 
ATOM      4  C4  IND d   1      -2.758  -2.345  -6.000  0.00  0.00     0.051 A 
ATOM      5  C5  IND d   1      -1.499  -1.814  -5.993  0.00  0.00    -0.031 A 
ATOM      6  C6  IND d   1      -0.375  -2.604  -5.861  0.00  0.00     0.015 A 
ATOM      7  C7  IND d   1      -0.469  -3.962  -5.743  0.00  0.00    -0.016 A 
ATOM      8  C8  IND d   1      -1.746  -4.504  -5.742  0.00  0.00    -0.047 A 
ATOM      9  C9  IND d   1      -2.892  -3.703  -5.833  0.00  0.00    -0.096 A 
ATOM     10  HN1 IND d   1      -1.656  -6.497  -5.540  0.00  0.00     0.298 HD
ENDROOT
TORSDOF 0
ENDMDL
