MODEL 1
REMARK minimizedAffinity 5.15058851
REMARK minimizedRMSD -1
REMARK  0 active torsions:
REMARK  status: ('A' for Active; 'I' for Inactive)
ROOT
ATOM      1  N1  IND d   1      -5.989   0.760   3.785  0.00  0.00    -0.196 N 
ATOM      2  C2  IND d   1      -5.412   0.784   2.547  0.00  0.00     0.054 A 
ATOM      3  C3  IND d   1      -4.707  -0.350   2.334  0.00  0.00    -0.031 A 
ATOM      4  C4  IND d   1      -4.447  -2.421   3.841  0.00  0.00     0.051 A 
ATOM      5  C5  IND d   1      -4.760  -2.895   5.084  0.00  0.00    -0.031 A 
ATOM      6  C6  IND d   1      -5.516  -2.161   5.975  0.00  0.00     0.015 A 
ATOM      7  C7  IND d   1      -5.999  -0.925   5.650  0.00  0.00    -0.016 A 
ATOM      8  C8  IND d   1      -5.678  -0.438   4.391  0.00  0.00    -0.047 A 
ATOM      9  C9  IND d   1      -4.875  -1.160   3.499  0.00  0.00    -0.096 A 
ATOM     10  HN1 IND d   1      -6.466   1.387   4.129  0.00  0.00     0.298 HD
ENDROOT
TORSDOF 0
ENDMDL
