MODEL 1
REMARK minimizedAffinity 2.99654436
REMARK minimizedRMSD -1
REMARK  0 active torsions:
REMARK  status: ('A' for Active; 'I' for Inactive)
ROOT
ATOM      1  N1  IND d   1      -3.611  -0.949   0.764  0.00  0.00    -0.196 N 
ATOM      2  C2  IND d   1      -4.109   0.064  -0.007  0.00  0.00     0.054 A 
ATOM      3  C3  IND d   1      -5.100   0.710   0.648  0.00  0.00    -0.031 A 
ATOM      4  C4  IND d   1      -5.998   0.338   3.032  0.00  0.00     0.051 A 
ATOM      5  C5  IND d   1      -5.882  -0.495   4.109  0.00  0.00    -0.031 A 
ATOM      6  C6  IND d   1      -4.983  -1.542   4.128  0.00  0.00     0.015 A 
ATOM      7  C7  IND d   1      -4.155  -1.789   3.069  0.00  0.00    -0.016 A 
ATOM      8  C8  IND d   1      -4.275  -0.949   1.971  0.00  0.00    -0.047 A 
ATOM      9  C9  IND d   1      -5.215   0.089   1.930  0.00  0.00    -0.096 A 
ATOM     10  HN1 IND d   1      -2.988  -1.495   0.534  0.00  0.00     0.298 HD
ENDROOT
TORSDOF 0
ENDMDL
