MODEL 1
REMARK minimizedAffinity 1.44473743
REMARK minimizedRMSD -1
REMARK  0 active torsions:
REMARK  status: ('A' for Active; 'I' for Inactive)
ROOT
ATOM      1  N1  IND d   1      -2.644  -5.989  -5.965  0.00  0.00    -0.196 N 
ATOM      2  C2  IND d   1      -4.000  -5.822  -5.939  0.00  0.00     0.054 A 
ATOM      3  C3  IND d   1      -4.312  -4.507  -5.905  0.00  0.00    -0.031 A 
ATOM      4  C4  IND d   1      -2.758  -2.456  -5.988  0.00  0.00     0.051 A 
ATOM      5  C5  IND d   1      -1.437  -2.104  -5.980  0.00  0.00    -0.031 A 
ATOM      6  C6  IND d   1      -0.431  -3.048  -5.969  0.00  0.00     0.015 A 
ATOM      7  C7  IND d   1      -0.709  -4.386  -5.977  0.00  0.00    -0.016 A 
ATOM      8  C8  IND d   1      -2.049  -4.747  -5.978  0.00  0.00    -0.047 A 
ATOM      9  C9  IND d   1      -3.075  -3.793  -5.947  0.00  0.00    -0.096 A 
ATOM     10  HN1 IND d   1      -2.232  -6.744  -5.971  0.00  0.00     0.298 HD
ENDROOT
TORSDOF 0
ENDMDL
