MODEL 1
REMARK minimizedAffinity -2.33401394
REMARK minimizedRMSD -1
REMARK  0 active torsions:
REMARK  status: ('A' for Active; 'I' for Inactive)
ROOT
ATOM      1  N1  IND d   1      -6.000  -0.311   3.514  0.00  0.00    -0.196 N 
ATOM      2  C2  IND d   1      -5.452  -0.361   2.263  0.00  0.00     0.054 A 
ATOM      3  C3  IND d   1      -4.775  -1.519   2.091  0.00  0.00    -0.031 A 
ATOM      4  C4  IND d   1      -4.521  -3.517   3.694  0.00  0.00     0.051 A 
ATOM      5  C5  IND d   1      -4.814  -3.922   4.966  0.00  0.00    -0.031 A 
ATOM      6  C6  IND d   1      -5.533  -3.128   5.836  0.00  0.00     0.015 A 
ATOM      7  C7  IND d   1      -5.999  -1.900   5.461  0.00  0.00    -0.016 A 
ATOM      8  C8  IND d   1      -5.698  -1.483   4.172  0.00  0.00    -0.047 A 
ATOM      9  C9  IND d   1      -4.932  -2.266   3.299  0.00  0.00    -0.096 A 
ATOM     10  HN1 IND d   1      -6.456   0.343   3.836  0.00  0.00     0.298 HD
ENDROOT
TORSDOF 0
ENDMDL
