MODEL 1
REMARK minimizedAffinity 5.00153351
REMARK minimizedRMSD -1
REMARK  0 active torsions:
REMARK  status: ('A' for Active; 'I' for Inactive)
ROOT
ATOM      1  N1  IND d   1      -2.649  -5.999  -3.883  0.00  0.00    -0.196 N 
ATOM      2  C2  IND d   1      -1.593  -5.208  -4.240  0.00  0.00     0.054 A 
ATOM      3  C3  IND d   1      -1.993  -4.252  -5.108  0.00  0.00    -0.031 A 
ATOM      4  C4  IND d   1      -4.352  -3.736  -6.000  0.00  0.00     0.051 A 
ATOM      5  C5  IND d   1      -5.635  -4.207  -5.987  0.00  0.00    -0.031 A 
ATOM      6  C6  IND d   1      -5.996  -5.320  -5.255  0.00  0.00     0.015 A 
ATOM      7  C7  IND d   1      -5.086  -6.000  -4.497  0.00  0.00    -0.016 A 
ATOM      8  C8  IND d   1      -3.781  -5.529  -4.513  0.00  0.00    -0.047 A 
ATOM      9  C9  IND d   1      -3.399  -4.425  -5.287  0.00  0.00    -0.096 A 
ATOM     10  HN1 IND d   1      -2.613  -6.676  -3.355  0.00  0.00     0.298 HD
ENDROOT
TORSDOF 0
ENDMDL
