MODEL 1
REMARK minimizedAffinity 8.48859215
REMARK minimizedRMSD -1
REMARK  0 active torsions:
REMARK  status: ('A' for Active; 'I' for Inactive)
ROOT
ATOM      1  N1  IND d   1      -2.568  -5.983  -4.118  0.00  0.00    -0.196 N 
ATOM      2  C2  IND d   1      -1.546  -5.142  -4.460  0.00  0.00     0.054 A 
ATOM      3  C3  IND d   1      -2.005  -4.135  -5.236  0.00  0.00    -0.031 A 
ATOM      4  C4  IND d   1      -4.413  -3.614  -5.984  0.00  0.00     0.051 A 
ATOM      5  C5  IND d   1      -5.684  -4.116  -5.951  0.00  0.00    -0.031 A 
ATOM      6  C6  IND d   1      -5.988  -5.288  -5.289  0.00  0.00     0.015 A 
ATOM      7  C7  IND d   1      -5.030  -5.999  -4.624  0.00  0.00    -0.016 A 
ATOM      8  C8  IND d   1      -3.737  -5.496  -4.661  0.00  0.00    -0.047 A 
ATOM      9  C9  IND d   1      -3.415  -4.330  -5.367  0.00  0.00    -0.096 A 
ATOM     10  HN1 IND d   1      -2.494  -6.696  -3.643  0.00  0.00     0.298 HD
ENDROOT
TORSDOF 0
ENDMDL
