MODEL 1
REMARK minimizedAffinity 4.67985487
REMARK minimizedRMSD -1
REMARK  0 active torsions:
REMARK  status: ('A' for Active; 'I' for Inactive)
ROOT
ATOM      1  N1  IND d   1       1.294  -4.755  -1.125  0.00  0.00    -0.196 N 
ATOM      2  C2  IND d   1       1.060  -3.780  -0.195  0.00  0.00     0.054 A 
ATOM      3  C3  IND d   1       2.226  -3.343   0.331  0.00  0.00    -0.031 A 
ATOM      4  C4  IND d   1       4.640  -4.014  -0.260  0.00  0.00     0.051 A 
ATOM      5  C5  IND d   1       5.359  -4.892  -1.023  0.00  0.00    -0.031 A 
ATOM      6  C6  IND d   1       4.746  -5.785  -1.878  0.00  0.00     0.015 A 
ATOM      7  C7  IND d   1       3.387  -5.826  -2.011  0.00  0.00    -0.016 A 
ATOM      8  C8  IND d   1       2.654  -4.941  -1.233  0.00  0.00    -0.047 A 
ATOM      9  C9  IND d   1       3.268  -4.062  -0.332  0.00  0.00    -0.096 A 
ATOM     10  HN1 IND d   1       0.692  -5.180  -1.568  0.00  0.00     0.298 HD
ENDROOT
TORSDOF 0
ENDMDL
