MODEL 1
REMARK minimizedAffinity -0.0589706115
REMARK minimizedRMSD -1
REMARK  0 active torsions:
REMARK  status: ('A' for Active; 'I' for Inactive)
ROOT
ATOM      1  C1  DEN d   1       0.325   3.113  -1.721  0.00  0.00     0.130 A 
ATOM      2  C2  DEN d   1       0.403   4.526  -1.363  0.00  0.00    -0.031 A 
ATOM      3  C3  DEN d   1       0.481   4.621   0.109  0.00  0.00     0.027 A 
ATOM      4  C4  DEN d   1       0.494   2.725   1.858  0.00  0.00     0.027 A 
ATOM      5  C5  DEN d   1       0.434   1.361   2.035  0.00  0.00    -0.003 A 
ATOM      6  C6  DEN d   1       0.300   0.493   0.983  0.00  0.00     0.001 A 
ATOM      7  C7  DEN d   1       0.268   0.979  -0.297  0.00  0.00     0.017 A 
ATOM      8  C8  DEN d   1       0.320   2.354  -0.483  0.00  0.00    -0.094 A 
ATOM      9  C9  DEN d   1       0.467   3.214   0.592  0.00  0.00    -0.072 A 
ENDROOT
TORSDOF 0
ENDMDL
