MODEL 1
REMARK minimizedAffinity 1.55798924
REMARK minimizedRMSD -1
REMARK  0 active torsions:
REMARK  status: ('A' for Active; 'I' for Inactive)
ROOT
ATOM      1  C1  DEN d   1       0.377   3.907   0.242  0.00  0.00     0.130 A 
ATOM      2  C2  DEN d   1       0.139   3.693  -1.182  0.00  0.00    -0.031 A 
ATOM      3  C3  DEN d   1       0.092   2.237  -1.424  0.00  0.00     0.027 A 
ATOM      4  C4  DEN d   1       0.359   0.303   0.263  0.00  0.00     0.027 A 
ATOM      5  C5  DEN d   1       0.588  -0.010   1.584  0.00  0.00    -0.003 A 
ATOM      6  C6  DEN d   1       0.795   0.952   2.537  0.00  0.00     0.001 A 
ATOM      7  C7  DEN d   1       0.732   2.276   2.191  0.00  0.00     0.017 A 
ATOM      8  C8  DEN d   1       0.509   2.599   0.859  0.00  0.00    -0.094 A 
ATOM      9  C9  DEN d   1       0.289   1.613  -0.087  0.00  0.00    -0.072 A 
ENDROOT
TORSDOF 0
ENDMDL
