MODEL 1
REMARK minimizedAffinity -2.02573824
REMARK minimizedRMSD -1
REMARK  0 active torsions:
REMARK  status: ('A' for Active; 'I' for Inactive)
ROOT
ATOM      1  C1  DEN d   1      -0.363  -1.442   1.025  0.00  0.00     0.130 A 
ATOM      2  C2  DEN d   1       0.857  -0.846   1.562  0.00  0.00    -0.031 A 
ATOM      3  C3  DEN d   1       1.299   0.210   0.628  0.00  0.00     0.027 A 
ATOM      4  C4  DEN d   1       0.214   0.980  -1.581  0.00  0.00     0.027 A 
ATOM      5  C5  DEN d   1      -0.830   0.764  -2.454  0.00  0.00    -0.003 A 
ATOM      6  C6  DEN d   1      -1.763  -0.217  -2.248  0.00  0.00     0.001 A 
ATOM      7  C7  DEN d   1      -1.699  -0.989  -1.119  0.00  0.00     0.017 A 
ATOM      8  C8  DEN d   1      -0.646  -0.782  -0.237  0.00  0.00    -0.094 A 
ATOM      9  C9  DEN d   1       0.282   0.222  -0.457  0.00  0.00    -0.072 A 
ENDROOT
TORSDOF 0
ENDMDL
