MODEL 1
REMARK minimizedAffinity 3.70111394
REMARK minimizedRMSD -1
REMARK  0 active torsions:
REMARK  status: ('A' for Active; 'I' for Inactive)
ROOT
ATOM      1  C1  DEN d   1       0.443   4.541   0.454  0.00  0.00     0.130 A 
ATOM      2  C2  DEN d   1       0.452   4.667  -1.001  0.00  0.00    -0.031 A 
ATOM      3  C3  DEN d   1       0.401   3.309  -1.578  0.00  0.00     0.027 A 
ATOM      4  C4  DEN d   1       0.304   1.034  -0.366  0.00  0.00     0.027 A 
ATOM      5  C5  DEN d   1       0.288   0.418   0.866  0.00  0.00    -0.003 A 
ATOM      6  C6  DEN d   1       0.356   1.126   2.037  0.00  0.00     0.001 A 
ATOM      7  C7  DEN d   1       0.398   2.494   2.001  0.00  0.00     0.017 A 
ATOM      8  C8  DEN d   1       0.422   3.122   0.763  0.00  0.00    -0.094 A 
ATOM      9  C9  DEN d   1       0.340   2.390  -0.410  0.00  0.00    -0.072 A 
ENDROOT
TORSDOF 0
ENDMDL
