MODEL 1
REMARK minimizedAffinity 1.61410904
REMARK minimizedRMSD -1
REMARK  0 active torsions:
REMARK  status: ('A' for Active; 'I' for Inactive)
ROOT
ATOM      1  C1  DEN d   1       0.417   2.144   1.976  0.00  0.00     0.130 A 
ATOM      2  C2  DEN d   1       0.853   1.129   2.932  0.00  0.00    -0.031 A 
ATOM      3  C3  DEN d   1       1.054  -0.135   2.195  0.00  0.00     0.027 A 
ATOM      4  C4  DEN d   1       0.741  -0.616  -0.320  0.00  0.00     0.027 A 
ATOM      5  C5  DEN d   1       0.372  -0.070  -1.529  0.00  0.00    -0.003 A 
ATOM      6  C6  DEN d   1      -0.037   1.232  -1.649  0.00  0.00     0.001 A 
ATOM      7  C7  DEN d   1      -0.043   2.045  -0.546  0.00  0.00     0.017 A 
ATOM      8  C8  DEN d   1       0.320   1.500   0.678  0.00  0.00    -0.094 A 
ATOM      9  C9  DEN d   1       0.742   0.185   0.776  0.00  0.00    -0.072 A 
ENDROOT
TORSDOF 0
ENDMDL
