MODEL 1
REMARK minimizedAffinity 4.09838533
REMARK minimizedRMSD -1
REMARK  0 active torsions:
REMARK  status: ('A' for Active; 'I' for Inactive)
ROOT
ATOM      1  C1  DEN d   1       0.438   3.861  -1.548  0.00  0.00     0.130 A 
ATOM      2  C2  DEN d   1       0.671   5.116  -0.837  0.00  0.00    -0.031 A 
ATOM      3  C3  DEN d   1       0.873   4.800   0.592  0.00  0.00     0.027 A 
ATOM      4  C4  DEN d   1       0.854   2.503   1.764  0.00  0.00     0.027 A 
ATOM      5  C5  DEN d   1       0.687   1.149   1.578  0.00  0.00    -0.003 A 
ATOM      6  C6  DEN d   1       0.393   0.611   0.352  0.00  0.00     0.001 A 
ATOM      7  C7  DEN d   1       0.303   1.429  -0.743  0.00  0.00     0.017 A 
ATOM      8  C8  DEN d   1       0.463   2.796  -0.562  0.00  0.00    -0.094 A 
ATOM      9  C9  DEN d   1       0.772   3.319   0.683  0.00  0.00    -0.072 A 
ENDROOT
TORSDOF 0
ENDMDL
