MODEL 1
REMARK minimizedAffinity -0.389827311
REMARK minimizedRMSD -1
REMARK  0 active torsions:
REMARK  status: ('A' for Active; 'I' for Inactive)
ROOT
ATOM      1  C1  DEN d   1      -0.026   1.886  -0.771  0.00  0.00     0.130 A 
ATOM      2  C2  DEN d   1      -1.002   1.122  -1.543  0.00  0.00    -0.031 A 
ATOM      3  C3  DEN d   1      -1.609   2.029  -2.537  0.00  0.00     0.027 A 
ATOM      4  C4  DEN d   1      -1.131   4.529  -2.957  0.00  0.00     0.027 A 
ATOM      5  C5  DEN d   1      -0.392   5.615  -2.544  0.00  0.00    -0.003 A 
ATOM      6  C6  DEN d   1       0.489   5.544  -1.498  0.00  0.00     0.001 A 
ATOM      7  C7  DEN d   1       0.687   4.349  -0.857  0.00  0.00     0.017 A 
ATOM      8  C8  DEN d   1      -0.060   3.251  -1.263  0.00  0.00    -0.094 A 
ATOM      9  C9  DEN d   1      -0.937   3.341  -2.331  0.00  0.00    -0.072 A 
ENDROOT
TORSDOF 0
ENDMDL
