MODEL 1
REMARK minimizedAffinity 0.805605114
REMARK minimizedRMSD -1
REMARK  0 active torsions:
REMARK  status: ('A' for Active; 'I' for Inactive)
ROOT
ATOM      1  C1  DEN d   1       0.892   4.920   0.313  0.00  0.00     0.130 A 
ATOM      2  C2  DEN d   1       0.739   5.065  -1.132  0.00  0.00    -0.031 A 
ATOM      3  C3  DEN d   1       0.429   3.735  -1.694  0.00  0.00     0.027 A 
ATOM      4  C4  DEN d   1       0.167   1.478  -0.474  0.00  0.00     0.027 A 
ATOM      5  C5  DEN d   1       0.217   0.853   0.752  0.00  0.00    -0.003 A 
ATOM      6  C6  DEN d   1       0.526   1.527   1.904  0.00  0.00     0.001 A 
ATOM      7  C7  DEN d   1       0.753   2.877   1.860  0.00  0.00     0.017 A 
ATOM      8  C8  DEN d   1       0.712   3.513   0.626  0.00  0.00    -0.094 A 
ATOM      9  C9  DEN d   1       0.386   2.817  -0.525  0.00  0.00    -0.072 A 
ENDROOT
TORSDOF 0
ENDMDL
