MODEL 1
REMARK minimizedAffinity 8.55523586
REMARK minimizedRMSD -1
REMARK  0 active torsions:
REMARK  status: ('A' for Active; 'I' for Inactive)
ROOT
ATOM      1  C4' PXY d   1       0.745  -2.795  -1.934  0.00  0.00     0.077 C 
ATOM      2  C1' PXY d   1      -3.386   1.196  -1.282  0.00  0.00     0.077 C 
ATOM      3  C1  PXY d   1      -2.295   0.159  -1.457  0.00  0.00    -0.082 A 
ATOM      4  C2  PXY d   1      -2.622  -1.108  -1.657  0.00  0.00     0.003 A 
ATOM      5  C3  PXY d   1      -1.647  -2.064  -1.786  0.00  0.00     0.003 A 
ATOM      6  C4  PXY d   1      -0.324  -1.712  -1.762  0.00  0.00    -0.082 A 
ATOM      7  C5  PXY d   1       0.017  -0.420  -1.569  0.00  0.00     0.003 A 
ATOM      8  C6  PXY d   1      -0.987   0.529  -1.399  0.00  0.00     0.003 A 
ENDROOT
TORSDOF 0
ENDMDL
