MODEL 1
REMARK minimizedAffinity 5.81946707
REMARK minimizedRMSD -1
REMARK  0 active torsions:
REMARK  status: ('A' for Active; 'I' for Inactive)
ROOT
ATOM      1  C4' PXY d   1      -0.711   4.547  -2.187  0.00  0.00     0.077 C 
ATOM      2  C1' PXY d   1      -0.177   1.709   2.820  0.00  0.00     0.077 C 
ATOM      3  C1  PXY d   1      -0.317   2.465   1.514  0.00  0.00    -0.082 A 
ATOM      4  C2  PXY d   1      -0.879   1.873   0.473  0.00  0.00     0.003 A 
ATOM      5  C3  PXY d   1      -0.985   2.530  -0.726  0.00  0.00     0.003 A 
ATOM      6  C4  PXY d   1      -0.558   3.826  -0.845  0.00  0.00    -0.082 A 
ATOM      7  C5  PXY d   1       0.007   4.441   0.215  0.00  0.00     0.003 A 
ATOM      8  C6  PXY d   1       0.143   3.742   1.411  0.00  0.00     0.003 A 
ENDROOT
TORSDOF 0
ENDMDL
