MODEL 1
REMARK minimizedAffinity 3.58197451
REMARK minimizedRMSD -1
REMARK  0 active torsions:
REMARK  status: ('A' for Active; 'I' for Inactive)
ROOT
ATOM      1  C4' PXY d   1       1.190  -1.000  -0.954  0.00  0.00     0.077 C 
ATOM      2  C1' PXY d   1      -4.158   1.166  -1.310  0.00  0.00     0.077 C 
ATOM      3  C1  PXY d   1      -2.751   0.609  -1.222  0.00  0.00    -0.082 A 
ATOM      4  C2  PXY d   1      -2.566  -0.701  -1.196  0.00  0.00     0.003 A 
ATOM      5  C3  PXY d   1      -1.303  -1.221  -1.084  0.00  0.00     0.003 A 
ATOM      6  C4  PXY d   1      -0.213  -0.393  -1.052  0.00  0.00    -0.082 A 
ATOM      7  C5  PXY d   1      -0.392   0.944  -1.089  0.00  0.00     0.003 A 
ATOM      8  C6  PXY d   1      -1.686   1.453  -1.161  0.00  0.00     0.003 A 
ENDROOT
TORSDOF 0
ENDMDL
