MODEL 1
REMARK minimizedAffinity 10.7840233
REMARK minimizedRMSD -1
REMARK  0 active torsions:
REMARK  status: ('A' for Active; 'I' for Inactive)
ROOT
ATOM      1  C4' PXY d   1      -2.658   1.218  -0.456  0.00  0.00     0.077 C 
ATOM      2  C1' PXY d   1       1.423   3.016   3.222  0.00  0.00     0.077 C 
ATOM      3  C1  PXY d   1       0.356   2.554   2.249  0.00  0.00    -0.082 A 
ATOM      4  C2  PXY d   1      -0.682   1.865   2.696  0.00  0.00     0.003 A 
ATOM      5  C3  PXY d   1      -1.640   1.412   1.825  0.00  0.00     0.003 A 
ATOM      6  C4  PXY d   1      -1.562   1.713   0.492  0.00  0.00    -0.082 A 
ATOM      7  C5  PXY d   1      -0.512   2.424   0.030  0.00  0.00     0.003 A 
ATOM      8  C6  PXY d   1       0.471   2.840   0.924  0.00  0.00     0.003 A 
ENDROOT
TORSDOF 0
ENDMDL
