MODEL 1
REMARK minimizedAffinity 3.34334397
REMARK minimizedRMSD -1
REMARK  0 active torsions:
REMARK  status: ('A' for Active; 'I' for Inactive)
ROOT
ATOM      1  C4' PXY d   1      -3.783   1.536  -1.737  0.00  0.00     0.077 C 
ATOM      2  C1' PXY d   1      -4.118  -1.493   3.175  0.00  0.00     0.077 C 
ATOM      3  C1  PXY d   1      -4.027  -0.709   1.880  0.00  0.00    -0.082 A 
ATOM      4  C2  PXY d   1      -3.781   0.590   1.918  0.00  0.00     0.003 A 
ATOM      5  C3  PXY d   1      -3.727   1.320   0.758  0.00  0.00     0.003 A 
ATOM      6  C4  PXY d   1      -3.874   0.704  -0.455  0.00  0.00    -0.082 A 
ATOM      7  C5  PXY d   1      -4.114  -0.624  -0.503  0.00  0.00     0.003 A 
ATOM      8  C6  PXY d   1      -4.206  -1.339   0.688  0.00  0.00     0.003 A 
ENDROOT
TORSDOF 0
ENDMDL
