MODEL 1
REMARK minimizedAffinity 2.08899379
REMARK minimizedRMSD -1
REMARK  0 active torsions:
REMARK  status: ('A' for Active; 'I' for Inactive)
ROOT
ATOM      1  C4' PXY d   1      -0.226   2.072   2.026  0.00  0.00     0.077 C 
ATOM      2  C1' PXY d   1      -0.605   4.350  -3.273  0.00  0.00     0.077 C 
ATOM      3  C1  PXY d   1      -0.514   3.743  -1.887  0.00  0.00    -0.082 A 
ATOM      4  C2  PXY d   1      -0.159   4.502  -0.863  0.00  0.00     0.003 A 
ATOM      5  C3  PXY d   1      -0.040   3.962   0.392  0.00  0.00     0.003 A 
ATOM      6  C4  PXY d   1      -0.340   2.644   0.610  0.00  0.00    -0.082 A 
ATOM      7  C5  PXY d   1      -0.714   1.866  -0.428  0.00  0.00     0.003 A 
ATOM      8  C6  PXY d   1      -0.788   2.424  -1.701  0.00  0.00     0.003 A 
ENDROOT
TORSDOF 0
ENDMDL
