MODEL 1
REMARK minimizedAffinity 9.68615437
REMARK minimizedRMSD -1
REMARK  0 active torsions:
REMARK  status: ('A' for Active; 'I' for Inactive)
ROOT
ATOM      1  C4' PXY d   1       0.844  -1.195  -1.794  0.00  0.00     0.077 C 
ATOM      2  C1' PXY d   1      -4.605   0.520  -0.907  0.00  0.00     0.077 C 
ATOM      3  C1  PXY d   1      -3.173   0.083  -1.142  0.00  0.00    -0.082 A 
ATOM      4  C2  PXY d   1      -2.917  -1.176  -1.462  0.00  0.00     0.003 A 
ATOM      5  C3  PXY d   1      -1.625  -1.596  -1.647  0.00  0.00     0.003 A 
ATOM      6  C4  PXY d   1      -0.588  -0.707  -1.556  0.00  0.00    -0.082 A 
ATOM      7  C5  PXY d   1      -0.841   0.581  -1.241  0.00  0.00     0.003 A 
ATOM      8  C6  PXY d   1      -2.156   0.978  -1.017  0.00  0.00     0.003 A 
ENDROOT
TORSDOF 0
ENDMDL
