MODEL 1
REMARK minimizedAffinity 0.588973224
REMARK minimizedRMSD -1
REMARK  0 active torsions:
REMARK  status: ('A' for Active; 'I' for Inactive)
ROOT
ATOM      1  C1  BNZ d   1       3.876   4.390   0.997  0.00  0.00     0.000 A 
ATOM      2  C2  BNZ d   1       3.832   3.024   0.912  0.00  0.00     0.000 A 
ATOM      3  C3  BNZ d   1       2.696   2.338   1.239  0.00  0.00     0.000 A 
ATOM      4  C4  BNZ d   1       1.620   3.014   1.689  0.00  0.00     0.000 A 
ATOM      5  C5  BNZ d   1       1.651   4.391   1.790  0.00  0.00     0.000 A 
ATOM      6  C6  BNZ d   1       2.784   5.081   1.423  0.00  0.00     0.000 A 
ENDROOT
TORSDOF 0
ENDMDL
