MODEL 1
REMARK minimizedAffinity 0.0557679422
REMARK minimizedRMSD -1
REMARK  0 active torsions:
REMARK  status: ('A' for Active; 'I' for Inactive)
ROOT
ATOM      1  C1  BNZ d   1      -1.278  -0.714   4.496  0.00  0.00     0.000 A 
ATOM      2  C2  BNZ d   1      -2.627  -0.480   4.498  0.00  0.00     0.000 A 
ATOM      3  C3  BNZ d   1      -3.468  -1.237   5.266  0.00  0.00     0.000 A 
ATOM      4  C4  BNZ d   1      -2.964  -2.251   5.999  0.00  0.00     0.000 A 
ATOM      5  C5  BNZ d   1      -1.607  -2.505   6.000  0.00  0.00     0.000 A 
ATOM      6  C6  BNZ d   1      -0.759  -1.717   5.256  0.00  0.00     0.000 A 
ENDROOT
TORSDOF 0
ENDMDL
