MODEL 1
REMARK minimizedAffinity -1.65467727
REMARK minimizedRMSD -1
REMARK  0 active torsions:
REMARK  status: ('A' for Active; 'I' for Inactive)
ROOT
ATOM      1  C1  BNZ d   1      -1.923  -1.855   0.637  0.00  0.00     0.000 A 
ATOM      2  C2  BNZ d   1      -1.204  -0.743   0.984  0.00  0.00     0.000 A 
ATOM      3  C3  BNZ d   1       0.125  -0.836   1.289  0.00  0.00     0.000 A 
ATOM      4  C4  BNZ d   1       0.723  -2.046   1.288  0.00  0.00     0.000 A 
ATOM      5  C5  BNZ d   1       0.009  -3.178   0.950  0.00  0.00     0.000 A 
ATOM      6  C6  BNZ d   1      -1.319  -3.075   0.604  0.00  0.00     0.000 A 
ENDROOT
TORSDOF 0
ENDMDL
