MODEL 1
REMARK minimizedAffinity -2.32169342
REMARK minimizedRMSD -1
REMARK  0 active torsions:
REMARK  status: ('A' for Active; 'I' for Inactive)
ROOT
ATOM      1  C1  BNZ d   1       0.295   1.268  -0.082  0.00  0.00     0.000 A 
ATOM      2  C2  BNZ d   1       0.442   0.320   0.894  0.00  0.00     0.000 A 
ATOM      3  C3  BNZ d   1       0.593  -1.000   0.571  0.00  0.00     0.000 A 
ATOM      4  C4  BNZ d   1       0.557  -1.373  -0.725  0.00  0.00     0.000 A 
ATOM      5  C5  BNZ d   1       0.401  -0.430  -1.720  0.00  0.00     0.000 A 
ATOM      6  C6  BNZ d   1       0.288   0.902  -1.393  0.00  0.00     0.000 A 
ENDROOT
TORSDOF 0
ENDMDL
