MODEL 1
REMARK minimizedAffinity -3.66647196
REMARK minimizedRMSD -1
REMARK  0 active torsions:
REMARK  status: ('A' for Active; 'I' for Inactive)
ROOT
ATOM      1  C1  BNZ d   1       0.182  -0.871  -1.150  0.00  0.00     0.000 A 
ATOM      2  C2  BNZ d   1       0.603   0.375  -0.767  0.00  0.00     0.000 A 
ATOM      3  C3  BNZ d   1       0.800   0.673   0.553  0.00  0.00     0.000 A 
ATOM      4  C4  BNZ d   1       0.538  -0.262   1.489  0.00  0.00     0.000 A 
ATOM      5  C5  BNZ d   1       0.104  -1.519   1.120  0.00  0.00     0.000 A 
ATOM      6  C6  BNZ d   1      -0.056  -1.827  -0.212  0.00  0.00     0.000 A 
ENDROOT
TORSDOF 0
ENDMDL
