MODEL 1
REMARK minimizedAffinity -3.36245942
REMARK minimizedRMSD -1
REMARK  0 active torsions:
REMARK  status: ('A' for Active; 'I' for Inactive)
ROOT
ATOM      1  C1  BNZ d   1      -2.220  -0.585   1.093  0.00  0.00     0.000 A 
ATOM      2  C2  BNZ d   1      -1.289   0.279   0.582  0.00  0.00     0.000 A 
ATOM      3  C3  BNZ d   1       0.003  -0.122   0.383  0.00  0.00     0.000 A 
ATOM      4  C4  BNZ d   1       0.371  -1.372   0.733  0.00  0.00     0.000 A 
ATOM      5  C5  BNZ d   1      -0.555  -2.251   1.259  0.00  0.00     0.000 A 
ATOM      6  C6  BNZ d   1      -1.863  -1.857   1.421  0.00  0.00     0.000 A 
ENDROOT
TORSDOF 0
ENDMDL
