MODEL 1
REMARK minimizedAffinity -4.66544008
REMARK minimizedRMSD -1
REMARK  0 active torsions:
REMARK  status: ('A' for Active; 'I' for Inactive)
ROOT
ATOM      1  C1  BNZ d   1       0.009  -0.812  -0.057  0.00  0.00     0.000 A 
ATOM      2  C2  BNZ d   1       0.053  -2.178  -0.145  0.00  0.00     0.000 A 
ATOM      3  C3  BNZ d   1      -0.437  -2.961   0.863  0.00  0.00     0.000 A 
ATOM      4  C4  BNZ d   1      -0.931  -2.378   1.974  0.00  0.00     0.000 A 
ATOM      5  C5  BNZ d   1      -0.974  -1.002   2.082  0.00  0.00     0.000 A 
ATOM      6  C6  BNZ d   1      -0.517  -0.217   1.048  0.00  0.00     0.000 A 
ENDROOT
TORSDOF 0
ENDMDL
