MODEL 1
REMARK minimizedAffinity -3.68471408
REMARK minimizedRMSD -1
REMARK  0 active torsions:
REMARK  status: ('A' for Active; 'I' for Inactive)
ROOT
ATOM      1  C1  BNZ d   1      -1.674  -0.534   1.526  0.00  0.00     0.000 A 
ATOM      2  C2  BNZ d   1      -0.596   0.236   1.179  0.00  0.00     0.000 A 
ATOM      3  C3  BNZ d   1       0.346  -0.232   0.306  0.00  0.00     0.000 A 
ATOM      4  C4  BNZ d   1       0.231  -1.482  -0.186  0.00  0.00     0.000 A 
ATOM      5  C5  BNZ d   1      -0.845  -2.275   0.162  0.00  0.00     0.000 A 
ATOM      6  C6  BNZ d   1      -1.812  -1.786   1.010  0.00  0.00     0.000 A 
ENDROOT
TORSDOF 0
ENDMDL
