MODEL 1
REMARK minimizedAffinity -4.27663326
REMARK minimizedRMSD -1
REMARK  0 active torsions:
REMARK  status: ('A' for Active; 'I' for Inactive)
ROOT
ATOM      1  C1  BNZ d   1       0.954  -1.684  -0.436  0.00  0.00     0.000 A 
ATOM      2  C2  BNZ d   1       0.849  -3.005  -0.092  0.00  0.00     0.000 A 
ATOM      3  C3  BNZ d   1      -0.229  -3.460   0.615  0.00  0.00     0.000 A 
ATOM      4  C4  BNZ d   1      -1.178  -2.588   1.011  0.00  0.00     0.000 A 
ATOM      5  C5  BNZ d   1      -1.082  -1.252   0.680  0.00  0.00     0.000 A 
ATOM      6  C6  BNZ d   1      -0.015  -0.804  -0.065  0.00  0.00     0.000 A 
ENDROOT
TORSDOF 0
ENDMDL
