MODEL 1
REMARK minimizedAffinity -5.06477451
REMARK minimizedRMSD -1
REMARK  0 active torsions:
REMARK  status: ('A' for Active; 'I' for Inactive)
ROOT
ATOM      1  C1  BNZ d   1      -0.514  -0.879   0.746  0.00  0.00     0.000 A 
ATOM      2  C2  BNZ d   1      -0.239  -2.207   0.558  0.00  0.00     0.000 A 
ATOM      3  C3  BNZ d   1       0.335  -2.645  -0.603  0.00  0.00     0.000 A 
ATOM      4  C4  BNZ d   1       0.596  -1.763  -1.588  0.00  0.00     0.000 A 
ATOM      5  C5  BNZ d   1       0.316  -0.421  -1.418  0.00  0.00     0.000 A 
ATOM      6  C6  BNZ d   1      -0.226   0.022  -0.233  0.00  0.00     0.000 A 
ENDROOT
TORSDOF 0
ENDMDL
