MODEL 1
REMARK minimizedAffinity -5.0014329
REMARK minimizedRMSD -1
REMARK  0 active torsions:
REMARK  status: ('A' for Active; 'I' for Inactive)
ROOT
ATOM      1  C1  BNZ d   1       0.992   2.291   2.003  0.00  0.00     0.000 A 
ATOM      2  C2  BNZ d   1       0.741   1.227   2.828  0.00  0.00     0.000 A 
ATOM      3  C3  BNZ d   1       0.418   0.003   2.312  0.00  0.00     0.000 A 
ATOM      4  C4  BNZ d   1       0.308  -0.145   0.976  0.00  0.00     0.000 A 
ATOM      5  C5  BNZ d   1       0.548   0.920   0.132  0.00  0.00     0.000 A 
ATOM      6  C6  BNZ d   1       0.911   2.141   0.653  0.00  0.00     0.000 A 
ENDROOT
TORSDOF 0
ENDMDL
