MODEL 1
REMARK minimizedAffinity -2.11429858
REMARK minimizedRMSD -1
REMARK  0 active torsions:
REMARK  status: ('A' for Active; 'I' for Inactive)
ROOT
ATOM      1  C1  BNZ d   1       0.275   1.625  -0.004  0.00  0.00     0.000 A 
ATOM      2  C2  BNZ d   1      -0.153   2.407   1.036  0.00  0.00     0.000 A 
ATOM      3  C3  BNZ d   1       0.561   3.505   1.427  0.00  0.00     0.000 A 
ATOM      4  C4  BNZ d   1       1.722   3.796   0.805  0.00  0.00     0.000 A 
ATOM      5  C5  BNZ d   1       2.172   3.013  -0.239  0.00  0.00     0.000 A 
ATOM      6  C6  BNZ d   1       1.430   1.931  -0.655  0.00  0.00     0.000 A 
ENDROOT
TORSDOF 0
ENDMDL
