MODEL 1
REMARK minimizedAffinity -3.39090014
REMARK minimizedRMSD -1
REMARK  0 active torsions:
REMARK  status: ('A' for Active; 'I' for Inactive)
ROOT
ATOM      1  C1  BNZ d   1      -0.646  -2.158  -0.464  0.00  0.00     0.000 A 
ATOM      2  C2  BNZ d   1      -0.105  -0.910  -0.309  0.00  0.00     0.000 A 
ATOM      3  C3  BNZ d   1      -0.320  -0.191   0.833  0.00  0.00     0.000 A 
ATOM      4  C4  BNZ d   1      -1.107  -0.703   1.801  0.00  0.00     0.000 A 
ATOM      5  C5  BNZ d   1      -1.668  -1.956   1.656  0.00  0.00     0.000 A 
ATOM      6  C6  BNZ d   1      -1.418  -2.693   0.521  0.00  0.00     0.000 A 
ENDROOT
TORSDOF 0
ENDMDL
