MODEL 1
REMARK minimizedAffinity -2.49379206
REMARK minimizedRMSD -1
REMARK  0 active torsions:
REMARK  status: ('A' for Active; 'I' for Inactive)
ROOT
ATOM      1  C1  BNZ d   1      -0.941  -1.918   1.835  0.00  0.00     0.000 A 
ATOM      2  C2  BNZ d   1      -0.329  -0.694   1.780  0.00  0.00     0.000 A 
ATOM      3  C3  BNZ d   1       0.003  -0.131   0.579  0.00  0.00     0.000 A 
ATOM      4  C4  BNZ d   1      -0.241  -0.810  -0.561  0.00  0.00     0.000 A 
ATOM      5  C5  BNZ d   1      -0.849  -2.048  -0.521  0.00  0.00     0.000 A 
ATOM      6  C6  BNZ d   1      -1.217  -2.594   0.687  0.00  0.00     0.000 A 
ENDROOT
TORSDOF 0
ENDMDL
