MODEL 1
REMARK minimizedAffinity -2.668015
REMARK minimizedRMSD -1
REMARK  0 active torsions:
REMARK  status: ('A' for Active; 'I' for Inactive)
ROOT
ATOM      1  C1  BNZ d   1       1.277   3.952   1.423  0.00  0.00     0.000 A 
ATOM      2  C2  BNZ d   1       0.142   3.480   0.821  0.00  0.00     0.000 A 
ATOM      3  C3  BNZ d   1       0.216   2.584  -0.209  0.00  0.00     0.000 A 
ATOM      4  C4  BNZ d   1       1.424   2.192  -0.660  0.00  0.00     0.000 A 
ATOM      5  C5  BNZ d   1       2.579   2.665  -0.069  0.00  0.00     0.000 A 
ATOM      6  C6  BNZ d   1       2.500   3.537   0.992  0.00  0.00     0.000 A 
ENDROOT
TORSDOF 0
ENDMDL
