MODEL 1
REMARK minimizedAffinity -2.16413784
REMARK minimizedRMSD -1
REMARK  0 active torsions:
REMARK  status: ('A' for Active; 'I' for Inactive)
ROOT
ATOM      1  C1  BNZ d   1      -1.120  -1.471   1.797  0.00  0.00     0.000 A 
ATOM      2  C2  BNZ d   1      -0.406  -0.308   1.686  0.00  0.00     0.000 A 
ATOM      3  C3  BNZ d   1       0.057   0.116   0.472  0.00  0.00     0.000 A 
ATOM      4  C4  BNZ d   1      -0.159  -0.642  -0.622  0.00  0.00     0.000 A 
ATOM      5  C5  BNZ d   1      -0.868  -1.823  -0.525  0.00  0.00     0.000 A 
ATOM      6  C6  BNZ d   1      -1.367  -2.227   0.692  0.00  0.00     0.000 A 
ENDROOT
TORSDOF 0
ENDMDL
