MODEL 1
REMARK minimizedAffinity -3.09676886
REMARK minimizedRMSD -1
REMARK  0 active torsions:
REMARK  status: ('A' for Active; 'I' for Inactive)
ROOT
ATOM      1  C1  BNZ d   1      -0.434   0.008   0.376  0.00  0.00     0.000 A 
ATOM      2  C2  BNZ d   1      -0.792  -0.246   1.673  0.00  0.00     0.000 A 
ATOM      3  C3  BNZ d   1      -1.192  -1.496   2.056  0.00  0.00     0.000 A 
ATOM      4  C4  BNZ d   1      -1.272  -2.478   1.135  0.00  0.00     0.000 A 
ATOM      5  C5  BNZ d   1      -0.924  -2.235  -0.178  0.00  0.00     0.000 A 
ATOM      6  C6  BNZ d   1      -0.484  -0.985  -0.552  0.00  0.00     0.000 A 
ENDROOT
TORSDOF 0
ENDMDL
