MODEL 1
REMARK minimizedAffinity 3.97828031
REMARK minimizedRMSD -1
REMARK  0 active torsions:
REMARK  status: ('A' for Active; 'I' for Inactive)
ROOT
ATOM      1  O1  BZF d   1       1.129   0.883   3.064  0.00  0.00    -0.204 OA
ATOM      2  C2  BZF d   1       1.785   0.100   2.134  0.00  0.00     0.174 A 
ATOM      3  C3  BZF d   1       0.961  -0.231   1.120  0.00  0.00    -0.012 A 
ATOM      4  C3A BZF d   1      -0.263   0.461   1.388  0.00  0.00    -0.107 A 
ATOM      5  C4  BZF d   1      -1.458   0.544   0.733  0.00  0.00     0.055 A 
ATOM      6  C5  BZF d   1      -2.474   1.246   1.299  0.00  0.00    -0.016 A 
ATOM      7  C6  BZF d   1      -2.333   1.872   2.520  0.00  0.00     0.022 A 
ATOM      8  C7  BZF d   1      -1.164   1.822   3.205  0.00  0.00     0.029 A 
ATOM      9  C7A BZF d   1      -0.125   1.141   2.620  0.00  0.00     0.058 A 
ENDROOT
TORSDOF 0
ENDMDL
