MODEL 1
REMARK minimizedAffinity 3.21845818
REMARK minimizedRMSD -1
REMARK  0 active torsions:
REMARK  status: ('A' for Active; 'I' for Inactive)
ROOT
ATOM      1  O1  BZF d   1      -3.008   2.095   3.738  0.00  0.00    -0.204 OA
ATOM      2  C2  BZF d   1      -3.163   1.981   2.370  0.00  0.00     0.174 A 
ATOM      3  C3  BZF d   1      -4.162   1.125   2.072  0.00  0.00    -0.012 A 
ATOM      4  C3A BZF d   1      -4.723   0.747   3.333  0.00  0.00    -0.107 A 
ATOM      5  C4  BZF d   1      -5.755  -0.071   3.693  0.00  0.00     0.055 A 
ATOM      6  C5  BZF d   1      -5.999  -0.283   5.013  0.00  0.00    -0.016 A 
ATOM      7  C6  BZF d   1      -5.229   0.301   5.997  0.00  0.00     0.022 A 
ATOM      8  C7  BZF d   1      -4.197   1.123   5.688  0.00  0.00     0.029 A 
ATOM      9  C7A BZF d   1      -3.969   1.366   4.356  0.00  0.00     0.058 A 
ENDROOT
TORSDOF 0
ENDMDL
