MODEL 1
REMARK minimizedAffinity 4.83748579
REMARK minimizedRMSD -1
REMARK  0 active torsions:
REMARK  status: ('A' for Active; 'I' for Inactive)
ROOT
ATOM      1  O1  BZF d   1      -1.870   2.956   3.046  0.00  0.00    -0.204 OA
ATOM      2  C2  BZF d   1      -0.615   3.094   3.606  0.00  0.00     0.174 A 
ATOM      3  C3  BZF d   1       0.212   2.121   3.172  0.00  0.00    -0.012 A 
ATOM      4  C3A BZF d   1      -0.549   1.380   2.214  0.00  0.00    -0.107 A 
ATOM      5  C4  BZF d   1      -0.270   0.301   1.425  0.00  0.00     0.055 A 
ATOM      6  C5  BZF d   1      -1.256  -0.226   0.652  0.00  0.00    -0.016 A 
ATOM      7  C6  BZF d   1      -2.532   0.297   0.648  0.00  0.00     0.022 A 
ATOM      8  C7  BZF d   1      -2.856   1.370   1.411  0.00  0.00     0.029 A 
ATOM      9  C7A BZF d   1      -1.853   1.925   2.167  0.00  0.00     0.058 A 
ENDROOT
TORSDOF 0
ENDMDL
