MODEL 1
REMARK minimizedAffinity 13.7516413
REMARK minimizedRMSD -1
REMARK  0 active torsions:
REMARK  status: ('A' for Active; 'I' for Inactive)
ROOT
ATOM      1  O1  BZF d   1      -1.163  -2.562   1.337  0.00  0.00    -0.204 OA
ATOM      2  C2  BZF d   1      -2.242  -2.738   0.492  0.00  0.00     0.174 A 
ATOM      3  C3  BZF d   1      -2.740  -1.548   0.098  0.00  0.00    -0.012 A 
ATOM      4  C3A BZF d   1      -1.863  -0.568   0.662  0.00  0.00    -0.107 A 
ATOM      5  C4  BZF d   1      -1.824   0.796   0.612  0.00  0.00     0.055 A 
ATOM      6  C5  BZF d   1      -0.880   1.456   1.333  0.00  0.00    -0.016 A 
ATOM      7  C6  BZF d   1       0.036   0.786   2.117  0.00  0.00     0.022 A 
ATOM      8  C7  BZF d   1       0.040  -0.568   2.194  0.00  0.00     0.029 A 
ATOM      9  C7A BZF d   1      -0.892  -1.239   1.441  0.00  0.00     0.058 A 
ENDROOT
TORSDOF 0
ENDMDL
