MODEL 1
REMARK minimizedAffinity 12.8031511
REMARK minimizedRMSD -1
REMARK  0 active torsions:
REMARK  status: ('A' for Active; 'I' for Inactive)
ROOT
ATOM      1  O1  BZF d   1       2.511  -1.381   2.977  0.00  0.00    -0.204 OA
ATOM      2  C2  BZF d   1       1.218  -1.283   2.499  0.00  0.00     0.174 A 
ATOM      3  C3  BZF d   1       1.132  -0.335   1.544  0.00  0.00    -0.012 A 
ATOM      4  C3A BZF d   1       2.473   0.128   1.351  0.00  0.00    -0.107 A 
ATOM      5  C4  BZF d   1       3.035   1.056   0.523  0.00  0.00     0.055 A 
ATOM      6  C5  BZF d   1       4.363   1.323   0.635  0.00  0.00    -0.016 A 
ATOM      7  C6  BZF d   1       5.156   0.685   1.567  0.00  0.00     0.022 A 
ATOM      8  C7  BZF d   1       4.644  -0.247   2.407  0.00  0.00     0.029 A 
ATOM      9  C7A BZF d   1       3.309  -0.543   2.273  0.00  0.00     0.058 A 
ENDROOT
TORSDOF 0
ENDMDL
