MODEL 1
REMARK minimizedAffinity 4.55726099
REMARK minimizedRMSD -1
REMARK  0 active torsions:
REMARK  status: ('A' for Active; 'I' for Inactive)
ROOT
ATOM      1  O1  BZF d   1      -4.548   2.332   5.918  0.00  0.00    -0.204 OA
ATOM      2  C2  BZF d   1      -5.878   2.705   5.923  0.00  0.00     0.174 A 
ATOM      3  C3  BZF d   1      -5.998   4.048   5.972  0.00  0.00    -0.012 A 
ATOM      4  C3A BZF d   1      -4.659   4.548   5.907  0.00  0.00    -0.107 A 
ATOM      5  C4  BZF d   1      -4.126   5.805   5.900  0.00  0.00     0.055 A 
ATOM      6  C5  BZF d   1      -2.775   5.950   5.903  0.00  0.00    -0.016 A 
ATOM      7  C6  BZF d   1      -1.928   4.861   5.918  0.00  0.00     0.022 A 
ATOM      8  C7  BZF d   1      -2.410   3.594   5.921  0.00  0.00     0.029 A 
ATOM      9  C7A BZF d   1      -3.775   3.445   5.885  0.00  0.00     0.058 A 
ENDROOT
TORSDOF 0
ENDMDL
