MODEL 1
REMARK minimizedAffinity 12.3216305
REMARK minimizedRMSD -1
REMARK  0 active torsions:
REMARK  status: ('A' for Active; 'I' for Inactive)
ROOT
ATOM      1  O1  BZF d   1      -4.230   3.142   3.928  0.00  0.00    -0.204 OA
ATOM      2  C2  BZF d   1      -5.094   3.045   5.002  0.00  0.00     0.174 A 
ATOM      3  C3  BZF d   1      -4.712   3.867   6.000  0.00  0.00    -0.012 A 
ATOM      4  C3A BZF d   1      -3.587   4.587   5.485  0.00  0.00    -0.107 A 
ATOM      5  C4  BZF d   1      -2.780   5.560   6.000  0.00  0.00     0.055 A 
ATOM      6  C5  BZF d   1      -1.724   6.000   5.265  0.00  0.00    -0.016 A 
ATOM      7  C6  BZF d   1      -1.445   5.485   4.016  0.00  0.00     0.022 A 
ATOM      8  C7  BZF d   1      -2.220   4.522   3.461  0.00  0.00     0.029 A 
ATOM      9  C7A BZF d   1      -3.307   4.099   4.188  0.00  0.00     0.058 A 
ENDROOT
TORSDOF 0
ENDMDL
