MODEL 1
REMARK minimizedAffinity 2.29388738
REMARK minimizedRMSD -1
REMARK  0 active torsions:
REMARK  status: ('A' for Active; 'I' for Inactive)
ROOT
ATOM      1  O1  BZF d   1       5.406   0.674   1.298  0.00  0.00    -0.204 OA
ATOM      2  C2  BZF d   1       5.895   0.037   2.423  0.00  0.00     0.174 A 
ATOM      3  C3  BZF d   1       4.898  -0.570   3.099  0.00  0.00    -0.012 A 
ATOM      4  C3A BZF d   1       3.727  -0.373   2.302  0.00  0.00    -0.107 A 
ATOM      5  C4  BZF d   1       2.423  -0.756   2.438  0.00  0.00     0.055 A 
ATOM      6  C5  BZF d   1       1.513  -0.338   1.520  0.00  0.00    -0.016 A 
ATOM      7  C6  BZF d   1       1.870   0.466   0.457  0.00  0.00     0.022 A 
ATOM      8  C7  BZF d   1       3.152   0.867   0.278  0.00  0.00     0.029 A 
ATOM      9  C7A BZF d   1       4.080   0.420   1.186  0.00  0.00     0.058 A 
ENDROOT
TORSDOF 0
ENDMDL
