MODEL 1
REMARK minimizedAffinity 5.05154896
REMARK minimizedRMSD -1
REMARK  0 active torsions:
REMARK  status: ('A' for Active; 'I' for Inactive)
ROOT
ATOM      1  O1  BZF d   1      -3.696   2.210   5.902  0.00  0.00    -0.204 OA
ATOM      2  C2  BZF d   1      -4.876   1.491   5.896  0.00  0.00     0.174 A 
ATOM      3  C3  BZF d   1      -5.939   2.317   5.974  0.00  0.00    -0.012 A 
ATOM      4  C3A BZF d   1      -5.393   3.639   5.941  0.00  0.00    -0.107 A 
ATOM      5  C4  BZF d   1      -5.949   4.886   5.970  0.00  0.00     0.055 A 
ATOM      6  C5  BZF d   1      -5.133   5.972   5.996  0.00  0.00    -0.016 A 
ATOM      7  C6  BZF d   1      -3.759   5.849   5.999  0.00  0.00     0.022 A 
ATOM      8  C7  BZF d   1      -3.161   4.633   5.965  0.00  0.00     0.029 A 
ATOM      9  C7A BZF d   1      -3.983   3.534   5.906  0.00  0.00     0.058 A 
ENDROOT
TORSDOF 0
ENDMDL
