MODEL 1
REMARK minimizedAffinity 8.35330963
REMARK minimizedRMSD -1
REMARK  0 active torsions:
REMARK  status: ('A' for Active; 'I' for Inactive)
ROOT
ATOM      1  O1  BZF d   1       5.631   0.793   2.330  0.00  0.00    -0.204 OA
ATOM      2  C2  BZF d   1       4.975  -0.264   2.933  0.00  0.00     0.174 A 
ATOM      3  C3  BZF d   1       3.694  -0.330   2.519  0.00  0.00    -0.012 A 
ATOM      4  C3A BZF d   1       3.564   0.696   1.530  0.00  0.00    -0.107 A 
ATOM      5  C4  BZF d   1       2.531   1.115   0.742  0.00  0.00     0.055 A 
ATOM      6  C5  BZF d   1       2.711   2.192  -0.067  0.00  0.00    -0.016 A 
ATOM      7  C6  BZF d   1       3.909   2.876  -0.109  0.00  0.00     0.022 A 
ATOM      8  C7  BZF d   1       4.964   2.495   0.651  0.00  0.00     0.029 A 
ATOM      9  C7A BZF d   1       4.795   1.386   1.445  0.00  0.00     0.058 A 
ENDROOT
TORSDOF 0
ENDMDL
