MODEL 1
REMARK minimizedAffinity 9.30961895
REMARK minimizedRMSD -1
REMARK  0 active torsions:
REMARK  status: ('A' for Active; 'I' for Inactive)
ROOT
ATOM      1  O1  BZF d   1      -5.068   4.982   5.896  0.00  0.00    -0.204 OA
ATOM      2  C2  BZF d   1      -4.135   5.997   5.818  0.00  0.00     0.174 A 
ATOM      3  C3  BZF d   1      -2.882   5.498   5.836  0.00  0.00    -0.012 A 
ATOM      4  C3A BZF d   1      -3.044   4.077   5.838  0.00  0.00    -0.107 A 
ATOM      5  C4  BZF d   1      -2.164   3.032   5.838  0.00  0.00     0.055 A 
ATOM      6  C5  BZF d   1      -2.645   1.763   5.915  0.00  0.00    -0.016 A 
ATOM      7  C6  BZF d   1      -3.997   1.504   5.999  0.00  0.00     0.022 A 
ATOM      8  C7  BZF d   1      -4.909   2.507   5.997  0.00  0.00     0.029 A 
ATOM      9  C7A BZF d   1      -4.427   3.788   5.886  0.00  0.00     0.058 A 
ENDROOT
TORSDOF 0
ENDMDL
