MODEL 1
REMARK minimizedAffinity 9.63456821
REMARK minimizedRMSD -1
REMARK  0 active torsions:
REMARK  status: ('A' for Active; 'I' for Inactive)
ROOT
ATOM      1  O1  BZF d   1       4.371   1.598  -5.183  0.00  0.00    -0.204 OA
ATOM      2  C2  BZF d   1       3.430   2.196  -5.999  0.00  0.00     0.174 A 
ATOM      3  C3  BZF d   1       2.280   1.492  -5.999  0.00  0.00    -0.012 A 
ATOM      4  C3A BZF d   1       2.486   0.435  -5.057  0.00  0.00    -0.107 A 
ATOM      5  C4  BZF d   1       1.701  -0.587  -4.606  0.00  0.00     0.055 A 
ATOM      6  C5  BZF d   1       2.227  -1.491  -3.739  0.00  0.00    -0.016 A 
ATOM      7  C6  BZF d   1       3.534  -1.407  -3.306  0.00  0.00     0.022 A 
ATOM      8  C7  BZF d   1       4.350  -0.408  -3.722  0.00  0.00     0.029 A 
ATOM      9  C7A BZF d   1       3.811   0.526  -4.573  0.00  0.00     0.058 A 
ENDROOT
TORSDOF 0
ENDMDL
