MODEL 1
REMARK minimizedAffinity 2.11559081
REMARK minimizedRMSD -1
REMARK  0 active torsions:
REMARK  status: ('A' for Active; 'I' for Inactive)
ROOT
ATOM      1  O1  BZF d   1      -5.146   0.752   5.638  0.00  0.00    -0.204 OA
ATOM      2  C2  BZF d   1      -3.934   0.090   5.685  0.00  0.00     0.174 A 
ATOM      3  C3  BZF d   1      -2.913   0.966   5.772  0.00  0.00    -0.012 A 
ATOM      4  C3A BZF d   1      -3.529   2.253   5.872  0.00  0.00    -0.107 A 
ATOM      5  C4  BZF d   1      -3.039   3.522   5.999  0.00  0.00     0.055 A 
ATOM      6  C5  BZF d   1      -3.906   4.568   5.996  0.00  0.00    -0.016 A 
ATOM      7  C6  BZF d   1      -5.266   4.384   5.862  0.00  0.00     0.022 A 
ATOM      8  C7  BZF d   1      -5.800   3.144   5.738  0.00  0.00     0.029 A 
ATOM      9  C7A BZF d   1      -4.930   2.082   5.774  0.00  0.00     0.058 A 
ENDROOT
TORSDOF 0
ENDMDL
