MODEL 1
REMARK minimizedAffinity 10.5741072
REMARK minimizedRMSD -1
REMARK  0 active torsions:
REMARK  status: ('A' for Active; 'I' for Inactive)
ROOT
ATOM      1  O1  BZF d   1      -2.545   1.986   5.888  0.00  0.00    -0.204 OA
ATOM      2  C2  BZF d   1      -3.811   1.433   5.887  0.00  0.00     0.174 A 
ATOM      3  C3  BZF d   1      -4.752   2.395   5.973  0.00  0.00    -0.012 A 
ATOM      4  C3A BZF d   1      -4.032   3.631   5.937  0.00  0.00    -0.107 A 
ATOM      5  C4  BZF d   1      -4.415   4.942   5.972  0.00  0.00     0.055 A 
ATOM      6  C5  BZF d   1      -3.460   5.908   5.994  0.00  0.00    -0.016 A 
ATOM      7  C6  BZF d   1      -2.115   5.600   5.989  0.00  0.00     0.022 A 
ATOM      8  C7  BZF d   1      -1.687   4.314   5.951  0.00  0.00     0.029 A 
ATOM      9  C7A BZF d   1      -2.650   3.337   5.894  0.00  0.00     0.058 A 
ENDROOT
TORSDOF 0
ENDMDL
