MODEL 1
REMARK minimizedAffinity 0.742407918
REMARK minimizedRMSD -1
REMARK  0 active torsions:
REMARK  status: ('A' for Active; 'I' for Inactive)
ROOT
ATOM      1  O1  BZF d   1      -3.679  -3.310   5.902  0.00  0.00    -0.204 OA
ATOM      2  C2  BZF d   1      -3.256  -1.998   6.000  0.00  0.00     0.174 A 
ATOM      3  C3  BZF d   1      -3.009  -1.483   4.778  0.00  0.00    -0.012 A 
ATOM      4  C3A BZF d   1      -3.383  -2.510   3.854  0.00  0.00    -0.107 A 
ATOM      5  C4  BZF d   1      -3.383  -2.591   2.491  0.00  0.00     0.055 A 
ATOM      6  C5  BZF d   1      -3.740  -3.761   1.899  0.00  0.00    -0.016 A 
ATOM      7  C6  BZF d   1      -4.097  -4.870   2.639  0.00  0.00     0.022 A 
ATOM      8  C7  BZF d   1      -4.117  -4.835   3.994  0.00  0.00     0.029 A 
ATOM      9  C7A BZF d   1      -3.789  -3.644   4.594  0.00  0.00     0.058 A 
ENDROOT
TORSDOF 0
ENDMDL
