MODEL 1
REMARK minimizedAffinity 17.0537777
REMARK minimizedRMSD -1
REMARK  0 active torsions:
REMARK  status: ('A' for Active; 'I' for Inactive)
ROOT
ATOM      1  O1  BZF d   1       3.028  -1.856   3.297  0.00  0.00    -0.204 OA
ATOM      2  C2  BZF d   1       4.105  -1.067   3.654  0.00  0.00     0.174 A 
ATOM      3  C3  BZF d   1       4.147   0.053   2.904  0.00  0.00    -0.012 A 
ATOM      4  C3A BZF d   1       2.974   0.003   2.087  0.00  0.00    -0.107 A 
ATOM      5  C4  BZF d   1       2.450   0.840   1.144  0.00  0.00     0.055 A 
ATOM      6  C5  BZF d   1       1.327   0.464   0.477  0.00  0.00    -0.016 A 
ATOM      7  C6  BZF d   1       0.706  -0.743   0.724  0.00  0.00     0.022 A 
ATOM      8  C7  BZF d   1       1.186  -1.604   1.654  0.00  0.00     0.029 A 
ATOM      9  C7A BZF d   1       2.302  -1.213   2.353  0.00  0.00     0.058 A 
ENDROOT
TORSDOF 0
ENDMDL
