MODEL 1
REMARK minimizedAffinity 14.9873323
REMARK minimizedRMSD -1
REMARK  0 active torsions:
REMARK  status: ('A' for Active; 'I' for Inactive)
ROOT
ATOM      1  O1  BZF d   1      -4.407  -3.572   5.035  0.00  0.00    -0.204 OA
ATOM      2  C2  BZF d   1      -3.744  -2.839   6.000  0.00  0.00     0.174 A 
ATOM      3  C3  BZF d   1      -3.022  -1.849   5.437  0.00  0.00    -0.012 A 
ATOM      4  C3A BZF d   1      -3.322  -1.912   4.039  0.00  0.00    -0.107 A 
ATOM      5  C4  BZF d   1      -2.923  -1.178   2.959  0.00  0.00     0.055 A 
ATOM      6  C5  BZF d   1      -3.343  -1.545   1.720  0.00  0.00    -0.016 A 
ATOM      7  C6  BZF d   1      -4.156  -2.642   1.524  0.00  0.00     0.022 A 
ATOM      8  C7  BZF d   1      -4.581  -3.398   2.565  0.00  0.00     0.029 A 
ATOM      9  C7A BZF d   1      -4.186  -3.010   3.822  0.00  0.00     0.058 A 
ENDROOT
TORSDOF 0
ENDMDL
