MODEL 1
REMARK minimizedAffinity 1.46645677
REMARK minimizedRMSD -1
REMARK  0 active torsions:
REMARK  status: ('A' for Active; 'I' for Inactive)
ROOT
ATOM      1  C   UNL d   1       4.859   0.120   3.499  0.00  0.00    -0.002 A 
ATOM      2  C1  UNL d   1       5.604   0.373   4.642  0.00  0.00     0.010 A 
ATOM      3  C2  UNL d   1       6.000   1.674   4.958  0.00  0.00     0.041 A 
ATOM      4  C3  UNL d   1       5.629   2.727   4.099  0.00  0.00    -0.075 A 
ATOM      5  S   UNL d   1       6.000   4.401   4.286  0.00  0.00     0.015 SA
ATOM      6  C4  UNL d   1       5.177   4.820   2.853  0.00  0.00     0.022 A 
ATOM      7  C5  UNL d   1       4.627   3.722   2.235  0.00  0.00     0.026 A 
ATOM      8  C6  UNL d   1       4.877   2.498   2.943  0.00  0.00    -0.082 A 
ATOM      9  C7  UNL d   1       4.492   1.168   2.649  0.00  0.00     0.045 A 
ENDROOT
TORSDOF 0
ENDMDL
