MODEL 1
REMARK minimizedAffinity 1.26198924
REMARK minimizedRMSD -1
REMARK  0 active torsions:
REMARK  status: ('A' for Active; 'I' for Inactive)
ROOT
ATOM      1  C   UNL d   1       5.998   0.024   4.992  0.00  0.00    -0.002 A 
ATOM      2  C1  UNL d   1       5.999  -0.219   3.626  0.00  0.00     0.010 A 
ATOM      3  C2  UNL d   1       5.998   0.840   2.716  0.00  0.00     0.041 A 
ATOM      4  C3  UNL d   1       5.999   2.160   3.207  0.00  0.00    -0.075 A 
ATOM      5  S   UNL d   1       5.999   3.614   2.281  0.00  0.00     0.015 SA
ATOM      6  C4  UNL d   1       5.999   4.592   3.677  0.00  0.00     0.022 A 
ATOM      7  C5  UNL d   1       5.999   3.844   4.830  0.00  0.00     0.026 A 
ATOM      8  C6  UNL d   1       5.999   2.430   4.579  0.00  0.00    -0.082 A 
ATOM      9  C7  UNL d   1       5.999   1.335   5.475  0.00  0.00     0.045 A 
ENDROOT
TORSDOF 0
ENDMDL
