MODEL 1
REMARK minimizedAffinity 0.341058135
REMARK minimizedRMSD -1
REMARK  0 active torsions:
REMARK  status: ('A' for Active; 'I' for Inactive)
ROOT
ATOM      1  C   UNL d   1       5.779   2.143   4.839  0.00  0.00    -0.002 A 
ATOM      2  C1  UNL d   1       5.926   1.902   3.480  0.00  0.00     0.010 A 
ATOM      3  C2  UNL d   1       5.999   0.595   2.994  0.00  0.00     0.041 A 
ATOM      4  C3  UNL d   1       5.920  -0.476   3.906  0.00  0.00    -0.075 A 
ATOM      5  S   UNL d   1       5.986  -2.159   3.539  0.00  0.00     0.015 SA
ATOM      6  C4  UNL d   1       5.820  -2.599   5.178  0.00  0.00     0.022 A 
ATOM      7  C5  UNL d   1       5.716  -1.500   5.998  0.00  0.00     0.026 A 
ATOM      8  C6  UNL d   1       5.771  -0.259   5.278  0.00  0.00    -0.082 A 
ATOM      9  C7  UNL d   1       5.701   1.078   5.740  0.00  0.00     0.045 A 
ENDROOT
TORSDOF 0
ENDMDL
