MODEL 1
REMARK minimizedAffinity 0.875700414
REMARK minimizedRMSD -1
REMARK  0 active torsions:
REMARK  status: ('A' for Active; 'I' for Inactive)
ROOT
ATOM      1  C   UNL d   1       5.998   4.662   5.293  0.00  0.00    -0.002 A 
ATOM      2  C1  UNL d   1       5.998   5.041   3.958  0.00  0.00     0.010 A 
ATOM      3  C2  UNL d   1       5.999   4.079   2.947  0.00  0.00     0.041 A 
ATOM      4  C3  UNL d   1       5.998   2.716   3.302  0.00  0.00    -0.075 A 
ATOM      5  S   UNL d   1       5.999   1.363   2.233  0.00  0.00     0.015 SA
ATOM      6  C4  UNL d   1       5.998   0.249   3.524  0.00  0.00     0.022 A 
ATOM      7  C5  UNL d   1       5.998   0.877   4.747  0.00  0.00     0.026 A 
ATOM      8  C6  UNL d   1       5.997   2.309   4.639  0.00  0.00    -0.082 A 
ATOM      9  C7  UNL d   1       5.997   3.308   5.642  0.00  0.00     0.045 A 
ENDROOT
TORSDOF 0
ENDMDL
