MODEL 1
REMARK minimizedAffinity 19.0124912
REMARK minimizedRMSD -1
REMARK  0 active torsions:
REMARK  status: ('A' for Active; 'I' for Inactive)
ROOT
ATOM      1  C   UNL d   1      -0.262   2.903   0.807  0.00  0.00    -0.002 A 
ATOM      2  C1  UNL d   1      -1.641   2.759   0.755  0.00  0.00     0.010 A 
ATOM      3  C2  UNL d   1      -2.449   3.285   1.765  0.00  0.00     0.041 A 
ATOM      4  C3  UNL d   1      -1.841   3.967   2.838  0.00  0.00    -0.075 A 
ATOM      5  S   UNL d   1      -2.630   4.696   4.186  0.00  0.00     0.015 SA
ATOM      6  C4  UNL d   1      -1.155   5.217   4.863  0.00  0.00     0.022 A 
ATOM      7  C5  UNL d   1      -0.077   4.852   4.092  0.00  0.00     0.026 A 
ATOM      8  C6  UNL d   1      -0.455   4.126   2.912  0.00  0.00    -0.082 A 
ATOM      9  C7  UNL d   1       0.337   3.580   1.873  0.00  0.00     0.045 A 
ENDROOT
TORSDOF 0
ENDMDL
