MODEL 1
REMARK minimizedAffinity -0.243399411
REMARK minimizedRMSD -1
REMARK  0 active torsions:
REMARK  status: ('A' for Active; 'I' for Inactive)
ROOT
ATOM      1  C   UNL d   1       5.992   3.443   3.410  0.00  0.00    -0.002 A 
ATOM      2  C1  UNL d   1       5.993   2.648   2.273  0.00  0.00     0.010 A 
ATOM      3  C2  UNL d   1       5.995   1.256   2.380  0.00  0.00     0.041 A 
ATOM      4  C3  UNL d   1       5.993   0.671   3.662  0.00  0.00    -0.075 A 
ATOM      5  S   UNL d   1       5.994  -1.012   4.036  0.00  0.00     0.015 SA
ATOM      6  C4  UNL d   1       5.991  -0.715   5.715  0.00  0.00     0.022 A 
ATOM      7  C5  UNL d   1       5.990   0.630   6.000  0.00  0.00     0.026 A 
ATOM      8  C6  UNL d   1       5.991   1.451   4.822  0.00  0.00    -0.082 A 
ATOM      9  C7  UNL d   1       5.990   2.859   4.680  0.00  0.00     0.045 A 
ENDROOT
TORSDOF 0
ENDMDL
