MODEL 1
REMARK minimizedAffinity -0.397737741
REMARK minimizedRMSD -1
REMARK  0 active torsions:
REMARK  status: ('A' for Active; 'I' for Inactive)
ROOT
ATOM      1  C   UNL d   1       5.983   3.147   4.141  0.00  0.00    -0.002 A 
ATOM      2  C1  UNL d   1       5.992   2.640   2.849  0.00  0.00     0.010 A 
ATOM      3  C2  UNL d   1       5.996   1.262   2.627  0.00  0.00     0.041 A 
ATOM      4  C3  UNL d   1       5.990   0.393   3.736  0.00  0.00    -0.075 A 
ATOM      5  S   UNL d   1       5.992  -1.331   3.706  0.00  0.00     0.015 SA
ATOM      6  C4  UNL d   1       5.982  -1.435   5.407  0.00  0.00     0.022 A 
ATOM      7  C5  UNL d   1       5.976  -0.194   6.000  0.00  0.00     0.026 A 
ATOM      8  C6  UNL d   1       5.980   0.880   5.046  0.00  0.00    -0.082 A 
ATOM      9  C7  UNL d   1       5.977   2.282   5.238  0.00  0.00     0.045 A 
ENDROOT
TORSDOF 0
ENDMDL
