MODEL 1
REMARK minimizedAffinity 0.458852947
REMARK minimizedRMSD -1
REMARK  0 active torsions:
REMARK  status: ('A' for Active; 'I' for Inactive)
ROOT
ATOM      1  C   UNL d   1       5.996   1.100   3.503  0.00  0.00    -0.002 A 
ATOM      2  C1  UNL d   1       5.995   1.114   4.891  0.00  0.00     0.010 A 
ATOM      3  C2  UNL d   1       5.997   2.322   5.590  0.00  0.00     0.041 A 
ATOM      4  C3  UNL d   1       5.998   3.529   4.863  0.00  0.00    -0.075 A 
ATOM      5  S   UNL d   1       5.999   5.129   5.506  0.00  0.00     0.015 SA
ATOM      6  C4  UNL d   1       6.000   5.833   3.953  0.00  0.00     0.022 A 
ATOM      7  C5  UNL d   1       5.999   4.885   2.958  0.00  0.00     0.026 A 
ATOM      8  C6  UNL d   1       5.997   3.542   3.465  0.00  0.00    -0.082 A 
ATOM      9  C7  UNL d   1       5.996   2.300   2.786  0.00  0.00     0.045 A 
ENDROOT
TORSDOF 0
ENDMDL
