MODEL 1
REMARK minimizedAffinity -2.09046793
REMARK minimizedRMSD -1
REMARK  1 active torsions:
REMARK  status: ('A' for Active; 'I' for Inactive)
REMARK    1  A    between atoms: C1_2  and  C2_3 
ROOT
ATOM      1  C2  UNL d   1       0.831  -0.490   0.421  0.00  0.00    -0.076 A 
ATOM      2  C3  UNL d   1       0.637  -1.742   1.030  0.00  0.00     0.004 A 
ATOM      3  C4  UNL d   1       1.566  -2.251   1.936  0.00  0.00    -0.003 A 
ATOM      4  C5  UNL d   1       2.703  -1.515   2.250  0.00  0.00     0.000 A 
ATOM      5  C6  UNL d   1       2.903  -0.263   1.670  0.00  0.00     0.000 A 
ATOM      6  C7  UNL d   1       1.969   0.271   0.766  0.00  0.00    -0.073 A 
ATOM      7  C8  UNL d   1       2.237   1.624   0.166  0.00  0.00     0.078 C 
ENDROOT
BRANCH   1   8
ATOM      8  C1  UNL d   1      -0.196  -0.002  -0.575  0.00  0.00     0.053 C 
ATOM      9  C   UNL d   1      -1.619  -0.124  -0.052  0.00  0.00     0.018 C 
ENDBRANCH   1   8
TORSDOF 1
ENDMDL
