MODEL 1
REMARK minimizedAffinity -2.03193998
REMARK minimizedRMSD -1
REMARK  1 active torsions:
REMARK  status: ('A' for Active; 'I' for Inactive)
REMARK    1  A    between atoms: C1_2  and  C2_3 
ROOT
ATOM      1  C2  UNL d   1       0.247   0.009  -0.071  0.00  0.00    -0.076 A 
ATOM      2  C3  UNL d   1       0.700  -1.318   0.037  0.00  0.00     0.004 A 
ATOM      3  C4  UNL d   1       1.984  -1.601   0.499  0.00  0.00    -0.003 A 
ATOM      4  C5  UNL d   1       2.836  -0.563   0.862  0.00  0.00     0.000 A 
ATOM      5  C6  UNL d   1       2.396   0.757   0.777  0.00  0.00     0.000 A 
ATOM      6  C7  UNL d   1       1.099   1.060   0.329  0.00  0.00    -0.073 A 
ATOM      7  C8  UNL d   1       0.680   2.502   0.252  0.00  0.00     0.078 C 
ENDROOT
BRANCH   1   8
ATOM      8  C1  UNL d   1      -1.146   0.257  -0.604  0.00  0.00     0.053 C 
ATOM      9  C   UNL d   1      -1.340  -0.299  -2.007  0.00  0.00     0.018 C 
ENDBRANCH   1   8
TORSDOF 1
ENDMDL
