MODEL 1
REMARK minimizedAffinity -3.18773746
REMARK minimizedRMSD -1
REMARK  1 active torsions:
REMARK  status: ('A' for Active; 'I' for Inactive)
REMARK    1  A    between atoms: C1_2  and  C2_3 
ROOT
ATOM      1  C2  UNL d   1       1.470  -0.226   0.353  0.00  0.00    -0.076 A 
ATOM      2  C3  UNL d   1       1.164   1.057  -0.134  0.00  0.00     0.004 A 
ATOM      3  C4  UNL d   1      -0.143   1.403  -0.474  0.00  0.00    -0.003 A 
ATOM      4  C5  UNL d   1      -1.165   0.471  -0.331  0.00  0.00     0.000 A 
ATOM      5  C6  UNL d   1      -0.883  -0.800   0.167  0.00  0.00     0.000 A 
ATOM      6  C7  UNL d   1       0.427  -1.159   0.529  0.00  0.00    -0.073 A 
ATOM      7  C8  UNL d   1       0.675  -2.546   1.055  0.00  0.00     0.078 C 
ENDROOT
BRANCH   1   8
ATOM      8  C1  UNL d   1       2.910  -0.552   0.679  0.00  0.00     0.053 C 
ATOM      9  C   UNL d   1       3.461   0.306   1.807  0.00  0.00     0.018 C 
ENDBRANCH   1   8
TORSDOF 1
ENDMDL
