MODEL 1
REMARK minimizedAffinity -4.21492004
REMARK minimizedRMSD -1
REMARK  1 active torsions:
REMARK  status: ('A' for Active; 'I' for Inactive)
REMARK    1  A    between atoms: C1_2  and  C2_3 
ROOT
ATOM      1  C2  UNL d   1       0.658  -0.179   0.549  0.00  0.00    -0.076 A 
ATOM      2  C3  UNL d   1       1.395   0.894   0.019  0.00  0.00     0.004 A 
ATOM      3  C4  UNL d   1       2.783   0.939   0.138  0.00  0.00    -0.003 A 
ATOM      4  C5  UNL d   1       3.457  -0.089   0.788  0.00  0.00     0.000 A 
ATOM      5  C6  UNL d   1       2.744  -1.170   1.305  0.00  0.00     0.000 A 
ATOM      6  C7  UNL d   1       1.345  -1.238   1.179  0.00  0.00    -0.073 A 
ATOM      7  C8  UNL d   1       0.626  -2.425   1.761  0.00  0.00     0.078 C 
ENDROOT
BRANCH   1   8
ATOM      8  C1  UNL d   1      -0.848  -0.160   0.414  0.00  0.00     0.053 C 
ATOM      9  C   UNL d   1      -1.302   0.186  -0.996  0.00  0.00     0.018 C 
ENDBRANCH   1   8
TORSDOF 1
ENDMDL
