MODEL 1
REMARK minimizedAffinity -2.45448232
REMARK minimizedRMSD -1
REMARK  1 active torsions:
REMARK  status: ('A' for Active; 'I' for Inactive)
REMARK    1  A    between atoms: C1_2  and  C2_3 
ROOT
ATOM      1  C2  UNL d   1      -0.439   0.093   0.318  0.00  0.00    -0.073 A 
ATOM      2  C3  UNL d   1       0.713   0.698  -0.198  0.00  0.00    -0.002 A 
ATOM      3  C4  UNL d   1       1.927   0.010  -0.206  0.00  0.00     0.004 A 
ATOM      4  C5  UNL d   1       2.000  -1.290   0.294  0.00  0.00    -0.004 A 
ATOM      5  C6  UNL d   1       0.858  -1.916   0.803  0.00  0.00    -0.075 A 
ATOM      6  C7  UNL d   1       0.921  -3.313   1.347  0.00  0.00     0.076 C 
ATOM      7  C8  UNL d   1      -0.357  -1.217   0.811  0.00  0.00     0.001 A 
ENDROOT
BRANCH   1   8
ATOM      8  C1  UNL d   1      -1.754   0.830   0.324  0.00  0.00     0.053 C 
ATOM      9  C   UNL d   1      -2.233   1.151  -1.083  0.00  0.00     0.018 C 
ENDBRANCH   1   8
TORSDOF 1
ENDMDL
