MODEL 1
REMARK minimizedAffinity -2.67215157
REMARK minimizedRMSD -1
REMARK  1 active torsions:
REMARK  status: ('A' for Active; 'I' for Inactive)
REMARK    1  A    between atoms: C1_2  and  C2_3 
ROOT
ATOM      1  C2  UNL d   1       1.364  -0.262  -0.288  0.00  0.00    -0.073 A 
ATOM      2  C3  UNL d   1       0.864   0.969  -0.730  0.00  0.00    -0.002 A 
ATOM      3  C4  UNL d   1      -0.388   1.415  -0.304  0.00  0.00     0.004 A 
ATOM      4  C5  UNL d   1      -1.148   0.640   0.572  0.00  0.00    -0.004 A 
ATOM      5  C6  UNL d   1      -0.661  -0.586   1.034  0.00  0.00    -0.075 A 
ATOM      6  C7  UNL d   1      -1.468  -1.433   1.974  0.00  0.00     0.076 C 
ATOM      7  C8  UNL d   1       0.596  -1.029   0.599  0.00  0.00     0.001 A 
ENDROOT
BRANCH   1   8
ATOM      8  C1  UNL d   1       2.718  -0.744  -0.740  0.00  0.00     0.053 C 
ATOM      9  C   UNL d   1       2.959  -0.466  -2.216  0.00  0.00     0.018 C 
ENDBRANCH   1   8
TORSDOF 1
ENDMDL
