MODEL 1
REMARK minimizedAffinity -4.33774233
REMARK minimizedRMSD -1
REMARK  1 active torsions:
REMARK  status: ('A' for Active; 'I' for Inactive)
REMARK    1  A    between atoms: C1_2  and  C2_3 
ROOT
ATOM      1  C2  UNL d   1       0.646   0.877   0.251  0.00  0.00    -0.073 A 
ATOM      2  C3  UNL d   1      -0.520   0.829   1.023  0.00  0.00    -0.002 A 
ATOM      3  C4  UNL d   1      -0.914  -0.363   1.631  0.00  0.00     0.004 A 
ATOM      4  C5  UNL d   1      -0.144  -1.517   1.480  0.00  0.00    -0.004 A 
ATOM      5  C6  UNL d   1       1.031  -1.486   0.722  0.00  0.00    -0.075 A 
ATOM      6  C7  UNL d   1       1.869  -2.718   0.548  0.00  0.00     0.076 C 
ATOM      7  C8  UNL d   1       1.419  -0.285   0.112  0.00  0.00     0.001 A 
ENDROOT
BRANCH   1   8
ATOM      8  C1  UNL d   1       1.079   2.164  -0.403  0.00  0.00     0.053 C 
ATOM      9  C   UNL d   1       1.982   2.987   0.502  0.00  0.00     0.018 C 
ENDBRANCH   1   8
TORSDOF 1
ENDMDL
