MODEL 1
REMARK minimizedAffinity -1.10615492
REMARK minimizedRMSD -1
REMARK  1 active torsions:
REMARK  status: ('A' for Active; 'I' for Inactive)
REMARK    1  A    between atoms: C1_2  and  C2_3 
ROOT
ATOM      1  C2  UNL d   1       0.346  -1.850   0.597  0.00  0.00    -0.073 A 
ATOM      2  C3  UNL d   1      -0.836  -1.908   1.344  0.00  0.00    -0.002 A 
ATOM      3  C4  UNL d   1      -1.668  -0.792   1.435  0.00  0.00     0.004 A 
ATOM      4  C5  UNL d   1      -1.332   0.390   0.775  0.00  0.00    -0.004 A 
ATOM      5  C6  UNL d   1      -0.161   0.464   0.013  0.00  0.00    -0.075 A 
ATOM      6  C7  UNL d   1       0.216   1.728  -0.702  0.00  0.00     0.076 C 
ATOM      7  C8  UNL d   1       0.671  -0.661  -0.071  0.00  0.00     0.001 A 
ENDROOT
BRANCH   1   8
ATOM      8  C1  UNL d   1       1.244  -3.055   0.491  0.00  0.00     0.053 C 
ATOM      9  C   UNL d   1       2.255  -3.114   1.625  0.00  0.00     0.018 C 
ENDBRANCH   1   8
TORSDOF 1
ENDMDL
