MODEL 1
REMARK minimizedAffinity -3.96443224
REMARK minimizedRMSD -1
REMARK  1 active torsions:
REMARK  status: ('A' for Active; 'I' for Inactive)
REMARK    1  A    between atoms: C1_2  and  C2_3 
ROOT
ATOM      1  C2  UNL d   1       0.443   0.288   0.059  0.00  0.00    -0.073 A 
ATOM      2  C3  UNL d   1       1.563  -0.516  -0.177  0.00  0.00    -0.002 A 
ATOM      3  C4  UNL d   1       1.635  -1.801   0.364  0.00  0.00     0.004 A 
ATOM      4  C5  UNL d   1       0.586  -2.296   1.139  0.00  0.00    -0.004 A 
ATOM      5  C6  UNL d   1      -0.547  -1.511   1.376  0.00  0.00    -0.075 A 
ATOM      6  C7  UNL d   1      -1.683  -2.028   2.209  0.00  0.00     0.076 C 
ATOM      7  C8  UNL d   1      -0.610  -0.221   0.831  0.00  0.00     0.001 A 
ENDROOT
BRANCH   1   8
ATOM      8  C1  UNL d   1       0.358   1.673  -0.529  0.00  0.00     0.053 C 
ATOM      9  C   UNL d   1       1.405   2.607   0.059  0.00  0.00     0.018 C 
ENDBRANCH   1   8
TORSDOF 1
ENDMDL
