MODEL 1
REMARK minimizedAffinity -0.824877501
REMARK minimizedRMSD -1
REMARK  1 active torsions:
REMARK  status: ('A' for Active; 'I' for Inactive)
REMARK    1  A    between atoms: C1_2  and  C2_3 
ROOT
ATOM      1  C2  UNL d   1      -0.843   0.531  -0.455  0.00  0.00    -0.073 A 
ATOM      2  C3  UNL d   1      -1.421   1.083   0.694  0.00  0.00    -0.002 A 
ATOM      3  C4  UNL d   1      -1.484   0.343   1.876  0.00  0.00     0.004 A 
ATOM      4  C5  UNL d   1      -0.964  -0.951   1.923  0.00  0.00    -0.004 A 
ATOM      5  C6  UNL d   1      -0.372  -1.515   0.788  0.00  0.00    -0.075 A 
ATOM      6  C7  UNL d   1       0.189  -2.906   0.821  0.00  0.00     0.076 C 
ATOM      7  C8  UNL d   1      -0.315  -0.766  -0.396  0.00  0.00     0.001 A 
ENDROOT
BRANCH   1   8
ATOM      8  C1  UNL d   1      -0.767   1.329  -1.731  0.00  0.00     0.053 C 
ATOM      9  C   UNL d   1      -2.076   1.293  -2.504  0.00  0.00     0.018 C 
ENDBRANCH   1   8
TORSDOF 1
ENDMDL
