MODEL 1
REMARK minimizedAffinity -3.49209213
REMARK minimizedRMSD -1
REMARK  1 active torsions:
REMARK  status: ('A' for Active; 'I' for Inactive)
REMARK    1  A    between atoms: C1_2  and  C2_3 
ROOT
ATOM      1  C2  UNL d   1       2.164   3.058  -0.013  0.00  0.00    -0.073 A 
ATOM      2  C3  UNL d   1       0.889   3.588  -0.241  0.00  0.00    -0.002 A 
ATOM      3  C4  UNL d   1      -0.192   2.742  -0.491  0.00  0.00     0.004 A 
ATOM      4  C5  UNL d   1      -0.012   1.359  -0.508  0.00  0.00    -0.004 A 
ATOM      5  C6  UNL d   1       1.252   0.809  -0.271  0.00  0.00    -0.075 A 
ATOM      6  C7  UNL d   1       1.464  -0.676  -0.288  0.00  0.00     0.076 C 
ATOM      7  C8  UNL d   1       2.334   1.666  -0.024  0.00  0.00     0.001 A 
ENDROOT
BRANCH   1   8
ATOM      8  C1  UNL d   1       3.333   3.968   0.263  0.00  0.00     0.053 C 
ATOM      9  C   UNL d   1       4.469   3.751  -0.723  0.00  0.00     0.018 C 
ENDBRANCH   1   8
TORSDOF 1
ENDMDL
