MODEL 1
REMARK minimizedAffinity -1.76181734
REMARK minimizedRMSD -1
REMARK  1 active torsions:
REMARK  status: ('A' for Active; 'I' for Inactive)
REMARK    1  A    between atoms: C1_2  and  C2_3 
ROOT
ATOM      1  C2  UNL d   1       1.432   0.425  -0.164  0.00  0.00    -0.073 A 
ATOM      2  C3  UNL d   1       0.132   0.938  -0.079  0.00  0.00    -0.002 A 
ATOM      3  C4  UNL d   1      -0.930   0.109   0.282  0.00  0.00     0.004 A 
ATOM      4  C5  UNL d   1      -0.705  -1.237   0.568  0.00  0.00    -0.004 A 
ATOM      5  C6  UNL d   1       0.589  -1.766   0.500  0.00  0.00    -0.075 A 
ATOM      6  C7  UNL d   1       0.848  -3.213   0.802  0.00  0.00     0.076 C 
ATOM      7  C8  UNL d   1       1.650  -0.927   0.134  0.00  0.00     0.001 A 
ENDROOT
BRANCH   1   8
ATOM      8  C1  UNL d   1       2.583   1.318  -0.547  0.00  0.00     0.053 C 
ATOM      9  C   UNL d   1       2.479   2.692   0.097  0.00  0.00     0.018 C 
ENDBRANCH   1   8
TORSDOF 1
ENDMDL
