MODEL 1
REMARK minimizedAffinity -1.99861252
REMARK minimizedRMSD -1
REMARK  1 active torsions:
REMARK  status: ('A' for Active; 'I' for Inactive)
REMARK    1  A    between atoms: C1_2  and  C2_3 
ROOT
ATOM      1  C2  UNL d   1       1.259   0.468   0.201  0.00  0.00    -0.073 A 
ATOM      2  C3  UNL d   1      -0.049   0.842   0.529  0.00  0.00    -0.002 A 
ATOM      3  C4  UNL d   1      -0.891  -0.050   1.194  0.00  0.00     0.004 A 
ATOM      4  C5  UNL d   1      -0.434  -1.321   1.543  0.00  0.00    -0.004 A 
ATOM      5  C6  UNL d   1       0.874  -1.709   1.233  0.00  0.00    -0.075 A 
ATOM      6  C7  UNL d   1       1.381  -3.073   1.600  0.00  0.00     0.076 C 
ATOM      7  C8  UNL d   1       1.713  -0.808   0.563  0.00  0.00     0.001 A 
ENDROOT
BRANCH   1   8
ATOM      8  C1  UNL d   1       2.174   1.430  -0.511  0.00  0.00     0.053 C 
ATOM      9  C   UNL d   1       2.247   2.776   0.194  0.00  0.00     0.018 C 
ENDBRANCH   1   8
TORSDOF 1
ENDMDL
