MODEL 1
REMARK minimizedAffinity -4.96292067
REMARK minimizedRMSD -1
REMARK  1 active torsions:
REMARK  status: ('A' for Active; 'I' for Inactive)
REMARK    1  A    between atoms: C1_2  and  C2_3 
ROOT
ATOM      1  C2  UNL d   1       1.597   1.046  -0.223  0.00  0.00    -0.073 A 
ATOM      2  C3  UNL d   1       0.260   1.440  -0.353  0.00  0.00    -0.002 A 
ATOM      3  C4  UNL d   1      -0.767   0.507  -0.205  0.00  0.00     0.004 A 
ATOM      4  C5  UNL d   1      -0.470  -0.825   0.081  0.00  0.00    -0.004 A 
ATOM      5  C6  UNL d   1       0.859  -1.235   0.228  0.00  0.00    -0.075 A 
ATOM      6  C7  UNL d   1       1.195  -2.665   0.534  0.00  0.00     0.076 C 
ATOM      7  C8  UNL d   1       1.885  -0.294   0.075  0.00  0.00     0.001 A 
ENDROOT
BRANCH   1   8
ATOM      8  C1  UNL d   1       2.709   2.051  -0.375  0.00  0.00     0.053 C 
ATOM      9  C   UNL d   1       2.296   3.435   0.099  0.00  0.00     0.018 C 
ENDBRANCH   1   8
TORSDOF 1
ENDMDL
