MODEL 1
REMARK minimizedAffinity -1.06163263
REMARK minimizedRMSD -1
REMARK  1 active torsions:
REMARK  status: ('A' for Active; 'I' for Inactive)
REMARK    1  A    between atoms: C1_2  and  C2_3 
ROOT
ATOM      1  C2  UNL d   1       0.645  -1.025   0.479  0.00  0.00    -0.073 A 
ATOM      2  C3  UNL d   1      -0.512  -1.349   1.196  0.00  0.00    -0.002 A 
ATOM      3  C4  UNL d   1      -1.639  -0.530   1.123  0.00  0.00     0.004 A 
ATOM      4  C5  UNL d   1      -1.624   0.616   0.329  0.00  0.00    -0.004 A 
ATOM      5  C6  UNL d   1      -0.481   0.951  -0.405  0.00  0.00    -0.075 A 
ATOM      6  C7  UNL d   1      -0.448   2.182  -1.262  0.00  0.00     0.076 C 
ATOM      7  C8  UNL d   1       0.648   0.125  -0.325  0.00  0.00     0.001 A 
ENDROOT
BRANCH   1   8
ATOM      8  C1  UNL d   1       1.863  -1.910   0.549  0.00  0.00     0.053 C 
ATOM      9  C   UNL d   1       1.593  -3.190   1.323  0.00  0.00     0.018 C 
ENDBRANCH   1   8
TORSDOF 1
ENDMDL
