MODEL 1
REMARK minimizedAffinity -5.55046606
REMARK minimizedRMSD -1
REMARK  1 active torsions:
REMARK  status: ('A' for Active; 'I' for Inactive)
REMARK    1  A    between atoms: C1_2  and  C2_3 
ROOT
ATOM      1  C2  UNL d   1       0.661   0.590   0.051  0.00  0.00    -0.073 A 
ATOM      2  C3  UNL d   1      -0.463   1.386   0.298  0.00  0.00    -0.002 A 
ATOM      3  C4  UNL d   1      -0.333   2.771   0.419  0.00  0.00     0.004 A 
ATOM      4  C5  UNL d   1       0.918   3.372   0.288  0.00  0.00    -0.004 A 
ATOM      5  C6  UNL d   1       2.051   2.594   0.029  0.00  0.00    -0.075 A 
ATOM      6  C7  UNL d   1       3.405   3.226  -0.112  0.00  0.00     0.076 C 
ATOM      7  C8  UNL d   1       1.913   1.205  -0.088  0.00  0.00     0.001 A 
ENDROOT
BRANCH   1   8
ATOM      8  C1  UNL d   1       0.524  -0.905  -0.087  0.00  0.00     0.053 C 
ATOM      9  C   UNL d   1      -0.323  -1.505   1.024  0.00  0.00     0.018 C 
ENDBRANCH   1   8
TORSDOF 1
ENDMDL
