MODEL 1
REMARK minimizedAffinity 2.41888928
REMARK minimizedRMSD -1
REMARK  0 active torsions:
REMARK  status: ('A' for Active; 'I' for Inactive)
ROOT
ATOM      1  C   UNL d   1      -0.678   2.106   1.551  0.00  0.00     0.124 A 
ATOM      2  C1  UNL d   1       0.343   1.373   2.141  0.00  0.00     0.062 A 
ATOM      3  C2  UNL d   1       0.727   0.149   1.603  0.00  0.00     0.162 A 
ATOM      4  C3  UNL d   1       0.091  -0.351   0.467  0.00  0.00    -0.034 A 
ATOM      5  C4  UNL d   1      -0.935   0.391  -0.121  0.00  0.00     0.162 A 
ATOM      6  C5  UNL d   1      -1.316   1.614   0.421  0.00  0.00     0.062 A 
ATOM      7  F   UNL d   1      -2.302   2.320  -0.150  0.00  0.00    -0.097 F 
ATOM      8  F1  UNL d   1      -1.568  -0.060  -1.214  0.00  0.00    -0.096 F 
ATOM      9  I   UNL d   1       0.663  -2.182  -0.342  0.00  0.00    -0.060 I 
ATOM     10  F2  UNL d   1       1.716  -0.538   2.194  0.00  0.00    -0.096 F 
ATOM     11  F3  UNL d   1       0.960   1.846   3.234  0.00  0.00    -0.097 F 
ATOM     12  F4  UNL d   1      -1.047   3.283   2.072  0.00  0.00    -0.092 F 
ENDROOT
TORSDOF 0
ENDMDL
