MODEL 1
REMARK minimizedAffinity -2.36554599
REMARK minimizedRMSD -1
REMARK  0 active torsions:
REMARK  status: ('A' for Active; 'I' for Inactive)
ROOT
ATOM      1  C   UNL d   1      -0.749   2.482   1.090  0.00  0.00     0.124 A 
ATOM      2  C1  UNL d   1      -0.765   2.154  -0.259  0.00  0.00     0.062 A 
ATOM      3  C2  UNL d   1      -0.427   0.868  -0.671  0.00  0.00     0.162 A 
ATOM      4  C3  UNL d   1      -0.071  -0.101   0.268  0.00  0.00    -0.034 A 
ATOM      5  C4  UNL d   1      -0.056   0.237   1.622  0.00  0.00     0.162 A 
ATOM      6  C5  UNL d   1      -0.395   1.523   2.029  0.00  0.00     0.062 A 
ATOM      7  F   UNL d   1      -0.379   1.838   3.332  0.00  0.00    -0.097 F 
ATOM      8  F1  UNL d   1       0.281  -0.670   2.551  0.00  0.00    -0.096 F 
ATOM      9  I   UNL d   1       0.435  -2.025  -0.344  0.00  0.00    -0.060 I 
ATOM     10  F2  UNL d   1      -0.451   0.579  -1.980  0.00  0.00    -0.096 F 
ATOM     11  F3  UNL d   1      -1.105   3.078  -1.168  0.00  0.00    -0.097 F 
ATOM     12  F4  UNL d   1      -1.073   3.720   1.483  0.00  0.00    -0.092 F 
ENDROOT
TORSDOF 0
ENDMDL
