MODEL 1
REMARK minimizedAffinity -2.06743646
REMARK minimizedRMSD -1
REMARK  0 active torsions:
REMARK  status: ('A' for Active; 'I' for Inactive)
ROOT
ATOM      1  C   UNL d   1       0.088   2.412   0.603  0.00  0.00     0.124 A 
ATOM      2  C1  UNL d   1       0.084   2.164  -0.763  0.00  0.00     0.062 A 
ATOM      3  C2  UNL d   1       0.128   0.856  -1.237  0.00  0.00     0.162 A 
ATOM      4  C3  UNL d   1       0.176  -0.215  -0.344  0.00  0.00    -0.034 A 
ATOM      5  C4  UNL d   1       0.181   0.042   1.028  0.00  0.00     0.162 A 
ATOM      6  C5  UNL d   1       0.136   1.351   1.497  0.00  0.00     0.062 A 
ATOM      7  F   UNL d   1       0.141   1.589   2.816  0.00  0.00    -0.097 F 
ATOM      8  F1  UNL d   1       0.226  -0.964   1.914  0.00  0.00    -0.096 F 
ATOM      9  I   UNL d   1       0.242  -2.172  -1.049  0.00  0.00    -0.060 I 
ATOM     10  F2  UNL d   1       0.122   0.645  -2.561  0.00  0.00    -0.096 F 
ATOM     11  F3  UNL d   1       0.038   3.186  -1.629  0.00  0.00    -0.097 F 
ATOM     12  F4  UNL d   1       0.046   3.671   1.056  0.00  0.00    -0.092 F 
ENDROOT
TORSDOF 0
ENDMDL
