MODEL 1
REMARK minimizedAffinity -2.68453836
REMARK minimizedRMSD -1
REMARK  0 active torsions:
REMARK  status: ('A' for Active; 'I' for Inactive)
ROOT
ATOM      1  C   UNL d   1       0.106   1.125   2.096  0.00  0.00     0.124 A 
ATOM      2  C1  UNL d   1       0.640  -0.151   1.980  0.00  0.00     0.062 A 
ATOM      3  C2  UNL d   1       0.713  -0.768   0.734  0.00  0.00     0.162 A 
ATOM      4  C3  UNL d   1       0.253  -0.110  -0.406  0.00  0.00    -0.034 A 
ATOM      5  C4  UNL d   1      -0.283   1.173  -0.281  0.00  0.00     0.162 A 
ATOM      6  C5  UNL d   1      -0.355   1.786   0.966  0.00  0.00     0.062 A 
ATOM      7  F   UNL d   1      -0.871   3.019   1.076  0.00  0.00    -0.097 F 
ATOM      8  F1  UNL d   1      -0.735   1.835  -1.357  0.00  0.00    -0.096 F 
ATOM      9  I   UNL d   1       0.362  -1.029  -2.270  0.00  0.00    -0.060 I 
ATOM     10  F2  UNL d   1       1.234  -2.002   0.652  0.00  0.00    -0.096 F 
ATOM     11  F3  UNL d   1       1.084  -0.792   3.070  0.00  0.00    -0.097 F 
ATOM     12  F4  UNL d   1       0.035   1.716   3.295  0.00  0.00    -0.092 F 
ENDROOT
TORSDOF 0
ENDMDL
