MODEL 1
REMARK minimizedAffinity -4.23450184
REMARK minimizedRMSD -1
REMARK  0 active torsions:
REMARK  status: ('A' for Active; 'I' for Inactive)
ROOT
ATOM      1  C   UNL d   1      -0.294   3.238   1.486  0.00  0.00     0.124 A 
ATOM      2  C1  UNL d   1       0.282   2.215   2.227  0.00  0.00     0.062 A 
ATOM      3  C2  UNL d   1       0.430   0.948   1.672  0.00  0.00     0.162 A 
ATOM      4  C3  UNL d   1       0.003   0.696   0.368  0.00  0.00    -0.034 A 
ATOM      5  C4  UNL d   1      -0.576   1.729  -0.370  0.00  0.00     0.162 A 
ATOM      6  C5  UNL d   1      -0.722   2.995   0.189  0.00  0.00     0.062 A 
ATOM      7  F   UNL d   1      -1.279   3.982  -0.528  0.00  0.00    -0.097 F 
ATOM      8  F1  UNL d   1      -0.997   1.522  -1.627  0.00  0.00    -0.096 F 
ATOM      9  I   UNL d   1       0.224  -1.198  -0.466  0.00  0.00    -0.060 I 
ATOM     10  F2  UNL d   1       0.991  -0.022   2.410  0.00  0.00    -0.096 F 
ATOM     11  F3  UNL d   1       0.695   2.448   3.481  0.00  0.00    -0.097 F 
ATOM     12  F4  UNL d   1      -0.437   4.457   2.023  0.00  0.00    -0.092 F 
ENDROOT
TORSDOF 0
ENDMDL
