MODEL 1
REMARK minimizedAffinity -4.60775852
REMARK minimizedRMSD -1
REMARK  0 active torsions:
REMARK  status: ('A' for Active; 'I' for Inactive)
ROOT
ATOM      1  C   UNL d   1      -0.227   2.880   1.442  0.00  0.00     0.124 A 
ATOM      2  C1  UNL d   1      -0.696   2.632   0.160  0.00  0.00     0.062 A 
ATOM      3  C2  UNL d   1      -0.450   1.405  -0.450  0.00  0.00     0.162 A 
ATOM      4  C3  UNL d   1       0.268   0.416   0.223  0.00  0.00    -0.034 A 
ATOM      5  C4  UNL d   1       0.737   0.674   1.512  0.00  0.00     0.162 A 
ATOM      6  C5  UNL d   1       0.489   1.902   2.117  0.00  0.00     0.062 A 
ATOM      7  F   UNL d   1       0.942   2.141   3.356  0.00  0.00    -0.097 F 
ATOM      8  F1  UNL d   1       1.431  -0.254   2.188  0.00  0.00    -0.096 F 
ATOM      9  I   UNL d   1       0.639  -1.419  -0.685  0.00  0.00    -0.060 I 
ATOM     10  F2  UNL d   1      -0.915   1.192  -1.690  0.00  0.00    -0.096 F 
ATOM     11  F3  UNL d   1      -1.387   3.576  -0.495  0.00  0.00    -0.097 F 
ATOM     12  F4  UNL d   1      -0.465   4.062   2.026  0.00  0.00    -0.092 F 
ENDROOT
TORSDOF 0
ENDMDL
