MODEL 1
REMARK minimizedAffinity -1.2139833
REMARK minimizedRMSD -1
REMARK  0 active torsions:
REMARK  status: ('A' for Active; 'I' for Inactive)
ROOT
ATOM      1  C   UNL d   1      -0.665   2.036   1.001  0.00  0.00     0.124 A 
ATOM      2  C1  UNL d   1       0.074   1.169   1.795  0.00  0.00     0.062 A 
ATOM      3  C2  UNL d   1       0.467  -0.070   1.299  0.00  0.00     0.162 A 
ATOM      4  C3  UNL d   1       0.123  -0.451   0.002  0.00  0.00    -0.034 A 
ATOM      5  C4  UNL d   1      -0.622   0.425  -0.790  0.00  0.00     0.162 A 
ATOM      6  C5  UNL d   1      -1.012   1.663  -0.290  0.00  0.00     0.062 A 
ATOM      7  F   UNL d   1      -1.727   2.499  -1.057  0.00  0.00    -0.097 F 
ATOM      8  F1  UNL d   1      -0.970   0.091  -2.041  0.00  0.00    -0.096 F 
ATOM      9  I   UNL d   1       0.709  -2.304  -0.744  0.00  0.00    -0.060 I 
ATOM     10  F2  UNL d   1       1.181  -0.888   2.087  0.00  0.00    -0.096 F 
ATOM     11  F3  UNL d   1       0.410   1.526   3.043  0.00  0.00    -0.097 F 
ATOM     12  F4  UNL d   1      -1.043   3.227   1.481  0.00  0.00    -0.092 F 
ENDROOT
TORSDOF 0
ENDMDL
