MODEL 1
REMARK minimizedAffinity 3.61511683
REMARK minimizedRMSD -1
REMARK  0 active torsions:
REMARK  status: ('A' for Active; 'I' for Inactive)
ROOT
ATOM      1  C   UNL d   1      -1.202   1.292   0.264  0.00  0.00     0.124 A 
ATOM      2  C1  UNL d   1      -0.452   0.283  -0.324  0.00  0.00     0.062 A 
ATOM      3  C2  UNL d   1       0.729  -0.149   0.272  0.00  0.00     0.162 A 
ATOM      4  C3  UNL d   1       1.167   0.426   1.465  0.00  0.00    -0.034 A 
ATOM      5  C4  UNL d   1       0.408   1.441   2.050  0.00  0.00     0.162 A 
ATOM      6  C5  UNL d   1      -0.772   1.869   1.451  0.00  0.00     0.062 A 
ATOM      7  F   UNL d   1      -1.496   2.844   2.021  0.00  0.00    -0.097 F 
ATOM      8  F1  UNL d   1       0.800   2.015   3.197  0.00  0.00    -0.096 F 
ATOM      9  I   UNL d   1       2.932  -0.218   2.359  0.00  0.00    -0.060 I 
ATOM     10  F2  UNL d   1       1.434  -1.125  -0.319  0.00  0.00    -0.096 F 
ATOM     11  F3  UNL d   1      -0.865  -0.275  -1.471  0.00  0.00    -0.097 F 
ATOM     12  F4  UNL d   1      -2.338   1.707  -0.312  0.00  0.00    -0.092 F 
ENDROOT
TORSDOF 0
ENDMDL
