MODEL 1
REMARK minimizedAffinity -3.39992642
REMARK minimizedRMSD -1
REMARK  2 active torsions:
REMARK  status: ('A' for Active; 'I' for Inactive)
REMARK    1  A    between atoms: C1_2  and  C2_3 
REMARK    2  A    between atoms: C2_3  and  C3_4 
ROOT
ATOM      1  C3  UNL d   1       0.231   0.339   0.143  0.00  0.00    -0.075 A 
ATOM      2  C4  UNL d   1       0.221   1.685  -0.250  0.00  0.00     0.002 A 
ATOM      3  C5  UNL d   1      -0.405   2.650   0.541  0.00  0.00     0.002 A 
ATOM      4  C6  UNL d   1      -1.035   2.280   1.727  0.00  0.00    -0.004 A 
ATOM      5  C7  UNL d   1      -1.046   0.943   2.119  0.00  0.00     0.002 A 
ATOM      6  C8  UNL d   1      -0.417  -0.023   1.332  0.00  0.00     0.002 A 
ENDROOT
BRANCH   1   7
ATOM      7  C2  UNL d   1       0.931  -0.705  -0.693  0.00  0.00     0.056 C 
BRANCH   7   8
ATOM      8  C1  UNL d   1       0.024  -1.854  -1.145  0.00  0.00     0.007 C 
ATOM      9  C   UNL d   1       0.766  -2.937  -1.916  0.00  0.00     0.009 C 
ENDBRANCH   7   8
ENDBRANCH   1   7
TORSDOF 2
ENDMDL
