MODEL 1
REMARK minimizedAffinity -3.30413103
REMARK minimizedRMSD -1
REMARK  2 active torsions:
REMARK  status: ('A' for Active; 'I' for Inactive)
REMARK    1  A    between atoms: C1_2  and  C2_3 
REMARK    2  A    between atoms: C2_3  and  C3_4 
ROOT
ATOM      1  C3  UNL d   1      -0.118   1.121   0.303  0.00  0.00    -0.075 A 
ATOM      2  C4  UNL d   1       0.396   1.821  -0.798  0.00  0.00     0.002 A 
ATOM      3  C5  UNL d   1       0.448   3.216  -0.789  0.00  0.00     0.002 A 
ATOM      4  C6  UNL d   1      -0.022   3.926   0.314  0.00  0.00    -0.004 A 
ATOM      5  C7  UNL d   1      -0.550   3.241   1.406  0.00  0.00     0.002 A 
ATOM      6  C8  UNL d   1      -0.599   1.845   1.401  0.00  0.00     0.002 A 
ENDROOT
BRANCH   1   7
ATOM      7  C2  UNL d   1      -0.150  -0.389   0.311  0.00  0.00     0.056 C 
BRANCH   7   8
ATOM      8  C1  UNL d   1       0.932  -1.040  -0.557  0.00  0.00     0.007 C 
ATOM      9  C   UNL d   1       0.387  -2.110  -1.494  0.00  0.00     0.009 C 
ENDBRANCH   7   8
ENDBRANCH   1   7
TORSDOF 2
ENDMDL
