MODEL 1
REMARK minimizedAffinity -2.07897544
REMARK minimizedRMSD -1
REMARK  2 active torsions:
REMARK  status: ('A' for Active; 'I' for Inactive)
REMARK    1  A    between atoms: C1_2  and  C2_3 
REMARK    2  A    between atoms: C2_3  and  C3_4 
ROOT
ATOM      1  C3  UNL d   1       0.059   1.590   0.230  0.00  0.00    -0.075 A 
ATOM      2  C4  UNL d   1       0.539   0.297  -0.024  0.00  0.00     0.002 A 
ATOM      3  C5  UNL d   1       0.132  -0.778   0.767  0.00  0.00     0.002 A 
ATOM      4  C6  UNL d   1      -0.750  -0.573   1.826  0.00  0.00    -0.004 A 
ATOM      5  C7  UNL d   1      -1.220   0.710   2.097  0.00  0.00     0.002 A 
ATOM      6  C8  UNL d   1      -0.818   1.787   1.305  0.00  0.00     0.002 A 
ENDROOT
BRANCH   1   7
ATOM      7  C2  UNL d   1       0.472   2.753  -0.640  0.00  0.00     0.056 C 
BRANCH   7   8
ATOM      8  C1  UNL d   1      -0.019   4.114  -0.136  0.00  0.00     0.007 C 
ATOM      9  C   UNL d   1       1.044   4.890   0.631  0.00  0.00     0.009 C 
ENDBRANCH   7   8
ENDBRANCH   1   7
TORSDOF 2
ENDMDL
