MODEL 1
REMARK minimizedAffinity -4.40976906
REMARK minimizedRMSD -1
REMARK  2 active torsions:
REMARK  status: ('A' for Active; 'I' for Inactive)
REMARK    1  A    between atoms: C1_2  and  C2_3 
REMARK    2  A    between atoms: C2_3  and  C3_4 
ROOT
ATOM      1  C3  UNL d   1       0.380  -0.613   0.070  0.00  0.00    -0.075 A 
ATOM      2  C4  UNL d   1      -0.949  -0.950  -0.222  0.00  0.00     0.002 A 
ATOM      3  C5  UNL d   1      -1.969  -0.664   0.686  0.00  0.00     0.002 A 
ATOM      4  C6  UNL d   1      -1.672  -0.047   1.899  0.00  0.00    -0.004 A 
ATOM      5  C7  UNL d   1      -0.353   0.278   2.207  0.00  0.00     0.002 A 
ATOM      6  C8  UNL d   1       0.669  -0.004   1.299  0.00  0.00     0.002 A 
ENDROOT
BRANCH   1   7
ATOM      7  C2  UNL d   1       1.485  -0.894  -0.921  0.00  0.00     0.056 C 
BRANCH   7   8
ATOM      8  C1  UNL d   1       1.633  -2.374  -1.287  0.00  0.00     0.007 C 
ATOM      9  C   UNL d   1       0.886  -2.756  -2.558  0.00  0.00     0.009 C 
ENDBRANCH   7   8
ENDBRANCH   1   7
TORSDOF 2
ENDMDL
