MODEL 1
REMARK minimizedAffinity -4.53954697
REMARK minimizedRMSD -1
REMARK  2 active torsions:
REMARK  status: ('A' for Active; 'I' for Inactive)
REMARK    1  A    between atoms: C1_2  and  C2_3 
REMARK    2  A    between atoms: C2_3  and  C3_4 
ROOT
ATOM      1  C3  UNL d   1       0.458  -1.008  -0.174  0.00  0.00    -0.075 A 
ATOM      2  C4  UNL d   1      -0.753  -1.571  -0.601  0.00  0.00     0.002 A 
ATOM      3  C5  UNL d   1      -0.782  -2.460  -1.676  0.00  0.00     0.002 A 
ATOM      4  C6  UNL d   1       0.397  -2.791  -2.341  0.00  0.00    -0.004 A 
ATOM      5  C7  UNL d   1       1.604  -2.225  -1.936  0.00  0.00     0.002 A 
ATOM      6  C8  UNL d   1       1.635  -1.338  -0.859  0.00  0.00     0.002 A 
ENDROOT
BRANCH   1   7
ATOM      7  C2  UNL d   1       0.499  -0.068   1.007  0.00  0.00     0.056 C 
BRANCH   7   8
ATOM      8  C1  UNL d   1      -0.880   0.413   1.470  0.00  0.00     0.007 C 
ATOM      9  C   UNL d   1      -0.843   1.770   2.159  0.00  0.00     0.009 C 
ENDBRANCH   7   8
ENDBRANCH   1   7
TORSDOF 2
ENDMDL
