MODEL 1
REMARK minimizedAffinity -1.45205951
REMARK minimizedRMSD -1
REMARK  2 active torsions:
REMARK  status: ('A' for Active; 'I' for Inactive)
REMARK    1  A    between atoms: C1_2  and  C2_3 
REMARK    2  A    between atoms: C2_3  and  C3_4 
ROOT
ATOM      1  C3  UNL d   1      -0.030  -1.478  -0.424  0.00  0.00    -0.075 A 
ATOM      2  C4  UNL d   1       1.024  -0.858   0.263  0.00  0.00     0.002 A 
ATOM      3  C5  UNL d   1       0.795  -0.221   1.483  0.00  0.00     0.002 A 
ATOM      4  C6  UNL d   1      -0.488  -0.186   2.025  0.00  0.00    -0.004 A 
ATOM      5  C7  UNL d   1      -1.545  -0.784   1.342  0.00  0.00     0.002 A 
ATOM      6  C8  UNL d   1      -1.318  -1.427   0.124  0.00  0.00     0.002 A 
ENDROOT
BRANCH   1   7
ATOM      7  C2  UNL d   1       0.217  -2.195  -1.730  0.00  0.00     0.056 C 
BRANCH   7   8
ATOM      8  C1  UNL d   1       0.809  -3.599  -1.569  0.00  0.00     0.007 C 
ATOM      9  C   UNL d   1       0.497  -4.520  -2.741  0.00  0.00     0.009 C 
ENDBRANCH   7   8
ENDBRANCH   1   7
TORSDOF 2
ENDMDL
