MODEL 1
REMARK minimizedAffinity -1.80599737
REMARK minimizedRMSD -1
REMARK  2 active torsions:
REMARK  status: ('A' for Active; 'I' for Inactive)
REMARK    1  A    between atoms: C1_2  and  C2_3 
REMARK    2  A    between atoms: C2_3  and  C3_4 
ROOT
ATOM      1  C3  UNL d   1       0.032   0.239  -0.086  0.00  0.00    -0.075 A 
ATOM      2  C4  UNL d   1       0.282   1.574  -0.433  0.00  0.00     0.002 A 
ATOM      3  C5  UNL d   1      -0.094   2.611   0.422  0.00  0.00     0.002 A 
ATOM      4  C6  UNL d   1      -0.733   2.327   1.627  0.00  0.00    -0.004 A 
ATOM      5  C7  UNL d   1      -1.002   1.005   1.974  0.00  0.00     0.002 A 
ATOM      6  C8  UNL d   1      -0.623  -0.034   1.123  0.00  0.00     0.002 A 
ENDROOT
BRANCH   1   7
ATOM      7  C2  UNL d   1       0.462  -0.889  -0.993  0.00  0.00     0.056 C 
BRANCH   7   8
ATOM      8  C1  UNL d   1       0.928  -2.145  -0.248  0.00  0.00     0.007 C 
ATOM      9  C   UNL d   1       1.267  -3.302  -1.178  0.00  0.00     0.009 C 
ENDBRANCH   7   8
ENDBRANCH   1   7
TORSDOF 2
ENDMDL
