MODEL 1
REMARK minimizedAffinity -2.05384612
REMARK minimizedRMSD -1
REMARK  2 active torsions:
REMARK  status: ('A' for Active; 'I' for Inactive)
REMARK    1  A    between atoms: C1_2  and  C2_3 
REMARK    2  A    between atoms: C2_3  and  C3_4 
ROOT
ATOM      1  C3  UNL d   1       0.401  -1.397  -1.090  0.00  0.00    -0.075 A 
ATOM      2  C4  UNL d   1      -0.108  -1.337  -2.396  0.00  0.00     0.002 A 
ATOM      3  C5  UNL d   1      -0.120  -2.474  -3.204  0.00  0.00     0.002 A 
ATOM      4  C6  UNL d   1       0.384  -3.680  -2.723  0.00  0.00    -0.004 A 
ATOM      5  C7  UNL d   1       0.907  -3.747  -1.433  0.00  0.00     0.002 A 
ATOM      6  C8  UNL d   1       0.916  -2.612  -0.621  0.00  0.00     0.002 A 
ENDROOT
BRANCH   1   7
ATOM      7  C2  UNL d   1       0.390  -0.177  -0.200  0.00  0.00     0.056 C 
BRANCH   7   8
ATOM      8  C1  UNL d   1      -0.066  -0.457   1.236  0.00  0.00     0.007 C 
ATOM      9  C   UNL d   1      -0.634   0.770   1.936  0.00  0.00     0.009 C 
ENDBRANCH   7   8
ENDBRANCH   1   7
TORSDOF 2
ENDMDL
