MODEL 1
REMARK minimizedAffinity -3.95737958
REMARK minimizedRMSD -1
REMARK  2 active torsions:
REMARK  status: ('A' for Active; 'I' for Inactive)
REMARK    1  A    between atoms: C1_2  and  C2_3 
REMARK    2  A    between atoms: C2_3  and  C3_4 
ROOT
ATOM      1  C3  UNL d   1       0.288   0.006   0.153  0.00  0.00    -0.075 A 
ATOM      2  C4  UNL d   1      -0.521  -0.282   1.261  0.00  0.00     0.002 A 
ATOM      3  C5  UNL d   1      -1.129   0.747   1.981  0.00  0.00     0.002 A 
ATOM      4  C6  UNL d   1      -0.928   2.074   1.609  0.00  0.00    -0.004 A 
ATOM      5  C7  UNL d   1      -0.112   2.373   0.520  0.00  0.00     0.002 A 
ATOM      6  C8  UNL d   1       0.494   1.345  -0.205  0.00  0.00     0.002 A 
ENDROOT
BRANCH   1   7
ATOM      7  C2  UNL d   1       0.925  -1.105  -0.648  0.00  0.00     0.056 C 
BRANCH   7   8
ATOM      8  C1  UNL d   1      -0.080  -2.073  -1.282  0.00  0.00     0.007 C 
ATOM      9  C   UNL d   1       0.279  -2.462  -2.710  0.00  0.00     0.009 C 
ENDBRANCH   7   8
ENDBRANCH   1   7
TORSDOF 2
ENDMDL
