MODEL 1
REMARK minimizedAffinity -4.19813299
REMARK minimizedRMSD -1
REMARK  2 active torsions:
REMARK  status: ('A' for Active; 'I' for Inactive)
REMARK    1  A    between atoms: C1_2  and  C2_3 
REMARK    2  A    between atoms: C2_3  and  C3_4 
ROOT
ATOM      1  C3  UNL d   1       0.515   0.317  -0.048  0.00  0.00    -0.075 A 
ATOM      2  C4  UNL d   1      -0.039   0.392   1.238  0.00  0.00     0.002 A 
ATOM      3  C5  UNL d   1      -0.334   1.629   1.812  0.00  0.00     0.002 A 
ATOM      4  C6  UNL d   1      -0.069   2.805   1.113  0.00  0.00    -0.004 A 
ATOM      5  C7  UNL d   1       0.497   2.743  -0.159  0.00  0.00     0.002 A 
ATOM      6  C8  UNL d   1       0.789   1.506  -0.737  0.00  0.00     0.002 A 
ENDROOT
BRANCH   1   7
ATOM      7  C2  UNL d   1       0.808  -1.020  -0.686  0.00  0.00     0.056 C 
BRANCH   7   8
ATOM      8  C1  UNL d   1      -0.394  -1.648  -1.398  0.00  0.00     0.007 C 
ATOM      9  C   UNL d   1      -0.001  -2.701  -2.426  0.00  0.00     0.009 C 
ENDBRANCH   7   8
ENDBRANCH   1   7
TORSDOF 2
ENDMDL
