MODEL 1
REMARK minimizedAffinity -4.08518028
REMARK minimizedRMSD -1
REMARK  2 active torsions:
REMARK  status: ('A' for Active; 'I' for Inactive)
REMARK    1  A    between atoms: C1_2  and  C2_3 
REMARK    2  A    between atoms: C2_3  and  C3_4 
ROOT
ATOM      1  C3  UNL d   1       0.566  -0.003   0.087  0.00  0.00    -0.075 A 
ATOM      2  C4  UNL d   1      -0.121  -0.226   1.289  0.00  0.00     0.002 A 
ATOM      3  C5  UNL d   1      -0.720   0.834   1.970  0.00  0.00     0.002 A 
ATOM      4  C6  UNL d   1      -0.631   2.129   1.465  0.00  0.00    -0.004 A 
ATOM      5  C7  UNL d   1       0.064   2.365   0.280  0.00  0.00     0.002 A 
ATOM      6  C8  UNL d   1       0.660   1.305  -0.405  0.00  0.00     0.002 A 
ENDROOT
BRANCH   1   7
ATOM      7  C2  UNL d   1       1.192  -1.150  -0.670  0.00  0.00     0.056 C 
BRANCH   7   8
ATOM      8  C1  UNL d   1       0.214  -1.908  -1.574  0.00  0.00     0.007 C 
ATOM      9  C   UNL d   1       0.862  -3.062  -2.326  0.00  0.00     0.009 C 
ENDBRANCH   7   8
ENDBRANCH   1   7
TORSDOF 2
ENDMDL
