MODEL 1
REMARK minimizedAffinity -2.12119365
REMARK minimizedRMSD -1
REMARK  2 active torsions:
REMARK  status: ('A' for Active; 'I' for Inactive)
REMARK    1  A    between atoms: C1_2  and  C2_3 
REMARK    2  A    between atoms: C2_3  and  C3_4 
ROOT
ATOM      1  C3  UNL d   1       0.436  -0.107   0.200  0.00  0.00    -0.075 A 
ATOM      2  C4  UNL d   1      -0.159  -0.053   1.469  0.00  0.00     0.002 A 
ATOM      3  C5  UNL d   1      -0.671   1.148   1.961  0.00  0.00     0.002 A 
ATOM      4  C6  UNL d   1      -0.585   2.310   1.197  0.00  0.00    -0.004 A 
ATOM      5  C7  UNL d   1       0.018   2.271  -0.058  0.00  0.00     0.002 A 
ATOM      6  C8  UNL d   1       0.527   1.070  -0.555  0.00  0.00     0.002 A 
ENDROOT
BRANCH   1   7
ATOM      7  C2  UNL d   1       0.966  -1.410  -0.350  0.00  0.00     0.056 C 
BRANCH   7   8
ATOM      8  C1  UNL d   1      -0.053  -2.195  -1.183  0.00  0.00     0.007 C 
ATOM      9  C   UNL d   1       0.462  -3.555  -1.636  0.00  0.00     0.009 C 
ENDBRANCH   7   8
ENDBRANCH   1   7
TORSDOF 2
ENDMDL
