MODEL 1
REMARK minimizedAffinity -6.34847307
REMARK minimizedRMSD -1
REMARK  0 active torsions:
REMARK  status: ('A' for Active; 'I' for Inactive)
ROOT
ATOM      1  O1  BZF d   1      -0.044   1.001  -0.037  0.00  0.00    -0.204 OA
ATOM      2  C2  BZF d   1      -0.813  -0.007  -0.586  0.00  0.00     0.174 A 
ATOM      3  C3  BZF d   1      -0.109  -1.155  -0.668  0.00  0.00    -0.012 A 
ATOM      4  C3A BZF d   1       1.150  -0.868  -0.052  0.00  0.00    -0.107 A 
ATOM      5  C4  BZF d   1       2.270  -1.614   0.186  0.00  0.00     0.055 A 
ATOM      6  C5  BZF d   1       3.356  -1.015   0.742  0.00  0.00    -0.016 A 
ATOM      7  C6  BZF d   1       3.359   0.326   1.066  0.00  0.00     0.022 A 
ATOM      8  C7  BZF d   1       2.271   1.105   0.853  0.00  0.00     0.029 A 
ATOM      9  C7A BZF d   1       1.160   0.495   0.322  0.00  0.00     0.058 A 
ENDROOT
TORSDOF 0
ENDMDL
