MODEL 1
REMARK minimizedAffinity 5.0820241
REMARK minimizedRMSD -1
REMARK  0 active torsions:
REMARK  status: ('A' for Active; 'I' for Inactive)
ROOT
ATOM      1  O1  BZF d   1       2.104  -1.008  -0.566  0.00  0.00    -0.204 OA
ATOM      2  C2  BZF d   1       2.847  -0.271   0.335  0.00  0.00     0.174 A 
ATOM      3  C3  BZF d   1       2.117   0.743   0.841  0.00  0.00    -0.012 A 
ATOM      4  C3A BZF d   1       0.808   0.577   0.287  0.00  0.00    -0.107 A 
ATOM      5  C4  BZF d   1      -0.364   1.264   0.426  0.00  0.00     0.055 A 
ATOM      6  C5  BZF d   1      -1.442   0.887  -0.311  0.00  0.00    -0.016 A 
ATOM      7  C6  BZF d   1      -1.382  -0.168  -1.198  0.00  0.00     0.022 A 
ATOM      8  C7  BZF d   1      -0.242  -0.883  -1.366  0.00  0.00     0.029 A 
ATOM      9  C7A BZF d   1       0.839  -0.524  -0.599  0.00  0.00     0.058 A 
ENDROOT
TORSDOF 0
ENDMDL
