MODEL 1
REMARK minimizedAffinity -2.14435768
REMARK minimizedRMSD -1
REMARK  0 active torsions:
REMARK  status: ('A' for Active; 'I' for Inactive)
ROOT
ATOM      1  O1  BZF d   1      -1.821   2.015   1.564  0.00  0.00    -0.204 OA
ATOM      2  C2  BZF d   1      -3.190   1.836   1.526  0.00  0.00     0.174 A 
ATOM      3  C3  BZF d   1      -3.517   0.827   0.693  0.00  0.00    -0.012 A 
ATOM      4  C3A BZF d   1      -2.270   0.284   0.251  0.00  0.00    -0.107 A 
ATOM      5  C4  BZF d   1      -1.936  -0.748  -0.579  0.00  0.00     0.055 A 
ATOM      6  C5  BZF d   1      -0.626  -0.971  -0.862  0.00  0.00    -0.016 A 
ATOM      7  C6  BZF d   1       0.375  -0.180  -0.337  0.00  0.00     0.022 A 
ATOM      8  C7  BZF d   1       0.094   0.852   0.495  0.00  0.00     0.029 A 
ATOM      9  C7A BZF d   1      -1.227   1.060   0.808  0.00  0.00     0.058 A 
ENDROOT
TORSDOF 0
ENDMDL
