MODEL 1
REMARK minimizedAffinity -1.57291794
REMARK minimizedRMSD -1
REMARK  0 active torsions:
REMARK  status: ('A' for Active; 'I' for Inactive)
ROOT
ATOM      1  O1  BZF d   1       2.256  -1.398  -0.397  0.00  0.00    -0.204 OA
ATOM      2  C2  BZF d   1       2.937  -1.009   0.740  0.00  0.00     0.174 A 
ATOM      3  C3  BZF d   1       2.166  -0.218   1.513  0.00  0.00    -0.012 A 
ATOM      4  C3A BZF d   1       0.893  -0.181   0.862  0.00  0.00    -0.107 A 
ATOM      5  C4  BZF d   1      -0.295   0.427   1.155  0.00  0.00     0.055 A 
ATOM      6  C5  BZF d   1      -1.325   0.323   0.274  0.00  0.00    -0.016 A 
ATOM      7  C6  BZF d   1      -1.201  -0.374  -0.910  0.00  0.00     0.022 A 
ATOM      8  C7  BZF d   1      -0.044  -0.998  -1.241  0.00  0.00     0.029 A 
ATOM      9  C7A BZF d   1       0.988  -0.924  -0.338  0.00  0.00     0.058 A 
ENDROOT
TORSDOF 0
ENDMDL
