MODEL 1
REMARK minimizedAffinity -3.99186158
REMARK minimizedRMSD -1
REMARK  0 active torsions:
REMARK  status: ('A' for Active; 'I' for Inactive)
ROOT
ATOM      1  O1  BZF d   1      -0.917   1.101   0.741  0.00  0.00    -0.204 OA
ATOM      2  C2  BZF d   1      -1.895   0.577  -0.083  0.00  0.00     0.174 A 
ATOM      3  C3  BZF d   1      -1.397  -0.420  -0.843  0.00  0.00    -0.012 A 
ATOM      4  C3A BZF d   1      -0.045  -0.588  -0.404  0.00  0.00    -0.107 A 
ATOM      5  C4  BZF d   1       0.961  -1.436  -0.768  0.00  0.00     0.055 A 
ATOM      6  C5  BZF d   1       2.185  -1.292  -0.196  0.00  0.00    -0.016 A 
ATOM      7  C6  BZF d   1       2.439  -0.309   0.738  0.00  0.00     0.022 A 
ATOM      8  C7  BZF d   1       1.471   0.553   1.134  0.00  0.00     0.029 A 
ATOM      9  C7A BZF d   1       0.224   0.389   0.582  0.00  0.00     0.058 A 
ENDROOT
TORSDOF 0
ENDMDL
