MODEL 1
REMARK minimizedAffinity -3.97223067
REMARK minimizedRMSD -1
REMARK  0 active torsions:
REMARK  status: ('A' for Active; 'I' for Inactive)
ROOT
ATOM      1  O1  BZF d   1      -0.192   2.108  -0.389  0.00  0.00    -0.204 OA
ATOM      2  C2  BZF d   1       0.979   2.685   0.062  0.00  0.00     0.174 A 
ATOM      3  C3  BZF d   1       1.842   1.742   0.493  0.00  0.00    -0.012 A 
ATOM      4  C3A BZF d   1       1.205   0.492   0.212  0.00  0.00    -0.107 A 
ATOM      5  C4  BZF d   1       1.572  -0.810   0.395  0.00  0.00     0.055 A 
ATOM      6  C5  BZF d   1       0.690  -1.795   0.081  0.00  0.00    -0.016 A 
ATOM      7  C6  BZF d   1      -0.567  -1.514  -0.414  0.00  0.00     0.022 A 
ATOM      8  C7  BZF d   1      -0.974  -0.237  -0.617  0.00  0.00     0.029 A 
ATOM      9  C7A BZF d   1      -0.073   0.759  -0.331  0.00  0.00     0.058 A 
ENDROOT
TORSDOF 0
ENDMDL
