MODEL 1
REMARK minimizedAffinity -5.98620796
REMARK minimizedRMSD -1
REMARK  0 active torsions:
REMARK  status: ('A' for Active; 'I' for Inactive)
ROOT
ATOM      1  O1  BZF d   1      -0.038   1.207  -0.319  0.00  0.00    -0.204 OA
ATOM      2  C2  BZF d   1      -0.758   0.039  -0.484  0.00  0.00     0.174 A 
ATOM      3  C3  BZF d   1       0.046  -1.038  -0.378  0.00  0.00    -0.012 A 
ATOM      4  C3A BZF d   1       1.334  -0.514  -0.041  0.00  0.00    -0.107 A 
ATOM      5  C4  BZF d   1       2.546  -1.091   0.212  0.00  0.00     0.055 A 
ATOM      6  C5  BZF d   1       3.622  -0.294   0.440  0.00  0.00    -0.016 A 
ATOM      7  C6  BZF d   1       3.525   1.082   0.417  0.00  0.00     0.022 A 
ATOM      8  C7  BZF d   1       2.343   1.700   0.176  0.00  0.00     0.029 A 
ATOM      9  C7A BZF d   1       1.246   0.897  -0.022  0.00  0.00     0.058 A 
ENDROOT
TORSDOF 0
ENDMDL
