MODEL 1
REMARK minimizedAffinity -5.89495468
REMARK minimizedRMSD -1
REMARK  0 active torsions:
REMARK  status: ('A' for Active; 'I' for Inactive)
ROOT
ATOM      1  O1  BZF d   1       0.536   2.484  -0.746  0.00  0.00    -0.204 OA
ATOM      2  C2  BZF d   1      -0.797   2.129  -0.808  0.00  0.00     0.174 A 
ATOM      3  C3  BZF d   1      -0.933   0.790  -0.888  0.00  0.00    -0.012 A 
ATOM      4  C3A BZF d   1       0.396   0.270  -0.782  0.00  0.00    -0.107 A 
ATOM      5  C4  BZF d   1       0.912  -0.994  -0.778  0.00  0.00     0.055 A 
ATOM      6  C5  BZF d   1       2.260  -1.157  -0.733  0.00  0.00    -0.016 A 
ATOM      7  C6  BZF d   1       3.121  -0.080  -0.695  0.00  0.00     0.022 A 
ATOM      8  C7  BZF d   1       2.656   1.193  -0.692  0.00  0.00     0.029 A 
ATOM      9  C7A BZF d   1       1.293   1.361  -0.704  0.00  0.00     0.058 A 
ENDROOT
TORSDOF 0
ENDMDL
