MODEL 1
REMARK minimizedAffinity 2.06697893
REMARK minimizedRMSD -1
REMARK  0 active torsions:
REMARK  status: ('A' for Active; 'I' for Inactive)
ROOT
ATOM      1  C   UNL d   1      -1.457  -0.186  -0.053  0.00  0.00     0.078 C 
ATOM      2  C1  UNL d   1       0.035  -0.043  -0.008  0.00  0.00    -0.077 A 
ATOM      3  C2  UNL d   1       0.814  -0.862   0.819  0.00  0.00    -0.001 A 
ATOM      4  C3  UNL d   1       2.201  -0.710   0.858  0.00  0.00     0.003 A 
ATOM      5  C4  UNL d   1       2.821   0.260   0.074  0.00  0.00    -0.005 A 
ATOM      6  C5  UNL d   1       2.054   1.082  -0.750  0.00  0.00     0.003 A 
ATOM      7  C6  UNL d   1       0.667   0.932  -0.790  0.00  0.00    -0.001 A 
ENDROOT
TORSDOF 0
ENDMDL
