MODEL 1
REMARK minimizedAffinity -5.42240334
REMARK minimizedRMSD -1
REMARK  0 active torsions:
REMARK  status: ('A' for Active; 'I' for Inactive)
ROOT
ATOM      1  C   UNL d   1       0.666  -0.261  -0.530  0.00  0.00     0.078 C 
ATOM      2  C1  UNL d   1       0.479   0.174   0.893  0.00  0.00    -0.077 A 
ATOM      3  C2  UNL d   1       1.474  -0.049   1.853  0.00  0.00    -0.001 A 
ATOM      4  C3  UNL d   1       1.281   0.352   3.176  0.00  0.00     0.003 A 
ATOM      5  C4  UNL d   1       0.094   0.976   3.552  0.00  0.00    -0.005 A 
ATOM      6  C5  UNL d   1      -0.903   1.200   2.605  0.00  0.00     0.003 A 
ATOM      7  C6  UNL d   1      -0.712   0.800   1.281  0.00  0.00    -0.001 A 
ENDROOT
TORSDOF 0
ENDMDL
