MODEL 1
REMARK minimizedAffinity -5.63327551
REMARK minimizedRMSD -1
REMARK  0 active torsions:
REMARK  status: ('A' for Active; 'I' for Inactive)
ROOT
ATOM      1  C   UNL d   1       0.409   0.474  -0.964  0.00  0.00     0.078 C 
ATOM      2  C1  UNL d   1       0.180   0.508   0.518  0.00  0.00    -0.077 A 
ATOM      3  C2  UNL d   1       1.235   0.302   1.415  0.00  0.00    -0.001 A 
ATOM      4  C3  UNL d   1       1.005   0.327   2.792  0.00  0.00     0.003 A 
ATOM      5  C4  UNL d   1      -0.278   0.555   3.283  0.00  0.00    -0.005 A 
ATOM      6  C5  UNL d   1      -1.335   0.758   2.398  0.00  0.00     0.003 A 
ATOM      7  C6  UNL d   1      -1.107   0.734   1.021  0.00  0.00    -0.001 A 
ENDROOT
TORSDOF 0
ENDMDL
