MODEL 1
REMARK minimizedAffinity -0.453169018
REMARK minimizedRMSD -1
REMARK  0 active torsions:
REMARK  status: ('A' for Active; 'I' for Inactive)
ROOT
ATOM      1  C   UNL d   1      -1.473   0.403   2.308  0.00  0.00     0.078 C 
ATOM      2  C1  UNL d   1      -0.354   0.131   1.348  0.00  0.00    -0.077 A 
ATOM      3  C2  UNL d   1      -0.559   0.200  -0.036  0.00  0.00    -0.001 A 
ATOM      4  C3  UNL d   1       0.490  -0.066  -0.918  0.00  0.00     0.003 A 
ATOM      5  C4  UNL d   1       1.749  -0.403  -0.427  0.00  0.00    -0.005 A 
ATOM      6  C5  UNL d   1       1.961  -0.477   0.948  0.00  0.00     0.003 A 
ATOM      7  C6  UNL d   1       0.914  -0.211   1.832  0.00  0.00    -0.001 A 
ENDROOT
TORSDOF 0
ENDMDL
