MODEL 1
REMARK minimizedAffinity -5.160357
REMARK minimizedRMSD -1
REMARK  0 active torsions:
REMARK  status: ('A' for Active; 'I' for Inactive)
ROOT
ATOM      1  C   UNL d   1       0.515  -0.335  -0.910  0.00  0.00     0.078 C 
ATOM      2  C1  UNL d   1       0.276   0.185   0.476  0.00  0.00    -0.077 A 
ATOM      3  C2  UNL d   1      -0.958   0.739   0.835  0.00  0.00    -0.001 A 
ATOM      4  C3  UNL d   1      -1.164   1.229   2.126  0.00  0.00     0.003 A 
ATOM      5  C4  UNL d   1      -0.138   1.170   3.068  0.00  0.00    -0.005 A 
ATOM      6  C5  UNL d   1       1.094   0.622   2.719  0.00  0.00     0.003 A 
ATOM      7  C6  UNL d   1       1.302   0.132   1.429  0.00  0.00    -0.001 A 
ENDROOT
TORSDOF 0
ENDMDL
