MODEL 1
REMARK minimizedAffinity -2.95933867
REMARK minimizedRMSD -1
REMARK  0 active torsions:
REMARK  status: ('A' for Active; 'I' for Inactive)
ROOT
ATOM      1  C   UNL d   1      -2.609   3.901   1.228  0.00  0.00     0.172 C 
ATOM      2  N   UNL d   1      -1.953   3.614  -0.026  0.00  0.00    -0.070 N 
ATOM      3  C1  UNL d   1      -0.614   3.382  -0.192  0.00  0.00    -0.004 A 
ATOM      4  C2  UNL d   1      -0.389   3.148  -1.531  0.00  0.00    -0.047 A 
ATOM      5  C3  UNL d   1      -1.636   3.243  -2.193  0.00  0.00    -0.047 A 
ATOM      6  C4  UNL d   1      -2.587   3.533  -1.238  0.00  0.00    -0.004 A 
ENDROOT
TORSDOF 0
ENDMDL
