MODEL 1
REMARK minimizedAffinity 3.55582809
REMARK minimizedRMSD -1
REMARK  0 active torsions:
REMARK  status: ('A' for Active; 'I' for Inactive)
ROOT
ATOM      1  C   UNL d   1       0.767  -0.701   3.884  0.00  0.00     0.172 C 
ATOM      2  N   UNL d   1       0.491   0.460   3.072  0.00  0.00    -0.070 N 
ATOM      3  C1  UNL d   1       1.062   0.741   1.860  0.00  0.00    -0.004 A 
ATOM      4  C2  UNL d   1       0.536   1.934   1.411  0.00  0.00    -0.047 A 
ATOM      5  C3  UNL d   1      -0.382   2.386   2.389  0.00  0.00    -0.047 A 
ATOM      6  C4  UNL d   1      -0.391   1.455   3.406  0.00  0.00    -0.004 A 
ENDROOT
TORSDOF 0
ENDMDL
