MODEL 1
REMARK minimizedAffinity -0.271990657
REMARK minimizedRMSD -1
REMARK  0 active torsions:
REMARK  status: ('A' for Active; 'I' for Inactive)
ROOT
ATOM      1  C   UNL d   1       0.832   0.291   3.272  0.00  0.00     0.172 C 
ATOM      2  N   UNL d   1      -0.081   1.258   2.710  0.00  0.00    -0.070 N 
ATOM      3  C1  UNL d   1      -1.448   1.183   2.751  0.00  0.00    -0.004 A 
ATOM      4  C2  UNL d   1      -1.951   2.293   2.107  0.00  0.00    -0.047 A 
ATOM      5  C3  UNL d   1      -0.849   3.060   1.661  0.00  0.00    -0.047 A 
ATOM      6  C4  UNL d   1       0.296   2.396   2.048  0.00  0.00    -0.004 A 
ENDROOT
TORSDOF 0
ENDMDL
