MODEL 1
REMARK minimizedAffinity 5.88563251
REMARK minimizedRMSD -1
REMARK  0 active torsions:
REMARK  status: ('A' for Active; 'I' for Inactive)
ROOT
ATOM      1  C   UNL d   1      -3.413   3.521  -2.209  0.00  0.00     0.172 C 
ATOM      2  N   UNL d   1      -2.482   2.421  -2.116  0.00  0.00    -0.070 N 
ATOM      3  C1  UNL d   1      -2.776   1.162  -1.666  0.00  0.00    -0.004 A 
ATOM      4  C2  UNL d   1      -1.624   0.410  -1.733  0.00  0.00    -0.047 A 
ATOM      5  C3  UNL d   1      -0.601   1.247  -2.239  0.00  0.00    -0.047 A 
ATOM      6  C4  UNL d   1      -1.160   2.486  -2.467  0.00  0.00    -0.004 A 
ENDROOT
TORSDOF 0
ENDMDL
