MODEL 1
REMARK minimizedAffinity 2.58166695
REMARK minimizedRMSD -1
REMARK  0 active torsions:
REMARK  status: ('A' for Active; 'I' for Inactive)
ROOT
ATOM      1  C   UNL d   1      -1.129   1.731  -0.812  0.00  0.00     0.172 C 
ATOM      2  N   UNL d   1      -0.921   1.798   0.615  0.00  0.00    -0.070 N 
ATOM      3  C1  UNL d   1       0.285   1.976   1.238  0.00  0.00    -0.004 A 
ATOM      4  C2  UNL d   1       0.061   1.983   2.598  0.00  0.00    -0.047 A 
ATOM      5  C3  UNL d   1      -1.328   1.803   2.799  0.00  0.00    -0.047 A 
ATOM      6  C4  UNL d   1      -1.912   1.690   1.555  0.00  0.00    -0.004 A 
ENDROOT
TORSDOF 0
ENDMDL
