MODEL 1
REMARK minimizedAffinity 1.65546787
REMARK minimizedRMSD -1
REMARK  0 active torsions:
REMARK  status: ('A' for Active; 'I' for Inactive)
ROOT
ATOM      1  C   UNL d   1       0.244  -0.124  -2.162  0.00  0.00     0.172 C 
ATOM      2  N   UNL d   1      -1.118  -0.315  -2.603  0.00  0.00    -0.070 N 
ATOM      3  C1  UNL d   1      -1.504  -0.709  -3.857  0.00  0.00    -0.004 A 
ATOM      4  C2  UNL d   1      -2.880  -0.773  -3.874  0.00  0.00    -0.047 A 
ATOM      5  C3  UNL d   1      -3.338  -0.404  -2.586  0.00  0.00    -0.047 A 
ATOM      6  C4  UNL d   1      -2.226  -0.126  -1.820  0.00  0.00    -0.004 A 
ENDROOT
TORSDOF 0
ENDMDL
