MODEL 1
REMARK minimizedAffinity 0.0231498461
REMARK minimizedRMSD -1
REMARK  0 active torsions:
REMARK  status: ('A' for Active; 'I' for Inactive)
ROOT
ATOM      1  C   UNL d   1       3.734  -2.136  -1.110  0.00  0.00     0.172 C 
ATOM      2  N   UNL d   1       4.314  -3.379  -1.562  0.00  0.00    -0.070 N 
ATOM      3  C1  UNL d   1       3.952  -4.064  -2.691  0.00  0.00    -0.004 A 
ATOM      4  C2  UNL d   1       4.738  -5.194  -2.768  0.00  0.00    -0.047 A 
ATOM      5  C3  UNL d   1       5.601  -5.188  -1.647  0.00  0.00    -0.047 A 
ATOM      6  C4  UNL d   1       5.317  -4.053  -0.917  0.00  0.00    -0.004 A 
ENDROOT
TORSDOF 0
ENDMDL
