MODEL 1
REMARK minimizedAffinity 3.42251658
REMARK minimizedRMSD -1
REMARK  0 active torsions:
REMARK  status: ('A' for Active; 'I' for Inactive)
ROOT
ATOM      1  C   UNL d   1       0.284   1.807   2.459  0.00  0.00     0.172 C 
ATOM      2  N   UNL d   1       0.560   0.657   1.631  0.00  0.00    -0.070 N 
ATOM      3  C1  UNL d   1       0.268   0.544   0.298  0.00  0.00    -0.004 A 
ATOM      4  C2  UNL d   1       0.688  -0.699  -0.123  0.00  0.00    -0.047 A 
ATOM      5  C3  UNL d   1       1.250  -1.357   0.997  0.00  0.00    -0.047 A 
ATOM      6  C4  UNL d   1       1.158  -0.495   2.069  0.00  0.00    -0.004 A 
ENDROOT
TORSDOF 0
ENDMDL
