MODEL 1
REMARK minimizedAffinity 4.47346544
REMARK minimizedRMSD -1
REMARK  0 active torsions:
REMARK  status: ('A' for Active; 'I' for Inactive)
ROOT
ATOM      1  C   UNL d   1       0.393   0.912   3.186  0.00  0.00     0.172 C 
ATOM      2  N   UNL d   1       0.631   0.576   1.802  0.00  0.00    -0.070 N 
ATOM      3  C1  UNL d   1      -0.149   0.956   0.743  0.00  0.00    -0.004 A 
ATOM      4  C2  UNL d   1       0.414   0.436  -0.403  0.00  0.00    -0.047 A 
ATOM      5  C3  UNL d   1       1.571  -0.282  -0.018  0.00  0.00    -0.047 A 
ATOM      6  C4  UNL d   1       1.682  -0.179   1.352  0.00  0.00    -0.004 A 
ENDROOT
TORSDOF 0
ENDMDL
