MODEL 1
REMARK minimizedAffinity -0.215966493
REMARK minimizedRMSD -1
REMARK  0 active torsions:
REMARK  status: ('A' for Active; 'I' for Inactive)
ROOT
ATOM      1  C   UNL d   1      -1.033  -0.516  -1.092  0.00  0.00     0.172 C 
ATOM      2  N   UNL d   1      -0.151  -0.034  -0.055  0.00  0.00    -0.070 N 
ATOM      3  C1  UNL d   1       0.906   0.817  -0.238  0.00  0.00    -0.004 A 
ATOM      4  C2  UNL d   1       1.491   1.034   0.991  0.00  0.00    -0.047 A 
ATOM      5  C3  UNL d   1       0.761   0.286   1.945  0.00  0.00    -0.047 A 
ATOM      6  C4  UNL d   1      -0.250  -0.365   1.271  0.00  0.00    -0.004 A 
ENDROOT
TORSDOF 0
ENDMDL
