MODEL 1
REMARK minimizedAffinity -6.10784817
REMARK minimizedRMSD -1
REMARK  0 active torsions:
REMARK  status: ('A' for Active; 'I' for Inactive)
ROOT
ATOM      1  C2' OXE d   1      -1.578   0.260  -2.191  0.00  0.00     0.078 C 
ATOM      2  C1' OXE d   1       0.534  -0.700  -0.610  0.00  0.00     0.078 C 
ATOM      3  C1  OXE d   1      -0.851  -0.705  -0.012  0.00  0.00    -0.078 A 
ATOM      4  C2  OXE d   1      -1.871  -0.190  -0.775  0.00  0.00    -0.078 A 
ATOM      5  C3  OXE d   1      -3.176  -0.220  -0.293  0.00  0.00     0.003 A 
ATOM      6  C4  OXE d   1      -3.437  -0.628   1.021  0.00  0.00    -0.002 A 
ATOM      7  C5  OXE d   1      -2.406  -1.119   1.830  0.00  0.00    -0.002 A 
ATOM      8  C6  OXE d   1      -1.117  -1.204   1.315  0.00  0.00     0.003 A 
ENDROOT
TORSDOF 0
ENDMDL
