MODEL 1
REMARK minimizedAffinity -3.71589613
REMARK minimizedRMSD -1
REMARK  0 active torsions:
REMARK  status: ('A' for Active; 'I' for Inactive)
ROOT
ATOM      1  C2' OXE d   1       0.742  -0.388   1.928  0.00  0.00     0.078 C 
ATOM      2  C1' OXE d   1       1.450   0.803  -0.513  0.00  0.00     0.078 C 
ATOM      3  C1  OXE d   1       0.055   0.244  -0.381  0.00  0.00    -0.078 A 
ATOM      4  C2  OXE d   1      -0.268  -0.378   0.800  0.00  0.00    -0.078 A 
ATOM      5  C3  OXE d   1      -1.558  -0.863   0.995  0.00  0.00     0.003 A 
ATOM      6  C4  OXE d   1      -2.483  -0.858  -0.057  0.00  0.00    -0.002 A 
ATOM      7  C5  OXE d   1      -2.161  -0.265  -1.282  0.00  0.00    -0.002 A 
ATOM      8  C6  OXE d   1      -0.914   0.328  -1.446  0.00  0.00     0.003 A 
ENDROOT
TORSDOF 0
ENDMDL
