MODEL 1
REMARK minimizedAffinity 1.39529443
REMARK minimizedRMSD -1
REMARK  0 active torsions:
REMARK  status: ('A' for Active; 'I' for Inactive)
ROOT
ATOM      1  C2' OXE d   1       2.522   2.867   1.197  0.00  0.00     0.078 C 
ATOM      2  C1' OXE d   1       1.368   1.757   3.503  0.00  0.00     0.078 C 
ATOM      3  C1  OXE d   1       1.159   1.036   2.194  0.00  0.00    -0.078 A 
ATOM      4  C2  OXE d   1       1.688   1.612   1.064  0.00  0.00    -0.078 A 
ATOM      5  C3  OXE d   1       1.570   0.960  -0.160  0.00  0.00     0.003 A 
ATOM      6  C4  OXE d   1       0.788  -0.195  -0.276  0.00  0.00    -0.002 A 
ATOM      7  C5  OXE d   1       0.208  -0.776   0.856  0.00  0.00    -0.002 A 
ATOM      8  C6  OXE d   1       0.418  -0.198   2.103  0.00  0.00     0.003 A 
ENDROOT
TORSDOF 0
ENDMDL
