MODEL 1
REMARK minimizedAffinity 0.997402549
REMARK minimizedRMSD -1
REMARK  0 active torsions:
REMARK  status: ('A' for Active; 'I' for Inactive)
ROOT
ATOM      1  C2' OXE d   1       1.811   0.899   0.261  0.00  0.00     0.078 C 
ATOM      2  C1' OXE d   1       0.516  -1.375   1.278  0.00  0.00     0.078 C 
ATOM      3  C1  OXE d   1      -0.065  -0.726   0.047  0.00  0.00    -0.078 A 
ATOM      4  C2  OXE d   1       0.547   0.414  -0.416  0.00  0.00    -0.078 A 
ATOM      5  C3  OXE d   1       0.084   1.021  -1.580  0.00  0.00     0.003 A 
ATOM      6  C4  OXE d   1      -1.091   0.572  -2.195  0.00  0.00    -0.002 A 
ATOM      7  C5  OXE d   1      -1.753  -0.563  -1.716  0.00  0.00    -0.002 A 
ATOM      8  C6  OXE d   1      -1.231  -1.247  -0.624  0.00  0.00     0.003 A 
ENDROOT
TORSDOF 0
ENDMDL
