MODEL 1
REMARK minimizedAffinity -2.07030606
REMARK minimizedRMSD -1
REMARK  0 active torsions:
REMARK  status: ('A' for Active; 'I' for Inactive)
ROOT
ATOM      1  C2' OXE d   1       1.003  -1.672   1.241  0.00  0.00     0.078 C 
ATOM      2  C1' OXE d   1       1.136   1.074   1.811  0.00  0.00     0.078 C 
ATOM      3  C1  OXE d   1       0.374   0.647   0.582  0.00  0.00    -0.078 A 
ATOM      4  C2  OXE d   1       0.353  -0.695   0.285  0.00  0.00    -0.078 A 
ATOM      5  C3  OXE d   1      -0.382  -1.148  -0.807  0.00  0.00     0.003 A 
ATOM      6  C4  OXE d   1      -0.972  -0.237  -1.692  0.00  0.00    -0.002 A 
ATOM      7  C5  OXE d   1      -0.929   1.136  -1.430  0.00  0.00    -0.002 A 
ATOM      8  C6  OXE d   1      -0.298   1.591  -0.277  0.00  0.00     0.003 A 
ENDROOT
TORSDOF 0
ENDMDL
