MODEL 1
REMARK minimizedAffinity -0.0215167031
REMARK minimizedRMSD -1
REMARK  0 active torsions:
REMARK  status: ('A' for Active; 'I' for Inactive)
ROOT
ATOM      1  C2' OXE d   1       1.396   0.760   0.356  0.00  0.00     0.078 C 
ATOM      2  C1' OXE d   1       0.292  -1.674   1.217  0.00  0.00     0.078 C 
ATOM      3  C1  OXE d   1      -0.408  -0.940   0.100  0.00  0.00    -0.078 A 
ATOM      4  C2  OXE d   1       0.113   0.273  -0.283  0.00  0.00    -0.078 A 
ATOM      5  C3  OXE d   1      -0.461   0.965  -1.345  0.00  0.00     0.003 A 
ATOM      6  C4  OXE d   1      -1.653   0.513  -1.925  0.00  0.00    -0.002 A 
ATOM      7  C5  OXE d   1      -2.222  -0.700  -1.522  0.00  0.00    -0.002 A 
ATOM      8  C6  OXE d   1      -1.590  -1.458  -0.543  0.00  0.00     0.003 A 
ENDROOT
TORSDOF 0
ENDMDL
