MODEL 1
REMARK minimizedAffinity -3.53081775
REMARK minimizedRMSD -1
REMARK  0 active torsions:
REMARK  status: ('A' for Active; 'I' for Inactive)
ROOT
ATOM      1  C2' OXE d   1      -3.580   5.597   5.282  0.00  0.00     0.078 C 
ATOM      2  C1' OXE d   1      -5.682   3.738   5.231  0.00  0.00     0.078 C 
ATOM      3  C1  OXE d   1      -5.323   4.430   3.939  0.00  0.00    -0.078 A 
ATOM      4  C2  OXE d   1      -4.324   5.372   3.984  0.00  0.00    -0.078 A 
ATOM      5  C3  OXE d   1      -3.915   6.000   2.810  0.00  0.00     0.003 A 
ATOM      6  C4  OXE d   1      -4.615   5.793   1.616  0.00  0.00    -0.002 A 
ATOM      7  C5  OXE d   1      -5.662   4.867   1.557  0.00  0.00    -0.002 A 
ATOM      8  C6  OXE d   1      -6.000   4.147   2.698  0.00  0.00     0.003 A 
ENDROOT
TORSDOF 0
ENDMDL
