MODEL 1
REMARK minimizedAffinity 5.30120564
REMARK minimizedRMSD -1
REMARK  0 active torsions:
REMARK  status: ('A' for Active; 'I' for Inactive)
ROOT
ATOM      1  C2' OXE d   1      -3.745  -1.087   0.758  0.00  0.00     0.078 C 
ATOM      2  C1' OXE d   1      -2.013  -1.279  -1.443  0.00  0.00     0.078 C 
ATOM      3  C1  OXE d   1      -1.413  -1.389  -0.064  0.00  0.00    -0.078 A 
ATOM      4  C2  OXE d   1      -2.261  -1.247   1.008  0.00  0.00    -0.078 A 
ATOM      5  C3  OXE d   1      -1.769  -1.395   2.302  0.00  0.00     0.003 A 
ATOM      6  C4  OXE d   1      -0.393  -1.534   2.525  0.00  0.00    -0.002 A 
ATOM      7  C5  OXE d   1       0.493  -1.641   1.448  0.00  0.00    -0.002 A 
ATOM      8  C6  OXE d   1      -0.005  -1.614   0.150  0.00  0.00     0.003 A 
ENDROOT
TORSDOF 0
ENDMDL
