MODEL 1
REMARK minimizedAffinity 2.25134659
REMARK minimizedRMSD -1
REMARK  0 active torsions:
REMARK  status: ('A' for Active; 'I' for Inactive)
ROOT
ATOM      1  C2' OXE d   1      -0.745   1.864   3.111  0.00  0.00     0.078 C 
ATOM      2  C1' OXE d   1       1.616   2.333   1.667  0.00  0.00     0.078 C 
ATOM      3  C1  OXE d   1       1.025   0.947   1.617  0.00  0.00    -0.078 A 
ATOM      4  C2  OXE d   1      -0.105   0.714   2.364  0.00  0.00    -0.078 A 
ATOM      5  C3  OXE d   1      -0.722  -0.533   2.309  0.00  0.00     0.003 A 
ATOM      6  C4  OXE d   1      -0.118  -1.594   1.624  0.00  0.00    -0.002 A 
ATOM      7  C5  OXE d   1       1.054  -1.388   0.888  0.00  0.00    -0.002 A 
ATOM      8  C6  OXE d   1       1.614  -0.116   0.840  0.00  0.00     0.003 A 
ENDROOT
TORSDOF 0
ENDMDL
