MODEL 1
REMARK minimizedAffinity 3.00055623
REMARK minimizedRMSD -1
REMARK  0 active torsions:
REMARK  status: ('A' for Active; 'I' for Inactive)
ROOT
ATOM      1  C2' OXE d   1       1.449  -1.233   1.261  0.00  0.00     0.078 C 
ATOM      2  C1' OXE d   1      -1.092  -1.885   2.260  0.00  0.00     0.078 C 
ATOM      3  C1  OXE d   1      -1.004  -1.359   0.849  0.00  0.00    -0.078 A 
ATOM      4  C2  OXE d   1       0.238  -0.998   0.384  0.00  0.00    -0.078 A 
ATOM      5  C3  OXE d   1       0.383  -0.559  -0.929  0.00  0.00     0.003 A 
ATOM      6  C4  OXE d   1      -0.744  -0.336  -1.729  0.00  0.00    -0.002 A 
ATOM      7  C5  OXE d   1      -2.022  -0.659  -1.262  0.00  0.00    -0.002 A 
ATOM      8  C6  OXE d   1      -2.165  -1.210   0.006  0.00  0.00     0.003 A 
ENDROOT
TORSDOF 0
ENDMDL
