MODEL 1
REMARK minimizedAffinity 1.91128719
REMARK minimizedRMSD -1
REMARK  0 active torsions:
REMARK  status: ('A' for Active; 'I' for Inactive)
ROOT
ATOM      1  C2' OXE d   1       2.043   2.012   2.745  0.00  0.00     0.078 C 
ATOM      2  C1' OXE d   1      -0.763   1.975   2.802  0.00  0.00     0.078 C 
ATOM      3  C1  OXE d   1      -0.048   0.681   2.500  0.00  0.00    -0.078 A 
ATOM      4  C2  OXE d   1       1.323   0.719   2.428  0.00  0.00    -0.078 A 
ATOM      5  C3  OXE d   1       2.035  -0.457   2.207  0.00  0.00     0.003 A 
ATOM      6  C4  OXE d   1       1.361  -1.647   1.905  0.00  0.00    -0.002 A 
ATOM      7  C5  OXE d   1      -0.037  -1.698   1.934  0.00  0.00    -0.002 A 
ATOM      8  C6  OXE d   1      -0.754  -0.555   2.271  0.00  0.00     0.003 A 
ENDROOT
TORSDOF 0
ENDMDL
