MODEL 1
REMARK minimizedAffinity 1.94489622
REMARK minimizedRMSD -1
REMARK  0 active torsions:
REMARK  status: ('A' for Active; 'I' for Inactive)
ROOT
ATOM      1  C2' OXE d   1      -0.703  -1.035  -1.490  0.00  0.00     0.078 C 
ATOM      2  C1' OXE d   1      -2.247   1.244  -2.037  0.00  0.00     0.078 C 
ATOM      3  C1  OXE d   1      -2.843   0.190  -1.137  0.00  0.00    -0.078 A 
ATOM      4  C2  OXE d   1      -2.099  -0.943  -0.913  0.00  0.00    -0.078 A 
ATOM      5  C3  OXE d   1      -2.578  -1.922  -0.047  0.00  0.00     0.003 A 
ATOM      6  C4  OXE d   1      -3.875  -1.834   0.475  0.00  0.00    -0.002 A 
ATOM      7  C5  OXE d   1      -4.665  -0.706   0.227  0.00  0.00    -0.002 A 
ATOM      8  C6  OXE d   1      -4.148   0.332  -0.541  0.00  0.00     0.003 A 
ENDROOT
TORSDOF 0
ENDMDL
