MODEL 1
REMARK minimizedAffinity 2.82055593
REMARK minimizedRMSD -1
REMARK  0 active torsions:
REMARK  status: ('A' for Active; 'I' for Inactive)
ROOT
ATOM      1  C2' OXE d   1       2.967   2.512  -1.656  0.00  0.00     0.078 C 
ATOM      2  C1' OXE d   1       5.610   1.757  -1.084  0.00  0.00     0.078 C 
ATOM      3  C1  OXE d   1       4.736   2.187   0.068  0.00  0.00    -0.078 A 
ATOM      4  C2  OXE d   1       3.459   2.599  -0.227  0.00  0.00    -0.078 A 
ATOM      5  C3  OXE d   1       2.594   2.954   0.804  0.00  0.00     0.003 A 
ATOM      6  C4  OXE d   1       3.059   3.042   2.122  0.00  0.00    -0.002 A 
ATOM      7  C5  OXE d   1       4.369   2.665   2.438  0.00  0.00    -0.002 A 
ATOM      8  C6  OXE d   1       5.205   2.195   1.432  0.00  0.00     0.003 A 
ENDROOT
TORSDOF 0
ENDMDL
