MODEL 1
REMARK minimizedAffinity 7.06950521
REMARK minimizedRMSD -1
REMARK  0 active torsions:
REMARK  status: ('A' for Active; 'I' for Inactive)
ROOT
ATOM      1  C2' OXE d   1      -2.063  -2.117  -3.136  0.00  0.00     0.078 C 
ATOM      2  C1' OXE d   1      -0.327  -0.031  -2.418  0.00  0.00     0.078 C 
ATOM      3  C1  OXE d   1      -1.540  -0.266  -1.553  0.00  0.00    -0.078 A 
ATOM      4  C2  OXE d   1      -2.409  -1.259  -1.939  0.00  0.00    -0.078 A 
ATOM      5  C3  OXE d   1      -3.515  -1.553  -1.147  0.00  0.00     0.003 A 
ATOM      6  C4  OXE d   1      -3.833  -0.748  -0.047  0.00  0.00    -0.002 A 
ATOM      7  C5  OXE d   1      -2.983   0.294   0.341  0.00  0.00    -0.002 A 
ATOM      8  C6  OXE d   1      -1.813   0.520  -0.375  0.00  0.00     0.003 A 
ENDROOT
TORSDOF 0
ENDMDL
