MODEL 1
REMARK minimizedAffinity 4.79851961
REMARK minimizedRMSD -1
REMARK  0 active torsions:
REMARK  status: ('A' for Active; 'I' for Inactive)
ROOT
ATOM      1  C2' OXE d   1      -0.695   1.858  -3.285  0.00  0.00     0.078 C 
ATOM      2  C1' OXE d   1       0.748  -0.459  -2.629  0.00  0.00     0.078 C 
ATOM      3  C1  OXE d   1      -0.619  -0.284  -2.016  0.00  0.00    -0.078 A 
ATOM      4  C2  OXE d   1      -1.299   0.875  -2.306  0.00  0.00    -0.078 A 
ATOM      5  C3  OXE d   1      -2.586   1.061  -1.811  0.00  0.00     0.003 A 
ATOM      6  C4  OXE d   1      -3.133   0.152  -0.898  0.00  0.00    -0.002 A 
ATOM      7  C5  OXE d   1      -2.442  -1.016  -0.558  0.00  0.00    -0.002 A 
ATOM      8  C6  OXE d   1      -1.205  -1.269  -1.140  0.00  0.00     0.003 A 
ENDROOT
TORSDOF 0
ENDMDL
