MODEL 1
REMARK minimizedAffinity 8.40697956
REMARK minimizedRMSD -1
REMARK  0 active torsions:
REMARK  status: ('A' for Active; 'I' for Inactive)
ROOT
ATOM      1  C2' OXE d   1       0.262  -0.844  -2.188  0.00  0.00     0.078 C 
ATOM      2  C1' OXE d   1      -2.274  -1.019  -0.998  0.00  0.00     0.078 C 
ATOM      3  C1  OXE d   1      -1.071  -1.002  -0.089  0.00  0.00    -0.078 A 
ATOM      4  C2  OXE d   1       0.168  -0.964  -0.682  0.00  0.00    -0.078 A 
ATOM      5  C3  OXE d   1       1.310  -0.891   0.111  0.00  0.00     0.003 A 
ATOM      6  C4  OXE d   1       1.215  -1.013   1.503  0.00  0.00    -0.002 A 
ATOM      7  C5  OXE d   1      -0.035  -1.093   2.125  0.00  0.00    -0.002 A 
ATOM      8  C6  OXE d   1      -1.187  -1.046   1.348  0.00  0.00     0.003 A 
ENDROOT
TORSDOF 0
ENDMDL
