MODEL 1
REMARK minimizedAffinity -0.376031548
REMARK minimizedRMSD -1
REMARK  0 active torsions:
REMARK  status: ('A' for Active; 'I' for Inactive)
ROOT
ATOM      1  C2' OXE d   1       6.000   1.649  -1.891  0.00  0.00     0.078 C 
ATOM      2  C1' OXE d   1       6.000   3.750  -3.753  0.00  0.00     0.078 C 
ATOM      3  C1  OXE d   1       4.970   3.786  -2.651  0.00  0.00    -0.078 A 
ATOM      4  C2  OXE d   1       4.948   2.730  -1.772  0.00  0.00    -0.078 A 
ATOM      5  C3  OXE d   1       4.054   2.741  -0.705  0.00  0.00     0.003 A 
ATOM      6  C4  OXE d   1       3.077   3.740  -0.608  0.00  0.00    -0.002 A 
ATOM      7  C5  OXE d   1       3.058   4.804  -1.516  0.00  0.00    -0.002 A 
ATOM      8  C6  OXE d   1       4.022   4.864  -2.517  0.00  0.00     0.003 A 
ENDROOT
TORSDOF 0
ENDMDL
