MODEL 1
REMARK minimizedAffinity 3.0272994
REMARK minimizedRMSD -1
REMARK  0 active torsions:
REMARK  status: ('A' for Active; 'I' for Inactive)
ROOT
ATOM      1  C2' OXE d   1      -2.141   2.998  -4.171  0.00  0.00     0.078 C 
ATOM      2  C1' OXE d   1       0.395   1.800  -4.046  0.00  0.00     0.078 C 
ATOM      3  C1  OXE d   1      -0.713   1.189  -3.225  0.00  0.00    -0.078 A 
ATOM      4  C2  OXE d   1      -1.939   1.810  -3.256  0.00  0.00    -0.078 A 
ATOM      5  C3  OXE d   1      -3.009   1.256  -2.560  0.00  0.00     0.003 A 
ATOM      6  C4  OXE d   1      -2.812   0.162  -1.708  0.00  0.00    -0.002 A 
ATOM      7  C5  OXE d   1      -1.562  -0.461  -1.631  0.00  0.00    -0.002 A 
ATOM      8  C6  OXE d   1      -0.515   0.013  -2.414  0.00  0.00     0.003 A 
ENDROOT
TORSDOF 0
ENDMDL
