MODEL 1
REMARK minimizedAffinity 5.76722336
REMARK minimizedRMSD -1
REMARK  0 active torsions:
REMARK  status: ('A' for Active; 'I' for Inactive)
ROOT
ATOM      1  C2' OXE d   1      -2.366  -1.723  -0.185  0.00  0.00     0.078 C 
ATOM      2  C1' OXE d   1      -4.166   0.392  -0.593  0.00  0.00     0.078 C 
ATOM      3  C1  OXE d   1      -2.901   0.376  -1.414  0.00  0.00    -0.078 A 
ATOM      4  C2  OXE d   1      -2.004  -0.637  -1.175  0.00  0.00    -0.078 A 
ATOM      5  C3  OXE d   1      -0.847  -0.729  -1.943  0.00  0.00     0.003 A 
ATOM      6  C4  OXE d   1      -0.516   0.285  -2.850  0.00  0.00    -0.002 A 
ATOM      7  C5  OXE d   1      -1.397   1.347  -3.081  0.00  0.00    -0.002 A 
ATOM      8  C6  OXE d   1      -2.611   1.385  -2.403  0.00  0.00     0.003 A 
ENDROOT
TORSDOF 0
ENDMDL
