MODEL 1
REMARK minimizedAffinity -2.6687758
REMARK minimizedRMSD -1
REMARK  1 active torsions:
REMARK  status: ('A' for Active; 'I' for Inactive)
REMARK    1  A    between atoms: C1_2  and  C2_3 
ROOT
ATOM      1  C2  UNL d   1       2.103  -0.940   2.422  0.00  0.00    -0.077 A 
ATOM      2  C3  UNL d   1       1.478  -1.540   1.320  0.00  0.00     0.002 A 
ATOM      3  C4  UNL d   1       0.964  -2.835   1.419  0.00  0.00     0.002 A 
ATOM      4  C5  UNL d   1       1.066  -3.538   2.617  0.00  0.00    -0.004 A 
ATOM      5  C6  UNL d   1       1.688  -2.950   3.718  0.00  0.00     0.002 A 
ATOM      6  C7  UNL d   1       2.203  -1.656   3.622  0.00  0.00     0.002 A 
ENDROOT
BRANCH   1   7
ATOM      7  C1  UNL d   1       2.613   0.475   2.333  0.00  0.00     0.055 C 
ATOM      8  C   UNL d   1       3.501   0.666   1.112  0.00  0.00     0.019 C 
ENDBRANCH   1   7
TORSDOF 1
ENDMDL
