MODEL 1
REMARK minimizedAffinity 2.97217011
REMARK minimizedRMSD -1
REMARK  1 active torsions:
REMARK  status: ('A' for Active; 'I' for Inactive)
REMARK    1  A    between atoms: C1_2  and  C2_3 
ROOT
ATOM      1  C2  UNL d   1       3.664  -1.952   4.625  0.00  0.00    -0.077 A 
ATOM      2  C3  UNL d   1       3.907  -0.854   3.788  0.00  0.00     0.002 A 
ATOM      3  C4  UNL d   1       2.933  -0.424   2.885  0.00  0.00     0.002 A 
ATOM      4  C5  UNL d   1       1.707  -1.083   2.814  0.00  0.00    -0.004 A 
ATOM      5  C6  UNL d   1       1.456  -2.177   3.641  0.00  0.00     0.002 A 
ATOM      6  C7  UNL d   1       2.430  -2.609   4.543  0.00  0.00     0.002 A 
ENDROOT
BRANCH   1   7
ATOM      7  C1  UNL d   1       4.695  -2.386   5.634  0.00  0.00     0.055 C 
ATOM      8  C   UNL d   1       5.999  -2.782   4.957  0.00  0.00     0.019 C 
ENDBRANCH   1   7
TORSDOF 1
ENDMDL
