MODEL 1
REMARK minimizedAffinity -1.52700758
REMARK minimizedRMSD -1
REMARK  1 active torsions:
REMARK  status: ('A' for Active; 'I' for Inactive)
REMARK    1  A    between atoms: C1_2  and  C2_3 
ROOT
ATOM      1  C2  UNL d   1       4.483  -1.872   4.062  0.00  0.00    -0.077 A 
ATOM      2  C3  UNL d   1       4.302  -1.153   2.872  0.00  0.00     0.002 A 
ATOM      3  C4  UNL d   1       3.033  -0.699   2.507  0.00  0.00     0.002 A 
ATOM      4  C5  UNL d   1       1.937  -0.956   3.329  0.00  0.00    -0.004 A 
ATOM      5  C6  UNL d   1       2.107  -1.671   4.513  0.00  0.00     0.002 A 
ATOM      6  C7  UNL d   1       3.374  -2.127   4.878  0.00  0.00     0.002 A 
ENDROOT
BRANCH   1   7
ATOM      7  C1  UNL d   1       5.859  -2.320   4.481  0.00  0.00     0.055 C 
ATOM      8  C   UNL d   1       5.997  -2.339   5.996  0.00  0.00     0.019 C 
ENDBRANCH   1   7
TORSDOF 1
ENDMDL
