MODEL 1
REMARK minimizedAffinity 2.54055548
REMARK minimizedRMSD -1
REMARK  1 active torsions:
REMARK  status: ('A' for Active; 'I' for Inactive)
REMARK    1  A    between atoms: C1_2  and  C2_3 
ROOT
ATOM      1  C2  UNL d   1       3.536  -2.149   4.295  0.00  0.00    -0.077 A 
ATOM      2  C3  UNL d   1       3.599  -3.002   5.405  0.00  0.00     0.002 A 
ATOM      3  C4  UNL d   1       4.827  -3.297   6.000  0.00  0.00     0.002 A 
ATOM      4  C5  UNL d   1       6.000  -2.740   5.494  0.00  0.00    -0.004 A 
ATOM      5  C6  UNL d   1       5.948  -1.892   4.388  0.00  0.00     0.002 A 
ATOM      6  C7  UNL d   1       4.721  -1.597   3.792  0.00  0.00     0.002 A 
ENDROOT
BRANCH   1   7
ATOM      7  C1  UNL d   1       2.207  -1.790   3.682  0.00  0.00     0.055 C 
ATOM      8  C   UNL d   1       2.356  -0.689   2.642  0.00  0.00     0.019 C 
ENDBRANCH   1   7
TORSDOF 1
ENDMDL
