MODEL 1
REMARK minimizedAffinity -0.742593884
REMARK minimizedRMSD -1
REMARK  1 active torsions:
REMARK  status: ('A' for Active; 'I' for Inactive)
REMARK    1  A    between atoms: C1_2  and  C2_3 
ROOT
ATOM      1  C2  UNL d   1       3.525  -1.985   4.070  0.00  0.00    -0.077 A 
ATOM      2  C3  UNL d   1       3.595  -2.381   5.413  0.00  0.00     0.002 A 
ATOM      3  C4  UNL d   1       4.827  -2.676   5.999  0.00  0.00     0.002 A 
ATOM      4  C5  UNL d   1       5.998  -2.575   5.252  0.00  0.00    -0.004 A 
ATOM      5  C6  UNL d   1       5.939  -2.185   3.915  0.00  0.00     0.002 A 
ATOM      6  C7  UNL d   1       4.709  -1.890   3.327  0.00  0.00     0.002 A 
ENDROOT
BRANCH   1   7
ATOM      7  C1  UNL d   1       2.202  -1.618   3.450  0.00  0.00     0.055 C 
ATOM      8  C   UNL d   1       2.310  -0.340   2.631  0.00  0.00     0.019 C 
ENDBRANCH   1   7
TORSDOF 1
ENDMDL
