MODEL 1
REMARK minimizedAffinity 11.9085588
REMARK minimizedRMSD -1
REMARK  1 active torsions:
REMARK  status: ('A' for Active; 'I' for Inactive)
REMARK    1  A    between atoms: C1_2  and  C2_3 
ROOT
ATOM      1  C2  UNL d   1       4.690  -1.507   2.798  0.00  0.00    -0.077 A 
ATOM      2  C3  UNL d   1       3.477  -1.851   3.411  0.00  0.00     0.002 A 
ATOM      3  C4  UNL d   1       2.264  -1.427   2.864  0.00  0.00     0.002 A 
ATOM      4  C5  UNL d   1       2.253  -0.662   1.699  0.00  0.00    -0.004 A 
ATOM      5  C6  UNL d   1       3.454  -0.313   1.083  0.00  0.00     0.002 A 
ATOM      6  C7  UNL d   1       4.667  -0.734   1.629  0.00  0.00     0.002 A 
ENDROOT
BRANCH   1   7
ATOM      7  C1  UNL d   1       5.997  -2.004   3.359  0.00  0.00     0.055 C 
ATOM      8  C   UNL d   1       5.999  -1.959   4.880  0.00  0.00     0.019 C 
ENDBRANCH   1   7
TORSDOF 1
ENDMDL
