MODEL 1
REMARK minimizedAffinity -1.64189208
REMARK minimizedRMSD -1
REMARK  1 active torsions:
REMARK  status: ('A' for Active; 'I' for Inactive)
REMARK    1  A    between atoms: C1_2  and  C2_3 
ROOT
ATOM      1  C2  UNL d   1       5.594  -0.983  -5.062  0.00  0.00    -0.077 A 
ATOM      2  C3  UNL d   1       4.840  -0.617  -3.938  0.00  0.00     0.002 A 
ATOM      3  C4  UNL d   1       4.448   0.710  -3.751  0.00  0.00     0.002 A 
ATOM      4  C5  UNL d   1       4.802   1.681  -4.686  0.00  0.00    -0.004 A 
ATOM      5  C6  UNL d   1       5.554   1.328  -5.806  0.00  0.00     0.002 A 
ATOM      6  C7  UNL d   1       5.947   0.002  -5.994  0.00  0.00     0.002 A 
ENDROOT
BRANCH   1   7
ATOM      7  C1  UNL d   1       5.975  -2.422  -5.291  0.00  0.00     0.055 C 
ATOM      8  C   UNL d   1       4.822  -3.210  -5.896  0.00  0.00     0.019 C 
ENDBRANCH   1   7
TORSDOF 1
ENDMDL
