MODEL 1
REMARK minimizedAffinity -1.66745508
REMARK minimizedRMSD -1
REMARK  0 active torsions:
REMARK  status: ('A' for Active; 'I' for Inactive)
ROOT
ATOM      1  C   UNL d   1       3.339  -1.795   0.635  0.00  0.00     0.078 C 
ATOM      2  C1  UNL d   1       2.122  -0.974   0.328  0.00  0.00    -0.077 A 
ATOM      3  C2  UNL d   1       2.184   0.425   0.303  0.00  0.00    -0.001 A 
ATOM      4  C3  UNL d   1       1.041   1.177   0.026  0.00  0.00     0.003 A 
ATOM      5  C4  UNL d   1      -0.172   0.540  -0.227  0.00  0.00    -0.005 A 
ATOM      6  C5  UNL d   1      -0.244  -0.852  -0.201  0.00  0.00     0.003 A 
ATOM      7  C6  UNL d   1       0.898  -1.606   0.076  0.00  0.00    -0.001 A 
ENDROOT
TORSDOF 0
ENDMDL
