MODEL 1
REMARK minimizedAffinity -3.59553266
REMARK minimizedRMSD -1
REMARK  0 active torsions:
REMARK  status: ('A' for Active; 'I' for Inactive)
ROOT
ATOM      1  C   UNL d   1       2.366   2.547   0.683  0.00  0.00     0.078 C 
ATOM      2  C1  UNL d   1       1.794   1.173   0.501  0.00  0.00    -0.077 A 
ATOM      3  C2  UNL d   1       2.532   0.034   0.843  0.00  0.00    -0.001 A 
ATOM      4  C3  UNL d   1       1.991  -1.240   0.660  0.00  0.00     0.003 A 
ATOM      5  C4  UNL d   1       0.710  -1.386   0.131  0.00  0.00    -0.005 A 
ATOM      6  C5  UNL d   1      -0.031  -0.258  -0.214  0.00  0.00     0.003 A 
ATOM      7  C6  UNL d   1       0.508   1.016  -0.031  0.00  0.00    -0.001 A 
ENDROOT
TORSDOF 0
ENDMDL
