MODEL 1
REMARK minimizedAffinity -0.114373498
REMARK minimizedRMSD -1
REMARK  0 active torsions:
REMARK  status: ('A' for Active; 'I' for Inactive)
ROOT
ATOM      1  C   UNL d   1      -5.998  -0.748  -0.751  0.00  0.00     0.078 C 
ATOM      2  C1  UNL d   1      -5.000  -0.019   0.099  0.00  0.00    -0.077 A 
ATOM      3  C2  UNL d   1      -3.727   0.296  -0.392  0.00  0.00    -0.001 A 
ATOM      4  C3  UNL d   1      -2.805   0.966   0.413  0.00  0.00     0.003 A 
ATOM      5  C4  UNL d   1      -3.146   1.326   1.716  0.00  0.00    -0.005 A 
ATOM      6  C5  UNL d   1      -4.409   1.015   2.214  0.00  0.00     0.003 A 
ATOM      7  C6  UNL d   1      -5.332   0.344   1.410  0.00  0.00    -0.001 A 
ENDROOT
TORSDOF 0
ENDMDL
