MODEL 1
REMARK minimizedAffinity -1.31977177
REMARK minimizedRMSD -1
REMARK  0 active torsions:
REMARK  status: ('A' for Active; 'I' for Inactive)
ROOT
ATOM      1  C   UNL d   1      -0.707   0.320  -0.070  0.00  0.00     0.078 C 
ATOM      2  C1  UNL d   1      -1.050   0.006  -1.496  0.00  0.00    -0.077 A 
ATOM      3  C2  UNL d   1      -0.826  -1.270  -2.027  0.00  0.00    -0.001 A 
ATOM      4  C3  UNL d   1      -1.141  -1.545  -3.359  0.00  0.00     0.003 A 
ATOM      5  C4  UNL d   1      -1.679  -0.549  -4.171  0.00  0.00    -0.005 A 
ATOM      6  C5  UNL d   1      -1.903   0.724  -3.651  0.00  0.00     0.003 A 
ATOM      7  C6  UNL d   1      -1.589   1.001  -2.320  0.00  0.00    -0.001 A 
ENDROOT
TORSDOF 0
ENDMDL
