MODEL 1
REMARK minimizedAffinity -4.14489222
REMARK minimizedRMSD -1
REMARK  0 active torsions:
REMARK  status: ('A' for Active; 'I' for Inactive)
ROOT
ATOM      1  C   UNL d   1      -2.444   4.106   0.393  0.00  0.00     0.078 C 
ATOM      2  C1  UNL d   1      -1.647   2.838   0.307  0.00  0.00    -0.077 A 
ATOM      3  C2  UNL d   1      -2.204   1.609   0.681  0.00  0.00    -0.001 A 
ATOM      4  C3  UNL d   1      -1.447   0.439   0.606  0.00  0.00     0.003 A 
ATOM      5  C4  UNL d   1      -0.129   0.486   0.157  0.00  0.00    -0.005 A 
ATOM      6  C5  UNL d   1       0.435   1.705  -0.215  0.00  0.00     0.003 A 
ATOM      7  C6  UNL d   1      -0.320   2.876  -0.140  0.00  0.00    -0.001 A 
ENDROOT
TORSDOF 0
ENDMDL
