MODEL 1
REMARK minimizedAffinity 10.9850836
REMARK minimizedRMSD -1
REMARK  3 active torsions:
REMARK  status: ('A' for Active; 'I' for Inactive)
REMARK    1  A    between atoms: C3'_2  and  C2'_3 
REMARK    2  A    between atoms: C2'_3  and  C1'_4 
REMARK    3  A    between atoms: C1'_4  and  C1_5 
ROOT
ATOM      1  C1  N4B d   1       1.418  -4.086  -2.588  0.00  0.00    -0.075 A 
ATOM      2  C2  N4B d   1       2.322  -5.057  -2.105  0.00  0.00     0.002 A 
ATOM      3  C3  N4B d   1       2.841  -5.998  -2.961  0.00  0.00     0.002 A 
ATOM      4  C4  N4B d   1       2.456  -6.000  -4.293  0.00  0.00    -0.004 A 
ATOM      5  C5  N4B d   1       1.601  -5.043  -4.757  0.00  0.00     0.002 A 
ATOM      6  C6  N4B d   1       1.076  -4.088  -3.909  0.00  0.00     0.002 A 
ENDROOT
BRANCH   1   7
ATOM      7  C1' N4B d   1       0.759  -3.090  -1.673  0.00  0.00     0.057 C 
BRANCH   7   8
ATOM      8  C2' N4B d   1      -0.756  -3.195  -1.827  0.00  0.00     0.009 C 
BRANCH   8   9
ATOM      9  C3' N4B d   1      -1.430  -3.622  -0.534  0.00  0.00     0.004 C 
ATOM     10  C4' N4B d   1      -2.699  -4.386  -0.766  0.00  0.00     0.003 C 
ENDBRANCH   8   9
ENDBRANCH   7   8
ENDBRANCH   1   7
TORSDOF 3
ENDMDL
