MODEL 1
REMARK minimizedAffinity 7.93985081
REMARK minimizedRMSD -1
REMARK  3 active torsions:
REMARK  status: ('A' for Active; 'I' for Inactive)
REMARK    1  A    between atoms: C3'_2  and  C2'_3 
REMARK    2  A    between atoms: C2'_3  and  C1'_4 
REMARK    3  A    between atoms: C1'_4  and  C1_5 
ROOT
ATOM      1  C1  N4B d   1       0.222   4.589  -4.693  0.00  0.00    -0.075 A 
ATOM      2  C2  N4B d   1      -0.460   3.695  -3.838  0.00  0.00     0.002 A 
ATOM      3  C3  N4B d   1       0.238   2.978  -2.897  0.00  0.00     0.002 A 
ATOM      4  C4  N4B d   1       1.614   3.123  -2.806  0.00  0.00    -0.004 A 
ATOM      5  C5  N4B d   1       2.261   4.006  -3.619  0.00  0.00     0.002 A 
ATOM      6  C6  N4B d   1       1.572   4.737  -4.566  0.00  0.00     0.002 A 
ENDROOT
BRANCH   1   7
ATOM      7  C1' N4B d   1      -0.486   5.331  -5.793  0.00  0.00     0.057 C 
BRANCH   7   8
ATOM      8  C2' N4B d   1      -1.905   4.786  -5.933  0.00  0.00     0.009 C 
BRANCH   8   9
ATOM      9  C3' N4B d   1      -2.937   5.899  -6.000  0.00  0.00     0.004 C 
ATOM     10  C4' N4B d   1      -3.769   5.995  -4.756  0.00  0.00     0.003 C 
ENDBRANCH   8   9
ENDBRANCH   7   8
ENDBRANCH   1   7
TORSDOF 3
ENDMDL
