MODEL 1
REMARK minimizedAffinity 9.06955147
REMARK minimizedRMSD -1
REMARK  3 active torsions:
REMARK  status: ('A' for Active; 'I' for Inactive)
REMARK    1  A    between atoms: C3'_2  and  C2'_3 
REMARK    2  A    between atoms: C2'_3  and  C1'_4 
REMARK    3  A    between atoms: C1'_4  and  C1_5 
ROOT
ATOM      1  C1  N4B d   1      -2.556  -5.651   1.821  0.00  0.00    -0.075 A 
ATOM      2  C2  N4B d   1      -3.870  -6.000   2.202  0.00  0.00     0.002 A 
ATOM      3  C3  N4B d   1      -4.224  -5.994   3.529  0.00  0.00     0.002 A 
ATOM      4  C4  N4B d   1      -3.280  -5.663   4.490  0.00  0.00    -0.004 A 
ATOM      5  C5  N4B d   1      -2.020  -5.303   4.111  0.00  0.00     0.002 A 
ATOM      6  C6  N4B d   1      -1.651  -5.300   2.781  0.00  0.00     0.002 A 
ENDROOT
BRANCH   1   7
ATOM      7  C1' N4B d   1      -2.098  -5.725   0.390  0.00  0.00     0.057 C 
BRANCH   7   8
ATOM      8  C2' N4B d   1      -1.843  -4.313  -0.129  0.00  0.00     0.009 C 
BRANCH   8   9
ATOM      9  C3' N4B d   1      -1.120  -4.320  -1.464  0.00  0.00     0.004 C 
ATOM     10  C4' N4B d   1       0.057  -3.390  -1.492  0.00  0.00     0.003 C 
ENDBRANCH   8   9
ENDBRANCH   7   8
ENDBRANCH   1   7
TORSDOF 3
ENDMDL
