MODEL 1
REMARK minimizedAffinity 6.85900497
REMARK minimizedRMSD -1
REMARK  3 active torsions:
REMARK  status: ('A' for Active; 'I' for Inactive)
REMARK    1  A    between atoms: C3'_2  and  C2'_3 
REMARK    2  A    between atoms: C2'_3  and  C1'_4 
REMARK    3  A    between atoms: C1'_4  and  C1_5 
ROOT
ATOM      1  C1  N4B d   1       2.005   1.854   2.630  0.00  0.00    -0.075 A 
ATOM      2  C2  N4B d   1       2.319   1.910   4.006  0.00  0.00     0.002 A 
ATOM      3  C3  N4B d   1       3.268   2.793   4.458  0.00  0.00     0.002 A 
ATOM      4  C4  N4B d   1       3.928   3.613   3.555  0.00  0.00    -0.004 A 
ATOM      5  C5  N4B d   1       3.601   3.570   2.231  0.00  0.00     0.002 A 
ATOM      6  C6  N4B d   1       2.646   2.690   1.763  0.00  0.00     0.002 A 
ENDROOT
BRANCH   1   7
ATOM      7  C1' N4B d   1       1.036   0.845   2.078  0.00  0.00     0.057 C 
BRANCH   7   8
ATOM      8  C2' N4B d   1       1.737  -0.504   1.948  0.00  0.00     0.009 C 
BRANCH   8   9
ATOM      9  C3' N4B d   1       2.607  -0.575   0.704  0.00  0.00     0.004 C 
ATOM     10  C4' N4B d   1       3.383  -1.855   0.611  0.00  0.00     0.003 C 
ENDBRANCH   8   9
ENDBRANCH   7   8
ENDBRANCH   1   7
TORSDOF 3
ENDMDL
