MODEL 1
REMARK minimizedAffinity 4.47974586
REMARK minimizedRMSD -1
REMARK  3 active torsions:
REMARK  status: ('A' for Active; 'I' for Inactive)
REMARK    1  A    between atoms: C3'_2  and  C2'_3 
REMARK    2  A    between atoms: C2'_3  and  C1'_4 
REMARK    3  A    between atoms: C1'_4  and  C1_5 
ROOT
ATOM      1  C1  N4B d   1      -2.035  -1.201   2.215  0.00  0.00    -0.075 A 
ATOM      2  C2  N4B d   1      -2.077  -2.456   2.862  0.00  0.00     0.002 A 
ATOM      3  C3  N4B d   1      -3.198  -2.831   3.559  0.00  0.00     0.002 A 
ATOM      4  C4  N4B d   1      -4.278  -1.965   3.640  0.00  0.00    -0.004 A 
ATOM      5  C5  N4B d   1      -4.239  -0.765   2.992  0.00  0.00     0.002 A 
ATOM      6  C6  N4B d   1      -3.120  -0.376   2.283  0.00  0.00     0.002 A 
ENDROOT
BRANCH   1   7
ATOM      7  C1' N4B d   1      -0.798  -0.711   1.513  0.00  0.00     0.057 C 
BRANCH   7   8
ATOM      8  C2' N4B d   1      -0.773   0.814   1.549  0.00  0.00     0.009 C 
BRANCH   8   9
ATOM      9  C3' N4B d   1       0.593   1.351   1.941  0.00  0.00     0.004 C 
ATOM     10  C4' N4B d   1       0.515   2.458   2.949  0.00  0.00     0.003 C 
ENDBRANCH   8   9
ENDBRANCH   7   8
ENDBRANCH   1   7
TORSDOF 3
ENDMDL
