MODEL 1
REMARK minimizedAffinity 4.81295776
REMARK minimizedRMSD -1
REMARK  3 active torsions:
REMARK  status: ('A' for Active; 'I' for Inactive)
REMARK    1  A    between atoms: C3'_2  and  C2'_3 
REMARK    2  A    between atoms: C2'_3  and  C1'_4 
REMARK    3  A    between atoms: C1'_4  and  C1_5 
ROOT
ATOM      1  C1  N4B d   1       5.412   4.494   3.122  0.00  0.00    -0.075 A 
ATOM      2  C2  N4B d   1       4.742   5.697   3.439  0.00  0.00     0.002 A 
ATOM      3  C3  N4B d   1       4.457   5.999   4.748  0.00  0.00     0.002 A 
ATOM      4  C4  N4B d   1       4.813   5.110   5.751  0.00  0.00    -0.004 A 
ATOM      5  C5  N4B d   1       5.482   3.962   5.438  0.00  0.00     0.002 A 
ATOM      6  C6  N4B d   1       5.779   3.648   4.128  0.00  0.00     0.002 A 
ENDROOT
BRANCH   1   7
ATOM      7  C1' N4B d   1       5.668   4.080   1.699  0.00  0.00     0.057 C 
BRANCH   7   8
ATOM      8  C2' N4B d   1       4.850   4.966   0.764  0.00  0.00     0.009 C 
BRANCH   8   9
ATOM      9  C3' N4B d   1       4.792   4.403  -0.646  0.00  0.00     0.004 C 
ATOM     10  C4' N4B d   1       3.391   4.288  -1.168  0.00  0.00     0.003 C 
ENDBRANCH   8   9
ENDBRANCH   7   8
ENDBRANCH   1   7
TORSDOF 3
ENDMDL
