MODEL 1
REMARK minimizedAffinity 11.5313902
REMARK minimizedRMSD -1
REMARK  3 active torsions:
REMARK  status: ('A' for Active; 'I' for Inactive)
REMARK    1  A    between atoms: C3'_2  and  C2'_3 
REMARK    2  A    between atoms: C2'_3  and  C1'_4 
REMARK    3  A    between atoms: C1'_4  and  C1_5 
ROOT
ATOM      1  C1  N4B d   1      -1.132   1.191   0.903  0.00  0.00    -0.075 A 
ATOM      2  C2  N4B d   1      -1.738   0.667   2.066  0.00  0.00     0.002 A 
ATOM      3  C3  N4B d   1      -3.099   0.746   2.226  0.00  0.00     0.002 A 
ATOM      4  C4  N4B d   1      -3.871   1.358   1.249  0.00  0.00    -0.004 A 
ATOM      5  C5  N4B d   1      -3.281   1.838   0.117  0.00  0.00     0.002 A 
ATOM      6  C6  N4B d   1      -1.914   1.763  -0.059  0.00  0.00     0.002 A 
ENDROOT
BRANCH   1   7
ATOM      7  C1' N4B d   1       0.361   1.205   0.723  0.00  0.00     0.057 C 
BRANCH   7   8
ATOM      8  C2' N4B d   1       0.739   2.326  -0.241  0.00  0.00     0.009 C 
BRANCH   8   9
ATOM      9  C3' N4B d   1       2.234   2.596  -0.242  0.00  0.00     0.004 C 
ATOM     10  C4' N4B d   1       2.989   1.678  -1.156  0.00  0.00     0.003 C 
ENDBRANCH   8   9
ENDBRANCH   7   8
ENDBRANCH   1   7
TORSDOF 3
ENDMDL
