MODEL 1
REMARK minimizedAffinity 8.8897686
REMARK minimizedRMSD -1
REMARK  3 active torsions:
REMARK  status: ('A' for Active; 'I' for Inactive)
REMARK    1  A    between atoms: C3'_2  and  C2'_3 
REMARK    2  A    between atoms: C2'_3  and  C1'_4 
REMARK    3  A    between atoms: C1'_4  and  C1_5 
ROOT
ATOM      1  C1  N4B d   1      -4.108   0.559   2.610  0.00  0.00    -0.075 A 
ATOM      2  C2  N4B d   1      -2.722   0.493   2.344  0.00  0.00     0.002 A 
ATOM      3  C3  N4B d   1      -2.234   0.924   1.134  0.00  0.00     0.002 A 
ATOM      4  C4  N4B d   1      -3.111   1.405   0.173  0.00  0.00    -0.004 A 
ATOM      5  C5  N4B d   1      -4.444   1.489   0.448  0.00  0.00     0.002 A 
ATOM      6  C6  N4B d   1      -4.948   1.064   1.660  0.00  0.00     0.002 A 
ENDROOT
BRANCH   1   7
ATOM      7  C1' N4B d   1      -4.698   0.021   3.884  0.00  0.00     0.057 C 
BRANCH   7   8
ATOM      8  C2' N4B d   1      -4.822  -1.496   3.777  0.00  0.00     0.009 C 
BRANCH   8   9
ATOM      9  C3' N4B d   1      -3.614  -2.208   4.360  0.00  0.00     0.004 C 
ATOM     10  C4' N4B d   1      -2.603  -2.585   3.318  0.00  0.00     0.003 C 
ENDBRANCH   8   9
ENDBRANCH   7   8
ENDBRANCH   1   7
TORSDOF 3
ENDMDL
