MODEL 1
REMARK minimizedAffinity 13.8132687
REMARK minimizedRMSD -1
REMARK  3 active torsions:
REMARK  status: ('A' for Active; 'I' for Inactive)
REMARK    1  A    between atoms: C3'_2  and  C2'_3 
REMARK    2  A    between atoms: C2'_3  and  C1'_4 
REMARK    3  A    between atoms: C1'_4  and  C1_5 
ROOT
ATOM      1  C1  N4B d   1       3.771   3.576   4.492  0.00  0.00    -0.075 A 
ATOM      2  C2  N4B d   1       4.981   2.862   4.640  0.00  0.00     0.002 A 
ATOM      3  C3  N4B d   1       6.000   3.386   5.397  0.00  0.00     0.002 A 
ATOM      4  C4  N4B d   1       5.840   4.626   5.997  0.00  0.00    -0.004 A 
ATOM      5  C5  N4B d   1       4.660   5.298   5.870  0.00  0.00     0.002 A 
ATOM      6  C6  N4B d   1       3.626   4.781   5.116  0.00  0.00     0.002 A 
ENDROOT
BRANCH   1   7
ATOM      7  C1' N4B d   1       2.661   3.083   3.605  0.00  0.00     0.057 C 
BRANCH   7   8
ATOM      8  C2' N4B d   1       3.024   3.360   2.149  0.00  0.00     0.009 C 
BRANCH   8   9
ATOM      9  C3' N4B d   1       3.799   4.657   1.992  0.00  0.00     0.004 C 
ATOM     10  C4' N4B d   1       5.166   4.450   1.411  0.00  0.00     0.003 C 
ENDBRANCH   8   9
ENDBRANCH   7   8
ENDBRANCH   1   7
TORSDOF 3
ENDMDL
