MODEL 1
REMARK minimizedAffinity 2.41853523
REMARK minimizedRMSD -1
REMARK  3 active torsions:
REMARK  status: ('A' for Active; 'I' for Inactive)
REMARK    1  A    between atoms: C3'_2  and  C2'_3 
REMARK    2  A    between atoms: C2'_3  and  C1'_4 
REMARK    3  A    between atoms: C1'_4  and  C1_5 
ROOT
ATOM      1  C1  N4B d   1       3.717   3.652  -5.267  0.00  0.00    -0.075 A 
ATOM      2  C2  N4B d   1       4.961   3.101  -5.646  0.00  0.00     0.002 A 
ATOM      3  C3  N4B d   1       5.999   3.928  -5.999  0.00  0.00     0.002 A 
ATOM      4  C4  N4B d   1       5.812   5.302  -5.999  0.00  0.00    -0.004 A 
ATOM      5  C5  N4B d   1       4.615   5.827  -5.607  0.00  0.00     0.002 A 
ATOM      6  C6  N4B d   1       3.565   5.008  -5.245  0.00  0.00     0.002 A 
ENDROOT
BRANCH   1   7
ATOM      7  C1' N4B d   1       2.527   2.786  -4.955  0.00  0.00     0.057 C 
BRANCH   7   8
ATOM      8  C2' N4B d   1       1.631   3.509  -3.954  0.00  0.00     0.009 C 
BRANCH   8   9
ATOM      9  C3' N4B d   1       2.129   3.352  -2.528  0.00  0.00     0.004 C 
ATOM     10  C4' N4B d   1       1.451   4.286  -1.570  0.00  0.00     0.003 C 
ENDBRANCH   8   9
ENDBRANCH   7   8
ENDBRANCH   1   7
TORSDOF 3
ENDMDL
