MODEL 1
REMARK minimizedAffinity 6.04694748
REMARK minimizedRMSD -1
REMARK  3 active torsions:
REMARK  status: ('A' for Active; 'I' for Inactive)
REMARK    1  A    between atoms: C3'_2  and  C2'_3 
REMARK    2  A    between atoms: C2'_3  and  C1'_4 
REMARK    3  A    between atoms: C1'_4  and  C1_5 
ROOT
ATOM      1  C1  N4B d   1      -2.137  -0.904   2.608  0.00  0.00    -0.075 A 
ATOM      2  C2  N4B d   1      -3.048   0.128   2.925  0.00  0.00     0.002 A 
ATOM      3  C3  N4B d   1      -4.270  -0.179   3.471  0.00  0.00     0.002 A 
ATOM      4  C4  N4B d   1      -4.610  -1.505   3.690  0.00  0.00    -0.004 A 
ATOM      5  C5  N4B d   1      -3.715  -2.494   3.405  0.00  0.00     0.002 A 
ATOM      6  C6  N4B d   1      -2.481  -2.201   2.860  0.00  0.00     0.002 A 
ENDROOT
BRANCH   1   7
ATOM      7  C1' N4B d   1      -0.824  -0.624   1.930  0.00  0.00     0.057 C 
BRANCH   7   8
ATOM      8  C2' N4B d   1      -0.481   0.854   2.094  0.00  0.00     0.009 C 
BRANCH   8   9
ATOM      9  C3' N4B d   1      -0.285   1.544   0.755  0.00  0.00     0.004 C 
ATOM     10  C4' N4B d   1       1.032   2.254   0.655  0.00  0.00     0.003 C 
ENDBRANCH   8   9
ENDBRANCH   7   8
ENDBRANCH   1   7
TORSDOF 3
ENDMDL
