MODEL 1
REMARK minimizedAffinity 0.0174605176
REMARK minimizedRMSD -1
REMARK  0 active torsions:
REMARK  status: ('A' for Active; 'I' for Inactive)
ROOT
ATOM      1  C   UNL d   1       1.113   3.790  -3.281  0.00  0.00     0.172 C 
ATOM      2  N   UNL d   1       0.458   4.668  -4.222  0.00  0.00    -0.070 N 
ATOM      3  C1  UNL d   1      -0.822   5.140  -4.115  0.00  0.00    -0.004 A 
ATOM      4  C2  UNL d   1      -1.068   5.944  -5.207  0.00  0.00    -0.047 A 
ATOM      5  C3  UNL d   1       0.105   5.954  -5.998  0.00  0.00    -0.047 A 
ATOM      6  C4  UNL d   1       1.034   5.156  -5.365  0.00  0.00    -0.004 A 
ENDROOT
TORSDOF 0
ENDMDL
