MODEL 1
REMARK minimizedAffinity -0.369426191
REMARK minimizedRMSD -1
REMARK  0 active torsions:
REMARK  status: ('A' for Active; 'I' for Inactive)
ROOT
ATOM      1  C   UNL d   1      -5.999   2.895  -2.277  0.00  0.00     0.172 C 
ATOM      2  N   UNL d   1      -5.382   3.705  -1.253  0.00  0.00    -0.070 N 
ATOM      3  C1  UNL d   1      -4.495   4.726  -1.468  0.00  0.00    -0.004 A 
ATOM      4  C2  UNL d   1      -4.143   5.244  -0.241  0.00  0.00    -0.047 A 
ATOM      5  C3  UNL d   1      -4.840   4.509   0.746  0.00  0.00    -0.047 A 
ATOM      6  C4  UNL d   1      -5.600   3.562   0.092  0.00  0.00    -0.004 A 
ENDROOT
TORSDOF 0
ENDMDL
