MODEL 1
REMARK minimizedAffinity 0.876100481
REMARK minimizedRMSD -1
REMARK  0 active torsions:
REMARK  status: ('A' for Active; 'I' for Inactive)
ROOT
ATOM      1  C   UNL d   1      -5.980   1.101  -5.979  0.00  0.00     0.172 C 
ATOM      2  N   UNL d   1      -5.979   1.468  -4.582  0.00  0.00    -0.070 N 
ATOM      3  C1  UNL d   1      -6.000   2.747  -4.092  0.00  0.00    -0.004 A 
ATOM      4  C2  UNL d   1      -5.991   2.672  -2.716  0.00  0.00    -0.047 A 
ATOM      5  C3  UNL d   1      -5.962   1.301  -2.367  0.00  0.00    -0.047 A 
ATOM      6  C4  UNL d   1      -5.955   0.578  -3.541  0.00  0.00    -0.004 A 
ENDROOT
TORSDOF 0
ENDMDL
