MODEL 1
REMARK minimizedAffinity -0.794670105
REMARK minimizedRMSD -1
REMARK  0 active torsions:
REMARK  status: ('A' for Active; 'I' for Inactive)
ROOT
ATOM      1  C   UNL d   1      -5.998   2.296  -2.516  0.00  0.00     0.172 C 
ATOM      2  N   UNL d   1      -5.514   3.178  -1.481  0.00  0.00    -0.070 N 
ATOM      3  C1  UNL d   1      -4.636   4.214  -1.660  0.00  0.00    -0.004 A 
ATOM      4  C2  UNL d   1      -4.429   4.809  -0.434  0.00  0.00    -0.047 A 
ATOM      5  C3  UNL d   1      -5.208   4.106   0.515  0.00  0.00    -0.047 A 
ATOM      6  C4  UNL d   1      -5.870   3.102  -0.160  0.00  0.00    -0.004 A 
ENDROOT
TORSDOF 0
ENDMDL
