MODEL 1
REMARK minimizedAffinity 1.98566234
REMARK minimizedRMSD -1
REMARK  0 active torsions:
REMARK  status: ('A' for Active; 'I' for Inactive)
ROOT
ATOM      1  C   UNL d   1       1.939   4.127  -3.700  0.00  0.00     0.172 C 
ATOM      2  N   UNL d   1       0.834   4.665  -4.459  0.00  0.00    -0.070 N 
ATOM      3  C1  UNL d   1       0.191   5.847  -4.205  0.00  0.00    -0.004 A 
ATOM      4  C2  UNL d   1      -0.801   6.000  -5.149  0.00  0.00    -0.047 A 
ATOM      5  C3  UNL d   1      -0.753   4.870  -6.000  0.00  0.00    -0.047 A 
ATOM      6  C4  UNL d   1       0.268   4.060  -5.549  0.00  0.00    -0.004 A 
ENDROOT
TORSDOF 0
ENDMDL
