MODEL 1
REMARK minimizedAffinity 1.57688713
REMARK minimizedRMSD -1
REMARK  0 active torsions:
REMARK  status: ('A' for Active; 'I' for Inactive)
ROOT
ATOM      1  C   UNL d   1       2.808   4.131  -4.449  0.00  0.00     0.172 C 
ATOM      2  N   UNL d   1       1.546   4.688  -4.878  0.00  0.00    -0.070 N 
ATOM      3  C1  UNL d   1       0.942   5.797  -4.349  0.00  0.00    -0.004 A 
ATOM      4  C2  UNL d   1      -0.239   5.999  -5.029  0.00  0.00    -0.047 A 
ATOM      5  C3  UNL d   1      -0.349   4.975  -6.000  0.00  0.00    -0.047 A 
ATOM      6  C4  UNL d   1       0.769   4.178  -5.884  0.00  0.00    -0.004 A 
ENDROOT
TORSDOF 0
ENDMDL
