MODEL 1
REMARK minimizedAffinity -0.786710501
REMARK minimizedRMSD -1
REMARK  0 active torsions:
REMARK  status: ('A' for Active; 'I' for Inactive)
ROOT
ATOM      1  C   UNL d   1       1.154   3.741  -2.909  0.00  0.00     0.172 C 
ATOM      2  N   UNL d   1       0.720   4.500  -4.058  0.00  0.00    -0.070 N 
ATOM      3  C1  UNL d   1      -0.550   4.962  -4.276  0.00  0.00    -0.004 A 
ATOM      4  C2  UNL d   1      -0.553   5.637  -5.477  0.00  0.00    -0.047 A 
ATOM      5  C3  UNL d   1       0.760   5.578  -6.000  0.00  0.00    -0.047 A 
ATOM      6  C4  UNL d   1       1.528   4.869  -5.101  0.00  0.00    -0.004 A 
ENDROOT
TORSDOF 0
ENDMDL
