MODEL 1
REMARK minimizedAffinity 1.06582284
REMARK minimizedRMSD -1
REMARK  0 active torsions:
REMARK  status: ('A' for Active; 'I' for Inactive)
ROOT
ATOM      1  C   UNL d   1       1.653   4.580  -3.018  0.00  0.00     0.172 C 
ATOM      2  N   UNL d   1       0.695   4.963  -4.028  0.00  0.00    -0.070 N 
ATOM      3  C1  UNL d   1       0.896   4.904  -5.382  0.00  0.00    -0.004 A 
ATOM      4  C2  UNL d   1      -0.252   5.354  -5.998  0.00  0.00    -0.047 A 
ATOM      5  C3  UNL d   1      -1.174   5.695  -4.980  0.00  0.00    -0.047 A 
ATOM      6  C4  UNL d   1      -0.562   5.443  -3.771  0.00  0.00    -0.004 A 
ENDROOT
TORSDOF 0
ENDMDL
