MODEL 1
REMARK minimizedAffinity -1.28602207
REMARK minimizedRMSD -1
REMARK  0 active torsions:
REMARK  status: ('A' for Active; 'I' for Inactive)
ROOT
ATOM      1  C   UNL d   1      -6.000   2.299  -2.612  0.00  0.00     0.172 C 
ATOM      2  N   UNL d   1      -5.988   1.050  -3.337  0.00  0.00    -0.070 N 
ATOM      3  C1  UNL d   1      -5.998   0.918  -4.700  0.00  0.00    -0.004 A 
ATOM      4  C2  UNL d   1      -5.981  -0.429  -4.993  0.00  0.00    -0.047 A 
ATOM      5  C3  UNL d   1      -5.962  -1.130  -3.764  0.00  0.00    -0.047 A 
ATOM      6  C4  UNL d   1      -5.967  -0.190  -2.755  0.00  0.00    -0.004 A 
ENDROOT
TORSDOF 0
ENDMDL
