MODEL 1
REMARK minimizedAffinity 0.904408991
REMARK minimizedRMSD -1
REMARK  0 active torsions:
REMARK  status: ('A' for Active; 'I' for Inactive)
ROOT
ATOM      1  C   UNL d   1       1.310   4.118  -3.722  0.00  0.00     0.172 C 
ATOM      2  N   UNL d   1       0.228   4.793  -4.400  0.00  0.00    -0.070 N 
ATOM      3  C1  UNL d   1       0.053   4.859  -5.756  0.00  0.00    -0.004 A 
ATOM      4  C2  UNL d   1      -1.091   5.588  -5.999  0.00  0.00    -0.047 A 
ATOM      5  C3  UNL d   1      -1.622   5.973  -4.745  0.00  0.00    -0.047 A 
ATOM      6  C4  UNL d   1      -0.786   5.468  -3.772  0.00  0.00    -0.004 A 
ENDROOT
TORSDOF 0
ENDMDL
