MODEL 1
REMARK minimizedAffinity 0.215769514
REMARK minimizedRMSD -1
REMARK  0 active torsions:
REMARK  status: ('A' for Active; 'I' for Inactive)
ROOT
ATOM      1  C   UNL d   1       2.124   4.639  -3.708  0.00  0.00     0.172 C 
ATOM      2  N   UNL d   1       0.916   4.895  -4.457  0.00  0.00    -0.070 N 
ATOM      3  C1  UNL d   1      -0.277   4.243  -4.295  0.00  0.00    -0.004 A 
ATOM      4  C2  UNL d   1      -1.176   4.777  -5.193  0.00  0.00    -0.047 A 
ATOM      5  C3  UNL d   1      -0.499   5.785  -5.920  0.00  0.00    -0.047 A 
ATOM      6  C4  UNL d   1       0.794   5.837  -5.444  0.00  0.00    -0.004 A 
ENDROOT
TORSDOF 0
ENDMDL
