MODEL 1
REMARK minimizedAffinity -1.21380436
REMARK minimizedRMSD -1
REMARK  0 active torsions:
REMARK  status: ('A' for Active; 'I' for Inactive)
ROOT
ATOM      1  C   UNL d   1       0.618   3.197  -3.112  0.00  0.00     0.172 C 
ATOM      2  N   UNL d   1       0.200   4.063  -4.189  0.00  0.00    -0.070 N 
ATOM      3  C1  UNL d   1       1.022   4.613  -5.136  0.00  0.00    -0.004 A 
ATOM      4  C2  UNL d   1       0.242   5.372  -5.982  0.00  0.00    -0.047 A 
ATOM      5  C3  UNL d   1      -1.094   5.276  -5.526  0.00  0.00    -0.047 A 
ATOM      6  C4  UNL d   1      -1.092   4.460  -4.415  0.00  0.00    -0.004 A 
ENDROOT
TORSDOF 0
ENDMDL
