MODEL 1
REMARK minimizedAffinity -1.51427042
REMARK minimizedRMSD -1
REMARK  0 active torsions:
REMARK  status: ('A' for Active; 'I' for Inactive)
ROOT
ATOM      1  C   UNL d   1      -4.513  -1.128   1.303  0.00  0.00     0.172 C 
ATOM      2  N   UNL d   1      -3.192  -1.236   1.876  0.00  0.00    -0.070 N 
ATOM      3  C1  UNL d   1      -2.602  -0.317   2.702  0.00  0.00    -0.004 A 
ATOM      4  C2  UNL d   1      -1.348  -0.787   3.030  0.00  0.00    -0.047 A 
ATOM      5  C3  UNL d   1      -1.179  -2.032   2.378  0.00  0.00    -0.047 A 
ATOM      6  C4  UNL d   1      -2.335  -2.286   1.671  0.00  0.00    -0.004 A 
ENDROOT
TORSDOF 0
ENDMDL
