MODEL 1
REMARK minimizedAffinity -3.88365054
REMARK minimizedRMSD -1
REMARK  1 active torsions:
REMARK  status: ('A' for Active; 'I' for Inactive)
REMARK    1  A    between atoms: C1_2  and  C2_3 
ROOT
ATOM      1  C2  UNL d   1      -1.247  -1.604  -0.969  0.00  0.00    -0.077 A 
ATOM      2  C3  UNL d   1      -1.748  -2.233  -2.118  0.00  0.00     0.002 A 
ATOM      3  C4  UNL d   1      -2.839  -3.099  -2.030  0.00  0.00     0.002 A 
ATOM      4  C5  UNL d   1      -3.442  -3.341  -0.797  0.00  0.00    -0.004 A 
ATOM      5  C6  UNL d   1      -2.950  -2.721   0.351  0.00  0.00     0.002 A 
ATOM      6  C7  UNL d   1      -1.859  -1.856   0.266  0.00  0.00     0.002 A 
ENDROOT
BRANCH   1   7
ATOM      7  C1  UNL d   1      -0.101  -0.632  -1.069  0.00  0.00     0.055 C 
ATOM      8  C   UNL d   1      -0.123   0.369   0.078  0.00  0.00     0.019 C 
ENDBRANCH   1   7
TORSDOF 1
ENDMDL
