MODEL 1
REMARK minimizedAffinity -2.44156384
REMARK minimizedRMSD -1
REMARK  1 active torsions:
REMARK  status: ('A' for Active; 'I' for Inactive)
REMARK    1  A    between atoms: C1_2  and  C2_3 
ROOT
ATOM      1  C2  UNL d   1      -1.912  -1.952  -1.774  0.00  0.00    -0.077 A 
ATOM      2  C3  UNL d   1      -1.793  -3.343  -1.645  0.00  0.00     0.002 A 
ATOM      3  C4  UNL d   1      -2.019  -4.177  -2.741  0.00  0.00     0.002 A 
ATOM      4  C5  UNL d   1      -2.361  -3.629  -3.976  0.00  0.00    -0.004 A 
ATOM      5  C6  UNL d   1      -2.485  -2.248  -4.115  0.00  0.00     0.002 A 
ATOM      6  C7  UNL d   1      -2.261  -1.413  -3.019  0.00  0.00     0.002 A 
ENDROOT
BRANCH   1   7
ATOM      7  C1  UNL d   1      -1.621  -1.048  -0.605  0.00  0.00     0.055 C 
ATOM      8  C   UNL d   1      -0.181  -0.556  -0.631  0.00  0.00     0.019 C 
ENDBRANCH   1   7
TORSDOF 1
ENDMDL
