MODEL 1
REMARK minimizedAffinity -3.28341103
REMARK minimizedRMSD -1
REMARK  1 active torsions:
REMARK  status: ('A' for Active; 'I' for Inactive)
REMARK    1  A    between atoms: C1_2  and  C2_3 
ROOT
ATOM      1  C2  UNL d   1      -3.224  -3.306  -1.526  0.00  0.00    -0.077 A 
ATOM      2  C3  UNL d   1      -3.134  -3.222  -2.922  0.00  0.00     0.002 A 
ATOM      3  C4  UNL d   1      -2.288  -2.285  -3.520  0.00  0.00     0.002 A 
ATOM      4  C5  UNL d   1      -1.523  -1.431  -2.730  0.00  0.00    -0.004 A 
ATOM      5  C6  UNL d   1      -1.606  -1.506  -1.340  0.00  0.00     0.002 A 
ATOM      6  C7  UNL d   1      -2.452  -2.440  -0.741  0.00  0.00     0.002 A 
ENDROOT
BRANCH   1   7
ATOM      7  C1  UNL d   1      -4.098  -4.348  -0.879  0.00  0.00     0.055 C 
ATOM      8  C   UNL d   1      -5.216  -3.707  -0.069  0.00  0.00     0.019 C 
ENDBRANCH   1   7
TORSDOF 1
ENDMDL
