MODEL 1
REMARK minimizedAffinity -2.03020024
REMARK minimizedRMSD -1
REMARK  1 active torsions:
REMARK  status: ('A' for Active; 'I' for Inactive)
REMARK    1  A    between atoms: C1_2  and  C2_3 
ROOT
ATOM      1  C2  UNL d   1      -1.864  -1.616  -2.088  0.00  0.00    -0.077 A 
ATOM      2  C3  UNL d   1      -1.028  -0.496  -2.188  0.00  0.00     0.002 A 
ATOM      3  C4  UNL d   1      -0.716   0.257  -1.055  0.00  0.00     0.002 A 
ATOM      4  C5  UNL d   1      -1.232  -0.105   0.188  0.00  0.00    -0.004 A 
ATOM      5  C6  UNL d   1      -2.067  -1.216   0.298  0.00  0.00     0.002 A 
ATOM      6  C7  UNL d   1      -2.381  -1.969  -0.834  0.00  0.00     0.002 A 
ENDROOT
BRANCH   1   7
ATOM      7  C1  UNL d   1      -2.162  -2.458  -3.301  0.00  0.00     0.055 C 
ATOM      8  C   UNL d   1      -1.948  -3.937  -3.015  0.00  0.00     0.019 C 
ENDBRANCH   1   7
TORSDOF 1
ENDMDL
