MODEL 1
REMARK minimizedAffinity -1.5598917
REMARK minimizedRMSD -1
REMARK  1 active torsions:
REMARK  status: ('A' for Active; 'I' for Inactive)
REMARK    1  A    between atoms: C1_2  and  C2_3 
ROOT
ATOM      1  C2  UNL d   1      -4.948   5.592   3.297  0.00  0.00    -0.077 A 
ATOM      2  C3  UNL d   1      -3.913   4.807   3.823  0.00  0.00     0.002 A 
ATOM      3  C4  UNL d   1      -3.922   4.437   5.170  0.00  0.00     0.002 A 
ATOM      4  C5  UNL d   1      -4.964   4.844   5.999  0.00  0.00    -0.004 A 
ATOM      5  C6  UNL d   1      -5.997   5.627   5.486  0.00  0.00     0.002 A 
ATOM      6  C7  UNL d   1      -5.990   5.999   4.141  0.00  0.00     0.002 A 
ENDROOT
BRANCH   1   7
ATOM      7  C1  UNL d   1      -4.966   5.951   1.834  0.00  0.00     0.055 C 
ATOM      8  C   UNL d   1      -5.946   5.079   1.063  0.00  0.00     0.019 C 
ENDBRANCH   1   7
TORSDOF 1
ENDMDL
