MODEL 1
REMARK minimizedAffinity 0.314979076
REMARK minimizedRMSD -1
REMARK  1 active torsions:
REMARK  status: ('A' for Active; 'I' for Inactive)
REMARK    1  A    between atoms: C1_2  and  C2_3 
ROOT
ATOM      1  C2  UNL d   1      -4.856   5.352   2.366  0.00  0.00    -0.077 A 
ATOM      2  C3  UNL d   1      -4.197   4.152   2.065  0.00  0.00     0.002 A 
ATOM      3  C4  UNL d   1      -4.315   3.581   0.796  0.00  0.00     0.002 A 
ATOM      4  C5  UNL d   1      -5.087   4.204  -0.181  0.00  0.00    -0.004 A 
ATOM      5  C6  UNL d   1      -5.748   5.397   0.109  0.00  0.00     0.002 A 
ATOM      6  C7  UNL d   1      -5.632   5.969   1.377  0.00  0.00     0.002 A 
ENDROOT
BRANCH   1   7
ATOM      7  C1  UNL d   1      -4.691   5.996   3.718  0.00  0.00     0.055 C 
ATOM      8  C   UNL d   1      -6.000   5.999   4.494  0.00  0.00     0.019 C 
ENDBRANCH   1   7
TORSDOF 1
ENDMDL
