MODEL 1
REMARK minimizedAffinity 3.21754861
REMARK minimizedRMSD -1
REMARK  1 active torsions:
REMARK  status: ('A' for Active; 'I' for Inactive)
REMARK    1  A    between atoms: C1_2  and  C2_3 
ROOT
ATOM      1  C2  UNL d   1      -1.610  -0.283   1.512  0.00  0.00    -0.077 A 
ATOM      2  C3  UNL d   1      -0.613  -0.992   0.827  0.00  0.00     0.002 A 
ATOM      3  C4  UNL d   1      -0.122  -0.521  -0.392  0.00  0.00     0.002 A 
ATOM      4  C5  UNL d   1      -0.617   0.663  -0.934  0.00  0.00    -0.004 A 
ATOM      5  C6  UNL d   1      -1.610   1.375  -0.261  0.00  0.00     0.002 A 
ATOM      6  C7  UNL d   1      -2.103   0.905   0.957  0.00  0.00     0.002 A 
ENDROOT
BRANCH   1   7
ATOM      7  C1  UNL d   1      -2.106  -0.763   2.851  0.00  0.00     0.055 C 
ATOM      8  C   UNL d   1      -2.590   0.396   3.710  0.00  0.00     0.019 C 
ENDBRANCH   1   7
TORSDOF 1
ENDMDL
