MODEL 1
REMARK minimizedAffinity 0.575209498
REMARK minimizedRMSD -1
REMARK  1 active torsions:
REMARK  status: ('A' for Active; 'I' for Inactive)
REMARK    1  A    between atoms: C1_2  and  C2_3 
ROOT
ATOM      1  C2  UNL d   1      -4.175   4.496   3.097  0.00  0.00    -0.077 A 
ATOM      2  C3  UNL d   1      -3.790   4.494   1.748  0.00  0.00     0.002 A 
ATOM      3  C4  UNL d   1      -4.507   5.238   0.809  0.00  0.00     0.002 A 
ATOM      4  C5  UNL d   1      -5.608   5.992   1.207  0.00  0.00    -0.004 A 
ATOM      5  C6  UNL d   1      -6.000   5.999   2.546  0.00  0.00     0.002 A 
ATOM      6  C7  UNL d   1      -5.286   5.255   3.486  0.00  0.00     0.002 A 
ENDROOT
BRANCH   1   7
ATOM      7  C1  UNL d   1      -3.374   3.734   4.120  0.00  0.00     0.055 C 
ATOM      8  C   UNL d   1      -3.713   2.250   4.094  0.00  0.00     0.019 C 
ENDBRANCH   1   7
TORSDOF 1
ENDMDL
