MODEL 1
REMARK minimizedAffinity 3.09688544
REMARK minimizedRMSD -1
REMARK  1 active torsions:
REMARK  status: ('A' for Active; 'I' for Inactive)
REMARK    1  A    between atoms: C1_2  and  C2_3 
ROOT
ATOM      1  C2  UNL d   1      -1.262  -1.182  -0.762  0.00  0.00    -0.077 A 
ATOM      2  C3  UNL d   1      -1.807  -2.448  -1.020  0.00  0.00     0.002 A 
ATOM      3  C4  UNL d   1      -2.580  -2.665  -2.161  0.00  0.00     0.002 A 
ATOM      4  C5  UNL d   1      -2.812  -1.623  -3.057  0.00  0.00    -0.004 A 
ATOM      5  C6  UNL d   1      -2.277  -0.360  -2.809  0.00  0.00     0.002 A 
ATOM      6  C7  UNL d   1      -1.504  -0.140  -1.667  0.00  0.00     0.002 A 
ENDROOT
BRANCH   1   7
ATOM      7  C1  UNL d   1      -0.387  -0.958   0.443  0.00  0.00     0.055 C 
ATOM      8  C   UNL d   1       0.995  -0.464   0.040  0.00  0.00     0.019 C 
ENDBRANCH   1   7
TORSDOF 1
ENDMDL
