MODEL 1
REMARK minimizedAffinity 0.546005309
REMARK minimizedRMSD -1
REMARK  1 active torsions:
REMARK  status: ('A' for Active; 'I' for Inactive)
REMARK    1  A    between atoms: C1_2  and  C2_3 
ROOT
ATOM      1  C2  UNL d   1      -4.808  -3.987  -1.524  0.00  0.00    -0.077 A 
ATOM      2  C3  UNL d   1      -4.451  -2.632  -1.492  0.00  0.00     0.002 A 
ATOM      3  C4  UNL d   1      -3.376  -2.166  -2.253  0.00  0.00     0.002 A 
ATOM      4  C5  UNL d   1      -2.653  -3.049  -3.053  0.00  0.00    -0.004 A 
ATOM      5  C6  UNL d   1      -3.000  -4.399  -3.090  0.00  0.00     0.002 A 
ATOM      6  C7  UNL d   1      -4.073  -4.865  -2.330  0.00  0.00     0.002 A 
ENDROOT
BRANCH   1   7
ATOM      7  C1  UNL d   1      -5.997  -4.481  -0.743  0.00  0.00     0.055 C 
ATOM      8  C   UNL d   1      -6.000  -6.000  -0.640  0.00  0.00     0.019 C 
ENDBRANCH   1   7
TORSDOF 1
ENDMDL
