MODEL 1
REMARK minimizedAffinity 0.3990421
REMARK minimizedRMSD -1
REMARK  1 active torsions:
REMARK  status: ('A' for Active; 'I' for Inactive)
REMARK    1  A    between atoms: C1_2  and  C2_3 
ROOT
ATOM      1  C2  UNL d   1      -5.242   5.895   1.469  0.00  0.00    -0.077 A 
ATOM      2  C3  UNL d   1      -5.999   5.995   2.645  0.00  0.00     0.002 A 
ATOM      3  C4  UNL d   1      -5.373   5.973   3.892  0.00  0.00     0.002 A 
ATOM      4  C5  UNL d   1      -3.987   5.857   3.975  0.00  0.00    -0.004 A 
ATOM      5  C6  UNL d   1      -3.225   5.756   2.812  0.00  0.00     0.002 A 
ATOM      6  C7  UNL d   1      -3.850   5.776   1.564  0.00  0.00     0.002 A 
ENDROOT
BRANCH   1   7
ATOM      7  C1  UNL d   1      -5.912   5.968   0.121  0.00  0.00     0.055 C 
ATOM      8  C   UNL d   1      -5.872   4.623  -0.590  0.00  0.00     0.019 C 
ENDBRANCH   1   7
TORSDOF 1
ENDMDL
