MODEL 1
REMARK minimizedAffinity 9.92389965
REMARK minimizedRMSD -1
REMARK  1 active torsions:
REMARK  status: ('A' for Active; 'I' for Inactive)
REMARK    1  A    between atoms: C1_2  and  C2_3 
ROOT
ATOM      1  C2  UNL d   1      -2.250  -2.012  -1.857  0.00  0.00    -0.077 A 
ATOM      2  C3  UNL d   1      -2.048  -1.532  -3.159  0.00  0.00     0.002 A 
ATOM      3  C4  UNL d   1      -2.434  -2.296  -4.262  0.00  0.00     0.002 A 
ATOM      4  C5  UNL d   1      -3.028  -3.542  -4.075  0.00  0.00    -0.004 A 
ATOM      5  C6  UNL d   1      -3.231  -4.030  -2.785  0.00  0.00     0.002 A 
ATOM      6  C7  UNL d   1      -2.845  -3.268  -1.681  0.00  0.00     0.002 A 
ENDROOT
BRANCH   1   7
ATOM      7  C1  UNL d   1      -1.879  -1.169  -0.666  0.00  0.00     0.055 C 
ATOM      8  C   UNL d   1      -0.407  -0.785  -0.695  0.00  0.00     0.019 C 
ENDBRANCH   1   7
TORSDOF 1
ENDMDL
