MODEL 1
REMARK minimizedAffinity -4.73302126
REMARK minimizedRMSD -1
REMARK  1 active torsions:
REMARK  status: ('A' for Active; 'I' for Inactive)
REMARK    1  A    between atoms: C1_2  and  C2_3 
ROOT
ATOM      1  C2  UNL d   1      -4.928   1.138   4.810  0.00  0.00    -0.077 A 
ATOM      2  C3  UNL d   1      -4.879   1.818   3.586  0.00  0.00     0.002 A 
ATOM      3  C4  UNL d   1      -4.850   3.214   3.554  0.00  0.00     0.002 A 
ATOM      4  C5  UNL d   1      -4.864   3.940   4.743  0.00  0.00    -0.004 A 
ATOM      5  C6  UNL d   1      -4.914   3.272   5.966  0.00  0.00     0.002 A 
ATOM      6  C7  UNL d   1      -4.945   1.877   5.999  0.00  0.00     0.002 A 
ENDROOT
BRANCH   1   7
ATOM      7  C1  UNL d   1      -4.910  -0.368   4.848  0.00  0.00     0.055 C 
ATOM      8  C   UNL d   1      -3.537  -0.915   4.482  0.00  0.00     0.019 C 
ENDBRANCH   1   7
TORSDOF 1
ENDMDL
