MODEL 1
REMARK minimizedAffinity -0.825444996
REMARK minimizedRMSD -1
REMARK  1 active torsions:
REMARK  status: ('A' for Active; 'I' for Inactive)
REMARK    1  A    between atoms: C1_2  and  C2_3 
ROOT
ATOM      1  C2  UNL d   1      -5.308   5.223   2.918  0.00  0.00    -0.077 A 
ATOM      2  C3  UNL d   1      -5.033   5.931   4.096  0.00  0.00     0.002 A 
ATOM      3  C4  UNL d   1      -4.352   5.315   5.148  0.00  0.00     0.002 A 
ATOM      4  C5  UNL d   1      -3.939   3.990   5.032  0.00  0.00    -0.004 A 
ATOM      5  C6  UNL d   1      -4.210   3.276   3.865  0.00  0.00     0.002 A 
ATOM      6  C7  UNL d   1      -4.891   3.890   2.813  0.00  0.00     0.002 A 
ENDROOT
BRANCH   1   7
ATOM      7  C1  UNL d   1      -5.998   5.900   1.763  0.00  0.00     0.055 C 
ATOM      8  C   UNL d   1      -5.082   5.999   0.552  0.00  0.00     0.019 C 
ENDBRANCH   1   7
TORSDOF 1
ENDMDL
