MODEL 1
REMARK minimizedAffinity -2.38790083
REMARK minimizedRMSD -1
REMARK  1 active torsions:
REMARK  status: ('A' for Active; 'I' for Inactive)
REMARK    1  A    between atoms: C1_2  and  C2_3 
ROOT
ATOM      1  C2  UNL d   1      -5.436   5.245   3.342  0.00  0.00    -0.077 A 
ATOM      2  C3  UNL d   1      -4.902   3.951   3.392  0.00  0.00     0.002 A 
ATOM      3  C4  UNL d   1      -4.442   3.423   4.600  0.00  0.00     0.002 A 
ATOM      4  C5  UNL d   1      -4.517   4.181   5.767  0.00  0.00    -0.004 A 
ATOM      5  C6  UNL d   1      -5.045   5.470   5.727  0.00  0.00     0.002 A 
ATOM      6  C7  UNL d   1      -5.504   6.000   4.520  0.00  0.00     0.002 A 
ENDROOT
BRANCH   1   7
ATOM      7  C1  UNL d   1      -5.978   5.798   2.049  0.00  0.00     0.055 C 
ATOM      8  C   UNL d   1      -4.870   5.998   1.025  0.00  0.00     0.019 C 
ENDBRANCH   1   7
TORSDOF 1
ENDMDL
