MODEL 1
REMARK minimizedAffinity -3.83675027
REMARK minimizedRMSD -1
REMARK  1 active torsions:
REMARK  status: ('A' for Active; 'I' for Inactive)
REMARK    1  A    between atoms: C1_2  and  C2_3 
ROOT
ATOM      1  C2  UNL d   1      -4.587   1.167   5.751  0.00  0.00    -0.077 A 
ATOM      2  C3  UNL d   1      -5.648   0.361   5.316  0.00  0.00     0.002 A 
ATOM      3  C4  UNL d   1      -5.464  -1.010   5.132  0.00  0.00     0.002 A 
ATOM      4  C5  UNL d   1      -4.222  -1.588   5.383  0.00  0.00    -0.004 A 
ATOM      5  C6  UNL d   1      -3.159  -0.795   5.814  0.00  0.00     0.002 A 
ATOM      6  C7  UNL d   1      -3.341   0.577   5.998  0.00  0.00     0.002 A 
ENDROOT
BRANCH   1   7
ATOM      7  C1  UNL d   1      -4.797   2.638   5.998  0.00  0.00     0.055 C 
ATOM      8  C   UNL d   1      -4.805   3.423   4.694  0.00  0.00     0.019 C 
ENDBRANCH   1   7
TORSDOF 1
ENDMDL
