MODEL 1
REMARK minimizedAffinity 4.60758972
REMARK minimizedRMSD -1
REMARK  1 active torsions:
REMARK  status: ('A' for Active; 'I' for Inactive)
REMARK    1  A    between atoms: C1_2  and  C2_3 
ROOT
ATOM      1  C2  UNL d   1      -4.453   5.334   2.680  0.00  0.00    -0.077 A 
ATOM      2  C3  UNL d   1      -3.675   4.671   1.721  0.00  0.00     0.002 A 
ATOM      3  C4  UNL d   1      -4.056   4.672   0.378  0.00  0.00     0.002 A 
ATOM      4  C5  UNL d   1      -5.214   5.338  -0.019  0.00  0.00    -0.004 A 
ATOM      5  C6  UNL d   1      -5.997   5.998   0.928  0.00  0.00     0.002 A 
ATOM      6  C7  UNL d   1      -5.617   5.998   2.271  0.00  0.00     0.002 A 
ENDROOT
BRANCH   1   7
ATOM      7  C1  UNL d   1      -4.017   5.376   4.121  0.00  0.00     0.055 C 
ATOM      8  C   UNL d   1      -3.418   4.047   4.557  0.00  0.00     0.019 C 
ENDBRANCH   1   7
TORSDOF 1
ENDMDL
