MODEL 1
REMARK minimizedAffinity -4.13615036
REMARK minimizedRMSD -1
REMARK  1 active torsions:
REMARK  status: ('A' for Active; 'I' for Inactive)
REMARK    1  A    between atoms: C1_2  and  C2_3 
ROOT
ATOM      1  C2  UNL d   1      -4.273   3.324   3.856  0.00  0.00    -0.077 A 
ATOM      2  C3  UNL d   1      -4.749   2.952   5.121  0.00  0.00     0.002 A 
ATOM      3  C4  UNL d   1      -5.273   3.912   5.989  0.00  0.00     0.002 A 
ATOM      4  C5  UNL d   1      -5.329   5.248   5.600  0.00  0.00    -0.004 A 
ATOM      5  C6  UNL d   1      -4.856   5.629   4.345  0.00  0.00     0.002 A 
ATOM      6  C7  UNL d   1      -4.331   4.671   3.477  0.00  0.00     0.002 A 
ENDROOT
BRANCH   1   7
ATOM      7  C1  UNL d   1      -3.753   2.282   2.900  0.00  0.00     0.055 C 
ATOM      8  C   UNL d   1      -3.658   0.917   3.565  0.00  0.00     0.019 C 
ENDBRANCH   1   7
TORSDOF 1
ENDMDL
