MODEL 1
REMARK minimizedAffinity -2.30573988
REMARK minimizedRMSD -1
REMARK  1 active torsions:
REMARK  status: ('A' for Active; 'I' for Inactive)
REMARK    1  A    between atoms: C1_2  and  C2_3 
ROOT
ATOM      1  C2  UNL d   1      -5.331   5.628   3.168  0.00  0.00    -0.077 A 
ATOM      2  C3  UNL d   1      -5.999   6.000   4.343  0.00  0.00     0.002 A 
ATOM      3  C4  UNL d   1      -5.403   5.798   5.589  0.00  0.00     0.002 A 
ATOM      4  C5  UNL d   1      -4.134   5.229   5.673  0.00  0.00    -0.004 A 
ATOM      5  C6  UNL d   1      -3.462   4.854   4.510  0.00  0.00     0.002 A 
ATOM      6  C7  UNL d   1      -4.057   5.053   3.264  0.00  0.00     0.002 A 
ENDROOT
BRANCH   1   7
ATOM      7  C1  UNL d   1      -5.951   5.889   1.821  0.00  0.00     0.055 C 
ATOM      8  C   UNL d   1      -4.891   5.999   0.735  0.00  0.00     0.019 C 
ENDBRANCH   1   7
TORSDOF 1
ENDMDL
