MODEL 1
REMARK minimizedAffinity 16.0575619
REMARK minimizedRMSD -1
REMARK  0 active torsions:
REMARK  status: ('A' for Active; 'I' for Inactive)
ROOT
ATOM      1  C4' PXY d   1      -1.209   1.878  -1.873  0.00  0.00     0.077 C 
ATOM      2  C1' PXY d   1       1.899   6.000   0.728  0.00  0.00     0.077 C 
ATOM      3  C1  PXY d   1       1.092   4.919   0.036  0.00  0.00    -0.082 A 
ATOM      4  C2  PXY d   1      -0.196   4.789   0.307  0.00  0.00     0.003 A 
ATOM      5  C3  PXY d   1      -0.934   3.797  -0.285  0.00  0.00     0.003 A 
ATOM      6  C4  PXY d   1      -0.358   2.962  -1.205  0.00  0.00    -0.082 A 
ATOM      7  C5  PXY d   1       0.954   3.094  -1.495  0.00  0.00     0.003 A 
ATOM      8  C6  PXY d   1       1.694   4.082  -0.852  0.00  0.00     0.003 A 
ENDROOT
TORSDOF 0
ENDMDL
