MODEL 1
REMARK minimizedAffinity 10.9351215
REMARK minimizedRMSD -1
REMARK  0 active torsions:
REMARK  status: ('A' for Active; 'I' for Inactive)
ROOT
ATOM      1  C4' PXY d   1       5.598  -4.862  -5.999  0.00  0.00     0.077 C 
ATOM      2  C1' PXY d   1       0.324  -4.898  -3.632  0.00  0.00     0.077 C 
ATOM      3  C1  PXY d   1       1.706  -4.876  -4.256  0.00  0.00    -0.082 A 
ATOM      4  C2  PXY d   1       2.225  -5.995  -4.736  0.00  0.00     0.003 A 
ATOM      5  C3  PXY d   1       3.486  -5.999  -5.274  0.00  0.00     0.003 A 
ATOM      6  C4  PXY d   1       4.202  -4.836  -5.369  0.00  0.00    -0.082 A 
ATOM      7  C5  PXY d   1       3.675  -3.689  -4.892  0.00  0.00     0.003 A 
ATOM      8  C6  PXY d   1       2.410  -3.713  -4.312  0.00  0.00     0.003 A 
ENDROOT
TORSDOF 0
ENDMDL
