MODEL 1
REMARK minimizedAffinity 11.0240116
REMARK minimizedRMSD -1
REMARK  0 active torsions:
REMARK  status: ('A' for Active; 'I' for Inactive)
ROOT
ATOM      1  C4' PXY d   1       2.305  -6.000  -5.997  0.00  0.00     0.077 C 
ATOM      2  C1' PXY d   1       0.007  -3.385  -1.382  0.00  0.00     0.077 C 
ATOM      3  C1  PXY d   1       0.610  -4.059  -2.599  0.00  0.00    -0.082 A 
ATOM      4  C2  PXY d   1       0.434  -5.358  -2.781  0.00  0.00     0.003 A 
ATOM      5  C3  PXY d   1       0.999  -5.990  -3.859  0.00  0.00     0.003 A 
ATOM      6  C4  PXY d   1       1.707  -5.275  -4.788  0.00  0.00    -0.082 A 
ATOM      7  C5  PXY d   1       1.881  -3.948  -4.615  0.00  0.00     0.003 A 
ATOM      8  C6  PXY d   1       1.334  -3.333  -3.492  0.00  0.00     0.003 A 
ENDROOT
TORSDOF 0
ENDMDL
