MODEL 1
REMARK minimizedAffinity 12.6276197
REMARK minimizedRMSD -1
REMARK  0 active torsions:
REMARK  status: ('A' for Active; 'I' for Inactive)
ROOT
ATOM      1  C4' PXY d   1       4.860  -0.868  -1.227  0.00  0.00     0.077 C 
ATOM      2  C1' PXY d   1       1.131  -4.381   1.451  0.00  0.00     0.077 C 
ATOM      3  C1  PXY d   1       2.105  -3.450   0.756  0.00  0.00    -0.082 A 
ATOM      4  C2  PXY d   1       2.545  -3.749  -0.455  0.00  0.00     0.003 A 
ATOM      5  C3  PXY d   1       3.451  -2.935  -1.085  0.00  0.00     0.003 A 
ATOM      6  C4  PXY d   1       3.869  -1.774  -0.491  0.00  0.00    -0.082 A 
ATOM      7  C5  PXY d   1       3.416  -1.456   0.740  0.00  0.00     0.003 A 
ATOM      8  C6  PXY d   1       2.529  -2.317   1.380  0.00  0.00     0.003 A 
ENDROOT
TORSDOF 0
ENDMDL
