MODEL 1
REMARK minimizedAffinity 3.34530878
REMARK minimizedRMSD -1
REMARK  0 active torsions:
REMARK  status: ('A' for Active; 'I' for Inactive)
ROOT
ATOM      1  C4' PXY d   1      -0.795  -4.442  -2.984  0.00  0.00     0.077 C 
ATOM      2  C1' PXY d   1       3.886  -5.999  -5.997  0.00  0.00     0.077 C 
ATOM      3  C1  PXY d   1       2.661  -5.600  -5.198  0.00  0.00    -0.082 A 
ATOM      4  C2  PXY d   1       1.658  -4.985  -5.803  0.00  0.00     0.003 A 
ATOM      5  C3  PXY d   1       0.556  -4.588  -5.089  0.00  0.00     0.003 A 
ATOM      6  C4  PXY d   1       0.457  -4.872  -3.753  0.00  0.00    -0.082 A 
ATOM      7  C5  PXY d   1       1.472  -5.509  -3.131  0.00  0.00     0.003 A 
ATOM      8  C6  PXY d   1       2.599  -5.866  -3.865  0.00  0.00     0.003 A 
ENDROOT
TORSDOF 0
ENDMDL
