MODEL 1
REMARK minimizedAffinity 13.5821371
REMARK minimizedRMSD -1
REMARK  0 active torsions:
REMARK  status: ('A' for Active; 'I' for Inactive)
ROOT
ATOM      1  C4' PXY d   1       2.080   0.400   1.293  0.00  0.00     0.077 C 
ATOM      2  C1' PXY d   1      -1.833  -2.950   3.916  0.00  0.00     0.077 C 
ATOM      3  C1  PXY d   1      -0.812  -2.061   3.234  0.00  0.00    -0.082 A 
ATOM      4  C2  PXY d   1      -0.257  -2.454   2.099  0.00  0.00     0.003 A 
ATOM      5  C3  PXY d   1       0.692  -1.677   1.486  0.00  0.00     0.003 A 
ATOM      6  C4  PXY d   1       1.038  -0.461   2.012  0.00  0.00    -0.082 A 
ATOM      7  C5  PXY d   1       0.468  -0.049   3.164  0.00  0.00     0.003 A 
ATOM      8  C6  PXY d   1      -0.462  -0.871   3.793  0.00  0.00     0.003 A 
ENDROOT
TORSDOF 0
ENDMDL
