MODEL 1
REMARK minimizedAffinity 5.40644836
REMARK minimizedRMSD -1
REMARK  0 active torsions:
REMARK  status: ('A' for Active; 'I' for Inactive)
ROOT
ATOM      1  C4' PXY d   1       5.404  -1.088  -1.010  0.00  0.00     0.077 C 
ATOM      2  C1' PXY d   1       0.585  -1.161   2.181  0.00  0.00     0.077 C 
ATOM      3  C1  PXY d   1       1.847  -1.129   1.341  0.00  0.00    -0.082 A 
ATOM      4  C2  PXY d   1       2.306  -2.249   0.808  0.00  0.00     0.003 A 
ATOM      5  C3  PXY d   1       3.463  -2.244   0.073  0.00  0.00     0.003 A 
ATOM      6  C4  PXY d   1       4.129  -1.071  -0.163  0.00  0.00    -0.082 A 
ATOM      7  C5  PXY d   1       3.661   0.078   0.369  0.00  0.00     0.003 A 
ATOM      8  C6  PXY d   1       2.507   0.045   1.146  0.00  0.00     0.003 A 
ENDROOT
TORSDOF 0
ENDMDL
