MODEL 1
REMARK minimizedAffinity 13.1447239
REMARK minimizedRMSD -1
REMARK  0 active torsions:
REMARK  status: ('A' for Active; 'I' for Inactive)
ROOT
ATOM      1  C4' PXY d   1      -4.500  -6.000  -1.233  0.00  0.00     0.077 C 
ATOM      2  C1' PXY d   1      -2.243  -3.422   3.424  0.00  0.00     0.077 C 
ATOM      3  C1  PXY d   1      -2.825  -4.106   2.202  0.00  0.00    -0.082 A 
ATOM      4  C2  PXY d   1      -3.709  -3.467   1.453  0.00  0.00     0.003 A 
ATOM      5  C3  PXY d   1      -4.268  -4.082   0.363  0.00  0.00     0.003 A 
ATOM      6  C4  PXY d   1      -3.880  -5.345   0.005  0.00  0.00    -0.082 A 
ATOM      7  C5  PXY d   1      -2.971  -6.000   0.758  0.00  0.00     0.003 A 
ATOM      8  C6  PXY d   1      -2.445  -5.373   1.884  0.00  0.00     0.003 A 
ENDROOT
TORSDOF 0
ENDMDL
