MODEL 1
REMARK minimizedAffinity 14.1349583
REMARK minimizedRMSD -1
REMARK  0 active torsions:
REMARK  status: ('A' for Active; 'I' for Inactive)
ROOT
ATOM      1  C4' PXY d   1       2.204   0.516   2.161  0.00  0.00     0.077 C 
ATOM      2  C1' PXY d   1      -2.082  -2.969   3.863  0.00  0.00     0.077 C 
ATOM      3  C1  PXY d   1      -0.963  -2.045   3.424  0.00  0.00    -0.082 A 
ATOM      4  C2  PXY d   1      -0.319  -2.289   2.294  0.00  0.00     0.003 A 
ATOM      5  C3  PXY d   1       0.717  -1.483   1.898  0.00  0.00     0.003 A 
ATOM      6  C4  PXY d   1       1.062  -0.384   2.639  0.00  0.00    -0.082 A 
ATOM      7  C5  PXY d   1       0.403  -0.123   3.788  0.00  0.00     0.003 A 
ATOM      8  C6  PXY d   1      -0.618  -0.977   4.193  0.00  0.00     0.003 A 
ENDROOT
TORSDOF 0
ENDMDL
