MODEL 1
REMARK minimizedAffinity 5.67247152
REMARK minimizedRMSD -1
REMARK  0 active torsions:
REMARK  status: ('A' for Active; 'I' for Inactive)
ROOT
ATOM      1  C4' PXY d   1       2.511  -4.141  -0.824  0.00  0.00     0.077 C 
ATOM      2  C1' PXY d   1       0.581  -6.000  -5.946  0.00  0.00     0.077 C 
ATOM      3  C1  PXY d   1       1.080  -5.501  -4.604  0.00  0.00    -0.082 A 
ATOM      4  C2  PXY d   1       2.195  -6.000  -4.095  0.00  0.00     0.003 A 
ATOM      5  C3  PXY d   1       2.644  -5.584  -2.868  0.00  0.00     0.003 A 
ATOM      6  C4  PXY d   1       1.974  -4.608  -2.180  0.00  0.00    -0.082 A 
ATOM      7  C5  PXY d   1       0.841  -4.087  -2.698  0.00  0.00     0.003 A 
ATOM      8  C6  PXY d   1       0.380  -4.552  -3.925  0.00  0.00     0.003 A 
ENDROOT
TORSDOF 0
ENDMDL
