MODEL 1
REMARK minimizedAffinity 11.4611645
REMARK minimizedRMSD -1
REMARK  0 active torsions:
REMARK  status: ('A' for Active; 'I' for Inactive)
ROOT
ATOM      1  C4' PXY d   1       1.326   2.917  -1.548  0.00  0.00     0.077 C 
ATOM      2  C1' PXY d   1      -4.431   2.439  -1.767  0.00  0.00     0.077 C 
ATOM      3  C1  PXY d   1      -2.922   2.570  -1.698  0.00  0.00    -0.082 A 
ATOM      4  C2  PXY d   1      -2.217   2.615  -2.816  0.00  0.00     0.003 A 
ATOM      5  C3  PXY d   1      -0.850   2.701  -2.772  0.00  0.00     0.003 A 
ATOM      6  C4  PXY d   1      -0.200   2.795  -1.570  0.00  0.00    -0.082 A 
ATOM      7  C5  PXY d   1      -0.913   2.760  -0.424  0.00  0.00     0.003 A 
ATOM      8  C6  PXY d   1      -2.297   2.631  -0.490  0.00  0.00     0.003 A 
ENDROOT
TORSDOF 0
ENDMDL
