MODEL 1
REMARK minimizedAffinity 2.14612174
REMARK minimizedRMSD -1
REMARK  0 active torsions:
REMARK  status: ('A' for Active; 'I' for Inactive)
ROOT
ATOM      1  C4' PXY d   1      -1.867  -2.256   6.000  0.00  0.00     0.077 C 
ATOM      2  C1' PXY d   1       1.664  -1.051   1.585  0.00  0.00     0.077 C 
ATOM      3  C1  PXY d   1       0.747  -1.362   2.751  0.00  0.00    -0.082 A 
ATOM      4  C2  PXY d   1      -0.147  -2.331   2.640  0.00  0.00     0.003 A 
ATOM      5  C3  PXY d   1      -1.005  -2.605   3.673  0.00  0.00     0.003 A 
ATOM      6  C4  PXY d   1      -0.914  -1.914   4.852  0.00  0.00    -0.082 A 
ATOM      7  C5  PXY d   1       0.002  -0.930   4.976  0.00  0.00     0.003 A 
ATOM      8  C6  PXY d   1       0.837  -0.640   3.901  0.00  0.00     0.003 A 
ENDROOT
TORSDOF 0
ENDMDL
