MODEL 1
REMARK minimizedAffinity 3.15007329
REMARK minimizedRMSD -1
REMARK  0 active torsions:
REMARK  status: ('A' for Active; 'I' for Inactive)
ROOT
ATOM      1  C4' PXY d   1      -5.412  -4.823   5.268  0.00  0.00     0.077 C 
ATOM      2  C1' PXY d   1      -4.734  -4.856  -0.472  0.00  0.00     0.077 C 
ATOM      3  C1  PXY d   1      -4.920  -4.858   1.032  0.00  0.00    -0.082 A 
ATOM      4  C2  PXY d   1      -4.705  -3.748   1.719  0.00  0.00     0.003 A 
ATOM      5  C3  PXY d   1      -4.838  -3.740   3.084  0.00  0.00     0.003 A 
ATOM      6  C4  PXY d   1      -5.246  -4.866   3.747  0.00  0.00    -0.082 A 
ATOM      7  C5  PXY d   1      -5.478  -6.000   3.052  0.00  0.00     0.003 A 
ATOM      8  C6  PXY d   1      -5.298  -5.998   1.672  0.00  0.00     0.003 A 
ENDROOT
TORSDOF 0
ENDMDL
