MODEL 1
REMARK minimizedAffinity 10.7443638
REMARK minimizedRMSD -1
REMARK  0 active torsions:
REMARK  status: ('A' for Active; 'I' for Inactive)
ROOT
ATOM      1  C4' PXY d   1       5.279  -4.133  -5.999  0.00  0.00     0.077 C 
ATOM      2  C1' PXY d   1       4.879  -0.102  -1.875  0.00  0.00     0.077 C 
ATOM      3  C1  PXY d   1       4.971  -1.157  -2.960  0.00  0.00    -0.082 A 
ATOM      4  C2  PXY d   1       5.881  -2.113  -2.867  0.00  0.00     0.003 A 
ATOM      5  C3  PXY d   1       6.000  -3.056  -3.855  0.00  0.00     0.003 A 
ATOM      6  C4  PXY d   1       5.143  -3.052  -4.923  0.00  0.00    -0.082 A 
ATOM      7  C5  PXY d   1       4.205  -2.087  -5.020  0.00  0.00     0.003 A 
ATOM      8  C6  PXY d   1       4.128  -1.114  -4.027  0.00  0.00     0.003 A 
ENDROOT
TORSDOF 0
ENDMDL
