MODEL 1
REMARK minimizedAffinity 12.8857841
REMARK minimizedRMSD -1
REMARK  0 active torsions:
REMARK  status: ('A' for Active; 'I' for Inactive)
ROOT
ATOM      1  C4' PXY d   1       3.390  -0.608  -1.068  0.00  0.00     0.077 C 
ATOM      2  C1' PXY d   1       5.955  -2.210  -5.995  0.00  0.00     0.077 C 
ATOM      3  C1  PXY d   1       5.291  -1.797  -4.696  0.00  0.00    -0.082 A 
ATOM      4  C2  PXY d   1       4.022  -1.422  -4.700  0.00  0.00     0.003 A 
ATOM      5  C3  PXY d   1       3.415  -1.014  -3.540  0.00  0.00     0.003 A 
ATOM      6  C4  PXY d   1       4.099  -1.042  -2.354  0.00  0.00    -0.082 A 
ATOM      7  C5  PXY d   1       5.390  -1.434  -2.340  0.00  0.00     0.003 A 
ATOM      8  C6  PXY d   1       6.000  -1.804  -3.535  0.00  0.00     0.003 A 
ENDROOT
TORSDOF 0
ENDMDL
