MODEL 1
REMARK minimizedAffinity -3.14982247
REMARK minimizedRMSD -1
REMARK  0 active torsions:
REMARK  status: ('A' for Active; 'I' for Inactive)
ROOT
ATOM      1  C4' PXY d   1       3.745  -1.905   0.382  0.00  0.00     0.077 C 
ATOM      2  C1' PXY d   1      -1.495  -2.051   2.818  0.00  0.00     0.077 C 
ATOM      3  C1  PXY d   1      -0.119  -2.025   2.183  0.00  0.00    -0.082 A 
ATOM      4  C2  PXY d   1       0.510  -0.871   2.030  0.00  0.00     0.003 A 
ATOM      5  C3  PXY d   1       1.741  -0.826   1.429  0.00  0.00     0.003 A 
ATOM      6  C4  PXY d   1       2.359  -1.980   1.027  0.00  0.00    -0.082 A 
ATOM      7  C5  PXY d   1       1.729  -3.162   1.189  0.00  0.00     0.003 A 
ATOM      8  C6  PXY d   1       0.461  -3.182   1.764  0.00  0.00     0.003 A 
ENDROOT
TORSDOF 0
ENDMDL
