MODEL 1
REMARK minimizedAffinity 15.4599981
REMARK minimizedRMSD -1
REMARK  0 active torsions:
REMARK  status: ('A' for Active; 'I' for Inactive)
ROOT
ATOM      1  C4' PXY d   1       1.280   2.393   0.081  0.00  0.00     0.077 C 
ATOM      2  C1' PXY d   1      -2.092   3.561  -4.467  0.00  0.00     0.077 C 
ATOM      3  C1  PXY d   1      -1.200   3.265  -3.277  0.00  0.00    -0.082 A 
ATOM      4  C2  PXY d   1      -1.099   2.025  -2.828  0.00  0.00     0.003 A 
ATOM      5  C3  PXY d   1      -0.323   1.745  -1.733  0.00  0.00     0.003 A 
ATOM      6  C4  PXY d   1       0.399   2.736  -1.124  0.00  0.00    -0.082 A 
ATOM      7  C5  PXY d   1       0.310   4.003  -1.583  0.00  0.00     0.003 A 
ATOM      8  C6  PXY d   1      -0.516   4.273  -2.670  0.00  0.00     0.003 A 
ENDROOT
TORSDOF 0
ENDMDL
