MODEL 1
REMARK minimizedAffinity 15.1511698
REMARK minimizedRMSD -1
REMARK  0 active torsions:
REMARK  status: ('A' for Active; 'I' for Inactive)
ROOT
ATOM      1  C4' PXY d   1       0.364   3.194  -0.435  0.00  0.00     0.077 C 
ATOM      2  C1' PXY d   1      -2.618   4.255  -5.272  0.00  0.00     0.077 C 
ATOM      3  C1  PXY d   1      -1.844   3.967  -4.001  0.00  0.00    -0.082 A 
ATOM      4  C2  PXY d   1      -1.118   4.924  -3.445  0.00  0.00     0.003 A 
ATOM      5  C3  PXY d   1      -0.387   4.672  -2.313  0.00  0.00     0.003 A 
ATOM      6  C4  PXY d   1      -0.441   3.442  -1.713  0.00  0.00    -0.082 A 
ATOM      7  C5  PXY d   1      -1.188   2.464  -2.268  0.00  0.00     0.003 A 
ATOM      8  C6  PXY d   1      -1.890   2.728  -3.440  0.00  0.00     0.003 A 
ENDROOT
TORSDOF 0
ENDMDL
