MODEL 1
REMARK minimizedAffinity 13.7597275
REMARK minimizedRMSD -1
REMARK  0 active torsions:
REMARK  status: ('A' for Active; 'I' for Inactive)
ROOT
ATOM      1  C4' PXY d   1       4.242   0.131  -2.440  0.00  0.00     0.077 C 
ATOM      2  C1' PXY d   1       3.020  -0.023   3.208  0.00  0.00     0.077 C 
ATOM      3  C1  PXY d   1       3.346   0.006   1.727  0.00  0.00    -0.082 A 
ATOM      4  C2  PXY d   1       3.455   1.168   1.104  0.00  0.00     0.003 A 
ATOM      5  C3  PXY d   1       3.718   1.211  -0.241  0.00  0.00     0.003 A 
ATOM      6  C4  PXY d   1       3.924   0.055  -0.944  0.00  0.00    -0.082 A 
ATOM      7  C5  PXY d   1       3.824  -1.135  -0.313  0.00  0.00     0.003 A 
ATOM      8  C6  PXY d   1       3.516  -1.158   1.044  0.00  0.00     0.003 A 
ENDROOT
TORSDOF 0
ENDMDL
