MODEL 1
REMARK minimizedAffinity 11.5797167
REMARK minimizedRMSD -1
REMARK  0 active torsions:
REMARK  status: ('A' for Active; 'I' for Inactive)
ROOT
ATOM      1  C4' PXY d   1       2.719   1.238   1.125  0.00  0.00     0.077 C 
ATOM      2  C1' PXY d   1       0.012   6.000  -0.724  0.00  0.00     0.077 C 
ATOM      3  C1  PXY d   1       0.712   4.744  -0.243  0.00  0.00    -0.082 A 
ATOM      4  C2  PXY d   1       1.605   4.824   0.729  0.00  0.00     0.003 A 
ATOM      5  C3  PXY d   1       2.271   3.703   1.154  0.00  0.00     0.003 A 
ATOM      6  C4  PXY d   1       1.981   2.479   0.614  0.00  0.00    -0.082 A 
ATOM      7  C5  PXY d   1       1.062   2.387  -0.371  0.00  0.00     0.003 A 
ATOM      8  C6  PXY d   1       0.428   3.543  -0.816  0.00  0.00     0.003 A 
ENDROOT
TORSDOF 0
ENDMDL
