MODEL 1
REMARK minimizedAffinity 15.8996563
REMARK minimizedRMSD -1
REMARK  0 active torsions:
REMARK  status: ('A' for Active; 'I' for Inactive)
ROOT
ATOM      1  C   UNL d   1       1.104   2.685   1.763  0.00  0.00     0.124 A 
ATOM      2  C1  UNL d   1       1.785   1.652   1.133  0.00  0.00     0.062 A 
ATOM      3  C2  UNL d   1       1.243   1.042   0.006  0.00  0.00     0.162 A 
ATOM      4  C3  UNL d   1       0.014   1.464  -0.501  0.00  0.00    -0.034 A 
ATOM      5  C4  UNL d   1      -0.665   2.503   0.139  0.00  0.00     0.162 A 
ATOM      6  C5  UNL d   1      -0.120   3.109   1.265  0.00  0.00     0.062 A 
ATOM      7  F   UNL d   1      -0.778   4.107   1.872  0.00  0.00    -0.097 F 
ATOM      8  F1  UNL d   1      -1.849   2.933  -0.322  0.00  0.00    -0.096 F 
ATOM      9  I   UNL d   1      -0.800   0.554  -2.187  0.00  0.00    -0.060 I 
ATOM     10  F2  UNL d   1       1.923   0.046  -0.582  0.00  0.00    -0.096 F 
ATOM     11  F3  UNL d   1       2.967   1.240   1.613  0.00  0.00    -0.097 F 
ATOM     12  F4  UNL d   1       1.627   3.270   2.849  0.00  0.00    -0.092 F 
ENDROOT
TORSDOF 0
ENDMDL
