MODEL 1
REMARK minimizedAffinity 18.3445263
REMARK minimizedRMSD -1
REMARK  0 active torsions:
REMARK  status: ('A' for Active; 'I' for Inactive)
ROOT
ATOM      1  C   UNL d   1      -4.836   1.634   1.805  0.00  0.00     0.124 A 
ATOM      2  C1  UNL d   1      -3.817   2.470   2.241  0.00  0.00     0.062 A 
ATOM      3  C2  UNL d   1      -2.608   2.518   1.554  0.00  0.00     0.162 A 
ATOM      4  C3  UNL d   1      -2.411   1.728   0.421  0.00  0.00    -0.034 A 
ATOM      5  C4  UNL d   1      -3.440   0.889  -0.011  0.00  0.00     0.162 A 
ATOM      6  C5  UNL d   1      -4.647   0.845   0.679  0.00  0.00     0.062 A 
ATOM      7  F   UNL d   1      -5.630   0.037   0.256  0.00  0.00    -0.097 F 
ATOM      8  F1  UNL d   1      -3.284   0.116  -1.096  0.00  0.00    -0.096 F 
ATOM      9  I   UNL d   1      -0.604   1.796  -0.609  0.00  0.00    -0.060 I 
ATOM     10  F2  UNL d   1      -1.641   3.334   1.999  0.00  0.00    -0.096 F 
ATOM     11  F3  UNL d   1      -3.998   3.233   3.329  0.00  0.00    -0.097 F 
ATOM     12  F4  UNL d   1      -5.998   1.590   2.469  0.00  0.00    -0.092 F 
ENDROOT
TORSDOF 0
ENDMDL
