MODEL 1
REMARK minimizedAffinity 9.65493298
REMARK minimizedRMSD -1
REMARK  0 active torsions:
REMARK  status: ('A' for Active; 'I' for Inactive)
ROOT
ATOM      1  C   UNL d   1      -4.282   2.445   1.777  0.00  0.00     0.124 A 
ATOM      2  C1  UNL d   1      -3.400   3.515   1.825  0.00  0.00     0.062 A 
ATOM      3  C2  UNL d   1      -2.227   3.490   1.075  0.00  0.00     0.162 A 
ATOM      4  C3  UNL d   1      -1.931   2.390   0.270  0.00  0.00    -0.034 A 
ATOM      5  C4  UNL d   1      -2.823   1.317   0.227  0.00  0.00     0.162 A 
ATOM      6  C5  UNL d   1      -3.993   1.347   0.979  0.00  0.00     0.062 A 
ATOM      7  F   UNL d   1      -4.845   0.313   0.931  0.00  0.00    -0.097 F 
ATOM      8  F1  UNL d   1      -2.569   0.245  -0.537  0.00  0.00    -0.096 F 
ATOM      9  I   UNL d   1      -0.179   2.349  -0.853  0.00  0.00    -0.060 I 
ATOM     10  F2  UNL d   1      -1.393   4.538   1.141  0.00  0.00    -0.096 F 
ATOM     11  F3  UNL d   1      -3.676   4.576   2.597  0.00  0.00    -0.097 F 
ATOM     12  F4  UNL d   1      -5.409   2.471   2.501  0.00  0.00    -0.092 F 
ENDROOT
TORSDOF 0
ENDMDL
