MODEL 1
REMARK minimizedAffinity 17.218256
REMARK minimizedRMSD -1
REMARK  0 active torsions:
REMARK  status: ('A' for Active; 'I' for Inactive)
ROOT
ATOM      1  C   UNL d   1       3.764  -1.044   0.968  0.00  0.00     0.124 A 
ATOM      2  C1  UNL d   1       3.720   0.240   1.493  0.00  0.00     0.062 A 
ATOM      3  C2  UNL d   1       2.770   1.150   1.038  0.00  0.00     0.162 A 
ATOM      4  C3  UNL d   1       1.855   0.779   0.053  0.00  0.00    -0.034 A 
ATOM      5  C4  UNL d   1       1.907  -0.514  -0.471  0.00  0.00     0.162 A 
ATOM      6  C5  UNL d   1       2.858  -1.420  -0.013  0.00  0.00     0.062 A 
ATOM      7  F   UNL d   1       2.899  -2.660  -0.522  0.00  0.00    -0.097 F 
ATOM      8  F1  UNL d   1       1.042  -0.904  -1.420  0.00  0.00    -0.096 F 
ATOM      9  I   UNL d   1       0.434   2.137  -0.630  0.00  0.00    -0.060 I 
ATOM     10  F2  UNL d   1       2.751   2.384   1.564  0.00  0.00    -0.096 F 
ATOM     11  F3  UNL d   1       4.595   0.606   2.441  0.00  0.00    -0.097 F 
ATOM     12  F4  UNL d   1       4.680  -1.918   1.407  0.00  0.00    -0.092 F 
ENDROOT
TORSDOF 0
ENDMDL
