MODEL 1
REMARK minimizedAffinity 10.9334574
REMARK minimizedRMSD -1
REMARK  0 active torsions:
REMARK  status: ('A' for Active; 'I' for Inactive)
ROOT
ATOM      1  C   UNL d   1       0.226   2.731   1.644  0.00  0.00     0.124 A 
ATOM      2  C1  UNL d   1      -0.237   1.675   2.417  0.00  0.00     0.062 A 
ATOM      3  C2  UNL d   1       0.262   0.391   2.218  0.00  0.00     0.162 A 
ATOM      4  C3  UNL d   1       1.230   0.156   1.242  0.00  0.00    -0.034 A 
ATOM      5  C4  UNL d   1       1.689   1.222   0.467  0.00  0.00     0.162 A 
ATOM      6  C5  UNL d   1       1.188   2.504   0.670  0.00  0.00     0.062 A 
ATOM      7  F   UNL d   1       1.635   3.523  -0.078  0.00  0.00    -0.097 F 
ATOM      8  F1  UNL d   1       2.619   1.031  -0.480  0.00  0.00    -0.096 F 
ATOM      9  I   UNL d   1       1.978  -1.763   0.941  0.00  0.00    -0.060 I 
ATOM     10  F2  UNL d   1      -0.203  -0.610   2.980  0.00  0.00    -0.096 F 
ATOM     11  F3  UNL d   1      -1.167   1.892   3.358  0.00  0.00    -0.097 F 
ATOM     12  F4  UNL d   1      -0.257   3.966   1.837  0.00  0.00    -0.092 F 
ENDROOT
TORSDOF 0
ENDMDL
