MODEL 1
REMARK minimizedAffinity 4.59611654
REMARK minimizedRMSD -1
REMARK  0 active torsions:
REMARK  status: ('A' for Active; 'I' for Inactive)
ROOT
ATOM      1  C   UNL d   1      -4.318   0.463  -0.241  0.00  0.00     0.124 A 
ATOM      2  C1  UNL d   1      -3.421   0.398  -1.299  0.00  0.00     0.062 A 
ATOM      3  C2  UNL d   1      -2.088   0.749  -1.109  0.00  0.00     0.162 A 
ATOM      4  C3  UNL d   1      -1.642   1.168   0.144  0.00  0.00    -0.034 A 
ATOM      5  C4  UNL d   1      -2.549   1.232   1.203  0.00  0.00     0.162 A 
ATOM      6  C5  UNL d   1      -3.881   0.880   1.009  0.00  0.00     0.062 A 
ATOM      7  F   UNL d   1      -4.746   0.944   2.032  0.00  0.00    -0.097 F 
ATOM      8  F1  UNL d   1      -2.154   1.630   2.421  0.00  0.00    -0.096 F 
ATOM      9  I   UNL d   1       0.351   1.693   0.432  0.00  0.00    -0.060 I 
ATOM     10  F2  UNL d   1      -1.244   0.676  -2.149  0.00  0.00    -0.096 F 
ATOM     11  F3  UNL d   1      -3.841  -0.004  -2.507  0.00  0.00    -0.097 F 
ATOM     12  F4  UNL d   1      -5.600   0.126  -0.427  0.00  0.00    -0.092 F 
ENDROOT
TORSDOF 0
ENDMDL
