MODEL 1
REMARK minimizedAffinity 16.5450153
REMARK minimizedRMSD -1
REMARK  0 active torsions:
REMARK  status: ('A' for Active; 'I' for Inactive)
ROOT
ATOM      1  C   UNL d   1      -4.830   1.634   1.864  0.00  0.00     0.124 A 
ATOM      2  C1  UNL d   1      -3.778   2.443   2.271  0.00  0.00     0.062 A 
ATOM      3  C2  UNL d   1      -2.564   2.408   1.591  0.00  0.00     0.162 A 
ATOM      4  C3  UNL d   1      -2.395   1.561   0.496  0.00  0.00    -0.034 A 
ATOM      5  C4  UNL d   1      -3.457   0.750   0.093  0.00  0.00     0.162 A 
ATOM      6  C5  UNL d   1      -4.669   0.788   0.775  0.00  0.00     0.062 A 
ATOM      7  F   UNL d   1      -5.684   0.006   0.380  0.00  0.00    -0.097 F 
ATOM      8  F1  UNL d   1      -3.329  -0.076  -0.956  0.00  0.00    -0.096 F 
ATOM      9  I   UNL d   1      -0.581   1.505  -0.523  0.00  0.00    -0.060 I 
ATOM     10  F2  UNL d   1      -1.565   3.200   2.007  0.00  0.00    -0.096 F 
ATOM     11  F3  UNL d   1      -3.931   3.260   3.323  0.00  0.00    -0.097 F 
ATOM     12  F4  UNL d   1      -5.997   1.669   2.520  0.00  0.00    -0.092 F 
ENDROOT
TORSDOF 0
ENDMDL
