MODEL 1
REMARK minimizedAffinity 8.18741226
REMARK minimizedRMSD -1
REMARK  0 active torsions:
REMARK  status: ('A' for Active; 'I' for Inactive)
ROOT
ATOM      1  C   UNL d   1       3.164  -0.280   0.546  0.00  0.00     0.124 A 
ATOM      2  C1  UNL d   1       2.619  -1.231  -0.305  0.00  0.00     0.062 A 
ATOM      3  C2  UNL d   1       1.521  -0.914  -1.099  0.00  0.00     0.162 A 
ATOM      4  C3  UNL d   1       0.960   0.362  -1.047  0.00  0.00    -0.034 A 
ATOM      5  C4  UNL d   1       1.512   1.314  -0.188  0.00  0.00     0.162 A 
ATOM      6  C5  UNL d   1       2.610   0.992   0.604  0.00  0.00     0.062 A 
ATOM      7  F   UNL d   1       3.135   1.912   1.425  0.00  0.00    -0.097 F 
ATOM      8  F1  UNL d   1       0.997   2.550  -0.112  0.00  0.00    -0.096 F 
ATOM      9  I   UNL d   1      -0.683   0.841  -2.232  0.00  0.00    -0.060 I 
ATOM     10  F2  UNL d   1       1.015  -1.853  -1.912  0.00  0.00    -0.096 F 
ATOM     11  F3  UNL d   1       3.152  -2.460  -0.363  0.00  0.00    -0.097 F 
ATOM     12  F4  UNL d   1       4.220  -0.588   1.309  0.00  0.00    -0.092 F 
ENDROOT
TORSDOF 0
ENDMDL
