MODEL 1
REMARK minimizedAffinity 9.72551918
REMARK minimizedRMSD -1
REMARK  0 active torsions:
REMARK  status: ('A' for Active; 'I' for Inactive)
ROOT
ATOM      1  C   UNL d   1      -0.395  -3.737  -1.584  0.00  0.00     0.124 A 
ATOM      2  C1  UNL d   1       0.224  -2.816  -2.418  0.00  0.00     0.062 A 
ATOM      3  C2  UNL d   1       1.117  -1.886  -1.894  0.00  0.00     0.162 A 
ATOM      4  C3  UNL d   1       1.397  -1.873  -0.527  0.00  0.00    -0.034 A 
ATOM      5  C4  UNL d   1       0.770  -2.802   0.305  0.00  0.00     0.162 A 
ATOM      6  C5  UNL d   1      -0.121  -3.729  -0.224  0.00  0.00     0.062 A 
ATOM      7  F   UNL d   1      -0.718  -4.618   0.584  0.00  0.00    -0.097 F 
ATOM      8  F1  UNL d   1       1.017  -2.817   1.624  0.00  0.00    -0.096 F 
ATOM      9  I   UNL d   1       2.732  -0.484   0.261  0.00  0.00    -0.060 I 
ATOM     10  F2  UNL d   1       1.700  -1.008  -2.723  0.00  0.00    -0.096 F 
ATOM     11  F3  UNL d   1      -0.040  -2.821  -3.733  0.00  0.00    -0.097 F 
ATOM     12  F4  UNL d   1      -1.255  -4.630  -2.091  0.00  0.00    -0.092 F 
ENDROOT
TORSDOF 0
ENDMDL
