MODEL 1
REMARK minimizedAffinity -4.47177124
REMARK minimizedRMSD -1
REMARK  0 active torsions:
REMARK  status: ('A' for Active; 'I' for Inactive)
ROOT
ATOM      1  C1  BNZ d   1       0.613   0.781  -0.167  0.00  0.00     0.000 A 
ATOM      2  C2  BNZ d   1       1.903   0.455  -0.490  0.00  0.00     0.000 A 
ATOM      3  C3  BNZ d   1       2.952   1.181   0.001  0.00  0.00     0.000 A 
ATOM      4  C4  BNZ d   1       2.708   2.254   0.781  0.00  0.00     0.000 A 
ATOM      5  C5  BNZ d   1       1.412   2.601   1.108  0.00  0.00     0.000 A 
ATOM      6  C6  BNZ d   1       0.361   1.844   0.643  0.00  0.00     0.000 A 
ENDROOT
TORSDOF 0
ENDMDL
