MODEL 1
REMARK minimizedAffinity -3.38804817
REMARK minimizedRMSD -1
REMARK  0 active torsions:
REMARK  status: ('A' for Active; 'I' for Inactive)
ROOT
ATOM      1  C1  BNZ d   1       0.939   2.208   1.242  0.00  0.00     0.000 A 
ATOM      2  C2  BNZ d   1       2.198   2.611   1.599  0.00  0.00     0.000 A 
ATOM      3  C3  BNZ d   1       3.302   1.962   1.122  0.00  0.00     0.000 A 
ATOM      4  C4  BNZ d   1       3.145   0.888   0.322  0.00  0.00     0.000 A 
ATOM      5  C5  BNZ d   1       1.882   0.463  -0.039  0.00  0.00     0.000 A 
ATOM      6  C6  BNZ d   1       0.774   1.143   0.412  0.00  0.00     0.000 A 
ENDROOT
TORSDOF 0
ENDMDL
