MODEL 1
REMARK minimizedAffinity -2.56967282
REMARK minimizedRMSD -1
REMARK  0 active torsions:
REMARK  status: ('A' for Active; 'I' for Inactive)
ROOT
ATOM      1  C1  BNZ d   1      -0.765  -1.023  -1.004  0.00  0.00     0.000 A 
ATOM      2  C2  BNZ d   1      -1.887  -1.806  -0.949  0.00  0.00     0.000 A 
ATOM      3  C3  BNZ d   1      -2.610  -2.073  -2.078  0.00  0.00     0.000 A 
ATOM      4  C4  BNZ d   1      -2.233  -1.526  -3.252  0.00  0.00     0.000 A 
ATOM      5  C5  BNZ d   1      -1.109  -0.727  -3.322  0.00  0.00     0.000 A 
ATOM      6  C6  BNZ d   1      -0.362  -0.492  -2.190  0.00  0.00     0.000 A 
ENDROOT
TORSDOF 0
ENDMDL
