MODEL 1
REMARK minimizedAffinity -5.34799385
REMARK minimizedRMSD -1
REMARK  0 active torsions:
REMARK  status: ('A' for Active; 'I' for Inactive)
ROOT
ATOM      1  C1  BNZ d   1       1.104   0.880  -0.202  0.00  0.00     0.000 A 
ATOM      2  C2  BNZ d   1       0.504   1.930   0.440  0.00  0.00     0.000 A 
ATOM      3  C3  BNZ d   1       1.224   2.750   1.264  0.00  0.00     0.000 A 
ATOM      4  C4  BNZ d   1       2.531   2.495   1.476  0.00  0.00     0.000 A 
ATOM      5  C5  BNZ d   1       3.148   1.434   0.844  0.00  0.00     0.000 A 
ATOM      6  C6  BNZ d   1       2.430   0.634  -0.015  0.00  0.00     0.000 A 
ENDROOT
TORSDOF 0
ENDMDL
