MODEL 1
REMARK minimizedAffinity -4.48528481
REMARK minimizedRMSD -1
REMARK  0 active torsions:
REMARK  status: ('A' for Active; 'I' for Inactive)
ROOT
ATOM      1  C1  BNZ d   1       2.304   1.691   2.744  0.00  0.00     0.000 A 
ATOM      2  C2  BNZ d   1       3.169   0.928   2.006  0.00  0.00     0.000 A 
ATOM      3  C3  BNZ d   1       3.033   0.828   0.650  0.00  0.00     0.000 A 
ATOM      4  C4  BNZ d   1       2.010   1.459   0.039  0.00  0.00     0.000 A 
ATOM      5  C5  BNZ d   1       1.124   2.225   0.770  0.00  0.00     0.000 A 
ATOM      6  C6  BNZ d   1       1.287   2.355   2.130  0.00  0.00     0.000 A 
ENDROOT
TORSDOF 0
ENDMDL
