MODEL 1
REMARK minimizedAffinity -5.27074528
REMARK minimizedRMSD -1
REMARK  0 active torsions:
REMARK  status: ('A' for Active; 'I' for Inactive)
ROOT
ATOM      1  C1  BNZ d   1       2.224   2.735   1.584  0.00  0.00     0.000 A 
ATOM      2  C2  BNZ d   1       2.857   1.896   0.706  0.00  0.00     0.000 A 
ATOM      3  C3  BNZ d   1       2.146   1.004  -0.047  0.00  0.00     0.000 A 
ATOM      4  C4  BNZ d   1       0.808   0.924   0.109  0.00  0.00     0.000 A 
ATOM      5  C5  BNZ d   1       0.157   1.756   0.997  0.00  0.00     0.000 A 
ATOM      6  C6  BNZ d   1       0.872   2.680   1.724  0.00  0.00     0.000 A 
ENDROOT
TORSDOF 0
ENDMDL
