MODEL 1
REMARK minimizedAffinity -4.6994791
REMARK minimizedRMSD -1
REMARK  0 active torsions:
REMARK  status: ('A' for Active; 'I' for Inactive)
ROOT
ATOM      1  C1  BNZ d   1       0.569   0.765  -0.054  0.00  0.00     0.000 A 
ATOM      2  C2  BNZ d   1      -0.181   1.540   0.790  0.00  0.00     0.000 A 
ATOM      3  C3  BNZ d   1       0.413   2.467   1.602  0.00  0.00     0.000 A 
ATOM      4  C4  BNZ d   1       1.756   2.588   1.598  0.00  0.00     0.000 A 
ATOM      5  C5  BNZ d   1       2.526   1.807   0.759  0.00  0.00     0.000 A 
ATOM      6  C6  BNZ d   1       1.922   0.903  -0.085  0.00  0.00     0.000 A 
ENDROOT
TORSDOF 0
ENDMDL
