MODEL 1
REMARK minimizedAffinity -1.96766531
REMARK minimizedRMSD -1
REMARK  0 active torsions:
REMARK  status: ('A' for Active; 'I' for Inactive)
ROOT
ATOM      1  C1  BNZ d   1      -0.641   0.089   0.548  0.00  0.00     0.000 A 
ATOM      2  C2  BNZ d   1       0.130   1.215   0.658  0.00  0.00     0.000 A 
ATOM      3  C3  BNZ d   1       1.311   1.323  -0.022  0.00  0.00     0.000 A 
ATOM      4  C4  BNZ d   1       1.738   0.291  -0.778  0.00  0.00     0.000 A 
ATOM      5  C5  BNZ d   1       0.976  -0.855  -0.891  0.00  0.00     0.000 A 
ATOM      6  C6  BNZ d   1      -0.231  -0.945  -0.236  0.00  0.00     0.000 A 
ENDROOT
TORSDOF 0
ENDMDL
