MODEL 1
REMARK minimizedAffinity -4.62093306
REMARK minimizedRMSD -1
REMARK  0 active torsions:
REMARK  status: ('A' for Active; 'I' for Inactive)
ROOT
ATOM      1  C1  BNZ d   1       0.504   0.535  -0.206  0.00  0.00     0.000 A 
ATOM      2  C2  BNZ d   1       1.841   0.783  -0.370  0.00  0.00     0.000 A 
ATOM      3  C3  BNZ d   1       2.501   1.640   0.465  0.00  0.00     0.000 A 
ATOM      4  C4  BNZ d   1       1.818   2.277   1.437  0.00  0.00     0.000 A 
ATOM      5  C5  BNZ d   1       0.468   2.045   1.610  0.00  0.00     0.000 A 
ATOM      6  C6  BNZ d   1      -0.186   1.152   0.791  0.00  0.00     0.000 A 
ENDROOT
TORSDOF 0
ENDMDL
