MODEL 1
REMARK minimizedAffinity -4.72132444
REMARK minimizedRMSD -1
REMARK  0 active torsions:
REMARK  status: ('A' for Active; 'I' for Inactive)
ROOT
ATOM      1  C1  BNZ d   1      -0.288   1.119   0.987  0.00  0.00     0.000 A 
ATOM      2  C2  BNZ d   1       0.213   2.163   1.717  0.00  0.00     0.000 A 
ATOM      3  C3  BNZ d   1       1.484   2.619   1.506  0.00  0.00     0.000 A 
ATOM      4  C4  BNZ d   1       2.266   2.004   0.595  0.00  0.00     0.000 A 
ATOM      5  C5  BNZ d   1       1.778   0.943  -0.143  0.00  0.00     0.000 A 
ATOM      6  C6  BNZ d   1       0.485   0.513   0.045  0.00  0.00     0.000 A 
ENDROOT
TORSDOF 0
ENDMDL
