MODEL 1
REMARK minimizedAffinity -5.43997002
REMARK minimizedRMSD -1
REMARK  0 active torsions:
REMARK  status: ('A' for Active; 'I' for Inactive)
ROOT
ATOM      1  C1  BNZ d   1       2.314   0.685  -0.075  0.00  0.00     0.000 A 
ATOM      2  C2  BNZ d   1       3.068   1.535   0.689  0.00  0.00     0.000 A 
ATOM      3  C3  BNZ d   1       2.487   2.571   1.366  0.00  0.00     0.000 A 
ATOM      4  C4  BNZ d   1       1.160   2.780   1.246  0.00  0.00     0.000 A 
ATOM      5  C5  BNZ d   1       0.387   1.937   0.472  0.00  0.00     0.000 A 
ATOM      6  C6  BNZ d   1       0.969   0.872  -0.177  0.00  0.00     0.000 A 
ENDROOT
TORSDOF 0
ENDMDL
