MODEL 1
REMARK minimizedAffinity -2.73555684
REMARK minimizedRMSD -1
REMARK  0 active torsions:
REMARK  status: ('A' for Active; 'I' for Inactive)
ROOT
ATOM      1  C1  BNZ d   1       3.037   2.679   1.138  0.00  0.00     0.000 A 
ATOM      2  C2  BNZ d   1       1.884   3.293   1.550  0.00  0.00     0.000 A 
ATOM      3  C3  BNZ d   1       0.663   2.737   1.288  0.00  0.00     0.000 A 
ATOM      4  C4  BNZ d   1       0.595   1.590   0.581  0.00  0.00     0.000 A 
ATOM      5  C5  BNZ d   1       1.748   0.964   0.151  0.00  0.00     0.000 A 
ATOM      6  C6  BNZ d   1       2.977   1.507   0.450  0.00  0.00     0.000 A 
ENDROOT
TORSDOF 0
ENDMDL
