MODEL 1
REMARK minimizedAffinity -5.01491833
REMARK minimizedRMSD -1
REMARK  0 active torsions:
REMARK  status: ('A' for Active; 'I' for Inactive)
ROOT
ATOM      1  C1  BNZ d   1       2.898   1.787   0.626  0.00  0.00     0.000 A 
ATOM      2  C2  BNZ d   1       1.912   2.504   1.250  0.00  0.00     0.000 A 
ATOM      3  C3  BNZ d   1       0.622   2.051   1.268  0.00  0.00     0.000 A 
ATOM      4  C4  BNZ d   1       0.313   0.904   0.630  0.00  0.00     0.000 A 
ATOM      5  C5  BNZ d   1       1.294   0.175  -0.011  0.00  0.00     0.000 A 
ATOM      6  C6  BNZ d   1       2.598   0.614   0.005  0.00  0.00     0.000 A 
ENDROOT
TORSDOF 0
ENDMDL
