MODEL 1
REMARK minimizedAffinity -2.80945468
REMARK minimizedRMSD -1
REMARK  0 active torsions:
REMARK  status: ('A' for Active; 'I' for Inactive)
ROOT
ATOM      1  C1  BNZ d   1       2.403  -0.063  -0.653  0.00  0.00     0.000 A 
ATOM      2  C2  BNZ d   1       3.274   0.814  -0.064  0.00  0.00     0.000 A 
ATOM      3  C3  BNZ d   1       2.822   1.971   0.507  0.00  0.00     0.000 A 
ATOM      4  C4  BNZ d   1       1.508   2.268   0.452  0.00  0.00     0.000 A 
ATOM      5  C5  BNZ d   1       0.619   1.398  -0.147  0.00  0.00     0.000 A 
ATOM      6  C6  BNZ d   1       1.072   0.216  -0.686  0.00  0.00     0.000 A 
ENDROOT
TORSDOF 0
ENDMDL
