MODEL 1
REMARK minimizedAffinity 4.25401306
REMARK minimizedRMSD -1
REMARK  1 active torsions:
REMARK  status: ('A' for Active; 'I' for Inactive)
REMARK    1  A    between atoms: C3_4  and  O_7 
ROOT
ATOM      1  C   UNL d   1      -5.172  -5.991  -5.120  0.00  0.00    -0.033 A 
ATOM      2  C1  UNL d   1      -5.945  -5.231  -5.999  0.00  0.00     0.039 A 
ATOM      3  C2  UNL d   1      -5.965  -3.839  -5.889  0.00  0.00    -0.080 A 
ATOM      4  C3  UNL d   1      -5.208  -3.221  -4.897  0.00  0.00     0.150 A 
ATOM      5  C4  UNL d   1      -4.432  -3.972  -4.020  0.00  0.00    -0.007 A 
ATOM      6  C5  UNL d   1      -4.414  -5.362  -4.132  0.00  0.00     0.039 A 
ENDROOT
BRANCH   4   7
ATOM      7  O   UNL d   1      -5.199  -1.866  -4.748  0.00  0.00    -0.526 OA
ATOM      8  H5  UNL d   1      -5.803  -1.480  -5.404  0.00  0.00     0.418 HD
ENDBRANCH   4   7
TORSDOF 1
ENDMDL
