MODEL 1
REMARK minimizedAffinity -1.03940046
REMARK minimizedRMSD -1
REMARK  1 active torsions:
REMARK  status: ('A' for Active; 'I' for Inactive)
REMARK    1  A    between atoms: C3_4  and  O_7 
ROOT
ATOM      1  C   UNL d   1      -4.459  -5.999  -4.755  0.00  0.00    -0.033 A 
ATOM      2  C1  UNL d   1      -5.587  -5.871  -5.568  0.00  0.00     0.039 A 
ATOM      3  C2  UNL d   1      -6.000  -4.608  -5.998  0.00  0.00    -0.080 A 
ATOM      4  C3  UNL d   1      -5.277  -3.484  -5.609  0.00  0.00     0.150 A 
ATOM      5  C4  UNL d   1      -4.150  -3.605  -4.802  0.00  0.00    -0.007 A 
ATOM      6  C5  UNL d   1      -3.740  -4.866  -4.373  0.00  0.00     0.039 A 
ENDROOT
BRANCH   4   7
ATOM      7  O   UNL d   1      -5.644  -2.230  -5.999  0.00  0.00    -0.526 OA
ATOM      8  H5  UNL d   1      -6.456  -2.298  -6.528  0.00  0.00     0.418 HD
ENDBRANCH   4   7
TORSDOF 1
ENDMDL
