MODEL 1
REMARK minimizedAffinity 6.76624346
REMARK minimizedRMSD -1
REMARK  1 active torsions:
REMARK  status: ('A' for Active; 'I' for Inactive)
REMARK    1  A    between atoms: C3_4  and  O_7 
ROOT
ATOM      1  C   UNL d   1       0.309  -2.981   4.878  0.00  0.00    -0.033 A 
ATOM      2  C1  UNL d   1       0.610  -2.316   3.687  0.00  0.00     0.039 A 
ATOM      3  C2  UNL d   1       1.136  -3.024   2.605  0.00  0.00    -0.080 A 
ATOM      4  C3  UNL d   1       1.355  -4.393   2.725  0.00  0.00     0.150 A 
ATOM      5  C4  UNL d   1       1.054  -5.062   3.907  0.00  0.00    -0.007 A 
ATOM      6  C5  UNL d   1       0.529  -4.354   4.987  0.00  0.00     0.039 A 
ENDROOT
BRANCH   4   7
ATOM      7  O   UNL d   1       1.871  -5.125   1.697  0.00  0.00    -0.526 OA
ATOM      8  H5  UNL d   1       2.057  -4.526   0.955  0.00  0.00     0.418 HD
ENDBRANCH   4   7
TORSDOF 1
ENDMDL
