MODEL 1
REMARK minimizedAffinity -2.71308923
REMARK minimizedRMSD -1
REMARK  1 active torsions:
REMARK  status: ('A' for Active; 'I' for Inactive)
REMARK    1  A    between atoms: C3_4  and  O_7 
ROOT
ATOM      1  C   UNL d   1       5.062   5.224  -6.000  0.00  0.00    -0.033 A 
ATOM      2  C1  UNL d   1       6.000   5.978  -5.292  0.00  0.00     0.039 A 
ATOM      3  C2  UNL d   1       5.974   5.996  -3.896  0.00  0.00    -0.080 A 
ATOM      4  C3  UNL d   1       5.008   5.255  -3.221  0.00  0.00     0.150 A 
ATOM      5  C4  UNL d   1       4.073   4.498  -3.920  0.00  0.00    -0.007 A 
ATOM      6  C5  UNL d   1       4.100   4.483  -5.314  0.00  0.00     0.039 A 
ENDROOT
BRANCH   4   7
ATOM      7  O   UNL d   1       4.940   5.244  -1.860  0.00  0.00    -0.526 OA
ATOM      8  H5  UNL d   1       5.630   5.834  -1.513  0.00  0.00     0.418 HD
ENDBRANCH   4   7
TORSDOF 1
ENDMDL
