MODEL 1
REMARK minimizedAffinity -3.15747213
REMARK minimizedRMSD -1
REMARK  1 active torsions:
REMARK  status: ('A' for Active; 'I' for Inactive)
REMARK    1  A    between atoms: C3_4  and  O_7 
ROOT
ATOM      1  C   UNL d   1       4.880   4.596  -5.641  0.00  0.00    -0.033 A 
ATOM      2  C1  UNL d   1       5.855   5.517  -5.253  0.00  0.00     0.039 A 
ATOM      3  C2  UNL d   1       5.879   6.000  -3.943  0.00  0.00    -0.080 A 
ATOM      4  C3  UNL d   1       4.925   5.553  -3.032  0.00  0.00     0.150 A 
ATOM      5  C4  UNL d   1       3.953   4.633  -3.412  0.00  0.00    -0.007 A 
ATOM      6  C5  UNL d   1       3.930   4.153  -4.721  0.00  0.00     0.039 A 
ENDROOT
BRANCH   4   7
ATOM      7  O   UNL d   1       4.905   5.999  -1.744  0.00  0.00    -0.526 OA
ATOM      8  H5  UNL d   1       5.616   6.652  -1.634  0.00  0.00     0.418 HD
ENDBRANCH   4   7
TORSDOF 1
ENDMDL
