MODEL 1
REMARK minimizedAffinity 2.62257552
REMARK minimizedRMSD -1
REMARK  1 active torsions:
REMARK  status: ('A' for Active; 'I' for Inactive)
REMARK    1  A    between atoms: C3_4  and  O_7 
ROOT
ATOM      1  C   UNL d   1       2.124  -1.312   1.809  0.00  0.00    -0.033 A 
ATOM      2  C1  UNL d   1       2.347  -2.316   2.754  0.00  0.00     0.039 A 
ATOM      3  C2  UNL d   1       1.529  -2.411   3.881  0.00  0.00    -0.080 A 
ATOM      4  C3  UNL d   1       0.492  -1.499   4.051  0.00  0.00     0.150 A 
ATOM      5  C4  UNL d   1       0.261  -0.499   3.113  0.00  0.00    -0.007 A 
ATOM      6  C5  UNL d   1       1.080  -0.404   1.988  0.00  0.00     0.039 A 
ENDROOT
BRANCH   4   7
ATOM      7  O   UNL d   1      -0.330  -1.549   5.138  0.00  0.00    -0.526 OA
ATOM      8  H5  UNL d   1      -0.034  -2.273   5.715  0.00  0.00     0.418 HD
ENDBRANCH   4   7
TORSDOF 1
ENDMDL
