MODEL 1
REMARK minimizedAffinity 10.643795
REMARK minimizedRMSD -1
REMARK  1 active torsions:
REMARK  status: ('A' for Active; 'I' for Inactive)
REMARK    1  A    between atoms: C3_4  and  O_7 
ROOT
ATOM      1  C   UNL d   1      -5.230   4.224  -0.745  0.00  0.00    -0.033 A 
ATOM      2  C1  UNL d   1      -5.993   3.251  -1.394  0.00  0.00     0.039 A 
ATOM      3  C2  UNL d   1      -5.365   2.179  -2.030  0.00  0.00    -0.080 A 
ATOM      4  C3  UNL d   1      -3.976   2.090  -2.008  0.00  0.00     0.150 A 
ATOM      5  C4  UNL d   1      -3.209   3.053  -1.361  0.00  0.00    -0.007 A 
ATOM      6  C5  UNL d   1      -3.838   4.124  -0.727  0.00  0.00     0.039 A 
ENDROOT
BRANCH   4   7
ATOM      7  O   UNL d   1      -3.318   1.064  -2.619  0.00  0.00    -0.526 OA
ATOM      8  H5  UNL d   1      -3.974   0.491  -3.050  0.00  0.00     0.418 HD
ENDBRANCH   4   7
TORSDOF 1
ENDMDL
