MODEL 1
REMARK minimizedAffinity 7.75643492
REMARK minimizedRMSD -1
REMARK  1 active torsions:
REMARK  status: ('A' for Active; 'I' for Inactive)
REMARK    1  A    between atoms: C3_4  and  O_7 
ROOT
ATOM      1  C   UNL d   1      -5.999   4.026   0.147  0.00  0.00    -0.033 A 
ATOM      2  C1  UNL d   1      -5.983   4.207   1.532  0.00  0.00     0.039 A 
ATOM      3  C2  UNL d   1      -4.780   4.115   2.235  0.00  0.00    -0.080 A 
ATOM      4  C3  UNL d   1      -3.603   3.844   1.544  0.00  0.00     0.150 A 
ATOM      5  C4  UNL d   1      -3.611   3.668   0.164  0.00  0.00    -0.007 A 
ATOM      6  C5  UNL d   1      -4.813   3.758  -0.537  0.00  0.00     0.039 A 
ENDROOT
BRANCH   4   7
ATOM      7  O   UNL d   1      -2.406   3.741   2.188  0.00  0.00    -0.526 OA
ATOM      8  H5  UNL d   1      -2.558   3.858   3.140  0.00  0.00     0.418 HD
ENDBRANCH   4   7
TORSDOF 1
ENDMDL
