MODEL 1
REMARK minimizedAffinity -0.811219275
REMARK minimizedRMSD -1
REMARK  1 active torsions:
REMARK  status: ('A' for Active; 'I' for Inactive)
REMARK    1  A    between atoms: C3_4  and  O_7 
ROOT
ATOM      1  C   UNL d   1       1.410  -1.495   1.758  0.00  0.00    -0.033 A 
ATOM      2  C1  UNL d   1       0.699  -2.068   2.814  0.00  0.00     0.039 A 
ATOM      3  C2  UNL d   1       0.660  -1.434   4.057  0.00  0.00    -0.080 A 
ATOM      4  C3  UNL d   1       1.334  -0.228   4.230  0.00  0.00     0.150 A 
ATOM      5  C4  UNL d   1       2.042   0.350   3.181  0.00  0.00    -0.007 A 
ATOM      6  C5  UNL d   1       2.080  -0.286   1.941  0.00  0.00     0.039 A 
ENDROOT
BRANCH   4   7
ATOM      7  O   UNL d   1       1.329   0.425   5.426  0.00  0.00    -0.526 OA
ATOM      8  H5  UNL d   1       0.825  -0.106   6.065  0.00  0.00     0.418 HD
ENDBRANCH   4   7
TORSDOF 1
ENDMDL
