MODEL 1
REMARK minimizedAffinity 8.39151859
REMARK minimizedRMSD -1
REMARK  1 active torsions:
REMARK  status: ('A' for Active; 'I' for Inactive)
REMARK    1  A    between atoms: N_2  and  C1_3 
ROOT
ATOM      1  C1  UNL d   1      -2.985   1.921  -0.930  0.00  0.00     0.143 A 
ATOM      2  C2  UNL d   1      -2.376   0.767  -1.433  0.00  0.00    -0.057 A 
ATOM      3  C3  UNL d   1      -2.833   0.156  -2.607  0.00  0.00     0.033 A 
ATOM      4  C4  UNL d   1      -3.931   0.675  -3.286  0.00  0.00    -0.042 A 
ATOM      5  C5  UNL d   1      -4.568   1.807  -2.791  0.00  0.00     0.033 A 
ATOM      6  C6  UNL d   1      -4.102   2.416  -1.622  0.00  0.00    -0.057 A 
ENDROOT
BRANCH   1   7
ATOM      7  N   UNL d   1      -2.639   2.518   0.285  0.00  0.00    -0.732 N 
ATOM      8  C   UNL d   1      -3.658   3.071   1.151  0.00  0.00     0.284 C 
ATOM      9  H3  UNL d   1      -1.910   2.005   0.775  0.00  0.00     0.395 HD
ENDBRANCH   1   7
TORSDOF 1
ENDMDL
