MODEL 1
REMARK minimizedAffinity 2.07549047
REMARK minimizedRMSD -1
REMARK  1 active torsions:
REMARK  status: ('A' for Active; 'I' for Inactive)
REMARK    1  A    between atoms: N_2  and  C1_3 
ROOT
ATOM      1  C1  UNL d   1       3.896  -1.993   3.133  0.00  0.00     0.143 A 
ATOM      2  C2  UNL d   1       3.194  -2.104   4.338  0.00  0.00    -0.057 A 
ATOM      3  C3  UNL d   1       1.850  -1.723   4.434  0.00  0.00     0.033 A 
ATOM      4  C4  UNL d   1       1.191  -1.193   3.329  0.00  0.00    -0.042 A 
ATOM      5  C5  UNL d   1       1.876  -1.050   2.128  0.00  0.00     0.033 A 
ATOM      6  C6  UNL d   1       3.216  -1.439   2.037  0.00  0.00    -0.057 A 
ENDROOT
BRANCH   1   7
ATOM      7  N   UNL d   1       5.260  -2.263   3.000  0.00  0.00    -0.732 N 
ATOM      8  C   UNL d   1       5.976  -1.867   1.807  0.00  0.00     0.284 C 
ATOM      9  H3  UNL d   1       5.773  -2.106   3.865  0.00  0.00     0.395 HD
ENDBRANCH   1   7
TORSDOF 1
ENDMDL
