MODEL 1
REMARK minimizedAffinity -0.0466882959
REMARK minimizedRMSD -1
REMARK  1 active torsions:
REMARK  status: ('A' for Active; 'I' for Inactive)
REMARK    1  A    between atoms: N_2  and  C1_3 
ROOT
ATOM      1  C1  UNL d   1       3.854  -3.973   3.007  0.00  0.00     0.143 A 
ATOM      2  C2  UNL d   1       3.145  -4.851   3.834  0.00  0.00    -0.057 A 
ATOM      3  C3  UNL d   1       1.837  -4.565   4.244  0.00  0.00     0.033 A 
ATOM      4  C4  UNL d   1       1.224  -3.378   3.857  0.00  0.00    -0.042 A 
ATOM      5  C5  UNL d   1       1.919  -2.479   3.055  0.00  0.00     0.033 A 
ATOM      6  C6  UNL d   1       3.222  -2.773   2.644  0.00  0.00    -0.057 A 
ENDROOT
BRANCH   1   7
ATOM      7  N   UNL d   1       5.191  -4.154   2.646  0.00  0.00    -0.732 N 
ATOM      8  C   UNL d   1       5.999  -3.030   2.224  0.00  0.00     0.284 C 
ATOM      9  H3  UNL d   1       5.675  -4.806   3.259  0.00  0.00     0.395 HD
ENDBRANCH   1   7
TORSDOF 1
ENDMDL
