MODEL 1
REMARK minimizedAffinity 2.16623688
REMARK minimizedRMSD -1
REMARK  2 active torsions:
REMARK  status: ('A' for Active; 'I' for Inactive)
REMARK    1  A    between atoms: C1_2  and  C2_3 
REMARK    2  A    between atoms: C2_3  and  C3_4 
ROOT
ATOM      1  C3  UNL d   1      -4.057   1.793  -4.514  0.00  0.00    -0.075 A 
ATOM      2  C4  UNL d   1      -4.349   0.476  -4.897  0.00  0.00     0.002 A 
ATOM      3  C5  UNL d   1      -3.960  -0.597  -4.094  0.00  0.00     0.002 A 
ATOM      4  C6  UNL d   1      -3.268  -0.369  -2.908  0.00  0.00    -0.004 A 
ATOM      5  C7  UNL d   1      -2.957   0.935  -2.526  0.00  0.00     0.002 A 
ATOM      6  C8  UNL d   1      -3.349   2.011  -3.325  0.00  0.00     0.002 A 
ENDROOT
BRANCH   1   7
ATOM      7  C2  UNL d   1      -4.501   2.961  -5.363  0.00  0.00     0.056 C 
BRANCH   7   8
ATOM      8  C1  UNL d   1      -4.652   4.274  -4.588  0.00  0.00     0.007 C 
ATOM      9  C   UNL d   1      -5.979   4.386  -3.850  0.00  0.00     0.009 C 
ENDBRANCH   7   8
ENDBRANCH   1   7
TORSDOF 2
ENDMDL
