MODEL 1
REMARK minimizedAffinity 7.9933691
REMARK minimizedRMSD -1
REMARK  2 active torsions:
REMARK  status: ('A' for Active; 'I' for Inactive)
REMARK    1  A    between atoms: C1_2  and  C2_3 
REMARK    2  A    between atoms: C2_3  and  C3_4 
ROOT
ATOM      1  C3  UNL d   1       1.592  -0.747   2.263  0.00  0.00    -0.075 A 
ATOM      2  C4  UNL d   1       1.898  -1.223   0.979  0.00  0.00     0.002 A 
ATOM      3  C5  UNL d   1       1.214  -0.740  -0.137  0.00  0.00     0.002 A 
ATOM      4  C6  UNL d   1       0.211   0.214   0.016  0.00  0.00    -0.004 A 
ATOM      5  C7  UNL d   1      -0.113   0.682   1.288  0.00  0.00     0.002 A 
ATOM      6  C8  UNL d   1       0.572   0.204   2.406  0.00  0.00     0.002 A 
ENDROOT
BRANCH   1   7
ATOM      7  C2  UNL d   1       2.348  -1.243   3.472  0.00  0.00     0.056 C 
BRANCH   7   8
ATOM      8  C1  UNL d   1       3.829  -1.534   3.205  0.00  0.00     0.007 C 
ATOM      9  C   UNL d   1       4.489  -2.349   4.308  0.00  0.00     0.009 C 
ENDBRANCH   7   8
ENDBRANCH   1   7
TORSDOF 2
ENDMDL
