MODEL 1
REMARK minimizedAffinity -1.16586721
REMARK minimizedRMSD -1
REMARK  2 active torsions:
REMARK  status: ('A' for Active; 'I' for Inactive)
REMARK    1  A    between atoms: C1_2  and  C2_3 
REMARK    2  A    between atoms: C2_3  and  C3_4 
ROOT
ATOM      1  C3  UNL d   1      -0.041   1.824   0.828  0.00  0.00    -0.075 A 
ATOM      2  C4  UNL d   1      -0.347   1.735  -0.538  0.00  0.00     0.002 A 
ATOM      3  C5  UNL d   1      -0.266   2.861  -1.357  0.00  0.00     0.002 A 
ATOM      4  C6  UNL d   1       0.111   4.091  -0.821  0.00  0.00    -0.004 A 
ATOM      5  C7  UNL d   1       0.401   4.194   0.538  0.00  0.00     0.002 A 
ATOM      6  C8  UNL d   1       0.324   3.068   1.359  0.00  0.00     0.002 A 
ENDROOT
BRANCH   1   7
ATOM      7  C2  UNL d   1      -0.099   0.603   1.714  0.00  0.00     0.056 C 
BRANCH   7   8
ATOM      8  C1  UNL d   1       0.709  -0.588   1.187  0.00  0.00     0.007 C 
ATOM      9  C   UNL d   1       1.930  -0.909   2.040  0.00  0.00     0.009 C 
ENDBRANCH   7   8
ENDBRANCH   1   7
TORSDOF 2
ENDMDL
