MODEL 1
REMARK minimizedAffinity 3.03477645
REMARK minimizedRMSD -1
REMARK  2 active torsions:
REMARK  status: ('A' for Active; 'I' for Inactive)
REMARK    1  A    between atoms: C1_2  and  C2_3 
REMARK    2  A    between atoms: C2_3  and  C3_4 
ROOT
ATOM      1  C3  UNL d   1      -0.019  -0.845   0.439  0.00  0.00    -0.075 A 
ATOM      2  C4  UNL d   1       0.121  -0.357   1.746  0.00  0.00     0.002 A 
ATOM      3  C5  UNL d   1       0.235   1.013   1.982  0.00  0.00     0.002 A 
ATOM      4  C6  UNL d   1       0.221   1.910   0.917  0.00  0.00    -0.004 A 
ATOM      5  C7  UNL d   1       0.099   1.435  -0.387  0.00  0.00     0.002 A 
ATOM      6  C8  UNL d   1      -0.020   0.065  -0.626  0.00  0.00     0.002 A 
ENDROOT
BRANCH   1   7
ATOM      7  C2  UNL d   1      -0.173  -2.325   0.179  0.00  0.00     0.056 C 
BRANCH   7   8
ATOM      8  C1  UNL d   1      -1.233  -2.667  -0.873  0.00  0.00     0.007 C 
ATOM      9  C   UNL d   1      -0.923  -3.942  -1.646  0.00  0.00     0.009 C 
ENDBRANCH   7   8
ENDBRANCH   1   7
TORSDOF 2
ENDMDL
