MODEL 1
REMARK minimizedAffinity 2.88546729
REMARK minimizedRMSD -1
REMARK  2 active torsions:
REMARK  status: ('A' for Active; 'I' for Inactive)
REMARK    1  A    between atoms: C1_2  and  C2_3 
REMARK    2  A    between atoms: C2_3  and  C3_4 
ROOT
ATOM      1  C3  UNL d   1       1.616   0.052   1.708  0.00  0.00    -0.075 A 
ATOM      2  C4  UNL d   1       1.783  -0.203   0.339  0.00  0.00     0.002 A 
ATOM      3  C5  UNL d   1       1.019   0.482  -0.607  0.00  0.00     0.002 A 
ATOM      4  C6  UNL d   1       0.075   1.421  -0.197  0.00  0.00    -0.004 A 
ATOM      5  C7  UNL d   1      -0.111   1.669   1.162  0.00  0.00     0.002 A 
ATOM      6  C8  UNL d   1       0.655   0.989   2.110  0.00  0.00     0.002 A 
ENDROOT
BRANCH   1   7
ATOM      7  C2  UNL d   1       2.460  -0.665   2.735  0.00  0.00     0.056 C 
BRANCH   7   8
ATOM      8  C1  UNL d   1       3.957  -0.688   2.406  0.00  0.00     0.007 C 
ATOM      9  C   UNL d   1       4.788  -1.430   3.444  0.00  0.00     0.009 C 
ENDBRANCH   7   8
ENDBRANCH   1   7
TORSDOF 2
ENDMDL
