MODEL 1
REMARK minimizedAffinity 0.548904121
REMARK minimizedRMSD -1
REMARK  2 active torsions:
REMARK  status: ('A' for Active; 'I' for Inactive)
REMARK    1  A    between atoms: C1_2  and  C2_3 
REMARK    2  A    between atoms: C2_3  and  C3_4 
ROOT
ATOM      1  C3  UNL d   1      -0.366   0.634  -0.804  0.00  0.00    -0.075 A 
ATOM      2  C4  UNL d   1      -0.007  -0.217   0.251  0.00  0.00     0.002 A 
ATOM      3  C5  UNL d   1       0.435   0.309   1.465  0.00  0.00     0.002 A 
ATOM      4  C6  UNL d   1       0.533   1.688   1.637  0.00  0.00    -0.004 A 
ATOM      5  C7  UNL d   1       0.195   2.542   0.589  0.00  0.00     0.002 A 
ATOM      6  C8  UNL d   1      -0.252   2.019  -0.625  0.00  0.00     0.002 A 
ENDROOT
BRANCH   1   7
ATOM      7  C2  UNL d   1      -0.873   0.072  -2.111  0.00  0.00     0.056 C 
BRANCH   7   8
ATOM      8  C1  UNL d   1      -2.256  -0.581  -2.014  0.00  0.00     0.007 C 
ATOM      9  C   UNL d   1      -3.361   0.256  -2.643  0.00  0.00     0.009 C 
ENDBRANCH   7   8
ENDBRANCH   1   7
TORSDOF 2
ENDMDL
