MODEL 1
REMARK minimizedAffinity -0.665663183
REMARK minimizedRMSD -1
REMARK  1 active torsions:
REMARK  status: ('A' for Active; 'I' for Inactive)
REMARK    1  A    between atoms: C1_2  and  C2_3 
ROOT
ATOM      1  C2  UNL d   1       1.263  -1.425   2.908  0.00  0.00    -0.073 A 
ATOM      2  C3  UNL d   1       2.421  -1.956   2.328  0.00  0.00    -0.002 A 
ATOM      3  C4  UNL d   1       2.686  -1.755   0.973  0.00  0.00     0.004 A 
ATOM      4  C5  UNL d   1       1.802  -1.015   0.187  0.00  0.00    -0.004 A 
ATOM      5  C6  UNL d   1       0.646  -0.466   0.751  0.00  0.00    -0.075 A 
ATOM      6  C7  UNL d   1      -0.315   0.330  -0.081  0.00  0.00     0.076 C 
ATOM      7  C8  UNL d   1       0.386  -0.675   2.112  0.00  0.00     0.001 A 
ENDROOT
BRANCH   1   8
ATOM      8  C1  UNL d   1       0.976  -1.634   4.373  0.00  0.00     0.053 C 
ATOM      9  C   UNL d   1       2.173  -1.289   5.244  0.00  0.00     0.018 C 
ENDBRANCH   1   8
TORSDOF 1
ENDMDL
