MODEL 1
REMARK minimizedAffinity -3.23716545
REMARK minimizedRMSD -1
REMARK  1 active torsions:
REMARK  status: ('A' for Active; 'I' for Inactive)
REMARK    1  A    between atoms: C1_2  and  C2_3 
ROOT
ATOM      1  C2  UNL d   1      -1.742   2.080  -3.594  0.00  0.00    -0.073 A 
ATOM      2  C3  UNL d   1      -1.408   2.875  -4.696  0.00  0.00    -0.002 A 
ATOM      3  C4  UNL d   1      -0.317   3.743  -4.633  0.00  0.00     0.004 A 
ATOM      4  C5  UNL d   1       0.453   3.820  -3.473  0.00  0.00    -0.004 A 
ATOM      5  C6  UNL d   1       0.142   3.024  -2.365  0.00  0.00    -0.075 A 
ATOM      6  C7  UNL d   1       0.959   3.097  -1.109  0.00  0.00     0.076 C 
ATOM      7  C8  UNL d   1      -0.957   2.157  -2.435  0.00  0.00     0.001 A 
ENDROOT
BRANCH   1   8
ATOM      8  C1  UNL d   1      -2.916   1.136  -3.659  0.00  0.00     0.053 C 
ATOM      9  C   UNL d   1      -3.783   1.219  -2.413  0.00  0.00     0.018 C 
ENDBRANCH   1   8
TORSDOF 1
ENDMDL
