MODEL 1
REMARK minimizedAffinity 3.33052588
REMARK minimizedRMSD -1
REMARK  1 active torsions:
REMARK  status: ('A' for Active; 'I' for Inactive)
REMARK    1  A    between atoms: C1_2  and  C2_3 
ROOT
ATOM      1  C2  UNL d   1      -0.114  -5.166  -4.962  0.00  0.00    -0.073 A 
ATOM      2  C3  UNL d   1      -0.872  -5.722  -6.000  0.00  0.00    -0.002 A 
ATOM      3  C4  UNL d   1      -2.227  -5.998  -5.813  0.00  0.00     0.004 A 
ATOM      4  C5  UNL d   1      -2.839  -5.716  -4.592  0.00  0.00    -0.004 A 
ATOM      5  C6  UNL d   1      -2.101  -5.150  -3.547  0.00  0.00    -0.075 A 
ATOM      6  C7  UNL d   1      -2.744  -4.843  -2.227  0.00  0.00     0.076 C 
ATOM      7  C8  UNL d   1      -0.740  -4.878  -3.741  0.00  0.00     0.001 A 
ENDROOT
BRANCH   1   8
ATOM      8  C1  UNL d   1       1.348  -4.860  -5.161  0.00  0.00     0.053 C 
ATOM      9  C   UNL d   1       2.239  -5.989  -4.667  0.00  0.00     0.018 C 
ENDBRANCH   1   8
TORSDOF 1
ENDMDL
