MODEL 1
REMARK minimizedAffinity 6.17961454
REMARK minimizedRMSD -1
REMARK  1 active torsions:
REMARK  status: ('A' for Active; 'I' for Inactive)
REMARK    1  A    between atoms: C1_2  and  C2_3 
ROOT
ATOM      1  C2  UNL d   1      -2.154   1.622  -3.154  0.00  0.00    -0.073 A 
ATOM      2  C3  UNL d   1      -3.207   2.263  -3.817  0.00  0.00    -0.002 A 
ATOM      3  C4  UNL d   1      -4.524   1.847  -3.616  0.00  0.00     0.004 A 
ATOM      4  C5  UNL d   1      -4.802   0.794  -2.746  0.00  0.00    -0.004 A 
ATOM      5  C6  UNL d   1      -3.765   0.149  -2.064  0.00  0.00    -0.075 A 
ATOM      6  C7  UNL d   1      -4.048  -0.988  -1.126  0.00  0.00     0.076 C 
ATOM      7  C8  UNL d   1      -2.445   0.570  -2.273  0.00  0.00     0.001 A 
ENDROOT
BRANCH   1   8
ATOM      8  C1  UNL d   1      -0.731   2.071  -3.363  0.00  0.00     0.053 C 
ATOM      9  C   UNL d   1      -0.648   3.538  -3.757  0.00  0.00     0.018 C 
ENDBRANCH   1   8
TORSDOF 1
ENDMDL
