MODEL 1
REMARK minimizedAffinity 10.0015993
REMARK minimizedRMSD -1
REMARK  1 active torsions:
REMARK  status: ('A' for Active; 'I' for Inactive)
REMARK    1  A    between atoms: C1_2  and  C2_3 
ROOT
ATOM      1  C2  UNL d   1      -4.314   1.135  -3.287  0.00  0.00    -0.073 A 
ATOM      2  C3  UNL d   1      -5.105   1.402  -2.164  0.00  0.00    -0.002 A 
ATOM      3  C4  UNL d   1      -5.705   0.357  -1.460  0.00  0.00     0.004 A 
ATOM      4  C5  UNL d   1      -5.515  -0.963  -1.866  0.00  0.00    -0.004 A 
ATOM      5  C6  UNL d   1      -4.718  -1.251  -2.979  0.00  0.00    -0.075 A 
ATOM      6  C7  UNL d   1      -4.505  -2.666  -3.430  0.00  0.00     0.076 C 
ATOM      7  C8  UNL d   1      -4.121  -0.196  -3.682  0.00  0.00     0.001 A 
ENDROOT
BRANCH   1   8
ATOM      8  C1  UNL d   1      -3.658   2.260  -4.046  0.00  0.00     0.053 C 
ATOM      9  C   UNL d   1      -2.230   2.503  -3.585  0.00  0.00     0.018 C 
ENDBRANCH   1   8
TORSDOF 1
ENDMDL
