MODEL 1
REMARK minimizedAffinity 4.92212772
REMARK minimizedRMSD -1
REMARK  1 active torsions:
REMARK  status: ('A' for Active; 'I' for Inactive)
REMARK    1  A    between atoms: C1_2  and  C2_3 
ROOT
ATOM      1  C2  UNL d   1       2.252  -0.885   1.449  0.00  0.00    -0.073 A 
ATOM      2  C3  UNL d   1       1.906  -1.297   2.741  0.00  0.00    -0.002 A 
ATOM      3  C4  UNL d   1       2.882  -1.402   3.732  0.00  0.00     0.004 A 
ATOM      4  C5  UNL d   1       4.211  -1.090   3.445  0.00  0.00    -0.004 A 
ATOM      5  C6  UNL d   1       4.574  -0.666   2.163  0.00  0.00    -0.075 A 
ATOM      6  C7  UNL d   1       6.000  -0.329   1.837  0.00  0.00     0.076 C 
ATOM      7  C8  UNL d   1       3.589  -0.565   1.172  0.00  0.00     0.001 A 
ENDROOT
BRANCH   1   8
ATOM      8  C1  UNL d   1       1.200  -0.764   0.376  0.00  0.00     0.053 C 
ATOM      9  C   UNL d   1       0.430  -2.060   0.184  0.00  0.00     0.018 C 
ENDBRANCH   1   8
TORSDOF 1
ENDMDL
