MODEL 1
REMARK minimizedAffinity 0.0898822919
REMARK minimizedRMSD -1
REMARK  1 active torsions:
REMARK  status: ('A' for Active; 'I' for Inactive)
REMARK    1  A    between atoms: C1_2  and  C2_3 
ROOT
ATOM      1  C2  UNL d   1       1.063  -0.685   0.318  0.00  0.00    -0.073 A 
ATOM      2  C3  UNL d   1       0.579  -1.992   0.449  0.00  0.00    -0.002 A 
ATOM      3  C4  UNL d   1       1.408  -3.005   0.933  0.00  0.00     0.004 A 
ATOM      4  C5  UNL d   1       2.724  -2.722   1.296  0.00  0.00    -0.004 A 
ATOM      5  C6  UNL d   1       3.223  -1.420   1.184  0.00  0.00    -0.075 A 
ATOM      6  C7  UNL d   1       4.637  -1.099   1.569  0.00  0.00     0.076 C 
ATOM      7  C8  UNL d   1       2.385  -0.408   0.695  0.00  0.00     0.001 A 
ENDROOT
BRANCH   1   8
ATOM      8  C1  UNL d   1       0.171   0.414  -0.197  0.00  0.00     0.053 C 
ATOM      9  C   UNL d   1       0.272   0.570  -1.706  0.00  0.00     0.018 C 
ENDBRANCH   1   8
TORSDOF 1
ENDMDL
