MODEL 1
REMARK minimizedAffinity 2.89006329
REMARK minimizedRMSD -1
REMARK  1 active torsions:
REMARK  status: ('A' for Active; 'I' for Inactive)
REMARK    1  A    between atoms: C1_2  and  C2_3 
ROOT
ATOM      1  C2  UNL d   1      -2.363  -4.735  -1.709  0.00  0.00    -0.073 A 
ATOM      2  C3  UNL d   1      -3.608  -5.028  -2.278  0.00  0.00    -0.002 A 
ATOM      3  C4  UNL d   1      -3.702  -5.376  -3.626  0.00  0.00     0.004 A 
ATOM      4  C5  UNL d   1      -2.555  -5.441  -4.417  0.00  0.00    -0.004 A 
ATOM      5  C6  UNL d   1      -1.301  -5.163  -3.863  0.00  0.00    -0.075 A 
ATOM      6  C7  UNL d   1      -0.057  -5.227  -4.700  0.00  0.00     0.076 C 
ATOM      7  C8  UNL d   1      -1.214  -4.812  -2.509  0.00  0.00     0.001 A 
ENDROOT
BRANCH   1   8
ATOM      8  C1  UNL d   1      -2.256  -4.365  -0.252  0.00  0.00     0.053 C 
ATOM      9  C   UNL d   1      -1.036  -3.502   0.028  0.00  0.00     0.018 C 
ENDBRANCH   1   8
TORSDOF 1
ENDMDL
