MODEL 1
REMARK minimizedAffinity 6.59298325
REMARK minimizedRMSD -1
REMARK  1 active torsions:
REMARK  status: ('A' for Active; 'I' for Inactive)
REMARK    1  A    between atoms: C1_2  and  C2_3 
ROOT
ATOM      1  C2  UNL d   1      -3.248  -1.293   0.125  0.00  0.00    -0.073 A 
ATOM      2  C3  UNL d   1      -3.075  -2.682   0.138  0.00  0.00    -0.002 A 
ATOM      3  C4  UNL d   1      -1.804  -3.232   0.305  0.00  0.00     0.004 A 
ATOM      4  C5  UNL d   1      -0.695  -2.402   0.466  0.00  0.00    -0.004 A 
ATOM      5  C6  UNL d   1      -0.849  -1.012   0.467  0.00  0.00    -0.075 A 
ATOM      6  C7  UNL d   1       0.334  -0.104   0.637  0.00  0.00     0.076 C 
ATOM      7  C8  UNL d   1      -2.129  -0.466   0.297  0.00  0.00     0.001 A 
ENDROOT
BRANCH   1   8
ATOM      8  C1  UNL d   1      -4.620  -0.694  -0.049  0.00  0.00     0.053 C 
ATOM      9  C   UNL d   1      -5.057  -0.681  -1.505  0.00  0.00     0.018 C 
ENDBRANCH   1   8
TORSDOF 1
ENDMDL
