MODEL 1
REMARK minimizedAffinity 7.46233606
REMARK minimizedRMSD -1
REMARK  1 active torsions:
REMARK  status: ('A' for Active; 'I' for Inactive)
REMARK    1  A    between atoms: C1_2  and  C2_3 
ROOT
ATOM      1  C2  UNL d   1      -2.431  -4.950  -1.862  0.00  0.00    -0.073 A 
ATOM      2  C3  UNL d   1      -3.675  -5.373  -2.344  0.00  0.00    -0.002 A 
ATOM      3  C4  UNL d   1      -3.792  -5.890  -3.635  0.00  0.00     0.004 A 
ATOM      4  C5  UNL d   1      -2.668  -5.996  -4.453  0.00  0.00    -0.004 A 
ATOM      5  C6  UNL d   1      -1.414  -5.590  -3.986  0.00  0.00    -0.075 A 
ATOM      6  C7  UNL d   1      -0.195  -5.695  -4.854  0.00  0.00     0.076 C 
ATOM      7  C8  UNL d   1      -1.305  -5.069  -2.689  0.00  0.00     0.001 A 
ENDROOT
BRANCH   1   8
ATOM      8  C1  UNL d   1      -2.298  -4.397  -0.467  0.00  0.00     0.053 C 
ATOM      9  C   UNL d   1      -1.036  -3.565  -0.301  0.00  0.00     0.018 C 
ENDBRANCH   1   8
TORSDOF 1
ENDMDL
