MODEL 1
REMARK minimizedAffinity 8.2256403
REMARK minimizedRMSD -1
REMARK  1 active torsions:
REMARK  status: ('A' for Active; 'I' for Inactive)
REMARK    1  A    between atoms: C1_2  and  C2_3 
ROOT
ATOM      1  C2  UNL d   1       3.925  -3.503   5.285  0.00  0.00    -0.073 A 
ATOM      2  C3  UNL d   1       4.378  -2.388   6.000  0.00  0.00    -0.002 A 
ATOM      3  C4  UNL d   1       4.556  -1.163   5.356  0.00  0.00     0.004 A 
ATOM      4  C5  UNL d   1       4.276  -1.038   3.995  0.00  0.00    -0.004 A 
ATOM      5  C6  UNL d   1       3.812  -2.137   3.267  0.00  0.00    -0.075 A 
ATOM      6  C7  UNL d   1       3.509  -2.020   1.802  0.00  0.00     0.076 C 
ATOM      7  C8  UNL d   1       3.638  -3.365   3.920  0.00  0.00     0.001 A 
ENDROOT
BRANCH   1   8
ATOM      8  C1  UNL d   1       3.726  -4.827   5.977  0.00  0.00     0.053 C 
ATOM      9  C   UNL d   1       4.076  -6.000   5.076  0.00  0.00     0.018 C 
ENDBRANCH   1   8
TORSDOF 1
ENDMDL
