MODEL 1
REMARK minimizedAffinity -5.64715385
REMARK minimizedRMSD -1
REMARK  0 active torsions:
REMARK  status: ('A' for Active; 'I' for Inactive)
ROOT
ATOM      1  C4' PXY d   1       1.533   1.125   0.219  0.00  0.00     0.077 C 
ATOM      2  C1' PXY d   1      -2.803  -1.231  -2.793  0.00  0.00     0.077 C 
ATOM      3  C1  PXY d   1      -1.657  -0.619  -2.011  0.00  0.00    -0.082 A 
ATOM      4  C2  PXY d   1      -1.856  -0.218  -0.766  0.00  0.00     0.003 A 
ATOM      5  C3  PXY d   1      -0.840   0.367  -0.055  0.00  0.00     0.003 A 
ATOM      6  C4  PXY d   1       0.408   0.493  -0.606  0.00  0.00    -0.082 A 
ATOM      7  C5  PXY d   1       0.621   0.077  -1.872  0.00  0.00     0.003 A 
ATOM      8  C6  PXY d   1      -0.434  -0.476  -2.591  0.00  0.00     0.003 A 
ENDROOT
TORSDOF 0
ENDMDL
