MODEL 1
REMARK minimizedAffinity -4.16313028
REMARK minimizedRMSD -1
REMARK  0 active torsions:
REMARK  status: ('A' for Active; 'I' for Inactive)
ROOT
ATOM      1  C4' PXY d   1      -2.218   0.545  -0.871  0.00  0.00     0.077 C 
ATOM      2  C1' PXY d   1       3.271  -0.291   0.738  0.00  0.00     0.077 C 
ATOM      3  C1  PXY d   1       1.832  -0.061   0.322  0.00  0.00    -0.082 A 
ATOM      4  C2  PXY d   1       1.069  -1.094   0.004  0.00  0.00     0.003 A 
ATOM      5  C3  PXY d   1      -0.226  -0.901  -0.404  0.00  0.00     0.003 A 
ATOM      6  C4  PXY d   1      -0.761   0.359  -0.437  0.00  0.00    -0.082 A 
ATOM      7  C5  PXY d   1       0.007   1.417  -0.103  0.00  0.00     0.003 A 
ATOM      8  C6  PXY d   1       1.331   1.204   0.269  0.00  0.00     0.003 A 
ENDROOT
TORSDOF 0
ENDMDL
