MODEL 1
REMARK minimizedAffinity -1.60422862
REMARK minimizedRMSD -1
REMARK  0 active torsions:
REMARK  status: ('A' for Active; 'I' for Inactive)
ROOT
ATOM      1  C4' PXY d   1       1.170  -3.089   2.069  0.00  0.00     0.077 C 
ATOM      2  C1' PXY d   1       2.119   2.194  -0.076  0.00  0.00     0.077 C 
ATOM      3  C1  PXY d   1       1.883   0.807   0.489  0.00  0.00    -0.082 A 
ATOM      4  C2  PXY d   1       0.827   0.112   0.097  0.00  0.00     0.003 A 
ATOM      5  C3  PXY d   1       0.581  -1.130   0.622  0.00  0.00     0.003 A 
ATOM      6  C4  PXY d   1       1.453  -1.689   1.518  0.00  0.00    -0.082 A 
ATOM      7  C5  PXY d   1       2.538  -0.991   1.915  0.00  0.00     0.003 A 
ATOM      8  C6  PXY d   1       2.748   0.286   1.401  0.00  0.00     0.003 A 
ENDROOT
TORSDOF 0
ENDMDL
