MODEL 1
REMARK minimizedAffinity -3.98643327
REMARK minimizedRMSD -1
REMARK  0 active torsions:
REMARK  status: ('A' for Active; 'I' for Inactive)
ROOT
ATOM      1  C4' PXY d   1      -2.257  -0.003  -0.896  0.00  0.00     0.077 C 
ATOM      2  C1' PXY d   1       3.048   0.256   1.385  0.00  0.00     0.077 C 
ATOM      3  C1  PXY d   1       1.660   0.176   0.782  0.00  0.00    -0.082 A 
ATOM      4  C2  PXY d   1       0.995   1.290   0.520  0.00  0.00     0.003 A 
ATOM      5  C3  PXY d   1      -0.274   1.236   0.004  0.00  0.00     0.003 A 
ATOM      6  C4  PXY d   1      -0.849   0.030  -0.296  0.00  0.00    -0.082 A 
ATOM      7  C5  PXY d   1      -0.173  -1.111  -0.041  0.00  0.00     0.003 A 
ATOM      8  C6  PXY d   1       1.098  -1.035   0.521  0.00  0.00     0.003 A 
ENDROOT
TORSDOF 0
ENDMDL
