MODEL 1
REMARK minimizedAffinity -5.73527527
REMARK minimizedRMSD -1
REMARK  0 active torsions:
REMARK  status: ('A' for Active; 'I' for Inactive)
ROOT
ATOM      1  C4' PXY d   1      -2.126   0.391  -0.549  0.00  0.00     0.077 C 
ATOM      2  C1' PXY d   1       3.415  -0.258   0.964  0.00  0.00     0.077 C 
ATOM      3  C1  PXY d   1       1.962  -0.075   0.571  0.00  0.00    -0.082 A 
ATOM      4  C2  PXY d   1       1.154  -1.123   0.547  0.00  0.00     0.003 A 
ATOM      5  C3  PXY d   1      -0.154  -0.981   0.163  0.00  0.00     0.003 A 
ATOM      6  C4  PXY d   1      -0.654   0.255  -0.149  0.00  0.00    -0.082 A 
ATOM      7  C5  PXY d   1       0.161   1.330  -0.117  0.00  0.00     0.003 A 
ATOM      8  C6  PXY d   1       1.497   1.159   0.235  0.00  0.00     0.003 A 
ENDROOT
TORSDOF 0
ENDMDL
