MODEL 1
REMARK minimizedAffinity -5.65105724
REMARK minimizedRMSD -1
REMARK  0 active torsions:
REMARK  status: ('A' for Active; 'I' for Inactive)
ROOT
ATOM      1  C4' PXY d   1       3.390  -1.449   2.134  0.00  0.00     0.077 C 
ATOM      2  C1' PXY d   1      -1.615   0.031  -0.351  0.00  0.00     0.077 C 
ATOM      3  C1  PXY d   1      -0.309  -0.365   0.308  0.00  0.00    -0.082 A 
ATOM      4  C2  PXY d   1       0.732   0.450   0.241  0.00  0.00     0.003 A 
ATOM      5  C3  PXY d   1       1.930   0.093   0.805  0.00  0.00     0.003 A 
ATOM      6  C4  PXY d   1       2.049  -1.086   1.490  0.00  0.00    -0.082 A 
ATOM      7  C5  PXY d   1       0.989  -1.918   1.572  0.00  0.00     0.003 A 
ATOM      8  C6  PXY d   1      -0.206  -1.556   0.958  0.00  0.00     0.003 A 
ENDROOT
TORSDOF 0
ENDMDL
