MODEL 1
REMARK minimizedAffinity -2.03252554
REMARK minimizedRMSD -1
REMARK  0 active torsions:
REMARK  status: ('A' for Active; 'I' for Inactive)
ROOT
ATOM      1  C4' PXY d   1       3.932  -0.264   1.030  0.00  0.00     0.077 C 
ATOM      2  C1' PXY d   1      -1.636   0.627  -0.239  0.00  0.00     0.077 C 
ATOM      3  C1  PXY d   1      -0.179   0.381   0.098  0.00  0.00    -0.082 A 
ATOM      4  C2  PXY d   1       0.627   1.410   0.303  0.00  0.00     0.003 A 
ATOM      5  C3  PXY d   1       1.955   1.207   0.577  0.00  0.00     0.003 A 
ATOM      6  C4  PXY d   1       2.451  -0.064   0.696  0.00  0.00    -0.082 A 
ATOM      7  C5  PXY d   1       1.633  -1.119   0.499  0.00  0.00     0.003 A 
ATOM      8  C6  PXY d   1       0.297  -0.891   0.181  0.00  0.00     0.003 A 
ENDROOT
TORSDOF 0
ENDMDL
