MODEL 1
REMARK minimizedAffinity -5.77329111
REMARK minimizedRMSD -1
REMARK  0 active torsions:
REMARK  status: ('A' for Active; 'I' for Inactive)
ROOT
ATOM      1  C4' PXY d   1       3.523  -0.624   0.849  0.00  0.00     0.077 C 
ATOM      2  C1' PXY d   1      -2.055   0.234  -0.401  0.00  0.00     0.077 C 
ATOM      3  C1  PXY d   1      -0.596   0.001  -0.063  0.00  0.00    -0.082 A 
ATOM      4  C2  PXY d   1       0.314   0.876  -0.459  0.00  0.00     0.003 A 
ATOM      5  C3  PXY d   1       1.642   0.665  -0.189  0.00  0.00     0.003 A 
ATOM      6  C4  PXY d   1       2.037  -0.425   0.538  0.00  0.00    -0.082 A 
ATOM      7  C5  PXY d   1       1.113  -1.317   0.955  0.00  0.00     0.003 A 
ATOM      8  C6  PXY d   1      -0.225  -1.106   0.635  0.00  0.00     0.003 A 
ENDROOT
TORSDOF 0
ENDMDL
