MODEL 1
REMARK minimizedAffinity -3.14964676
REMARK minimizedRMSD -1
REMARK  0 active torsions:
REMARK  status: ('A' for Active; 'I' for Inactive)
ROOT
ATOM      1  C4' PXY d   1      -1.414   0.732  -0.907  0.00  0.00     0.077 C 
ATOM      2  C1' PXY d   1       3.245  -0.704   2.199  0.00  0.00     0.077 C 
ATOM      3  C1  PXY d   1       2.023  -0.316   1.390  0.00  0.00    -0.082 A 
ATOM      4  C2  PXY d   1       1.195  -1.255   0.963  0.00  0.00     0.003 A 
ATOM      5  C3  PXY d   1       0.103  -0.924   0.202  0.00  0.00     0.003 A 
ATOM      6  C4  PXY d   1      -0.173   0.387  -0.079  0.00  0.00    -0.082 A 
ATOM      7  C5  PXY d   1       0.661   1.352   0.362  0.00  0.00     0.003 A 
ATOM      8  C6  PXY d   1       1.786   0.992   1.098  0.00  0.00     0.003 A 
ENDROOT
TORSDOF 0
ENDMDL
