MODEL 1
REMARK minimizedAffinity -4.14930439
REMARK minimizedRMSD -1
REMARK  0 active torsions:
REMARK  status: ('A' for Active; 'I' for Inactive)
ROOT
ATOM      1  C4' PXY d   1      -2.035   0.420  -0.419  0.00  0.00     0.077 C 
ATOM      2  C1' PXY d   1       3.389  -0.327   1.435  0.00  0.00     0.077 C 
ATOM      3  C1  PXY d   1       1.965  -0.144   0.947  0.00  0.00    -0.082 A 
ATOM      4  C2  PXY d   1       1.588   1.025   0.455  0.00  0.00     0.003 A 
ATOM      5  C3  PXY d   1       0.295   1.217   0.039  0.00  0.00     0.003 A 
ATOM      6  C4  PXY d   1      -0.605   0.187   0.077  0.00  0.00    -0.082 A 
ATOM      7  C5  PXY d   1      -0.225  -1.012   0.567  0.00  0.00     0.003 A 
ATOM      8  C6  PXY d   1       1.080  -1.175   1.023  0.00  0.00     0.003 A 
ENDROOT
TORSDOF 0
ENDMDL
