MODEL 1
REMARK minimizedAffinity -3.69630909
REMARK minimizedRMSD -1
REMARK  0 active torsions:
REMARK  status: ('A' for Active; 'I' for Inactive)
ROOT
ATOM      1  C4' PXY d   1       3.753  -0.935   1.273  0.00  0.00     0.077 C 
ATOM      2  C1' PXY d   1      -1.386   0.687  -0.818  0.00  0.00     0.077 C 
ATOM      3  C1  PXY d   1      -0.033   0.274  -0.273  0.00  0.00    -0.082 A 
ATOM      4  C2  PXY d   1       0.273  -1.011  -0.189  0.00  0.00     0.003 A 
ATOM      5  C3  PXY d   1       1.480  -1.404   0.331  0.00  0.00     0.003 A 
ATOM      6  C4  PXY d   1       2.403  -0.471   0.720  0.00  0.00    -0.082 A 
ATOM      7  C5  PXY d   1       2.102   0.842   0.628  0.00  0.00     0.003 A 
ATOM      8  C6  PXY d   1       0.856   1.219   0.135  0.00  0.00     0.003 A 
ENDROOT
TORSDOF 0
ENDMDL
