MODEL 1
REMARK minimizedAffinity -3.77845693
REMARK minimizedRMSD -1
REMARK  0 active torsions:
REMARK  status: ('A' for Active; 'I' for Inactive)
ROOT
ATOM      1  C4' PXY d   1      -1.375   0.293  -0.167  0.00  0.00     0.077 C 
ATOM      2  C1' PXY d   1       4.007  -0.797   1.640  0.00  0.00     0.077 C 
ATOM      3  C1  PXY d   1       2.598  -0.499   1.168  0.00  0.00    -0.082 A 
ATOM      4  C2  PXY d   1       1.656  -1.419   1.297  0.00  0.00     0.003 A 
ATOM      5  C3  PXY d   1       0.384  -1.177   0.846  0.00  0.00     0.003 A 
ATOM      6  C4  PXY d   1       0.060   0.038   0.305  0.00  0.00    -0.082 A 
ATOM      7  C5  PXY d   1       1.013   0.986   0.179  0.00  0.00     0.003 A 
ATOM      8  C6  PXY d   1       2.308   0.706   0.606  0.00  0.00     0.003 A 
ENDROOT
TORSDOF 0
ENDMDL
