MODEL 1
REMARK minimizedAffinity -3.91640973
REMARK minimizedRMSD -1
REMARK  0 active torsions:
REMARK  status: ('A' for Active; 'I' for Inactive)
ROOT
ATOM      1  C4' PXY d   1      -1.914   0.088  -0.326  0.00  0.00     0.077 C 
ATOM      2  C1' PXY d   1       3.731  -0.288   0.860  0.00  0.00     0.077 C 
ATOM      3  C1  PXY d   1       2.251  -0.177   0.554  0.00  0.00    -0.082 A 
ATOM      4  C2  PXY d   1       1.509  -1.271   0.504  0.00  0.00     0.003 A 
ATOM      5  C3  PXY d   1       0.175  -1.192   0.196  0.00  0.00     0.003 A 
ATOM      6  C4  PXY d   1      -0.417   0.025  -0.011  0.00  0.00    -0.082 A 
ATOM      7  C5  PXY d   1       0.331   1.147   0.049  0.00  0.00     0.003 A 
ATOM      8  C6  PXY d   1       1.691   1.042   0.322  0.00  0.00     0.003 A 
ENDROOT
TORSDOF 0
ENDMDL
