MODEL 1
REMARK minimizedAffinity -4.878407
REMARK minimizedRMSD -1
REMARK  0 active torsions:
REMARK  status: ('A' for Active; 'I' for Inactive)
ROOT
ATOM      1  C4' PXY d   1      -1.908   0.172  -0.867  0.00  0.00     0.077 C 
ATOM      2  C1' PXY d   1       3.258  -0.623   1.602  0.00  0.00     0.077 C 
ATOM      3  C1  PXY d   1       1.902  -0.403   0.959  0.00  0.00    -0.082 A 
ATOM      4  C2  PXY d   1       1.141  -1.444   0.663  0.00  0.00     0.003 A 
ATOM      5  C3  PXY d   1      -0.073  -1.264   0.053  0.00  0.00     0.003 A 
ATOM      6  C4  PXY d   1      -0.537  -0.003  -0.209  0.00  0.00    -0.082 A 
ATOM      7  C5  PXY d   1       0.229   1.065   0.099  0.00  0.00     0.003 A 
ATOM      8  C6  PXY d   1       1.476   0.859   0.681  0.00  0.00     0.003 A 
ENDROOT
TORSDOF 0
ENDMDL
