MODEL 1
REMARK minimizedAffinity 3.38212013
REMARK minimizedRMSD -1
REMARK  1 active torsions:
REMARK  status: ('A' for Active; 'I' for Inactive)
REMARK    1  A    between atoms: C1_2  and  C2_3 
ROOT
ATOM      1  C2  UNL d   1       3.262  -2.038   3.611  0.00  0.00    -0.077 A 
ATOM      2  C3  UNL d   1       1.936  -2.321   3.255  0.00  0.00     0.002 A 
ATOM      3  C4  UNL d   1       1.262  -1.511   2.339  0.00  0.00     0.002 A 
ATOM      4  C5  UNL d   1       1.907  -0.416   1.768  0.00  0.00    -0.004 A 
ATOM      5  C6  UNL d   1       3.226  -0.125   2.118  0.00  0.00     0.002 A 
ATOM      6  C7  UNL d   1       3.900  -0.933   3.034  0.00  0.00     0.002 A 
ENDROOT
BRANCH   1   7
ATOM      7  C1  UNL d   1       4.006  -2.939   4.562  0.00  0.00     0.055 C 
ATOM      8  C   UNL d   1       3.886  -2.449   5.997  0.00  0.00     0.019 C 
ENDBRANCH   1   7
TORSDOF 1
ENDMDL
