MODEL 1
REMARK minimizedAffinity 3.80481315
REMARK minimizedRMSD -1
REMARK  1 active torsions:
REMARK  status: ('A' for Active; 'I' for Inactive)
REMARK    1  A    between atoms: C1_2  and  C2_3 
ROOT
ATOM      1  C2  UNL d   1       3.662  -1.507   2.250  0.00  0.00    -0.077 A 
ATOM      2  C3  UNL d   1       2.725  -1.127   1.279  0.00  0.00     0.002 A 
ATOM      3  C4  UNL d   1       1.434  -0.748   1.653  0.00  0.00     0.002 A 
ATOM      4  C5  UNL d   1       1.070  -0.742   2.998  0.00  0.00    -0.004 A 
ATOM      5  C6  UNL d   1       1.994  -1.121   3.971  0.00  0.00     0.002 A 
ATOM      6  C7  UNL d   1       3.284  -1.500   3.599  0.00  0.00     0.002 A 
ENDROOT
BRANCH   1   7
ATOM      7  C1  UNL d   1       5.069  -1.868   1.853  0.00  0.00     0.055 C 
ATOM      8  C   UNL d   1       6.000  -1.873   3.057  0.00  0.00     0.019 C 
ENDBRANCH   1   7
TORSDOF 1
ENDMDL
