MODEL 1
REMARK minimizedAffinity 2.37268782
REMARK minimizedRMSD -1
REMARK  1 active torsions:
REMARK  status: ('A' for Active; 'I' for Inactive)
REMARK    1  A    between atoms: C1_2  and  C2_3 
ROOT
ATOM      1  C2  UNL d   1       2.600  -1.302   2.485  0.00  0.00    -0.077 A 
ATOM      2  C3  UNL d   1       2.356  -0.981   3.827  0.00  0.00     0.002 A 
ATOM      3  C4  UNL d   1       2.063  -1.986   4.752  0.00  0.00     0.002 A 
ATOM      4  C5  UNL d   1       2.017  -3.317   4.345  0.00  0.00    -0.004 A 
ATOM      5  C6  UNL d   1       2.256  -3.647   3.011  0.00  0.00     0.002 A 
ATOM      6  C7  UNL d   1       2.548  -2.644   2.085  0.00  0.00     0.002 A 
ENDROOT
BRANCH   1   7
ATOM      7  C1  UNL d   1       2.964  -0.225   1.496  0.00  0.00     0.055 C 
ATOM      8  C   UNL d   1       2.539   1.149   1.993  0.00  0.00     0.019 C 
ENDBRANCH   1   7
TORSDOF 1
ENDMDL
