MODEL 1
REMARK minimizedAffinity -0.0720326751
REMARK minimizedRMSD -1
REMARK  1 active torsions:
REMARK  status: ('A' for Active; 'I' for Inactive)
REMARK    1  A    between atoms: C1_2  and  C2_3 
ROOT
ATOM      1  C2  UNL d   1       2.223   2.221   0.504  0.00  0.00    -0.077 A 
ATOM      2  C3  UNL d   1       2.747   2.947  -0.575  0.00  0.00     0.002 A 
ATOM      3  C4  UNL d   1       2.032   4.013  -1.123  0.00  0.00     0.002 A 
ATOM      4  C5  UNL d   1       0.791   4.366  -0.597  0.00  0.00    -0.004 A 
ATOM      5  C6  UNL d   1       0.260   3.649   0.475  0.00  0.00     0.002 A 
ATOM      6  C7  UNL d   1       0.973   2.582   1.024  0.00  0.00     0.002 A 
ENDROOT
BRANCH   1   7
ATOM      7  C1  UNL d   1       3.015   1.103   1.128  0.00  0.00     0.055 C 
ATOM      8  C   UNL d   1       2.171   0.311   2.117  0.00  0.00     0.019 C 
ENDBRANCH   1   7
TORSDOF 1
ENDMDL
