MODEL 1
REMARK minimizedAffinity 7.56814384
REMARK minimizedRMSD -1
REMARK  1 active torsions:
REMARK  status: ('A' for Active; 'I' for Inactive)
REMARK    1  A    between atoms: C1_2  and  C2_3 
ROOT
ATOM      1  C2  UNL d   1       2.303  -0.235   2.842  0.00  0.00    -0.077 A 
ATOM      2  C3  UNL d   1       2.793   0.065   1.563  0.00  0.00     0.002 A 
ATOM      3  C4  UNL d   1       3.219   1.359   1.256  0.00  0.00     0.002 A 
ATOM      4  C5  UNL d   1       3.162   2.361   2.222  0.00  0.00    -0.004 A 
ATOM      5  C6  UNL d   1       2.674   2.073   3.496  0.00  0.00     0.002 A 
ATOM      6  C7  UNL d   1       2.248   0.781   3.805  0.00  0.00     0.002 A 
ENDROOT
BRANCH   1   7
ATOM      7  C1  UNL d   1       1.890  -1.641   3.191  0.00  0.00     0.055 C 
ATOM      8  C   UNL d   1       2.333  -2.015   4.598  0.00  0.00     0.019 C 
ENDBRANCH   1   7
TORSDOF 1
ENDMDL
