MODEL 1
REMARK minimizedAffinity 5.06838512
REMARK minimizedRMSD -1
REMARK  1 active torsions:
REMARK  status: ('A' for Active; 'I' for Inactive)
REMARK    1  A    between atoms: C1_2  and  C2_3 
ROOT
ATOM      1  C2  UNL d   1       2.254  -1.206   3.131  0.00  0.00    -0.077 A 
ATOM      2  C3  UNL d   1       2.713  -2.344   2.453  0.00  0.00     0.002 A 
ATOM      3  C4  UNL d   1       3.199  -3.442   3.165  0.00  0.00     0.002 A 
ATOM      4  C5  UNL d   1       3.228  -3.414   4.558  0.00  0.00    -0.004 A 
ATOM      5  C6  UNL d   1       2.777  -2.285   5.241  0.00  0.00     0.002 A 
ATOM      6  C7  UNL d   1       2.291  -1.186   4.531  0.00  0.00     0.002 A 
ENDROOT
BRANCH   1   7
ATOM      7  C1  UNL d   1       1.684  -0.040   2.366  0.00  0.00     0.055 C 
ATOM      8  C   UNL d   1       2.785   0.840   1.794  0.00  0.00     0.019 C 
ENDBRANCH   1   7
TORSDOF 1
ENDMDL
