MODEL 1
REMARK minimizedAffinity 13.4794168
REMARK minimizedRMSD -1
REMARK  2 active torsions:
REMARK  status: ('A' for Active; 'I' for Inactive)
REMARK    1  A    between atoms: C2'_3  and  C1'_4 
REMARK    2  A    between atoms: C1'_4  and  C1_5 
ROOT
ATOM      1  C1  I4B d   1       4.499   0.005  -3.862  0.00  0.00    -0.075 A 
ATOM      2  C2  I4B d   1       3.720   1.136  -3.876  0.00  0.00     0.003 A 
ATOM      3  C3  I4B d   1       3.784   2.031  -4.971  0.00  0.00     0.002 A 
ATOM      4  C4  I4B d   1       4.670   1.785  -6.000  0.00  0.00    -0.004 A 
ATOM      5  C5  I4B d   1       5.442   0.627  -5.995  0.00  0.00     0.002 A 
ATOM      6  C6  I4B d   1       5.347  -0.276  -4.925  0.00  0.00     0.003 A 
ENDROOT
BRANCH   1   7
ATOM      7  C1' I4B d   1       4.430  -0.902  -2.674  0.00  0.00     0.060 C 
BRANCH   7   8
ATOM      8  C2' I4B d   1       3.072  -0.722  -2.027  0.00  0.00    -0.013 C 
ATOM      9  C4' I4B d   1       2.196  -1.926  -2.255  0.00  0.00     0.013 C 
ATOM     10  C3' I4B d   1       3.286  -0.477  -0.563  0.00  0.00     0.013 C 
ENDBRANCH   7   8
ENDBRANCH   1   7
TORSDOF 2
ENDMDL
