MODEL 1
REMARK minimizedAffinity 15.919898
REMARK minimizedRMSD -1
REMARK  2 active torsions:
REMARK  status: ('A' for Active; 'I' for Inactive)
REMARK    1  A    between atoms: C2'_3  and  C1'_4 
REMARK    2  A    between atoms: C1'_4  and  C1_5 
ROOT
ATOM      1  C1  I4B d   1       4.207  -0.476  -3.740  0.00  0.00    -0.075 A 
ATOM      2  C2  I4B d   1       5.187  -1.033  -4.523  0.00  0.00     0.003 A 
ATOM      3  C3  I4B d   1       5.674  -0.339  -5.656  0.00  0.00     0.002 A 
ATOM      4  C4  I4B d   1       5.122   0.879  -5.997  0.00  0.00    -0.004 A 
ATOM      5  C5  I4B d   1       4.144   1.453  -5.189  0.00  0.00     0.002 A 
ATOM      6  C6  I4B d   1       3.692   0.777  -4.046  0.00  0.00     0.003 A 
ENDROOT
BRANCH   1   7
ATOM      7  C1' I4B d   1       3.692  -1.252  -2.569  0.00  0.00     0.060 C 
BRANCH   7   8
ATOM      8  C2' I4B d   1       2.438  -1.981  -3.007  0.00  0.00    -0.013 C 
ATOM      9  C4' I4B d   1       2.335  -3.332  -2.350  0.00  0.00     0.013 C 
ATOM     10  C3' I4B d   1       1.259  -1.120  -2.663  0.00  0.00     0.013 C 
ENDBRANCH   7   8
ENDBRANCH   1   7
TORSDOF 2
ENDMDL
