MODEL 1
REMARK minimizedAffinity 14.0203056
REMARK minimizedRMSD -1
REMARK  2 active torsions:
REMARK  status: ('A' for Active; 'I' for Inactive)
REMARK    1  A    between atoms: C2'_3  and  C1'_4 
REMARK    2  A    between atoms: C1'_4  and  C1_5 
ROOT
ATOM      1  C1  I4B d   1      -0.687  -0.010   0.922  0.00  0.00    -0.075 A 
ATOM      2  C2  I4B d   1      -0.331  -1.314   1.158  0.00  0.00     0.003 A 
ATOM      3  C3  I4B d   1       0.970  -1.626   1.621  0.00  0.00     0.002 A 
ATOM      4  C4  I4B d   1       1.893  -0.614   1.786  0.00  0.00    -0.004 A 
ATOM      5  C5  I4B d   1       1.524   0.711   1.568  0.00  0.00     0.002 A 
ATOM      6  C6  I4B d   1       0.222   1.016   1.145  0.00  0.00     0.003 A 
ENDROOT
BRANCH   1   7
ATOM      7  C1' I4B d   1      -2.059   0.280   0.401  0.00  0.00     0.060 C 
BRANCH   7   8
ATOM      8  C2' I4B d   1      -2.273   1.779   0.459  0.00  0.00    -0.013 C 
ATOM      9  C4' I4B d   1      -2.767   2.311  -0.860  0.00  0.00     0.013 C 
ATOM     10  C3' I4B d   1      -3.251   2.065   1.559  0.00  0.00     0.013 C 
ENDBRANCH   7   8
ENDBRANCH   1   7
TORSDOF 2
ENDMDL
