MODEL 1
REMARK minimizedAffinity 3.92796206
REMARK minimizedRMSD -1
REMARK  2 active torsions:
REMARK  status: ('A' for Active; 'I' for Inactive)
REMARK    1  A    between atoms: C2'_3  and  C1'_4 
REMARK    2  A    between atoms: C1'_4  and  C1_5 
ROOT
ATOM      1  C1  I4B d   1       4.408  -1.127  -4.321  0.00  0.00    -0.075 A 
ATOM      2  C2  I4B d   1       3.708   0.054  -4.334  0.00  0.00     0.003 A 
ATOM      3  C3  I4B d   1       4.097   1.103  -5.202  0.00  0.00     0.002 A 
ATOM      4  C4  I4B d   1       5.214   0.948  -5.998  0.00  0.00    -0.004 A 
ATOM      5  C5  I4B d   1       5.908  -0.258  -6.000  0.00  0.00     0.002 A 
ATOM      6  C6  I4B d   1       5.496  -1.307  -5.165  0.00  0.00     0.003 A 
ENDROOT
BRANCH   1   7
ATOM      7  C1' I4B d   1       3.989  -2.202  -3.368  0.00  0.00     0.060 C 
BRANCH   7   8
ATOM      8  C2' I4B d   1       2.606  -2.671  -3.772  0.00  0.00    -0.013 C 
ATOM      9  C4' I4B d   1       2.373  -4.100  -3.357  0.00  0.00     0.013 C 
ATOM     10  C3' I4B d   1       1.603  -1.753  -3.139  0.00  0.00     0.013 C 
ENDBRANCH   7   8
ENDBRANCH   1   7
TORSDOF 2
ENDMDL
