MODEL 1
REMARK minimizedAffinity 0.335622489
REMARK minimizedRMSD -1
REMARK  2 active torsions:
REMARK  status: ('A' for Active; 'I' for Inactive)
REMARK    1  A    between atoms: C2'_3  and  C1'_4 
REMARK    2  A    between atoms: C1'_4  and  C1_5 
ROOT
ATOM      1  C1  I4B d   1       3.794  -0.487  -4.399  0.00  0.00    -0.075 A 
ATOM      2  C2  I4B d   1       4.836  -1.361  -4.585  0.00  0.00     0.003 A 
ATOM      3  C3  I4B d   1       5.967  -0.969  -5.341  0.00  0.00     0.002 A 
ATOM      4  C4  I4B d   1       5.992   0.278  -5.931  0.00  0.00    -0.004 A 
ATOM      5  C5  I4B d   1       4.945   1.171  -5.722  0.00  0.00     0.002 A 
ATOM      6  C6  I4B d   1       3.844   0.791  -4.941  0.00  0.00     0.003 A 
ENDROOT
BRANCH   1   7
ATOM      7  C1' I4B d   1       2.600  -0.945  -3.623  0.00  0.00     0.060 C 
BRANCH   7   8
ATOM      8  C2' I4B d   1       3.035  -2.088  -2.728  0.00  0.00    -0.013 C 
ATOM      9  C4' I4B d   1       2.671  -1.824  -1.291  0.00  0.00     0.013 C 
ATOM     10  C3' I4B d   1       2.384  -3.342  -3.230  0.00  0.00     0.013 C 
ENDBRANCH   7   8
ENDBRANCH   1   7
TORSDOF 2
ENDMDL
