MODEL 1
REMARK minimizedAffinity 9.80770111
REMARK minimizedRMSD -1
REMARK  2 active torsions:
REMARK  status: ('A' for Active; 'I' for Inactive)
REMARK    1  A    between atoms: C2'_3  and  C1'_4 
REMARK    2  A    between atoms: C1'_4  and  C1_5 
ROOT
ATOM      1  C1  I4B d   1       2.703  -1.120   0.479  0.00  0.00    -0.075 A 
ATOM      2  C2  I4B d   1       1.430  -0.682   0.751  0.00  0.00     0.003 A 
ATOM      3  C3  I4B d   1       0.764  -1.111   1.924  0.00  0.00     0.002 A 
ATOM      4  C4  I4B d   1       1.384  -2.012   2.767  0.00  0.00    -0.004 A 
ATOM      5  C5  I4B d   1       2.682  -2.437   2.501  0.00  0.00     0.002 A 
ATOM      6  C6  I4B d   1       3.351  -1.979   1.357  0.00  0.00     0.003 A 
ENDROOT
BRANCH   1   7
ATOM      7  C1' I4B d   1       3.364  -0.672  -0.786  0.00  0.00     0.060 C 
BRANCH   7   8
ATOM      8  C2' I4B d   1       3.190  -1.769  -1.817  0.00  0.00    -0.013 C 
ATOM      9  C4' I4B d   1       1.872  -1.641  -2.533  0.00  0.00     0.013 C 
ATOM     10  C3' I4B d   1       4.339  -1.688  -2.777  0.00  0.00     0.013 C 
ENDBRANCH   7   8
ENDBRANCH   1   7
TORSDOF 2
ENDMDL
