MODEL 1
REMARK minimizedAffinity 2.52048111
REMARK minimizedRMSD -1
REMARK  2 active torsions:
REMARK  status: ('A' for Active; 'I' for Inactive)
REMARK    1  A    between atoms: C2'_3  and  C1'_4 
REMARK    2  A    between atoms: C1'_4  and  C1_5 
ROOT
ATOM      1  C1  I4B d   1       4.696  -1.498  -3.951  0.00  0.00    -0.075 A 
ATOM      2  C2  I4B d   1       5.797  -1.585  -4.767  0.00  0.00     0.003 A 
ATOM      3  C3  I4B d   1       6.000  -0.631  -5.794  0.00  0.00     0.002 A 
ATOM      4  C4  I4B d   1       5.058   0.356  -6.000  0.00  0.00    -0.004 A 
ATOM      5  C5  I4B d   1       3.954   0.456  -5.157  0.00  0.00     0.002 A 
ATOM      6  C6  I4B d   1       3.778  -0.470  -4.119  0.00  0.00     0.003 A 
ENDROOT
BRANCH   1   7
ATOM      7  C1' I4B d   1       4.495  -2.542  -2.898  0.00  0.00     0.060 C 
BRANCH   7   8
ATOM      8  C2' I4B d   1       3.070  -2.432  -2.398  0.00  0.00    -0.013 C 
ATOM      9  C4' I4B d   1       2.327  -3.730  -2.578  0.00  0.00     0.013 C 
ATOM     10  C3' I4B d   1       3.115  -2.031  -0.954  0.00  0.00     0.013 C 
ENDBRANCH   7   8
ENDBRANCH   1   7
TORSDOF 2
ENDMDL
