MODEL 1
REMARK minimizedAffinity -0.602265835
REMARK minimizedRMSD -1
REMARK  0 active torsions:
REMARK  status: ('A' for Active; 'I' for Inactive)
ROOT
ATOM      1  C2' OXE d   1       0.230   1.018  -0.127  0.00  0.00     0.078 C 
ATOM      2  C1' OXE d   1       0.310  -0.641  -2.391  0.00  0.00     0.078 C 
ATOM      3  C1  OXE d   1      -0.254  -1.217  -1.116  0.00  0.00    -0.078 A 
ATOM      4  C2  OXE d   1      -0.247  -0.413  -0.001  0.00  0.00    -0.078 A 
ATOM      5  C3  OXE d   1      -0.806  -0.876   1.186  0.00  0.00     0.003 A 
ATOM      6  C4  OXE d   1      -1.235  -2.205   1.297  0.00  0.00    -0.002 A 
ATOM      7  C5  OXE d   1      -1.215  -3.052   0.184  0.00  0.00    -0.002 A 
ATOM      8  C6  OXE d   1      -0.768  -2.562  -1.038  0.00  0.00     0.003 A 
ENDROOT
TORSDOF 0
ENDMDL
