MODEL 1
REMARK minimizedAffinity 0.137421519
REMARK minimizedRMSD -1
REMARK  0 active torsions:
REMARK  status: ('A' for Active; 'I' for Inactive)
ROOT
ATOM      1  C2' OXE d   1      -0.710   0.528   0.787  0.00  0.00     0.078 C 
ATOM      2  C1' OXE d   1       1.245   0.416  -1.224  0.00  0.00     0.078 C 
ATOM      3  C1  OXE d   1       1.339   1.532  -0.213  0.00  0.00    -0.078 A 
ATOM      4  C2  OXE d   1       0.351   1.606   0.740  0.00  0.00    -0.078 A 
ATOM      5  C3  OXE d   1       0.419   2.583   1.729  0.00  0.00     0.003 A 
ATOM      6  C4  OXE d   1       1.398   3.582   1.671  0.00  0.00    -0.002 A 
ATOM      7  C5  OXE d   1       2.391   3.548   0.686  0.00  0.00    -0.002 A 
ATOM      8  C6  OXE d   1       2.400   2.508  -0.237  0.00  0.00     0.003 A 
ENDROOT
TORSDOF 0
ENDMDL
