MODEL 1
REMARK minimizedAffinity 3.0757761
REMARK minimizedRMSD -1
REMARK  0 active torsions:
REMARK  status: ('A' for Active; 'I' for Inactive)
ROOT
ATOM      1  C2' OXE d   1       2.426   0.751  -0.753  0.00  0.00     0.078 C 
ATOM      2  C1' OXE d   1       0.459  -0.138  -2.547  0.00  0.00     0.078 C 
ATOM      3  C1  OXE d   1       0.069   0.023  -1.099  0.00  0.00    -0.078 A 
ATOM      4  C2  OXE d   1       1.051   0.413  -0.220  0.00  0.00    -0.078 A 
ATOM      5  C3  OXE d   1       0.731   0.629   1.117  0.00  0.00     0.003 A 
ATOM      6  C4  OXE d   1      -0.541   0.305   1.604  0.00  0.00    -0.002 A 
ATOM      7  C5  OXE d   1      -1.544  -0.132   0.732  0.00  0.00    -0.002 A 
ATOM      8  C6  OXE d   1      -1.268  -0.238  -0.626  0.00  0.00     0.003 A 
ENDROOT
TORSDOF 0
ENDMDL
