MODEL 1
REMARK minimizedAffinity -1.35019517
REMARK minimizedRMSD -1
REMARK  0 active torsions:
REMARK  status: ('A' for Active; 'I' for Inactive)
ROOT
ATOM      1  C2' OXE d   1       0.838   1.684  -0.004  0.00  0.00     0.078 C 
ATOM      2  C1' OXE d   1       0.122   0.175  -2.260  0.00  0.00     0.078 C 
ATOM      3  C1  OXE d   1      -0.300  -0.340  -0.906  0.00  0.00    -0.078 A 
ATOM      4  C2  OXE d   1       0.095   0.381   0.195  0.00  0.00    -0.078 A 
ATOM      5  C3  OXE d   1      -0.315  -0.019   1.464  0.00  0.00     0.003 A 
ATOM      6  C4  OXE d   1      -0.993  -1.231   1.640  0.00  0.00    -0.002 A 
ATOM      7  C5  OXE d   1      -1.370  -2.001   0.535  0.00  0.00    -0.002 A 
ATOM      8  C6  OXE d   1      -1.069  -1.549  -0.745  0.00  0.00     0.003 A 
ENDROOT
TORSDOF 0
ENDMDL
