MODEL 1
REMARK minimizedAffinity -0.16756101
REMARK minimizedRMSD -1
REMARK  0 active torsions:
REMARK  status: ('A' for Active; 'I' for Inactive)
ROOT
ATOM      1  C2' OXE d   1       1.986   3.572   1.205  0.00  0.00     0.078 C 
ATOM      2  C1' OXE d   1       3.810   1.961  -0.195  0.00  0.00     0.078 C 
ATOM      3  C1  OXE d   1       2.359   1.550  -0.201  0.00  0.00    -0.078 A 
ATOM      4  C2  OXE d   1       1.481   2.318   0.525  0.00  0.00    -0.078 A 
ATOM      5  C3  OXE d   1       0.123   2.014   0.509  0.00  0.00     0.003 A 
ATOM      6  C4  OXE d   1      -0.335   0.847  -0.114  0.00  0.00    -0.002 A 
ATOM      7  C5  OXE d   1       0.548   0.029  -0.826  0.00  0.00    -0.002 A 
ATOM      8  C6  OXE d   1       1.888   0.388  -0.915  0.00  0.00     0.003 A 
ENDROOT
TORSDOF 0
ENDMDL
