MODEL 1
REMARK minimizedAffinity 0.461922526
REMARK minimizedRMSD -1
REMARK  0 active torsions:
REMARK  status: ('A' for Active; 'I' for Inactive)
ROOT
ATOM      1  C2' OXE d   1       0.691   1.518   0.015  0.00  0.00     0.078 C 
ATOM      2  C1' OXE d   1       0.194  -0.193  -2.154  0.00  0.00     0.078 C 
ATOM      3  C1  OXE d   1      -0.276  -0.632  -0.789  0.00  0.00    -0.078 A 
ATOM      4  C2  OXE d   1       0.013   0.190   0.273  0.00  0.00    -0.078 A 
ATOM      5  C3  OXE d   1      -0.445  -0.141   1.545  0.00  0.00     0.003 A 
ATOM      6  C4  OXE d   1      -1.062  -1.376   1.777  0.00  0.00    -0.002 A 
ATOM      7  C5  OXE d   1      -1.331  -2.246   0.715  0.00  0.00    -0.002 A 
ATOM      8  C6  OXE d   1      -0.983  -1.871  -0.578  0.00  0.00     0.003 A 
ENDROOT
TORSDOF 0
ENDMDL
