MODEL 1
REMARK minimizedAffinity 2.34220219
REMARK minimizedRMSD -1
REMARK  0 active torsions:
REMARK  status: ('A' for Active; 'I' for Inactive)
ROOT
ATOM      1  C2' OXE d   1      -1.374  -1.669   2.284  0.00  0.00     0.078 C 
ATOM      2  C1' OXE d   1       0.917  -0.244   3.059  0.00  0.00     0.078 C 
ATOM      3  C1  OXE d   1       0.180   0.224   1.829  0.00  0.00    -0.078 A 
ATOM      4  C2  OXE d   1      -0.913  -0.507   1.430  0.00  0.00    -0.078 A 
ATOM      5  C3  OXE d   1      -1.661  -0.087   0.335  0.00  0.00     0.003 A 
ATOM      6  C4  OXE d   1      -1.223   0.983  -0.455  0.00  0.00    -0.002 A 
ATOM      7  C5  OXE d   1      -0.089   1.717  -0.090  0.00  0.00    -0.002 A 
ATOM      8  C6  OXE d   1       0.598   1.378   1.071  0.00  0.00     0.003 A 
ENDROOT
TORSDOF 0
ENDMDL
