MODEL 1
REMARK minimizedAffinity -2.8132143
REMARK minimizedRMSD -1
REMARK  0 active torsions:
REMARK  status: ('A' for Active; 'I' for Inactive)
ROOT
ATOM      1  C2' OXE d   1       1.995   0.061  -0.751  0.00  0.00     0.078 C 
ATOM      2  C1' OXE d   1      -0.651   0.728  -0.091  0.00  0.00     0.078 C 
ATOM      3  C1  OXE d   1       0.439   1.689   0.315  0.00  0.00    -0.078 A 
ATOM      4  C2  OXE d   1       1.735   1.331   0.030  0.00  0.00    -0.078 A 
ATOM      5  C3  OXE d   1       2.774   2.206   0.333  0.00  0.00     0.003 A 
ATOM      6  C4  OXE d   1       2.527   3.375   1.064  0.00  0.00    -0.002 A 
ATOM      7  C5  OXE d   1       1.218   3.738   1.400  0.00  0.00    -0.002 A 
ATOM      8  C6  OXE d   1       0.161   2.929   0.997  0.00  0.00     0.003 A 
ENDROOT
TORSDOF 0
ENDMDL
