MODEL 1
REMARK minimizedAffinity 3.33894205
REMARK minimizedRMSD -1
REMARK  0 active torsions:
REMARK  status: ('A' for Active; 'I' for Inactive)
ROOT
ATOM      1  C2' OXE d   1       0.578   1.568   0.004  0.00  0.00     0.078 C 
ATOM      2  C1' OXE d   1       0.113  -0.163  -2.157  0.00  0.00     0.078 C 
ATOM      3  C1  OXE d   1      -0.303  -0.625  -0.782  0.00  0.00    -0.078 A 
ATOM      4  C2  OXE d   1      -0.029   0.209   0.275  0.00  0.00    -0.078 A 
ATOM      5  C3  OXE d   1      -0.440  -0.145   1.557  0.00  0.00     0.003 A 
ATOM      6  C4  OXE d   1      -0.992  -1.409   1.800  0.00  0.00    -0.002 A 
ATOM      7  C5  OXE d   1      -1.243  -2.290   0.743  0.00  0.00    -0.002 A 
ATOM      8  C6  OXE d   1      -0.944  -1.897  -0.557  0.00  0.00     0.003 A 
ENDROOT
TORSDOF 0
ENDMDL
