MODEL 1
REMARK minimizedAffinity -4.07201385
REMARK minimizedRMSD -1
REMARK  0 active torsions:
REMARK  status: ('A' for Active; 'I' for Inactive)
ROOT
ATOM      1  C2' OXE d   1       2.010  -0.000  -1.587  0.00  0.00     0.078 C 
ATOM      2  C1' OXE d   1      -0.383   0.448  -0.190  0.00  0.00     0.078 C 
ATOM      3  C1  OXE d   1       0.764   1.395   0.058  0.00  0.00    -0.078 A 
ATOM      4  C2  OXE d   1       1.946   1.141  -0.595  0.00  0.00    -0.078 A 
ATOM      5  C3  OXE d   1       3.019   2.015  -0.444  0.00  0.00     0.003 A 
ATOM      6  C4  OXE d   1       2.955   3.062   0.484  0.00  0.00    -0.002 A 
ATOM      7  C5  OXE d   1       1.774   3.315   1.188  0.00  0.00    -0.002 A 
ATOM      8  C6  OXE d   1       0.658   2.519   0.956  0.00  0.00     0.003 A 
ENDROOT
TORSDOF 0
ENDMDL
