MODEL 1
REMARK minimizedAffinity 0.970975757
REMARK minimizedRMSD -1
REMARK  0 active torsions:
REMARK  status: ('A' for Active; 'I' for Inactive)
ROOT
ATOM      1  C2' OXE d   1      -1.651  -0.363   2.341  0.00  0.00     0.078 C 
ATOM      2  C1' OXE d   1      -1.132  -2.675   0.836  0.00  0.00     0.078 C 
ATOM      3  C1  OXE d   1      -0.602  -1.362   0.315  0.00  0.00    -0.078 A 
ATOM      4  C2  OXE d   1      -0.900  -0.230   1.034  0.00  0.00    -0.078 A 
ATOM      5  C3  OXE d   1      -0.389   0.999   0.627  0.00  0.00     0.003 A 
ATOM      6  C4  OXE d   1       0.295   1.115  -0.589  0.00  0.00    -0.002 A 
ATOM      7  C5  OXE d   1       0.576  -0.020  -1.356  0.00  0.00    -0.002 A 
ATOM      8  C6  OXE d   1       0.172  -1.269  -0.898  0.00  0.00     0.003 A 
ENDROOT
TORSDOF 0
ENDMDL
