MODEL 1
REMARK minimizedAffinity -4.76054573
REMARK minimizedRMSD -1
REMARK  0 active torsions:
REMARK  status: ('A' for Active; 'I' for Inactive)
ROOT
ATOM      1  C2' OXE d   1      -0.147   0.988  -0.084  0.00  0.00     0.078 C 
ATOM      2  C1' OXE d   1       0.419   0.235  -2.728  0.00  0.00     0.078 C 
ATOM      3  C1  OXE d   1       0.061  -0.854  -1.748  0.00  0.00    -0.078 A 
ATOM      4  C2  OXE d   1      -0.168  -0.482  -0.445  0.00  0.00    -0.078 A 
ATOM      5  C3  OXE d   1      -0.555  -1.440   0.488  0.00  0.00     0.003 A 
ATOM      6  C4  OXE d   1      -0.563  -2.798   0.147  0.00  0.00    -0.002 A 
ATOM      7  C5  OXE d   1      -0.293  -3.203  -1.164  0.00  0.00    -0.002 A 
ATOM      8  C6  OXE d   1      -0.022  -2.242  -2.132  0.00  0.00     0.003 A 
ENDROOT
TORSDOF 0
ENDMDL
