MODEL 1
REMARK minimizedAffinity -3.37202907
REMARK minimizedRMSD -1
REMARK  0 active torsions:
REMARK  status: ('A' for Active; 'I' for Inactive)
ROOT
ATOM      1  C2' OXE d   1      -0.179   0.985  -1.354  0.00  0.00     0.078 C 
ATOM      2  C1' OXE d   1      -0.362  -1.664  -2.266  0.00  0.00     0.078 C 
ATOM      3  C1  OXE d   1      -0.592  -1.408  -0.797  0.00  0.00    -0.078 A 
ATOM      4  C2  OXE d   1      -0.455  -0.116  -0.352  0.00  0.00    -0.078 A 
ATOM      5  C3  OXE d   1      -0.710   0.184   0.983  0.00  0.00     0.003 A 
ATOM      6  C4  OXE d   1      -0.954  -0.841   1.906  0.00  0.00    -0.002 A 
ATOM      7  C5  OXE d   1      -1.060  -2.169   1.480  0.00  0.00    -0.002 A 
ATOM      8  C6  OXE d   1      -0.924  -2.464   0.128  0.00  0.00     0.003 A 
ENDROOT
TORSDOF 0
ENDMDL
