MODEL 1
REMARK minimizedAffinity -4.06933355
REMARK minimizedRMSD -1
REMARK  0 active torsions:
REMARK  status: ('A' for Active; 'I' for Inactive)
ROOT
ATOM      1  C2' OXE d   1      -0.966  -2.871  -0.144  0.00  0.00     0.078 C 
ATOM      2  C1' OXE d   1      -1.312  -0.658   1.549  0.00  0.00     0.078 C 
ATOM      3  C1  OXE d   1      -0.721  -0.413   0.183  0.00  0.00    -0.078 A 
ATOM      4  C2  OXE d   1      -0.512  -1.508  -0.621  0.00  0.00    -0.078 A 
ATOM      5  C3  OXE d   1      -0.020  -1.332  -1.911  0.00  0.00     0.003 A 
ATOM      6  C4  OXE d   1       0.407  -0.069  -2.341  0.00  0.00    -0.002 A 
ATOM      7  C5  OXE d   1       0.239   1.053  -1.523  0.00  0.00    -0.002 A 
ATOM      8  C6  OXE d   1      -0.361   0.905  -0.278  0.00  0.00     0.003 A 
ENDROOT
TORSDOF 0
ENDMDL
