MODEL 1
REMARK minimizedAffinity -1.05229247
REMARK minimizedRMSD -1
REMARK  0 active torsions:
REMARK  status: ('A' for Active; 'I' for Inactive)
ROOT
ATOM      1  C2' OXE d   1      -0.719  -0.385   2.475  0.00  0.00     0.078 C 
ATOM      2  C1' OXE d   1       0.266   1.670   0.836  0.00  0.00     0.078 C 
ATOM      3  C1  OXE d   1      -0.044   0.343   0.190  0.00  0.00    -0.078 A 
ATOM      4  C2  OXE d   1      -0.481  -0.671   1.008  0.00  0.00    -0.078 A 
ATOM      5  C3  OXE d   1      -0.834  -1.899   0.455  0.00  0.00     0.003 A 
ATOM      6  C4  OXE d   1      -0.601  -2.159  -0.902  0.00  0.00    -0.002 A 
ATOM      7  C5  OXE d   1      -0.118  -1.152  -1.744  0.00  0.00    -0.002 A 
ATOM      8  C6  OXE d   1       0.124   0.115  -1.224  0.00  0.00     0.003 A 
ENDROOT
TORSDOF 0
ENDMDL
