MODEL 1
REMARK minimizedAffinity -6.04982805
REMARK minimizedRMSD -1
REMARK  0 active torsions:
REMARK  status: ('A' for Active; 'I' for Inactive)
ROOT
ATOM      1  C2' OXE d   1      -0.270   1.084  -0.018  0.00  0.00     0.078 C 
ATOM      2  C1' OXE d   1      -0.454  -0.321   2.405  0.00  0.00     0.078 C 
ATOM      3  C1  OXE d   1      -0.255  -1.121   1.142  0.00  0.00    -0.078 A 
ATOM      4  C2  OXE d   1      -0.213  -0.429  -0.044  0.00  0.00    -0.078 A 
ATOM      5  C3  OXE d   1       0.024  -1.112  -1.233  0.00  0.00     0.003 A 
ATOM      6  C4  OXE d   1       0.067  -2.512  -1.250  0.00  0.00    -0.002 A 
ATOM      7  C5  OXE d   1      -0.014  -3.239  -0.057  0.00  0.00    -0.002 A 
ATOM      8  C6  OXE d   1      -0.132  -2.558   1.149  0.00  0.00     0.003 A 
ENDROOT
TORSDOF 0
ENDMDL
