MODEL 1
REMARK minimizedAffinity 6.10877466
REMARK minimizedRMSD -1
REMARK  0 active torsions:
REMARK  status: ('A' for Active; 'I' for Inactive)
ROOT
ATOM      1  C   UNL d   1       2.467   1.157   0.881  0.00  0.00    -0.002 A 
ATOM      2  C1  UNL d   1       3.812   1.426   0.670  0.00  0.00     0.010 A 
ATOM      3  C2  UNL d   1       4.231   2.082  -0.489  0.00  0.00     0.041 A 
ATOM      4  C3  UNL d   1       3.267   2.468  -1.441  0.00  0.00    -0.075 A 
ATOM      5  S   UNL d   1       3.548   3.283  -2.934  0.00  0.00     0.015 SA
ATOM      6  C4  UNL d   1       1.889   3.294  -3.325  0.00  0.00     0.022 A 
ATOM      7  C5  UNL d   1       1.125   2.695  -2.352  0.00  0.00     0.026 A 
ATOM      8  C6  UNL d   1       1.907   2.209  -1.250  0.00  0.00    -0.082 A 
ATOM      9  C7  UNL d   1       1.513   1.542  -0.065  0.00  0.00     0.045 A 
ENDROOT
TORSDOF 0
ENDMDL
