MODEL 1
REMARK minimizedAffinity 18.1445408
REMARK minimizedRMSD -1
REMARK  0 active torsions:
REMARK  status: ('A' for Active; 'I' for Inactive)
ROOT
ATOM      1  C   UNL d   1      -0.789  -2.789  -1.306  0.00  0.00    -0.002 A 
ATOM      2  C1  UNL d   1      -1.565  -1.902  -2.039  0.00  0.00     0.010 A 
ATOM      3  C2  UNL d   1      -2.271  -2.338  -3.162  0.00  0.00     0.041 A 
ATOM      4  C3  UNL d   1      -2.185  -3.693  -3.538  0.00  0.00    -0.075 A 
ATOM      5  S   UNL d   1      -2.963  -4.452  -4.876  0.00  0.00     0.015 SA
ATOM      6  C4  UNL d   1      -2.285  -5.971  -4.505  0.00  0.00     0.022 A 
ATOM      7  C5  UNL d   1      -1.481  -5.918  -3.391  0.00  0.00     0.026 A 
ATOM      8  C6  UNL d   1      -1.411  -4.605  -2.815  0.00  0.00    -0.082 A 
ATOM      9  C7  UNL d   1      -0.706  -4.132  -1.682  0.00  0.00     0.045 A 
ENDROOT
TORSDOF 0
ENDMDL
