MODEL 1
REMARK minimizedAffinity 19.4781609
REMARK minimizedRMSD -1
REMARK  0 active torsions:
REMARK  status: ('A' for Active; 'I' for Inactive)
ROOT
ATOM      1  C   UNL d   1       4.970   4.068  -5.163  0.00  0.00    -0.002 A 
ATOM      2  C1  UNL d   1       5.750   4.467  -4.087  0.00  0.00     0.010 A 
ATOM      3  C2  UNL d   1       5.378   4.142  -2.781  0.00  0.00     0.041 A 
ATOM      4  C3  UNL d   1       4.199   3.400  -2.573  0.00  0.00    -0.075 A 
ATOM      5  S   UNL d   1       3.547   2.887  -1.062  0.00  0.00     0.015 SA
ATOM      6  C4  UNL d   1       2.219   2.124  -1.809  0.00  0.00     0.022 A 
ATOM      7  C5  UNL d   1       2.255   2.249  -3.177  0.00  0.00     0.026 A 
ATOM      8  C6  UNL d   1       3.397   2.986  -3.641  0.00  0.00    -0.082 A 
ATOM      9  C7  UNL d   1       3.801   3.332  -4.953  0.00  0.00     0.045 A 
ENDROOT
TORSDOF 0
ENDMDL
