MODEL 1
REMARK minimizedAffinity 14.6078653
REMARK minimizedRMSD -1
REMARK  0 active torsions:
REMARK  status: ('A' for Active; 'I' for Inactive)
ROOT
ATOM      1  C   UNL d   1      -1.366  -1.226   1.521  0.00  0.00    -0.002 A 
ATOM      2  C1  UNL d   1      -1.240  -0.415   2.640  0.00  0.00     0.010 A 
ATOM      3  C2  UNL d   1      -2.320   0.346   3.091  0.00  0.00     0.041 A 
ATOM      4  C3  UNL d   1      -3.541   0.277   2.393  0.00  0.00    -0.075 A 
ATOM      5  S   UNL d   1      -4.999   1.119   2.763  0.00  0.00     0.015 SA
ATOM      6  C4  UNL d   1      -5.825   0.421   1.445  0.00  0.00     0.022 A 
ATOM      7  C5  UNL d   1      -5.023  -0.436   0.729  0.00  0.00     0.026 A 
ATOM      8  C6  UNL d   1      -3.694  -0.534   1.264  0.00  0.00    -0.082 A 
ATOM      9  C7  UNL d   1      -2.580  -1.293   0.831  0.00  0.00     0.045 A 
ENDROOT
TORSDOF 0
ENDMDL
