MODEL 1
REMARK minimizedAffinity 21.5977592
REMARK minimizedRMSD -1
REMARK  0 active torsions:
REMARK  status: ('A' for Active; 'I' for Inactive)
ROOT
ATOM      1  C   UNL d   1       5.988   4.557  -3.762  0.00  0.00    -0.002 A 
ATOM      2  C1  UNL d   1       6.000   4.666  -2.379  0.00  0.00     0.010 A 
ATOM      3  C2  UNL d   1       4.975   4.107  -1.613  0.00  0.00     0.041 A 
ATOM      4  C3  UNL d   1       3.928   3.428  -2.267  0.00  0.00    -0.075 A 
ATOM      5  S   UNL d   1       2.568   2.663  -1.535  0.00  0.00     0.015 SA
ATOM      6  C4  UNL d   1       1.939   2.172  -3.041  0.00  0.00     0.022 A 
ATOM      7  C5  UNL d   1       2.734   2.574  -4.088  0.00  0.00     0.026 A 
ATOM      8  C6  UNL d   1       3.895   3.304  -3.659  0.00  0.00    -0.082 A 
ATOM      9  C7  UNL d   1       4.948   3.882  -4.408  0.00  0.00     0.045 A 
ENDROOT
TORSDOF 0
ENDMDL
