MODEL 1
REMARK minimizedAffinity 15.0111256
REMARK minimizedRMSD -1
REMARK  0 active torsions:
REMARK  status: ('A' for Active; 'I' for Inactive)
ROOT
ATOM      1  C   UNL d   1      -3.988   1.320   3.725  0.00  0.00    -0.002 A 
ATOM      2  C1  UNL d   1      -4.697   0.760   2.672  0.00  0.00     0.010 A 
ATOM      3  C2  UNL d   1      -4.078  -0.132   1.794  0.00  0.00     0.041 A 
ATOM      4  C3  UNL d   1      -2.721  -0.454   1.994  0.00  0.00    -0.075 A 
ATOM      5  S   UNL d   1      -1.756  -1.522   1.046  0.00  0.00     0.015 SA
ATOM      6  C4  UNL d   1      -0.379  -1.260   2.017  0.00  0.00     0.022 A 
ATOM      7  C5  UNL d   1      -0.632  -0.382   3.043  0.00  0.00     0.026 A 
ATOM      8  C6  UNL d   1      -1.986   0.096   3.048  0.00  0.00    -0.082 A 
ATOM      9  C7  UNL d   1      -2.642   0.998   3.921  0.00  0.00     0.045 A 
ENDROOT
TORSDOF 0
ENDMDL
