MODEL 1
REMARK minimizedAffinity 16.7996693
REMARK minimizedRMSD -1
REMARK  0 active torsions:
REMARK  status: ('A' for Active; 'I' for Inactive)
ROOT
ATOM      1  C   UNL d   1       5.653   3.372   2.053  0.00  0.00    -0.002 A 
ATOM      2  C1  UNL d   1       5.996   3.710   0.751  0.00  0.00     0.010 A 
ATOM      3  C2  UNL d   1       5.245   3.237  -0.327  0.00  0.00     0.041 A 
ATOM      4  C3  UNL d   1       4.131   2.413  -0.072  0.00  0.00    -0.075 A 
ATOM      5  S   UNL d   1       3.065   1.718  -1.235  0.00  0.00     0.015 SA
ATOM      6  C4  UNL d   1       2.128   0.957  -0.032  0.00  0.00     0.022 A 
ATOM      7  C5  UNL d   1       2.603   1.216   1.232  0.00  0.00     0.026 A 
ATOM      8  C6  UNL d   1       3.765   2.060   1.230  0.00  0.00    -0.082 A 
ATOM      9  C7  UNL d   1       4.547   2.554   2.301  0.00  0.00     0.045 A 
ENDROOT
TORSDOF 0
ENDMDL
