MODEL 1
REMARK minimizedAffinity 11.1820478
REMARK minimizedRMSD -1
REMARK  0 active torsions:
REMARK  status: ('A' for Active; 'I' for Inactive)
ROOT
ATOM      1  C   UNL d   1      -5.433  -0.754   1.657  0.00  0.00    -0.002 A 
ATOM      2  C1  UNL d   1      -4.877  -1.875   2.255  0.00  0.00     0.010 A 
ATOM      3  C2  UNL d   1      -4.500  -1.850   3.599  0.00  0.00     0.041 A 
ATOM      4  C3  UNL d   1      -4.695  -0.668   4.340  0.00  0.00    -0.075 A 
ATOM      5  S   UNL d   1      -4.310  -0.406   6.000  0.00  0.00     0.015 SA
ATOM      6  C4  UNL d   1      -4.875   1.202   5.954  0.00  0.00     0.022 A 
ATOM      7  C5  UNL d   1      -5.349   1.546   4.711  0.00  0.00     0.026 A 
ATOM      8  C6  UNL d   1      -5.254   0.475   3.760  0.00  0.00    -0.082 A 
ATOM      9  C7  UNL d   1      -5.625   0.418   2.395  0.00  0.00     0.045 A 
ENDROOT
TORSDOF 0
ENDMDL
