MODEL 1
REMARK minimizedAffinity 16.5819473
REMARK minimizedRMSD -1
REMARK  0 active torsions:
REMARK  status: ('A' for Active; 'I' for Inactive)
ROOT
ATOM      1  C   UNL d   1      -0.716  -4.126  -1.908  0.00  0.00    -0.002 A 
ATOM      2  C1  UNL d   1       0.514  -4.478  -2.446  0.00  0.00     0.010 A 
ATOM      3  C2  UNL d   1       0.595  -5.065  -3.710  0.00  0.00     0.041 A 
ATOM      4  C3  UNL d   1      -0.593  -5.294  -4.432  0.00  0.00    -0.075 A 
ATOM      5  S   UNL d   1      -0.737  -6.000  -5.999  0.00  0.00     0.015 SA
ATOM      6  C4  UNL d   1      -2.435  -5.851  -5.991  0.00  0.00     0.022 A 
ATOM      7  C5  UNL d   1      -2.897  -5.279  -4.830  0.00  0.00     0.026 A 
ATOM      8  C6  UNL d   1      -1.843  -4.948  -3.912  0.00  0.00    -0.082 A 
ATOM      9  C7  UNL d   1      -1.892  -4.355  -2.628  0.00  0.00     0.045 A 
ENDROOT
TORSDOF 0
ENDMDL
