MODEL 1
REMARK minimizedAffinity 19.1093121
REMARK minimizedRMSD -1
REMARK  0 active torsions:
REMARK  status: ('A' for Active; 'I' for Inactive)
ROOT
ATOM      1  C   UNL d   1      -2.978  -1.457   1.076  0.00  0.00    -0.002 A 
ATOM      2  C1  UNL d   1      -4.061  -0.628   1.331  0.00  0.00     0.010 A 
ATOM      3  C2  UNL d   1      -4.024   0.284   2.388  0.00  0.00     0.041 A 
ATOM      4  C3  UNL d   1      -2.868   0.350   3.191  0.00  0.00    -0.075 A 
ATOM      5  S   UNL d   1      -2.597   1.390   4.539  0.00  0.00     0.015 SA
ATOM      6  C4  UNL d   1      -1.036   0.759   4.807  0.00  0.00     0.022 A 
ATOM      7  C5  UNL d   1      -0.714  -0.222   3.899  0.00  0.00     0.026 A 
ATOM      8  C6  UNL d   1      -1.764  -0.473   2.953  0.00  0.00    -0.082 A 
ATOM      9  C7  UNL d   1      -1.833  -1.388   1.874  0.00  0.00     0.045 A 
ENDROOT
TORSDOF 0
ENDMDL
