MODEL 1
REMARK minimizedAffinity 20.8703346
REMARK minimizedRMSD -1
REMARK  0 active torsions:
REMARK  status: ('A' for Active; 'I' for Inactive)
ROOT
ATOM      1  C   UNL d   1      -0.764  -0.779   1.895  0.00  0.00    -0.002 A 
ATOM      2  C1  UNL d   1      -0.988   0.043   2.990  0.00  0.00     0.010 A 
ATOM      3  C2  UNL d   1      -2.245   0.610   3.206  0.00  0.00     0.041 A 
ATOM      4  C3  UNL d   1      -3.284   0.333   2.296  0.00  0.00    -0.075 A 
ATOM      5  S   UNL d   1      -4.905   0.916   2.359  0.00  0.00     0.015 SA
ATOM      6  C4  UNL d   1      -5.338   0.086   0.935  0.00  0.00     0.022 A 
ATOM      7  C5  UNL d   1      -4.284  -0.623   0.410  0.00  0.00     0.026 A 
ATOM      8  C6  UNL d   1      -3.083  -0.493   1.186  0.00  0.00    -0.082 A 
ATOM      9  C7  UNL d   1      -1.796  -1.052   0.994  0.00  0.00     0.045 A 
ENDROOT
TORSDOF 0
ENDMDL
