MODEL 1
REMARK minimizedAffinity 10.0813456
REMARK minimizedRMSD -1
REMARK  0 active torsions:
REMARK  status: ('A' for Active; 'I' for Inactive)
ROOT
ATOM      1  C   UNL d   1       5.873   4.123   1.261  0.00  0.00    -0.002 A 
ATOM      2  C1  UNL d   1       6.000   4.111  -0.120  0.00  0.00     0.010 A 
ATOM      3  C2  UNL d   1       5.151   3.328  -0.905  0.00  0.00     0.041 A 
ATOM      4  C3  UNL d   1       4.162   2.551  -0.271  0.00  0.00    -0.075 A 
ATOM      5  S   UNL d   1       3.009   1.516  -1.028  0.00  0.00     0.015 SA
ATOM      6  C4  UNL d   1       2.321   1.066   0.465  0.00  0.00     0.022 A 
ATOM      7  C5  UNL d   1       2.943   1.680   1.525  0.00  0.00     0.026 A 
ATOM      8  C6  UNL d   1       4.014   2.547   1.119  0.00  0.00    -0.082 A 
ATOM      9  C7  UNL d   1       4.891   3.351   1.887  0.00  0.00     0.045 A 
ENDROOT
TORSDOF 0
ENDMDL
