MODEL 1
REMARK minimizedAffinity 7.2707324
REMARK minimizedRMSD -1
REMARK  0 active torsions:
REMARK  status: ('A' for Active; 'I' for Inactive)
ROOT
ATOM      1  C   UNL d   1      -2.234   0.791   5.996  0.00  0.00    -0.002 A 
ATOM      2  C1  UNL d   1      -2.518   1.597   4.902  0.00  0.00     0.010 A 
ATOM      3  C2  UNL d   1      -1.741   1.521   3.744  0.00  0.00     0.041 A 
ATOM      4  C3  UNL d   1      -0.666   0.612   3.703  0.00  0.00    -0.075 A 
ATOM      5  S   UNL d   1       0.420   0.345   2.390  0.00  0.00     0.015 SA
ATOM      6  C4  UNL d   1       1.285  -0.845   3.250  0.00  0.00     0.022 A 
ATOM      7  C5  UNL d   1       0.772  -1.046   4.510  0.00  0.00     0.026 A 
ATOM      8  C6  UNL d   1      -0.361  -0.211   4.791  0.00  0.00    -0.082 A 
ATOM      9  C7  UNL d   1      -1.166  -0.110   5.951  0.00  0.00     0.045 A 
ENDROOT
TORSDOF 0
ENDMDL
