MODEL 1
REMARK minimizedAffinity 19.7250996
REMARK minimizedRMSD -1
REMARK  0 active torsions:
REMARK  status: ('A' for Active; 'I' for Inactive)
ROOT
ATOM      1  C   UNL d   1       3.048   2.470  -3.484  0.00  0.00    -0.002 A 
ATOM      2  C1  UNL d   1       4.096   3.375  -3.391  0.00  0.00     0.010 A 
ATOM      3  C2  UNL d   1       4.769   3.562  -2.182  0.00  0.00     0.041 A 
ATOM      4  C3  UNL d   1       4.368   2.814  -1.057  0.00  0.00    -0.075 A 
ATOM      5  S   UNL d   1       5.046   2.875   0.527  0.00  0.00     0.015 SA
ATOM      6  C4  UNL d   1       3.962   1.701   1.118  0.00  0.00     0.022 A 
ATOM      7  C5  UNL d   1       3.096   1.262   0.144  0.00  0.00     0.026 A 
ATOM      8  C6  UNL d   1       3.316   1.896  -1.126  0.00  0.00    -0.082 A 
ATOM      9  C7  UNL d   1       2.653   1.731  -2.366  0.00  0.00     0.045 A 
ENDROOT
TORSDOF 0
ENDMDL
