MODEL 1
REMARK minimizedAffinity 27.7604542
REMARK minimizedRMSD -1
REMARK  0 active torsions:
REMARK  status: ('A' for Active; 'I' for Inactive)
ROOT
ATOM      1  C   UNL d   1       2.970   0.725   0.624  0.00  0.00    -0.002 A 
ATOM      2  C1  UNL d   1       1.766   1.323   0.966  0.00  0.00     0.010 A 
ATOM      3  C2  UNL d   1       1.070   2.102   0.039  0.00  0.00     0.041 A 
ATOM      4  C3  UNL d   1       1.611   2.270  -1.251  0.00  0.00    -0.075 A 
ATOM      5  S   UNL d   1       0.935   3.179  -2.550  0.00  0.00     0.015 SA
ATOM      6  C4  UNL d   1       2.229   2.796  -3.591  0.00  0.00     0.022 A 
ATOM      7  C5  UNL d   1       3.163   1.994  -2.978  0.00  0.00     0.026 A 
ATOM      8  C6  UNL d   1       2.822   1.678  -1.620  0.00  0.00    -0.082 A 
ATOM      9  C7  UNL d   1       3.503   0.895  -0.657  0.00  0.00     0.045 A 
ENDROOT
TORSDOF 0
ENDMDL
