MODEL 1
REMARK minimizedAffinity 13.9025345
REMARK minimizedRMSD -1
REMARK  1 active torsions:
REMARK  status: ('A' for Active; 'I' for Inactive)
REMARK    1  A    between atoms: C1_2  and  C2_3 
ROOT
ATOM      1  C2  UNL d   1       2.375  -0.225   2.014  0.00  0.00    -0.076 A 
ATOM      2  C3  UNL d   1       1.658   0.111   3.176  0.00  0.00     0.004 A 
ATOM      3  C4  UNL d   1       1.795   1.366   3.765  0.00  0.00    -0.003 A 
ATOM      4  C5  UNL d   1       2.650   2.307   3.203  0.00  0.00     0.000 A 
ATOM      5  C6  UNL d   1       3.356   1.997   2.041  0.00  0.00     0.000 A 
ATOM      6  C7  UNL d   1       3.218   0.741   1.424  0.00  0.00    -0.073 A 
ATOM      7  C8  UNL d   1       4.007   0.459   0.176  0.00  0.00     0.078 C 
ENDROOT
BRANCH   1   8
ATOM      8  C1  UNL d   1       2.208  -1.612   1.435  0.00  0.00     0.053 C 
ATOM      9  C   UNL d   1       0.758  -1.934   1.105  0.00  0.00     0.018 C 
ENDBRANCH   1   8
TORSDOF 1
ENDMDL
