MODEL 1
REMARK minimizedAffinity 13.4857788
REMARK minimizedRMSD -1
REMARK  1 active torsions:
REMARK  status: ('A' for Active; 'I' for Inactive)
REMARK    1  A    between atoms: C1_2  and  C2_3 
ROOT
ATOM      1  C2  UNL d   1      -2.794   1.504  -2.845  0.00  0.00    -0.076 A 
ATOM      2  C3  UNL d   1      -2.824   2.356  -1.727  0.00  0.00     0.004 A 
ATOM      3  C4  UNL d   1      -2.395   1.915  -0.477  0.00  0.00    -0.003 A 
ATOM      4  C5  UNL d   1      -1.927   0.614  -0.324  0.00  0.00     0.000 A 
ATOM      5  C6  UNL d   1      -1.873  -0.239  -1.426  0.00  0.00     0.000 A 
ATOM      6  C7  UNL d   1      -2.287   0.196  -2.697  0.00  0.00    -0.073 A 
ATOM      7  C8  UNL d   1      -2.212  -0.769  -3.849  0.00  0.00     0.078 C 
ENDROOT
BRANCH   1   8
ATOM      8  C1  UNL d   1      -3.298   2.030  -4.170  0.00  0.00     0.053 C 
ATOM      9  C   UNL d   1      -4.657   2.702  -4.051  0.00  0.00     0.018 C 
ENDBRANCH   1   8
TORSDOF 1
ENDMDL
