MODEL 1
REMARK minimizedAffinity 3.45150638
REMARK minimizedRMSD -1
REMARK  1 active torsions:
REMARK  status: ('A' for Active; 'I' for Inactive)
REMARK    1  A    between atoms: C1_2  and  C2_3 
ROOT
ATOM      1  C2  UNL d   1       1.939   1.436   1.060  0.00  0.00    -0.076 A 
ATOM      2  C3  UNL d   1       2.508   0.762  -0.034  0.00  0.00     0.004 A 
ATOM      3  C4  UNL d   1       3.498  -0.201   0.153  0.00  0.00    -0.003 A 
ATOM      4  C5  UNL d   1       3.935  -0.506   1.437  0.00  0.00     0.000 A 
ATOM      5  C6  UNL d   1       3.369   0.141   2.536  0.00  0.00     0.000 A 
ATOM      6  C7  UNL d   1       2.358   1.102   2.366  0.00  0.00    -0.073 A 
ATOM      7  C8  UNL d   1       1.787   1.773   3.585  0.00  0.00     0.078 C 
ENDROOT
BRANCH   1   8
ATOM      8  C1  UNL d   1       0.888   2.490   0.794  0.00  0.00     0.053 C 
ATOM      9  C   UNL d   1       1.163   3.280  -0.476  0.00  0.00     0.018 C 
ENDBRANCH   1   8
TORSDOF 1
ENDMDL
