MODEL 1
REMARK minimizedAffinity 0.849970579
REMARK minimizedRMSD -1
REMARK  1 active torsions:
REMARK  status: ('A' for Active; 'I' for Inactive)
REMARK    1  A    between atoms: C1_2  and  C2_3 
ROOT
ATOM      1  C2  UNL d   1       3.088  -5.983  -3.036  0.00  0.00    -0.076 A 
ATOM      2  C3  UNL d   1       1.764  -5.999  -3.509  0.00  0.00     0.004 A 
ATOM      3  C4  UNL d   1       1.490  -5.997  -4.876  0.00  0.00    -0.003 A 
ATOM      4  C5  UNL d   1       2.536  -5.980  -5.792  0.00  0.00     0.000 A 
ATOM      5  C6  UNL d   1       3.855  -5.981  -5.341  0.00  0.00     0.000 A 
ATOM      6  C7  UNL d   1       4.149  -5.999  -3.967  0.00  0.00    -0.073 A 
ATOM      7  C8  UNL d   1       5.590  -5.994  -3.536  0.00  0.00     0.078 C 
ENDROOT
BRANCH   1   8
ATOM      8  C1  UNL d   1       3.323  -5.958  -1.543  0.00  0.00     0.053 C 
ATOM      9  C   UNL d   1       2.031  -5.833  -0.751  0.00  0.00     0.018 C 
ENDBRANCH   1   8
TORSDOF 1
ENDMDL
