MODEL 1
REMARK minimizedAffinity 4.83640623
REMARK minimizedRMSD -1
REMARK  1 active torsions:
REMARK  status: ('A' for Active; 'I' for Inactive)
REMARK    1  A    between atoms: C1_2  and  C2_3 
ROOT
ATOM      1  C2  UNL d   1       4.022  -3.425   2.944  0.00  0.00    -0.076 A 
ATOM      2  C3  UNL d   1       3.417  -4.694   2.963  0.00  0.00     0.004 A 
ATOM      3  C4  UNL d   1       4.032  -5.791   2.362  0.00  0.00    -0.003 A 
ATOM      4  C5  UNL d   1       5.262  -5.637   1.731  0.00  0.00     0.000 A 
ATOM      5  C6  UNL d   1       5.884  -4.389   1.718  0.00  0.00     0.000 A 
ATOM      6  C7  UNL d   1       5.286  -3.277   2.334  0.00  0.00    -0.073 A 
ATOM      7  C8  UNL d   1       5.999  -1.953   2.284  0.00  0.00     0.078 C 
ENDROOT
BRANCH   1   8
ATOM      8  C1  UNL d   1       3.295  -2.267   3.589  0.00  0.00     0.053 C 
ATOM      9  C   UNL d   1       2.589  -2.666   4.875  0.00  0.00     0.018 C 
ENDBRANCH   1   8
TORSDOF 1
ENDMDL
