MODEL 1
REMARK minimizedAffinity 5.56889105
REMARK minimizedRMSD -1
REMARK  1 active torsions:
REMARK  status: ('A' for Active; 'I' for Inactive)
REMARK    1  A    between atoms: C1_2  and  C2_3 
ROOT
ATOM      1  C2  UNL d   1       2.472  -2.546   3.036  0.00  0.00    -0.076 A 
ATOM      2  C3  UNL d   1       2.826  -1.877   1.852  0.00  0.00     0.004 A 
ATOM      3  C4  UNL d   1       2.518  -0.529   1.670  0.00  0.00    -0.003 A 
ATOM      4  C5  UNL d   1       1.852   0.170   2.670  0.00  0.00     0.000 A 
ATOM      5  C6  UNL d   1       1.509  -0.473   3.859  0.00  0.00     0.000 A 
ATOM      6  C7  UNL d   1       1.826  -1.827   4.065  0.00  0.00    -0.073 A 
ATOM      7  C8  UNL d   1       1.427  -2.472   5.363  0.00  0.00     0.078 C 
ENDROOT
BRANCH   1   8
ATOM      8  C1  UNL d   1       2.808  -4.015   3.166  0.00  0.00     0.053 C 
ATOM      9  C   UNL d   1       2.338  -4.828   1.970  0.00  0.00     0.018 C 
ENDBRANCH   1   8
TORSDOF 1
ENDMDL
