MODEL 1
REMARK minimizedAffinity 5.63714314
REMARK minimizedRMSD -1
REMARK  1 active torsions:
REMARK  status: ('A' for Active; 'I' for Inactive)
REMARK    1  A    between atoms: C1_2  and  C2_3 
ROOT
ATOM      1  C2  UNL d   1       2.250  -1.623   3.797  0.00  0.00    -0.076 A 
ATOM      2  C3  UNL d   1       0.916  -1.928   4.117  0.00  0.00     0.004 A 
ATOM      3  C4  UNL d   1       0.597  -3.065   4.857  0.00  0.00    -0.003 A 
ATOM      4  C5  UNL d   1       1.609  -3.916   5.289  0.00  0.00     0.000 A 
ATOM      5  C6  UNL d   1       2.939  -3.620   4.996  0.00  0.00     0.000 A 
ATOM      6  C7  UNL d   1       3.278  -2.468   4.265  0.00  0.00    -0.073 A 
ATOM      7  C8  UNL d   1       4.729  -2.201   3.971  0.00  0.00     0.078 C 
ENDROOT
BRANCH   1   8
ATOM      8  C1  UNL d   1       2.532  -0.390   2.968  0.00  0.00     0.053 C 
ATOM      9  C   UNL d   1       1.348   0.015   2.104  0.00  0.00     0.018 C 
ENDBRANCH   1   8
TORSDOF 1
ENDMDL
