MODEL 1
REMARK minimizedAffinity 11.4036503
REMARK minimizedRMSD -1
REMARK  0 active torsions:
REMARK  status: ('A' for Active; 'I' for Inactive)
ROOT
ATOM      1  C2' OXE d   1      -1.262   1.630  -0.009  0.00  0.00     0.078 C 
ATOM      2  C1' OXE d   1       0.457   2.347   2.091  0.00  0.00     0.078 C 
ATOM      3  C1  OXE d   1       0.380   3.268   0.899  0.00  0.00    -0.078 A 
ATOM      4  C2  OXE d   1      -0.428   2.885  -0.144  0.00  0.00    -0.078 A 
ATOM      5  C3  OXE d   1      -0.577   3.725  -1.245  0.00  0.00     0.003 A 
ATOM      6  C4  OXE d   1       0.206   4.879  -1.366  0.00  0.00    -0.002 A 
ATOM      7  C5  OXE d   1       1.065   5.267  -0.333  0.00  0.00    -0.002 A 
ATOM      8  C6  OXE d   1       1.132   4.496   0.823  0.00  0.00     0.003 A 
ENDROOT
TORSDOF 0
ENDMDL
