MODEL 1
REMARK minimizedAffinity 8.74580956
REMARK minimizedRMSD -1
REMARK  0 active torsions:
REMARK  status: ('A' for Active; 'I' for Inactive)
ROOT
ATOM      1  C2' OXE d   1      -3.344   2.970  -2.605  0.00  0.00     0.078 C 
ATOM      2  C1' OXE d   1      -3.302   1.566  -5.036  0.00  0.00     0.078 C 
ATOM      3  C1  OXE d   1      -4.250   2.733  -4.914  0.00  0.00    -0.078 A 
ATOM      4  C2  OXE d   1      -4.297   3.385  -3.705  0.00  0.00    -0.078 A 
ATOM      5  C3  OXE d   1      -5.114   4.502  -3.556  0.00  0.00     0.003 A 
ATOM      6  C4  OXE d   1      -6.000   4.874  -4.575  0.00  0.00    -0.002 A 
ATOM      7  C5  OXE d   1      -5.996   4.199  -5.800  0.00  0.00    -0.002 A 
ATOM      8  C6  OXE d   1      -5.099   3.155  -6.000  0.00  0.00     0.003 A 
ENDROOT
TORSDOF 0
ENDMDL
