MODEL 1
REMARK minimizedAffinity 13.3688383
REMARK minimizedRMSD -1
REMARK  0 active torsions:
REMARK  status: ('A' for Active; 'I' for Inactive)
ROOT
ATOM      1  C2' OXE d   1      -0.143   2.760   1.521  0.00  0.00     0.078 C 
ATOM      2  C1' OXE d   1      -2.174   1.956   3.284  0.00  0.00     0.078 C 
ATOM      3  C1  OXE d   1      -0.853   1.230   3.355  0.00  0.00    -0.078 A 
ATOM      4  C2  OXE d   1       0.119   1.599   2.457  0.00  0.00    -0.078 A 
ATOM      5  C3  OXE d   1       1.374   1.000   2.515  0.00  0.00     0.003 A 
ATOM      6  C4  OXE d   1       1.605  -0.080   3.376  0.00  0.00    -0.002 A 
ATOM      7  C5  OXE d   1       0.615  -0.498   4.272  0.00  0.00    -0.002 A 
ATOM      8  C6  OXE d   1      -0.603   0.173   4.303  0.00  0.00     0.003 A 
ENDROOT
TORSDOF 0
ENDMDL
