MODEL 1
REMARK minimizedAffinity 12.1077499
REMARK minimizedRMSD -1
REMARK  0 active torsions:
REMARK  status: ('A' for Active; 'I' for Inactive)
ROOT
ATOM      1  C2' OXE d   1       0.186   3.561   1.871  0.00  0.00     0.078 C 
ATOM      2  C1' OXE d   1       2.707   2.549   2.577  0.00  0.00     0.078 C 
ATOM      3  C1  OXE d   1       1.491   1.893   3.183  0.00  0.00    -0.078 A 
ATOM      4  C2  OXE d   1       0.264   2.425   2.868  0.00  0.00    -0.078 A 
ATOM      5  C3  OXE d   1      -0.893   1.824   3.357  0.00  0.00     0.003 A 
ATOM      6  C4  OXE d   1      -0.811   0.780   4.286  0.00  0.00    -0.002 A 
ATOM      7  C5  OXE d   1       0.431   0.250   4.651  0.00  0.00    -0.002 A 
ATOM      8  C6  OXE d   1       1.587   0.766   4.077  0.00  0.00     0.003 A 
ENDROOT
TORSDOF 0
ENDMDL
