MODEL 1
REMARK minimizedAffinity 5.47220039
REMARK minimizedRMSD -1
REMARK  0 active torsions:
REMARK  status: ('A' for Active; 'I' for Inactive)
ROOT
ATOM      1  C2' OXE d   1      -0.760   3.755   1.118  0.00  0.00     0.078 C 
ATOM      2  C1' OXE d   1       1.588   5.118   0.403  0.00  0.00     0.078 C 
ATOM      3  C1  OXE d   1       0.406   5.216  -0.528  0.00  0.00    -0.078 A 
ATOM      4  C2  OXE d   1      -0.724   4.508  -0.194  0.00  0.00    -0.078 A 
ATOM      5  C3  OXE d   1      -1.861   4.608  -0.990  0.00  0.00     0.003 A 
ATOM      6  C4  OXE d   1      -1.815   5.299  -2.208  0.00  0.00    -0.002 A 
ATOM      7  C5  OXE d   1      -0.662   5.994  -2.587  0.00  0.00    -0.002 A 
ATOM      8  C6  OXE d   1       0.440   5.998  -1.740  0.00  0.00     0.003 A 
ENDROOT
TORSDOF 0
ENDMDL
