MODEL 1
REMARK minimizedAffinity 8.14842606
REMARK minimizedRMSD -1
REMARK  0 active torsions:
REMARK  status: ('A' for Active; 'I' for Inactive)
ROOT
ATOM      1  C2' OXE d   1       0.121   2.802   2.312  0.00  0.00     0.078 C 
ATOM      2  C1' OXE d   1       0.773   1.787  -0.223  0.00  0.00     0.078 C 
ATOM      3  C1  OXE d   1       0.554   3.274  -0.096  0.00  0.00    -0.078 A 
ATOM      4  C2  OXE d   1       0.189   3.755   1.139  0.00  0.00    -0.078 A 
ATOM      5  C3  OXE d   1       0.028   5.126   1.324  0.00  0.00     0.003 A 
ATOM      6  C4  OXE d   1       0.083   6.000   0.231  0.00  0.00    -0.002 A 
ATOM      7  C5  OXE d   1       0.414   5.525  -1.042  0.00  0.00    -0.002 A 
ATOM      8  C6  OXE d   1       0.693   4.173  -1.214  0.00  0.00     0.003 A 
ENDROOT
TORSDOF 0
ENDMDL
