MODEL 1
REMARK minimizedAffinity 6.7315712
REMARK minimizedRMSD -1
REMARK  0 active torsions:
REMARK  status: ('A' for Active; 'I' for Inactive)
ROOT
ATOM      1  C2' OXE d   1      -1.897   5.880   2.508  0.00  0.00     0.078 C 
ATOM      2  C1' OXE d   1      -1.075   3.209   2.773  0.00  0.00     0.078 C 
ATOM      3  C1  OXE d   1      -0.651   3.956   1.533  0.00  0.00    -0.078 A 
ATOM      4  C2  OXE d   1      -1.098   5.248   1.390  0.00  0.00    -0.078 A 
ATOM      5  C3  OXE d   1      -0.691   6.000   0.291  0.00  0.00     0.003 A 
ATOM      6  C4  OXE d   1       0.040   5.404  -0.744  0.00  0.00    -0.002 A 
ATOM      7  C5  OXE d   1       0.471   4.078  -0.637  0.00  0.00    -0.002 A 
ATOM      8  C6  OXE d   1       0.171   3.355   0.512  0.00  0.00     0.003 A 
ENDROOT
TORSDOF 0
ENDMDL
