MODEL 1
REMARK minimizedAffinity 6.00453997
REMARK minimizedRMSD -1
REMARK  0 active torsions:
REMARK  status: ('A' for Active; 'I' for Inactive)
ROOT
ATOM      1  C2' OXE d   1       1.835   3.505   3.244  0.00  0.00     0.078 C 
ATOM      2  C1' OXE d   1       3.134   5.486   1.738  0.00  0.00     0.078 C 
ATOM      3  C1  OXE d   1       1.959   4.781   1.108  0.00  0.00    -0.078 A 
ATOM      4  C2  OXE d   1       1.359   3.780   1.834  0.00  0.00    -0.078 A 
ATOM      5  C3  OXE d   1       0.237   3.135   1.322  0.00  0.00     0.003 A 
ATOM      6  C4  OXE d   1      -0.191   3.389   0.013  0.00  0.00    -0.002 A 
ATOM      7  C5  OXE d   1       0.431   4.376  -0.759  0.00  0.00    -0.002 A 
ATOM      8  C6  OXE d   1       1.478   5.109  -0.211  0.00  0.00     0.003 A 
ENDROOT
TORSDOF 0
ENDMDL
