MODEL 1
REMARK minimizedAffinity 11.9878187
REMARK minimizedRMSD -1
REMARK  0 active torsions:
REMARK  status: ('A' for Active; 'I' for Inactive)
ROOT
ATOM      1  C2' OXE d   1       1.900   0.399  -0.393  0.00  0.00     0.078 C 
ATOM      2  C1' OXE d   1       0.237   2.474   0.506  0.00  0.00     0.078 C 
ATOM      3  C1  OXE d   1      -0.401   1.346  -0.266  0.00  0.00    -0.078 A 
ATOM      4  C2  OXE d   1       0.428   0.358  -0.743  0.00  0.00    -0.078 A 
ATOM      5  C3  OXE d   1      -0.116  -0.734  -1.414  0.00  0.00     0.003 A 
ATOM      6  C4  OXE d   1      -1.477  -0.758  -1.741  0.00  0.00    -0.002 A 
ATOM      7  C5  OXE d   1      -2.332   0.257  -1.300  0.00  0.00    -0.002 A 
ATOM      8  C6  OXE d   1      -1.818   1.292  -0.527  0.00  0.00     0.003 A 
ENDROOT
TORSDOF 0
ENDMDL
