MODEL 1
REMARK minimizedAffinity 11.5458689
REMARK minimizedRMSD -1
REMARK  0 active torsions:
REMARK  status: ('A' for Active; 'I' for Inactive)
ROOT
ATOM      1  C2' OXE d   1       0.761   1.448  -0.251  0.00  0.00     0.078 C 
ATOM      2  C1' OXE d   1      -0.223   2.318   2.230  0.00  0.00     0.078 C 
ATOM      3  C1  OXE d   1      -0.168   3.320   1.105  0.00  0.00    -0.078 A 
ATOM      4  C2  OXE d   1       0.359   2.898  -0.092  0.00  0.00    -0.078 A 
ATOM      5  C3  OXE d   1       0.382   3.767  -1.180  0.00  0.00     0.003 A 
ATOM      6  C4  OXE d   1       0.017   5.110  -1.022  0.00  0.00    -0.002 A 
ATOM      7  C5  OXE d   1      -0.485   5.570   0.200  0.00  0.00    -0.002 A 
ATOM      8  C6  OXE d   1      -0.623   4.680   1.259  0.00  0.00     0.003 A 
ENDROOT
TORSDOF 0
ENDMDL
