MODEL 1
REMARK minimizedAffinity -2.21058059
REMARK minimizedRMSD -1
REMARK  0 active torsions:
REMARK  status: ('A' for Active; 'I' for Inactive)
ROOT
ATOM      1  C2' OXE d   1       2.075  -0.781  -1.525  0.00  0.00     0.078 C 
ATOM      2  C1' OXE d   1       0.010  -2.210  -0.270  0.00  0.00     0.078 C 
ATOM      3  C1  OXE d   1      -0.058  -0.703  -0.241  0.00  0.00    -0.078 A 
ATOM      4  C2  OXE d   1       0.980  -0.012  -0.817  0.00  0.00    -0.078 A 
ATOM      5  C3  OXE d   1       0.939   1.379  -0.867  0.00  0.00     0.003 A 
ATOM      6  C4  OXE d   1      -0.072   2.082  -0.201  0.00  0.00    -0.002 A 
ATOM      7  C5  OXE d   1      -1.118   1.398   0.426  0.00  0.00    -0.002 A 
ATOM      8  C6  OXE d   1      -1.149   0.008   0.378  0.00  0.00     0.003 A 
ENDROOT
TORSDOF 0
ENDMDL
