MODEL 1
REMARK minimizedAffinity -2.439852
REMARK minimizedRMSD -1
REMARK  0 active torsions:
REMARK  status: ('A' for Active; 'I' for Inactive)
ROOT
ATOM      1  C2' OXE d   1       0.622   2.097  -1.065  0.00  0.00     0.078 C 
ATOM      2  C1' OXE d   1      -0.960   0.710   0.793  0.00  0.00     0.078 C 
ATOM      3  C1  OXE d   1       0.081  -0.073   0.033  0.00  0.00    -0.078 A 
ATOM      4  C2  OXE d   1       0.819   0.604  -0.908  0.00  0.00    -0.078 A 
ATOM      5  C3  OXE d   1       1.830  -0.058  -1.599  0.00  0.00     0.003 A 
ATOM      6  C4  OXE d   1       1.998  -1.441  -1.455  0.00  0.00    -0.002 A 
ATOM      7  C5  OXE d   1       1.230  -2.157  -0.531  0.00  0.00    -0.002 A 
ATOM      8  C6  OXE d   1       0.298  -1.482   0.250  0.00  0.00     0.003 A 
ENDROOT
TORSDOF 0
ENDMDL
