MODEL 1
REMARK minimizedAffinity -6.32598782
REMARK minimizedRMSD -1
REMARK  0 active torsions:
REMARK  status: ('A' for Active; 'I' for Inactive)
ROOT
ATOM      1  C2' OXE d   1      -0.967   0.694  -0.111  0.00  0.00     0.078 C 
ATOM      2  C1' OXE d   1       0.602  -1.586   0.360  0.00  0.00     0.078 C 
ATOM      3  C1  OXE d   1       1.064  -0.622  -0.704  0.00  0.00    -0.078 A 
ATOM      4  C2  OXE d   1       0.266   0.467  -0.960  0.00  0.00    -0.078 A 
ATOM      5  C3  OXE d   1       0.673   1.416  -1.893  0.00  0.00     0.003 A 
ATOM      6  C4  OXE d   1       1.809   1.193  -2.681  0.00  0.00    -0.002 A 
ATOM      7  C5  OXE d   1       2.615   0.071  -2.464  0.00  0.00    -0.002 A 
ATOM      8  C6  OXE d   1       2.280  -0.823  -1.452  0.00  0.00     0.003 A 
ENDROOT
TORSDOF 0
ENDMDL
