MODEL 1
REMARK minimizedAffinity -4.18074179
REMARK minimizedRMSD -1
REMARK  0 active torsions:
REMARK  status: ('A' for Active; 'I' for Inactive)
ROOT
ATOM      1  C2' OXE d   1       0.860  -1.996  -0.148  0.00  0.00     0.078 C 
ATOM      2  C1' OXE d   1       3.079  -0.506  -1.006  0.00  0.00     0.078 C 
ATOM      3  C1  OXE d   1       1.767   0.218  -0.840  0.00  0.00    -0.078 A 
ATOM      4  C2  OXE d   1       0.676  -0.528  -0.465  0.00  0.00    -0.078 A 
ATOM      5  C3  OXE d   1      -0.547   0.100  -0.245  0.00  0.00     0.003 A 
ATOM      6  C4  OXE d   1      -0.711   1.457  -0.550  0.00  0.00    -0.002 A 
ATOM      7  C5  OXE d   1       0.378   2.227  -0.972  0.00  0.00    -0.002 A 
ATOM      8  C6  OXE d   1       1.631   1.634  -1.081  0.00  0.00     0.003 A 
ENDROOT
TORSDOF 0
ENDMDL
