MODEL 1
REMARK minimizedAffinity -3.73401785
REMARK minimizedRMSD -1
REMARK  0 active torsions:
REMARK  status: ('A' for Active; 'I' for Inactive)
ROOT
ATOM      1  C2' OXE d   1      -2.024   1.359  -0.271  0.00  0.00     0.078 C 
ATOM      2  C1' OXE d   1      -1.891   1.081   2.519  0.00  0.00     0.078 C 
ATOM      3  C1  OXE d   1      -1.017   0.183   1.680  0.00  0.00    -0.078 A 
ATOM      4  C2  OXE d   1      -1.123   0.293   0.315  0.00  0.00    -0.078 A 
ATOM      5  C3  OXE d   1      -0.299  -0.473  -0.505  0.00  0.00     0.003 A 
ATOM      6  C4  OXE d   1       0.525  -1.463   0.044  0.00  0.00    -0.002 A 
ATOM      7  C5  OXE d   1       0.618  -1.619   1.431  0.00  0.00    -0.002 A 
ATOM      8  C6  OXE d   1      -0.112  -0.777   2.263  0.00  0.00     0.003 A 
ENDROOT
TORSDOF 0
ENDMDL
