MODEL 1
REMARK minimizedAffinity -2.09043074
REMARK minimizedRMSD -1
REMARK  0 active torsions:
REMARK  status: ('A' for Active; 'I' for Inactive)
ROOT
ATOM      1  C2' OXE d   1       0.336   1.302   0.103  0.00  0.00     0.078 C 
ATOM      2  C1' OXE d   1      -1.056  -1.116   0.417  0.00  0.00     0.078 C 
ATOM      3  C1  OXE d   1      -1.188  -0.081   1.506  0.00  0.00    -0.078 A 
ATOM      4  C2  OXE d   1      -0.467   1.080   1.367  0.00  0.00    -0.078 A 
ATOM      5  C3  OXE d   1      -0.595   2.090   2.316  0.00  0.00     0.003 A 
ATOM      6  C4  OXE d   1      -1.332   1.872   3.487  0.00  0.00    -0.002 A 
ATOM      7  C5  OXE d   1      -2.043   0.681   3.667  0.00  0.00    -0.002 A 
ATOM      8  C6  OXE d   1      -2.016  -0.286   2.669  0.00  0.00     0.003 A 
ENDROOT
TORSDOF 0
ENDMDL
