MODEL 1
REMARK minimizedAffinity -5.62375212
REMARK minimizedRMSD -1
REMARK  0 active torsions:
REMARK  status: ('A' for Active; 'I' for Inactive)
ROOT
ATOM      1  C2' OXE d   1      -0.628  -2.626  -0.226  0.00  0.00     0.078 C 
ATOM      2  C1' OXE d   1      -1.269   0.044   0.359  0.00  0.00     0.078 C 
ATOM      3  C1  OXE d   1       0.125  -0.253  -0.135  0.00  0.00    -0.078 A 
ATOM      4  C2  OXE d   1       0.444  -1.568  -0.374  0.00  0.00    -0.078 A 
ATOM      5  C3  OXE d   1       1.699  -1.891  -0.883  0.00  0.00     0.003 A 
ATOM      6  C4  OXE d   1       2.688  -0.907  -1.007  0.00  0.00    -0.002 A 
ATOM      7  C5  OXE d   1       2.395   0.433  -0.732  0.00  0.00    -0.002 A 
ATOM      8  C6  OXE d   1       1.109   0.782  -0.336  0.00  0.00     0.003 A 
ENDROOT
TORSDOF 0
ENDMDL
