MODEL 1
REMARK minimizedAffinity -4.76562691
REMARK minimizedRMSD -1
REMARK  0 active torsions:
REMARK  status: ('A' for Active; 'I' for Inactive)
ROOT
ATOM      1  C2' OXE d   1       1.111   2.150  -1.326  0.00  0.00     0.078 C 
ATOM      2  C1' OXE d   1      -0.802   0.781   0.206  0.00  0.00     0.078 C 
ATOM      3  C1  OXE d   1       0.352  -0.013  -0.351  0.00  0.00    -0.078 A 
ATOM      4  C2  OXE d   1       1.259   0.655  -1.138  0.00  0.00    -0.078 A 
ATOM      5  C3  OXE d   1       2.372  -0.018  -1.632  0.00  0.00     0.003 A 
ATOM      6  C4  OXE d   1       2.496  -1.403  -1.462  0.00  0.00    -0.002 A 
ATOM      7  C5  OXE d   1       1.563  -2.110  -0.697  0.00  0.00    -0.002 A 
ATOM      8  C6  OXE d   1       0.511  -1.425  -0.100  0.00  0.00     0.003 A 
ENDROOT
TORSDOF 0
ENDMDL
