MODEL 1
REMARK minimizedAffinity -4.26880884
REMARK minimizedRMSD -1
REMARK  0 active torsions:
REMARK  status: ('A' for Active; 'I' for Inactive)
ROOT
ATOM      1  C2' OXE d   1       0.731   2.156  -1.100  0.00  0.00     0.078 C 
ATOM      2  C1' OXE d   1      -1.135   0.756   0.461  0.00  0.00     0.078 C 
ATOM      3  C1  OXE d   1       0.044  -0.012  -0.084  0.00  0.00    -0.078 A 
ATOM      4  C2  OXE d   1       0.927   0.671  -0.885  0.00  0.00    -0.078 A 
ATOM      5  C3  OXE d   1       2.060   0.024  -1.369  0.00  0.00     0.003 A 
ATOM      6  C4  OXE d   1       2.228  -1.353  -1.174  0.00  0.00    -0.002 A 
ATOM      7  C5  OXE d   1       1.320  -2.075  -0.394  0.00  0.00    -0.002 A 
ATOM      8  C6  OXE d   1       0.247  -1.413   0.193  0.00  0.00     0.003 A 
ENDROOT
TORSDOF 0
ENDMDL
