MODEL 1
REMARK minimizedAffinity -4.05284548
REMARK minimizedRMSD -1
REMARK  0 active torsions:
REMARK  status: ('A' for Active; 'I' for Inactive)
ROOT
ATOM      1  C2' OXE d   1      -0.610  -2.513  -0.179  0.00  0.00     0.078 C 
ATOM      2  C1' OXE d   1      -1.013   0.089   0.795  0.00  0.00     0.078 C 
ATOM      3  C1  OXE d   1       0.266  -0.192   0.046  0.00  0.00    -0.078 A 
ATOM      4  C2  OXE d   1       0.476  -1.479  -0.386  0.00  0.00    -0.078 A 
ATOM      5  C3  OXE d   1       1.614  -1.780  -1.129  0.00  0.00     0.003 A 
ATOM      6  C4  OXE d   1       2.618  -0.820  -1.307  0.00  0.00    -0.002 A 
ATOM      7  C5  OXE d   1       2.442   0.487  -0.841  0.00  0.00    -0.002 A 
ATOM      8  C6  OXE d   1       1.256   0.828  -0.200  0.00  0.00     0.003 A 
ENDROOT
TORSDOF 0
ENDMDL
