MODEL 1
REMARK minimizedAffinity -3.08707285
REMARK minimizedRMSD -1
REMARK  0 active torsions:
REMARK  status: ('A' for Active; 'I' for Inactive)
ROOT
ATOM      1  C2' OXE d   1      -1.003   0.414   0.619  0.00  0.00     0.078 C 
ATOM      2  C1' OXE d   1       0.272   1.681  -1.538  0.00  0.00     0.078 C 
ATOM      3  C1  OXE d   1       0.701   0.276  -1.194  0.00  0.00    -0.078 A 
ATOM      4  C2  OXE d   1       0.105  -0.318  -0.108  0.00  0.00    -0.078 A 
ATOM      5  C3  OXE d   1       0.425  -1.633   0.220  0.00  0.00     0.003 A 
ATOM      6  C4  OXE d   1       1.457  -2.300  -0.450  0.00  0.00    -0.002 A 
ATOM      7  C5  OXE d   1       2.105  -1.697  -1.534  0.00  0.00    -0.002 A 
ATOM      8  C6  OXE d   1       1.710  -0.429  -1.945  0.00  0.00     0.003 A 
ENDROOT
TORSDOF 0
ENDMDL
