MODEL 1
REMARK minimizedAffinity -2.06642485
REMARK minimizedRMSD -1
REMARK  0 active torsions:
REMARK  status: ('A' for Active; 'I' for Inactive)
ROOT
ATOM      1  C2' OXE d   1       0.389  -2.154   0.355  0.00  0.00     0.078 C 
ATOM      2  C1' OXE d   1      -0.501   0.504   0.205  0.00  0.00     0.078 C 
ATOM      3  C1  OXE d   1       0.460   0.024  -0.853  0.00  0.00    -0.078 A 
ATOM      4  C2  OXE d   1       0.927  -1.264  -0.745  0.00  0.00    -0.078 A 
ATOM      5  C3  OXE d   1       1.772  -1.775  -1.726  0.00  0.00     0.003 A 
ATOM      6  C4  OXE d   1       2.273  -0.943  -2.734  0.00  0.00    -0.002 A 
ATOM      7  C5  OXE d   1       1.841   0.384  -2.839  0.00  0.00    -0.002 A 
ATOM      8  C6  OXE d   1       0.905   0.869  -1.933  0.00  0.00     0.003 A 
ENDROOT
TORSDOF 0
ENDMDL
