MODEL 1
REMARK minimizedAffinity -2.8900671
REMARK minimizedRMSD -1
REMARK  0 active torsions:
REMARK  status: ('A' for Active; 'I' for Inactive)
ROOT
ATOM      1  C2' OXE d   1       1.049   1.117  -0.005  0.00  0.00     0.078 C 
ATOM      2  C1' OXE d   1      -0.081  -1.315   0.824  0.00  0.00     0.078 C 
ATOM      3  C1  OXE d   1      -0.620  -0.045   1.434  0.00  0.00    -0.078 A 
ATOM      4  C2  OXE d   1      -0.029   1.137   1.057  0.00  0.00    -0.078 A 
ATOM      5  C3  OXE d   1      -0.523   2.342   1.549  0.00  0.00     0.003 A 
ATOM      6  C4  OXE d   1      -1.514   2.351   2.538  0.00  0.00    -0.002 A 
ATOM      7  C5  OXE d   1      -2.102   1.156   2.965  0.00  0.00    -0.002 A 
ATOM      8  C6  OXE d   1      -1.697  -0.045   2.393  0.00  0.00     0.003 A 
ENDROOT
TORSDOF 0
ENDMDL
