MODEL 1
REMARK minimizedAffinity -3.80908036
REMARK minimizedRMSD -1
REMARK  0 active torsions:
REMARK  status: ('A' for Active; 'I' for Inactive)
ROOT
ATOM      1  C2' OXE d   1       0.666  -2.085  -0.054  0.00  0.00     0.078 C 
ATOM      2  C1' OXE d   1      -0.682   0.375   0.046  0.00  0.00     0.078 C 
ATOM      3  C1  OXE d   1       0.373   0.193  -1.017  0.00  0.00    -0.078 A 
ATOM      4  C2  OXE d   1       1.060  -0.996  -1.029  0.00  0.00    -0.078 A 
ATOM      5  C3  OXE d   1       2.005  -1.237  -2.022  0.00  0.00     0.003 A 
ATOM      6  C4  OXE d   1       2.370  -0.221  -2.914  0.00  0.00    -0.002 A 
ATOM      7  C5  OXE d   1       1.710   1.012  -2.894  0.00  0.00    -0.002 A 
ATOM      8  C6  OXE d   1       0.682   1.220  -1.981  0.00  0.00     0.003 A 
ENDROOT
TORSDOF 0
ENDMDL
