MODEL 1
REMARK minimizedAffinity -2.33817029
REMARK minimizedRMSD -1
REMARK  0 active torsions:
REMARK  status: ('A' for Active; 'I' for Inactive)
ROOT
ATOM      1  C2' OXE d   1       0.274  -0.536   0.411  0.00  0.00     0.078 C 
ATOM      2  C1' OXE d   1      -2.095   0.742  -0.383  0.00  0.00     0.078 C 
ATOM      3  C1  OXE d   1      -1.793   0.675   1.093  0.00  0.00    -0.078 A 
ATOM      4  C2  OXE d   1      -0.655   0.007   1.475  0.00  0.00    -0.078 A 
ATOM      5  C3  OXE d   1      -0.300  -0.038   2.820  0.00  0.00     0.003 A 
ATOM      6  C4  OXE d   1      -1.170   0.458   3.799  0.00  0.00    -0.002 A 
ATOM      7  C5  OXE d   1      -2.354   1.108   3.433  0.00  0.00    -0.002 A 
ATOM      8  C6  OXE d   1      -2.658   1.262   2.085  0.00  0.00     0.003 A 
ENDROOT
TORSDOF 0
ENDMDL
