MODEL 1
REMARK minimizedAffinity -2.91473699
REMARK minimizedRMSD -1
REMARK  0 active torsions:
REMARK  status: ('A' for Active; 'I' for Inactive)
ROOT
ATOM      1  C2' OXE d   1       1.277   1.740  -2.551  0.00  0.00     0.078 C 
ATOM      2  C1' OXE d   1       2.311  -0.765  -1.819  0.00  0.00     0.078 C 
ATOM      3  C1  OXE d   1       1.105  -0.256  -1.071  0.00  0.00    -0.078 A 
ATOM      4  C2  OXE d   1       0.634   0.991  -1.404  0.00  0.00    -0.078 A 
ATOM      5  C3  OXE d   1      -0.509   1.485  -0.782  0.00  0.00     0.003 A 
ATOM      6  C4  OXE d   1      -1.092   0.790   0.285  0.00  0.00    -0.002 A 
ATOM      7  C5  OXE d   1      -0.604  -0.464   0.667  0.00  0.00    -0.002 A 
ATOM      8  C6  OXE d   1       0.466  -1.019  -0.027  0.00  0.00     0.003 A 
ENDROOT
TORSDOF 0
ENDMDL
