MODEL 1
REMARK minimizedAffinity -3.27292061
REMARK minimizedRMSD -1
REMARK  0 active torsions:
REMARK  status: ('A' for Active; 'I' for Inactive)
ROOT
ATOM      1  C2' OXE d   1      -0.045  -3.102   0.097  0.00  0.00     0.078 C 
ATOM      2  C1' OXE d   1       1.872  -1.769  -1.460  0.00  0.00     0.078 C 
ATOM      3  C1  OXE d   1       0.768  -0.945  -0.846  0.00  0.00    -0.078 A 
ATOM      4  C2  OXE d   1      -0.192  -1.612  -0.124  0.00  0.00    -0.078 A 
ATOM      5  C3  OXE d   1      -1.202  -0.894   0.509  0.00  0.00     0.003 A 
ATOM      6  C4  OXE d   1      -1.336   0.483   0.291  0.00  0.00    -0.002 A 
ATOM      7  C5  OXE d   1      -0.392   1.176  -0.473  0.00  0.00    -0.002 A 
ATOM      8  C6  OXE d   1       0.688   0.485  -1.013  0.00  0.00     0.003 A 
ENDROOT
TORSDOF 0
ENDMDL
