MODEL 1
REMARK minimizedAffinity -6.58824348
REMARK minimizedRMSD -1
REMARK  0 active torsions:
REMARK  status: ('A' for Active; 'I' for Inactive)
ROOT
ATOM      1  C2' OXE d   1      -0.512   0.058   0.182  0.00  0.00     0.078 C 
ATOM      2  C1' OXE d   1      -0.144   2.146  -1.658  0.00  0.00     0.078 C 
ATOM      3  C1  OXE d   1       0.913   1.073  -1.591  0.00  0.00    -0.078 A 
ATOM      4  C2  OXE d   1       0.749   0.080  -0.655  0.00  0.00    -0.078 A 
ATOM      5  C3  OXE d   1       1.667  -0.964  -0.589  0.00  0.00     0.003 A 
ATOM      6  C4  OXE d   1       2.835  -0.931  -1.360  0.00  0.00    -0.002 A 
ATOM      7  C5  OXE d   1       3.042   0.092  -2.292  0.00  0.00    -0.002 A 
ATOM      8  C6  OXE d   1       2.072   1.077  -2.449  0.00  0.00     0.003 A 
ENDROOT
TORSDOF 0
ENDMDL
