MODEL 1
REMARK minimizedAffinity -1.76258242
REMARK minimizedRMSD -1
REMARK  0 active torsions:
REMARK  status: ('A' for Active; 'I' for Inactive)
ROOT
ATOM      1  C   UNL d   1      -1.531   0.080  -1.101  0.00  0.00    -0.002 A 
ATOM      2  C1  UNL d   1      -1.958  -1.052  -1.781  0.00  0.00     0.010 A 
ATOM      3  C2  UNL d   1      -1.076  -1.767  -2.594  0.00  0.00     0.041 A 
ATOM      4  C3  UNL d   1       0.255  -1.323  -2.712  0.00  0.00    -0.075 A 
ATOM      5  S   UNL d   1       1.512  -2.041  -3.649  0.00  0.00     0.015 SA
ATOM      6  C4  UNL d   1       2.645  -0.862  -3.169  0.00  0.00     0.022 A 
ATOM      7  C5  UNL d   1       2.096   0.064  -2.314  0.00  0.00     0.026 A 
ATOM      8  C6  UNL d   1       0.709  -0.187  -2.036  0.00  0.00    -0.082 A 
ATOM      9  C7  UNL d   1      -0.209   0.518  -1.221  0.00  0.00     0.045 A 
ENDROOT
TORSDOF 0
ENDMDL
