MODEL 1
REMARK minimizedAffinity -3.00427365
REMARK minimizedRMSD -1
REMARK  0 active torsions:
REMARK  status: ('A' for Active; 'I' for Inactive)
ROOT
ATOM      1  C   UNL d   1      -0.178  -0.841   3.348  0.00  0.00    -0.002 A 
ATOM      2  C1  UNL d   1       0.908  -0.091   2.920  0.00  0.00     0.010 A 
ATOM      3  C2  UNL d   1       0.980   0.368   1.603  0.00  0.00     0.041 A 
ATOM      4  C3  UNL d   1      -0.070   0.060   0.716  0.00  0.00    -0.075 A 
ATOM      5  S   UNL d   1      -0.198   0.517  -0.942  0.00  0.00     0.015 SA
ATOM      6  C4  UNL d   1      -1.699  -0.271  -1.120  0.00  0.00     0.022 A 
ATOM      7  C5  UNL d   1      -2.107  -0.874   0.046  0.00  0.00     0.026 A 
ATOM      8  C6  UNL d   1      -1.175  -0.692   1.124  0.00  0.00    -0.082 A 
ATOM      9  C7  UNL d   1      -1.218  -1.144   2.465  0.00  0.00     0.045 A 
ENDROOT
TORSDOF 0
ENDMDL
