MODEL 1
REMARK minimizedAffinity -3.41279984
REMARK minimizedRMSD -1
REMARK  0 active torsions:
REMARK  status: ('A' for Active; 'I' for Inactive)
ROOT
ATOM      1  C   UNL d   1       0.400  -2.292  -4.361  0.00  0.00    -0.002 A 
ATOM      2  C1  UNL d   1       1.510  -1.482  -4.167  0.00  0.00     0.010 A 
ATOM      3  C2  UNL d   1       1.496  -0.479  -3.196  0.00  0.00     0.041 A 
ATOM      4  C3  UNL d   1       0.338  -0.304  -2.413  0.00  0.00    -0.075 A 
ATOM      5  S   UNL d   1       0.094   0.860  -1.165  0.00  0.00     0.015 SA
ATOM      6  C4  UNL d   1      -1.489   0.307  -0.857  0.00  0.00     0.022 A 
ATOM      7  C5  UNL d   1      -1.839  -0.738  -1.679  0.00  0.00     0.026 A 
ATOM      8  C6  UNL d   1      -0.791  -1.108  -2.589  0.00  0.00    -0.082 A 
ATOM      9  C7  UNL d   1      -0.747  -2.115  -3.582  0.00  0.00     0.045 A 
ENDROOT
TORSDOF 0
ENDMDL
