MODEL 1
REMARK minimizedAffinity -3.28790259
REMARK minimizedRMSD -1
REMARK  0 active torsions:
REMARK  status: ('A' for Active; 'I' for Inactive)
ROOT
ATOM      1  C   UNL d   1      -1.077  -0.483   3.605  0.00  0.00    -0.002 A 
ATOM      2  C1  UNL d   1      -2.357  -0.477   3.068  0.00  0.00     0.010 A 
ATOM      3  C2  UNL d   1      -2.566  -0.118   1.734  0.00  0.00     0.041 A 
ATOM      4  C3  UNL d   1      -1.456   0.235   0.942  0.00  0.00    -0.075 A 
ATOM      5  S   UNL d   1      -1.472   0.707  -0.716  0.00  0.00     0.015 SA
ATOM      6  C4  UNL d   1       0.220   0.911  -0.751  0.00  0.00     0.022 A 
ATOM      7  C5  UNL d   1       0.799   0.629   0.464  0.00  0.00     0.026 A 
ATOM      8  C6  UNL d   1      -0.158   0.235   1.459  0.00  0.00    -0.082 A 
ATOM      9  C7  UNL d   1       0.021  -0.132   2.815  0.00  0.00     0.045 A 
ENDROOT
TORSDOF 0
ENDMDL
