MODEL 1
REMARK minimizedAffinity -6.27583075
REMARK minimizedRMSD -1
REMARK  0 active torsions:
REMARK  status: ('A' for Active; 'I' for Inactive)
ROOT
ATOM      1  C   UNL d   1      -1.395  -0.389   2.741  0.00  0.00    -0.002 A 
ATOM      2  C1  UNL d   1      -2.665  -0.089   2.269  0.00  0.00     0.010 A 
ATOM      3  C2  UNL d   1      -2.868   0.214   0.922  0.00  0.00     0.041 A 
ATOM      4  C3  UNL d   1      -1.764   0.208   0.047  0.00  0.00    -0.075 A 
ATOM      5  S   UNL d   1      -1.774   0.547  -1.643  0.00  0.00     0.015 SA
ATOM      6  C4  UNL d   1      -0.093   0.299  -1.779  0.00  0.00     0.022 A 
ATOM      7  C5  UNL d   1       0.478  -0.034  -0.574  0.00  0.00     0.026 A 
ATOM      8  C6  UNL d   1      -0.476  -0.093   0.499  0.00  0.00    -0.082 A 
ATOM      9  C7  UNL d   1      -0.302  -0.395   1.871  0.00  0.00     0.045 A 
ENDROOT
TORSDOF 0
ENDMDL
