MODEL 1
REMARK minimizedAffinity -2.31520772
REMARK minimizedRMSD -1
REMARK  0 active torsions:
REMARK  status: ('A' for Active; 'I' for Inactive)
ROOT
ATOM      1  C   UNL d   1       0.143  -1.706  -3.847  0.00  0.00    -0.002 A 
ATOM      2  C1  UNL d   1       1.323  -1.066  -3.495  0.00  0.00     0.010 A 
ATOM      3  C2  UNL d   1       1.382  -0.263  -2.354  0.00  0.00     0.041 A 
ATOM      4  C3  UNL d   1       0.225  -0.114  -1.565  0.00  0.00    -0.075 A 
ATOM      5  S   UNL d   1       0.062   0.819  -0.124  0.00  0.00     0.015 SA
ATOM      6  C4  UNL d   1      -1.577   0.389   0.059  0.00  0.00     0.022 A 
ATOM      7  C5  UNL d   1      -2.006  -0.445  -0.947  0.00  0.00     0.026 A 
ATOM      8  C6  UNL d   1      -0.975  -0.749  -1.898  0.00  0.00    -0.082 A 
ATOM      9  C7  UNL d   1      -1.003  -1.556  -3.062  0.00  0.00     0.045 A 
ENDROOT
TORSDOF 0
ENDMDL
