MODEL 1
REMARK minimizedAffinity -6.16229057
REMARK minimizedRMSD -1
REMARK  0 active torsions:
REMARK  status: ('A' for Active; 'I' for Inactive)
ROOT
ATOM      1  C   UNL d   1      -1.417  -0.659   3.145  0.00  0.00    -0.002 A 
ATOM      2  C1  UNL d   1      -2.563  -0.325   2.436  0.00  0.00     0.010 A 
ATOM      3  C2  UNL d   1      -2.494  -0.025   1.074  0.00  0.00     0.041 A 
ATOM      4  C3  UNL d   1      -1.242  -0.068   0.430  0.00  0.00    -0.075 A 
ATOM      5  S   UNL d   1      -0.916   0.261  -1.231  0.00  0.00     0.015 SA
ATOM      6  C4  UNL d   1       0.752  -0.035  -1.039  0.00  0.00     0.022 A 
ATOM      7  C5  UNL d   1       1.070  -0.377   0.254  0.00  0.00     0.026 A 
ATOM      8  C6  UNL d   1      -0.074  -0.402   1.122  0.00  0.00    -0.082 A 
ATOM      9  C7  UNL d   1      -0.177  -0.701   2.502  0.00  0.00     0.045 A 
ENDROOT
TORSDOF 0
ENDMDL
