MODEL 1
REMARK minimizedAffinity -6.57219839
REMARK minimizedRMSD -1
REMARK  0 active torsions:
REMARK  status: ('A' for Active; 'I' for Inactive)
ROOT
ATOM      1  C   UNL d   1      -2.103  -0.584   3.450  0.00  0.00    -0.002 A 
ATOM      2  C1  UNL d   1      -3.150  -0.210   2.620  0.00  0.00     0.010 A 
ATOM      3  C2  UNL d   1      -2.912   0.126   1.285  0.00  0.00     0.041 A 
ATOM      4  C3  UNL d   1      -1.593   0.076   0.794  0.00  0.00    -0.075 A 
ATOM      5  S   UNL d   1      -1.064   0.443  -0.805  0.00  0.00     0.015 SA
ATOM      6  C4  UNL d   1       0.563   0.110  -0.424  0.00  0.00     0.022 A 
ATOM      7  C5  UNL d   1       0.718  -0.273   0.887  0.00  0.00     0.026 A 
ATOM      8  C6  UNL d   1      -0.522  -0.299   1.611  0.00  0.00    -0.082 A 
ATOM      9  C7  UNL d   1      -0.795  -0.632   2.960  0.00  0.00     0.045 A 
ENDROOT
TORSDOF 0
ENDMDL
