MODEL 1
REMARK minimizedAffinity -3.87003899
REMARK minimizedRMSD -1
REMARK  0 active torsions:
REMARK  status: ('A' for Active; 'I' for Inactive)
ROOT
ATOM      1  C   UNL d   1       0.008  -2.167  -3.624  0.00  0.00    -0.002 A 
ATOM      2  C1  UNL d   1       1.273  -1.680  -3.323  0.00  0.00     0.010 A 
ATOM      3  C2  UNL d   1       1.456  -0.779  -2.272  0.00  0.00     0.041 A 
ATOM      4  C3  UNL d   1       0.336  -0.374  -1.519  0.00  0.00    -0.075 A 
ATOM      5  S   UNL d   1       0.320   0.719  -0.186  0.00  0.00     0.015 SA
ATOM      6  C4  UNL d   1      -1.365   0.564   0.017  0.00  0.00     0.022 A 
ATOM      7  C5  UNL d   1      -1.918  -0.296  -0.901  0.00  0.00     0.026 A 
ATOM      8  C6  UNL d   1      -0.947  -0.852  -1.801  0.00  0.00    -0.082 A 
ATOM      9  C7  UNL d   1      -1.100  -1.763  -2.874  0.00  0.00     0.045 A 
ENDROOT
TORSDOF 0
ENDMDL
