MODEL 1
REMARK minimizedAffinity -5.79571104
REMARK minimizedRMSD -1
REMARK  0 active torsions:
REMARK  status: ('A' for Active; 'I' for Inactive)
ROOT
ATOM      1  C   UNL d   1      -0.568  -0.847   2.897  0.00  0.00    -0.002 A 
ATOM      2  C1  UNL d   1       0.473  -0.015   2.508  0.00  0.00     0.010 A 
ATOM      3  C2  UNL d   1       0.685   0.271   1.158  0.00  0.00     0.041 A 
ATOM      4  C3  UNL d   1      -0.175  -0.295   0.197  0.00  0.00    -0.075 A 
ATOM      5  S   UNL d   1      -0.107  -0.084  -1.513  0.00  0.00     0.015 SA
ATOM      6  C4  UNL d   1      -1.458  -1.092  -1.766  0.00  0.00     0.022 A 
ATOM      7  C5  UNL d   1      -1.961  -1.586  -0.586  0.00  0.00     0.026 A 
ATOM      8  C6  UNL d   1      -1.231  -1.135   0.565  0.00  0.00    -0.082 A 
ATOM      9  C7  UNL d   1      -1.420  -1.407   1.941  0.00  0.00     0.045 A 
ENDROOT
TORSDOF 0
ENDMDL
