MODEL 1
REMARK minimizedAffinity -0.820358515
REMARK minimizedRMSD -1
REMARK  0 active torsions:
REMARK  status: ('A' for Active; 'I' for Inactive)
ROOT
ATOM      1  C   UNL d   1      -1.710  -0.322   1.907  0.00  0.00     0.077 C 
ATOM      2  C1  UNL d   1      -0.344  -0.804   1.520  0.00  0.00    -0.074 A 
ATOM      3  C2  UNL d   1       0.274  -1.849   2.215  0.00  0.00    -0.005 A 
ATOM      4  C3  UNL d   1       1.541  -2.292   1.837  0.00  0.00     0.006 A 
ATOM      5  C4  UNL d   1       2.202  -1.697   0.762  0.00  0.00    -0.005 A 
ATOM      6  C5  UNL d   1       1.600  -0.653   0.054  0.00  0.00    -0.074 A 
ATOM      7  C6  UNL d   1       2.292  -0.009  -1.110  0.00  0.00     0.077 C 
ATOM      8  C7  UNL d   1       0.323  -0.217   0.436  0.00  0.00    -0.001 A 
ENDROOT
TORSDOF 0
ENDMDL
