MODEL 1
REMARK minimizedAffinity 0.697263658
REMARK minimizedRMSD -1
REMARK  0 active torsions:
REMARK  status: ('A' for Active; 'I' for Inactive)
ROOT
ATOM      1  C   UNL d   1      -1.542   0.165   2.116  0.00  0.00     0.077 C 
ATOM      2  C1  UNL d   1      -0.749   0.631   0.931  0.00  0.00    -0.074 A 
ATOM      3  C2  UNL d   1       0.649   0.624   0.954  0.00  0.00    -0.005 A 
ATOM      4  C3  UNL d   1       1.373   1.050  -0.159  0.00  0.00     0.006 A 
ATOM      5  C4  UNL d   1       0.707   1.488  -1.305  0.00  0.00    -0.005 A 
ATOM      6  C5  UNL d   1      -0.691   1.501  -1.347  0.00  0.00    -0.074 A 
ATOM      7  C6  UNL d   1      -1.422   1.959  -2.573  0.00  0.00     0.077 C 
ATOM      8  C7  UNL d   1      -1.411   1.064  -0.226  0.00  0.00    -0.001 A 
ENDROOT
TORSDOF 0
ENDMDL
