MODEL 1
REMARK minimizedAffinity -5.24355936
REMARK minimizedRMSD -1
REMARK  0 active torsions:
REMARK  status: ('A' for Active; 'I' for Inactive)
ROOT
ATOM      1  C   UNL d   1       1.043  -2.884   1.486  0.00  0.00     0.077 C 
ATOM      2  C1  UNL d   1       0.503  -1.533   1.120  0.00  0.00    -0.074 A 
ATOM      3  C2  UNL d   1      -0.802  -1.164   1.462  0.00  0.00    -0.005 A 
ATOM      4  C3  UNL d   1      -1.287   0.100   1.123  0.00  0.00     0.006 A 
ATOM      5  C4  UNL d   1      -0.473   1.004   0.440  0.00  0.00    -0.005 A 
ATOM      6  C5  UNL d   1       0.834   0.653   0.090  0.00  0.00    -0.074 A 
ATOM      7  C6  UNL d   1       1.725   1.617  -0.636  0.00  0.00     0.077 C 
ATOM      8  C7  UNL d   1       1.317  -0.616   0.440  0.00  0.00    -0.001 A 
ENDROOT
TORSDOF 0
ENDMDL
