MODEL 1
REMARK minimizedAffinity -2.55903411
REMARK minimizedRMSD -1
REMARK  0 active torsions:
REMARK  status: ('A' for Active; 'I' for Inactive)
ROOT
ATOM      1  C   UNL d   1      -3.148   0.925  -3.403  0.00  0.00     0.077 C 
ATOM      2  C1  UNL d   1      -2.369   1.615  -2.322  0.00  0.00    -0.074 A 
ATOM      3  C2  UNL d   1      -1.774   2.860  -2.549  0.00  0.00    -0.005 A 
ATOM      4  C3  UNL d   1      -1.061   3.494  -1.531  0.00  0.00     0.006 A 
ATOM      5  C4  UNL d   1      -0.935   2.890  -0.280  0.00  0.00    -0.005 A 
ATOM      6  C5  UNL d   1      -1.524   1.645  -0.035  0.00  0.00    -0.074 A 
ATOM      7  C6  UNL d   1      -1.408   0.987   1.308  0.00  0.00     0.077 C 
ATOM      8  C7  UNL d   1      -2.246   1.018  -1.060  0.00  0.00    -0.001 A 
ENDROOT
TORSDOF 0
ENDMDL
