MODEL 1
REMARK minimizedAffinity -0.485266268
REMARK minimizedRMSD -1
REMARK  0 active torsions:
REMARK  status: ('A' for Active; 'I' for Inactive)
ROOT
ATOM      1  C   UNL d   1       3.373  -0.708  -2.218  0.00  0.00     0.077 C 
ATOM      2  C1  UNL d   1       2.544  -0.939  -0.989  0.00  0.00    -0.074 A 
ATOM      3  C2  UNL d   1       2.022   0.136  -0.262  0.00  0.00    -0.005 A 
ATOM      4  C3  UNL d   1       1.245  -0.094   0.873  0.00  0.00     0.006 A 
ATOM      5  C4  UNL d   1       0.984  -1.399   1.293  0.00  0.00    -0.005 A 
ATOM      6  C5  UNL d   1       1.497  -2.486   0.578  0.00  0.00    -0.074 A 
ATOM      7  C6  UNL d   1       1.217  -3.895   1.010  0.00  0.00     0.077 C 
ATOM      8  C7  UNL d   1       2.270  -2.247  -0.566  0.00  0.00    -0.001 A 
ENDROOT
TORSDOF 0
ENDMDL
