MODEL 1
REMARK minimizedAffinity 5.15075827
REMARK minimizedRMSD -1
REMARK  0 active torsions:
REMARK  status: ('A' for Active; 'I' for Inactive)
ROOT
ATOM      1  C   UNL d   1       0.878  -0.799   1.981  0.00  0.00     0.077 C 
ATOM      2  C1  UNL d   1       1.764  -1.017   0.792  0.00  0.00    -0.074 A 
ATOM      3  C2  UNL d   1       2.208  -2.299   0.451  0.00  0.00    -0.005 A 
ATOM      4  C3  UNL d   1       3.025  -2.487  -0.664  0.00  0.00     0.006 A 
ATOM      5  C4  UNL d   1       3.405  -1.397  -1.449  0.00  0.00    -0.005 A 
ATOM      6  C5  UNL d   1       2.970  -0.108  -1.124  0.00  0.00    -0.074 A 
ATOM      7  C6  UNL d   1       3.361   1.072  -1.962  0.00  0.00     0.077 C 
ATOM      8  C7  UNL d   1       2.144   0.072  -0.006  0.00  0.00    -0.001 A 
ENDROOT
TORSDOF 0
ENDMDL
