MODEL 1
REMARK minimizedAffinity -0.710006297
REMARK minimizedRMSD -1
REMARK  0 active torsions:
REMARK  status: ('A' for Active; 'I' for Inactive)
ROOT
ATOM      1  C   UNL d   1      -2.472   1.303  -2.819  0.00  0.00     0.077 C 
ATOM      2  C1  UNL d   1      -2.309   0.324  -1.695  0.00  0.00    -0.074 A 
ATOM      3  C2  UNL d   1      -2.842  -0.966  -1.782  0.00  0.00    -0.005 A 
ATOM      4  C3  UNL d   1      -2.673  -1.868  -0.732  0.00  0.00     0.006 A 
ATOM      5  C4  UNL d   1      -1.972  -1.491   0.414  0.00  0.00    -0.005 A 
ATOM      6  C5  UNL d   1      -1.431  -0.205   0.518  0.00  0.00    -0.074 A 
ATOM      7  C6  UNL d   1      -0.666   0.214   1.738  0.00  0.00     0.077 C 
ATOM      8  C7  UNL d   1      -1.598   0.694  -0.544  0.00  0.00    -0.001 A 
ENDROOT
TORSDOF 0
ENDMDL
