MODEL 1
REMARK minimizedAffinity 2.3624022
REMARK minimizedRMSD -1
REMARK  0 active torsions:
REMARK  status: ('A' for Active; 'I' for Inactive)
ROOT
ATOM      1  C   UNL d   1       3.647  -0.073  -2.082  0.00  0.00     0.077 C 
ATOM      2  C1  UNL d   1       3.062  -0.717  -0.860  0.00  0.00    -0.074 A 
ATOM      3  C2  UNL d   1       2.946  -0.009   0.340  0.00  0.00    -0.005 A 
ATOM      4  C3  UNL d   1       2.390  -0.618   1.465  0.00  0.00     0.006 A 
ATOM      5  C4  UNL d   1       1.946  -1.939   1.402  0.00  0.00    -0.005 A 
ATOM      6  C5  UNL d   1       2.053  -2.663   0.210  0.00  0.00    -0.074 A 
ATOM      7  C6  UNL d   1       1.571  -4.080   0.122  0.00  0.00     0.077 C 
ATOM      8  C7  UNL d   1       2.606  -2.041  -0.918  0.00  0.00    -0.001 A 
ENDROOT
TORSDOF 0
ENDMDL
