MODEL 1
REMARK minimizedAffinity 4.86330128
REMARK minimizedRMSD -1
REMARK  0 active torsions:
REMARK  status: ('A' for Active; 'I' for Inactive)
ROOT
ATOM      1  C   UNL d   1      -0.314  -1.791   2.818  0.00  0.00     0.077 C 
ATOM      2  C1  UNL d   1      -1.014  -1.428   1.542  0.00  0.00    -0.074 A 
ATOM      3  C2  UNL d   1      -1.221  -0.090   1.191  0.00  0.00    -0.005 A 
ATOM      4  C3  UNL d   1      -1.864   0.232  -0.004  0.00  0.00     0.006 A 
ATOM      5  C4  UNL d   1      -2.306  -0.778  -0.859  0.00  0.00    -0.005 A 
ATOM      6  C5  UNL d   1      -2.107  -2.121  -0.526  0.00  0.00    -0.074 A 
ATOM      7  C6  UNL d   1      -2.567  -3.220  -1.438  0.00  0.00     0.077 C 
ATOM      8  C7  UNL d   1      -1.453  -2.437   0.674  0.00  0.00    -0.001 A 
ENDROOT
TORSDOF 0
ENDMDL
