MODEL 1
REMARK minimizedAffinity 1.55998838
REMARK minimizedRMSD -1
REMARK  0 active torsions:
REMARK  status: ('A' for Active; 'I' for Inactive)
ROOT
ATOM      1  C   UNL d   1      -3.312   1.211  -2.532  0.00  0.00     0.077 C 
ATOM      2  C1  UNL d   1      -3.275   1.056  -1.041  0.00  0.00    -0.074 A 
ATOM      3  C2  UNL d   1      -4.431   1.221  -0.272  0.00  0.00    -0.005 A 
ATOM      4  C3  UNL d   1      -4.383   1.064   1.113  0.00  0.00     0.006 A 
ATOM      5  C4  UNL d   1      -3.180   0.742   1.743  0.00  0.00    -0.005 A 
ATOM      6  C5  UNL d   1      -2.014   0.572   0.990  0.00  0.00    -0.074 A 
ATOM      7  C6  UNL d   1      -0.715   0.216   1.650  0.00  0.00     0.077 C 
ATOM      8  C7  UNL d   1      -2.072   0.724  -0.402  0.00  0.00    -0.001 A 
ENDROOT
TORSDOF 0
ENDMDL
