MODEL 1
REMARK minimizedAffinity 1.58017755
REMARK minimizedRMSD -1
REMARK  0 active torsions:
REMARK  status: ('A' for Active; 'I' for Inactive)
ROOT
ATOM      1  C   UNL d   1       3.990   0.224  -2.576  0.00  0.00     0.077 C 
ATOM      2  C1  UNL d   1       3.195  -0.122  -1.353  0.00  0.00    -0.074 A 
ATOM      3  C2  UNL d   1       2.685   0.879  -0.520  0.00  0.00    -0.005 A 
ATOM      4  C3  UNL d   1       1.939   0.542   0.610  0.00  0.00     0.006 A 
ATOM      5  C4  UNL d   1       1.696  -0.797   0.918  0.00  0.00    -0.005 A 
ATOM      6  C5  UNL d   1       2.197  -1.812   0.096  0.00  0.00    -0.074 A 
ATOM      7  C6  UNL d   1       1.937  -3.256   0.407  0.00  0.00     0.077 C 
ATOM      8  C7  UNL d   1       2.940  -1.465  -1.041  0.00  0.00    -0.001 A 
ENDROOT
TORSDOF 0
ENDMDL
