MODEL 1
REMARK minimizedAffinity 1.88026023
REMARK minimizedRMSD -1
REMARK  0 active torsions:
REMARK  status: ('A' for Active; 'I' for Inactive)
ROOT
ATOM      1  C   UNL d   1       2.880   0.767  -1.185  0.00  0.00     0.077 C 
ATOM      2  C1  UNL d   1       2.167  -0.201  -0.289  0.00  0.00    -0.074 A 
ATOM      3  C2  UNL d   1       2.691  -1.475  -0.045  0.00  0.00    -0.005 A 
ATOM      4  C3  UNL d   1       2.021  -2.361   0.798  0.00  0.00     0.006 A 
ATOM      5  C4  UNL d   1       0.823  -1.984   1.405  0.00  0.00    -0.005 A 
ATOM      6  C5  UNL d   1       0.284  -0.714   1.173  0.00  0.00    -0.074 A 
ATOM      7  C6  UNL d   1      -0.998  -0.289   1.826  0.00  0.00     0.077 C 
ATOM      8  C7  UNL d   1       0.966   0.173   0.331  0.00  0.00    -0.001 A 
ENDROOT
TORSDOF 0
ENDMDL
