MODEL 1
REMARK minimizedAffinity 2.9645586
REMARK minimizedRMSD -1
REMARK  0 active torsions:
REMARK  status: ('A' for Active; 'I' for Inactive)
ROOT
ATOM      1  C   UNL d   1      -3.327   1.232  -2.413  0.00  0.00     0.077 C 
ATOM      2  C1  UNL d   1      -2.974   0.229  -1.356  0.00  0.00    -0.074 A 
ATOM      3  C2  UNL d   1      -2.849  -1.129  -1.666  0.00  0.00    -0.005 A 
ATOM      4  C3  UNL d   1      -2.511  -2.049  -0.674  0.00  0.00     0.006 A 
ATOM      5  C4  UNL d   1      -2.294  -1.621   0.637  0.00  0.00    -0.005 A 
ATOM      6  C5  UNL d   1      -2.413  -0.267   0.966  0.00  0.00    -0.074 A 
ATOM      7  C6  UNL d   1      -2.174   0.211   2.367  0.00  0.00     0.077 C 
ATOM      8  C7  UNL d   1      -2.747   0.652  -0.039  0.00  0.00    -0.001 A 
ENDROOT
TORSDOF 0
ENDMDL
