MODEL 1
REMARK minimizedAffinity 8.36898041
REMARK minimizedRMSD -1
REMARK  0 active torsions:
REMARK  status: ('A' for Active; 'I' for Inactive)
ROOT
ATOM      1  C   UNL d   1      -3.018  -2.297  -1.416  0.00  0.00     0.077 C 
ATOM      2  C1  UNL d   1      -3.336  -0.832  -1.366  0.00  0.00    -0.074 A 
ATOM      3  C2  UNL d   1      -3.978  -0.274  -0.256  0.00  0.00    -0.005 A 
ATOM      4  C3  UNL d   1      -4.259   1.092  -0.220  0.00  0.00     0.006 A 
ATOM      5  C4  UNL d   1      -3.901   1.912  -1.291  0.00  0.00    -0.005 A 
ATOM      6  C5  UNL d   1      -3.257   1.371  -2.409  0.00  0.00    -0.074 A 
ATOM      7  C6  UNL d   1      -2.856   2.240  -3.564  0.00  0.00     0.077 C 
ATOM      8  C7  UNL d   1      -2.972  -0.001  -2.435  0.00  0.00    -0.001 A 
ENDROOT
TORSDOF 0
ENDMDL
