MODEL 1
REMARK minimizedAffinity 18.0601845
REMARK minimizedRMSD -1
REMARK  0 active torsions:
REMARK  status: ('A' for Active; 'I' for Inactive)
ROOT
ATOM      1  N1  IND d   1      -2.917   4.695   2.868  0.00  0.00    -0.196 N 
ATOM      2  C2  IND d   1      -1.873   5.443   3.335  0.00  0.00     0.054 A 
ATOM      3  C3  IND d   1      -2.180   5.980   4.538  0.00  0.00    -0.031 A 
ATOM      4  C4  IND d   1      -4.299   5.681   5.969  0.00  0.00     0.051 A 
ATOM      5  C5  IND d   1      -5.544   5.119   5.945  0.00  0.00    -0.031 A 
ATOM      6  C6  IND d   1      -5.986   4.369   4.874  0.00  0.00     0.015 A 
ATOM      7  C7  IND d   1      -5.190   4.143   3.787  0.00  0.00    -0.016 A 
ATOM      8  C8  IND d   1      -3.927   4.719   3.804  0.00  0.00    -0.047 A 
ATOM      9  C9  IND d   1      -3.490   5.516   4.870  0.00  0.00    -0.096 A 
ATOM     10  HN1 IND d   1      -2.940   4.280   2.115  0.00  0.00     0.298 HD
ENDROOT
TORSDOF 0
ENDMDL
