MODEL 1
REMARK minimizedAffinity 2.78911829
REMARK minimizedRMSD -1
REMARK  0 active torsions:
REMARK  status: ('A' for Active; 'I' for Inactive)
ROOT
ATOM      1  N1  IND d   1      -0.488  -0.765  -0.535  0.00  0.00    -0.196 N 
ATOM      2  C2  IND d   1      -0.924  -2.053  -0.681  0.00  0.00     0.054 A 
ATOM      3  C3  IND d   1       0.110  -2.867  -0.991  0.00  0.00    -0.031 A 
ATOM      4  C4  IND d   1       2.615  -2.318  -1.210  0.00  0.00     0.051 A 
ATOM      5  C5  IND d   1       3.493  -1.271  -1.202  0.00  0.00    -0.031 A 
ATOM      6  C6  IND d   1       3.081   0.024  -0.963  0.00  0.00     0.015 A 
ATOM      7  C7  IND d   1       1.771   0.320  -0.712  0.00  0.00    -0.016 A 
ATOM      8  C8  IND d   1       0.876  -0.740  -0.726  0.00  0.00    -0.047 A 
ATOM      9  C9  IND d   1       1.282  -2.050  -1.010  0.00  0.00    -0.096 A 
ATOM     10  HN1 IND d   1      -0.983  -0.086  -0.354  0.00  0.00     0.298 HD
ENDROOT
TORSDOF 0
ENDMDL
