MODEL 1
REMARK minimizedAffinity 7.81682587
REMARK minimizedRMSD -1
REMARK  0 active torsions:
REMARK  status: ('A' for Active; 'I' for Inactive)
ROOT
ATOM      1  N1  IND d   1       3.026  -2.093  -1.287  0.00  0.00    -0.196 N 
ATOM      2  C2  IND d   1       2.072  -2.932  -0.781  0.00  0.00     0.054 A 
ATOM      3  C3  IND d   1       1.202  -2.244  -0.009  0.00  0.00    -0.031 A 
ATOM      4  C4  IND d   1       1.093   0.281   0.481  0.00  0.00     0.051 A 
ATOM      5  C5  IND d   1       1.770   1.450   0.271  0.00  0.00    -0.031 A 
ATOM      6  C6  IND d   1       2.923   1.498  -0.486  0.00  0.00     0.015 A 
ATOM      7  C7  IND d   1       3.437   0.377  -1.074  0.00  0.00    -0.016 A 
ATOM      8  C8  IND d   1       2.755  -0.812  -0.857  0.00  0.00    -0.047 A 
ATOM      9  C9  IND d   1       1.609  -0.875  -0.055  0.00  0.00    -0.096 A 
ATOM     10  HN1 IND d   1       3.684  -2.326  -1.789  0.00  0.00     0.298 HD
ENDROOT
TORSDOF 0
ENDMDL
