MODEL 1
REMARK minimizedAffinity 1.86428773
REMARK minimizedRMSD -1
REMARK  0 active torsions:
REMARK  status: ('A' for Active; 'I' for Inactive)
ROOT
ATOM      1  N1  IND d   1       1.763   1.196  -0.466  0.00  0.00    -0.196 N 
ATOM      2  C2  IND d   1       3.068   1.360  -0.838  0.00  0.00     0.054 A 
ATOM      3  C3  IND d   1       3.630   0.165  -1.127  0.00  0.00    -0.031 A 
ATOM      4  C4  IND d   1       2.564  -2.178  -1.155  0.00  0.00     0.051 A 
ATOM      5  C5  IND d   1       1.406  -2.839  -0.855  0.00  0.00    -0.031 A 
ATOM      6  C6  IND d   1       0.284  -2.174  -0.403  0.00  0.00     0.015 A 
ATOM      7  C7  IND d   1       0.275  -0.817  -0.245  0.00  0.00    -0.016 A 
ATOM      8  C8  IND d   1       1.451  -0.144  -0.542  0.00  0.00    -0.047 A 
ATOM      9  C9  IND d   1       2.606  -0.818  -0.961  0.00  0.00    -0.096 A 
ATOM     10  HN1 IND d   1       1.227   1.823  -0.226  0.00  0.00     0.298 HD
ENDROOT
TORSDOF 0
ENDMDL
