MODEL 1
REMARK minimizedAffinity 14.6502237
REMARK minimizedRMSD -1
REMARK  0 active torsions:
REMARK  status: ('A' for Active; 'I' for Inactive)
ROOT
ATOM      1  N1  IND d   1      -4.430   0.354  -0.414  0.00  0.00    -0.196 N 
ATOM      2  C2  IND d   1      -3.913   0.910   0.722  0.00  0.00     0.054 A 
ATOM      3  C3  IND d   1      -2.566   0.991   0.636  0.00  0.00    -0.031 A 
ATOM      4  C4  IND d   1      -1.013   0.365  -1.320  0.00  0.00     0.051 A 
ATOM      5  C5  IND d   1      -1.019  -0.215  -2.557  0.00  0.00    -0.031 A 
ATOM      6  C6  IND d   1      -2.186  -0.641  -3.157  0.00  0.00     0.015 A 
ATOM      7  C7  IND d   1      -3.398  -0.492  -2.543  0.00  0.00    -0.016 A 
ATOM      8  C8  IND d   1      -3.395   0.090  -1.284  0.00  0.00    -0.047 A 
ATOM      9  C9  IND d   1      -2.209   0.485  -0.652  0.00  0.00    -0.096 A 
ATOM     10  HN1 IND d   1      -5.262   0.196  -0.561  0.00  0.00     0.298 HD
ENDROOT
TORSDOF 0
ENDMDL
