MODEL 1
REMARK minimizedAffinity 8.2998991
REMARK minimizedRMSD -1
REMARK  0 active torsions:
REMARK  status: ('A' for Active; 'I' for Inactive)
ROOT
ATOM      1  N1  IND d   1       4.952   3.102   0.923  0.00  0.00    -0.196 N 
ATOM      2  C2  IND d   1       4.498   2.906   2.198  0.00  0.00     0.054 A 
ATOM      3  C3  IND d   1       3.568   1.925   2.219  0.00  0.00    -0.031 A 
ATOM      4  C4  IND d   1       2.713   0.439   0.299  0.00  0.00     0.051 A 
ATOM      5  C5  IND d   1       2.806   0.267  -1.054  0.00  0.00    -0.031 A 
ATOM      6  C6  IND d   1       3.638   1.046  -1.832  0.00  0.00     0.015 A 
ATOM      7  C7  IND d   1       4.420   2.022  -1.282  0.00  0.00    -0.016 A 
ATOM      8  C8  IND d   1       4.323   2.204   0.090  0.00  0.00    -0.047 A 
ATOM      9  C9  IND d   1       3.449   1.445   0.879  0.00  0.00    -0.096 A 
ATOM     10  HN1 IND d   1       5.534   3.688   0.683  0.00  0.00     0.298 HD
ENDROOT
TORSDOF 0
ENDMDL
