MODEL 1
REMARK minimizedAffinity 15.0421877
REMARK minimizedRMSD -1
REMARK  0 active torsions:
REMARK  status: ('A' for Active; 'I' for Inactive)
ROOT
ATOM      1  N1  IND d   1       4.625   3.518   0.647  0.00  0.00    -0.196 N 
ATOM      2  C2  IND d   1       4.860   3.233   1.963  0.00  0.00     0.054 A 
ATOM      3  C3  IND d   1       4.486   1.965   2.244  0.00  0.00    -0.031 A 
ATOM      4  C4  IND d   1       3.559   0.147   0.674  0.00  0.00     0.051 A 
ATOM      5  C5  IND d   1       3.137  -0.054  -0.610  0.00  0.00    -0.031 A 
ATOM      6  C6  IND d   1       3.194   0.944  -1.561  0.00  0.00     0.015 A 
ATOM      7  C7  IND d   1       3.686   2.183  -1.264  0.00  0.00    -0.016 A 
ATOM      8  C8  IND d   1       4.109   2.394   0.041  0.00  0.00    -0.047 A 
ATOM      9  C9  IND d   1       4.015   1.397   1.021  0.00  0.00    -0.096 A 
ATOM     10  HN1 IND d   1       4.774   4.272   0.262  0.00  0.00     0.298 HD
ENDROOT
TORSDOF 0
ENDMDL
