MODEL 1
REMARK minimizedAffinity 11.4955187
REMARK minimizedRMSD -1
REMARK  0 active torsions:
REMARK  status: ('A' for Active; 'I' for Inactive)
ROOT
ATOM      1  C4' PXY d   1      -1.493  -0.687  -1.500  0.00  0.00     0.077 C 
ATOM      2  C1' PXY d   1      -3.872   3.751  -4.338  0.00  0.00     0.077 C 
ATOM      3  C1  PXY d   1      -3.254   2.591  -3.583  0.00  0.00    -0.082 A 
ATOM      4  C2  PXY d   1      -2.122   2.059  -4.014  0.00  0.00     0.003 A 
ATOM      5  C3  PXY d   1      -1.567   0.988  -3.361  0.00  0.00     0.003 A 
ATOM      6  C4  PXY d   1      -2.148   0.492  -2.225  0.00  0.00    -0.082 A 
ATOM      7  C5  PXY d   1      -3.297   1.036  -1.773  0.00  0.00     0.003 A 
ATOM      8  C6  PXY d   1      -3.867   2.096  -2.473  0.00  0.00     0.003 A 
ENDROOT
TORSDOF 0
ENDMDL
