MODEL 1
REMARK minimizedAffinity 6.64658594
REMARK minimizedRMSD -1
REMARK  0 active torsions:
REMARK  status: ('A' for Active; 'I' for Inactive)
ROOT
ATOM      1  C4' PXY d   1       6.000  -6.000   6.000  0.00  0.00     0.077 C 
ATOM      2  C1' PXY d   1       3.115  -1.469   3.864  0.00  0.00     0.077 C 
ATOM      3  C1  PXY d   1       3.881  -2.649   4.428  0.00  0.00    -0.082 A 
ATOM      4  C2  PXY d   1       3.680  -3.858   3.930  0.00  0.00     0.003 A 
ATOM      5  C3  PXY d   1       4.341  -4.941   4.449  0.00  0.00     0.003 A 
ATOM      6  C4  PXY d   1       5.256  -4.778   5.455  0.00  0.00    -0.082 A 
ATOM      7  C5  PXY d   1       5.474  -3.546   5.962  0.00  0.00     0.003 A 
ATOM      8  C6  PXY d   1       4.763  -2.465   5.448  0.00  0.00     0.003 A 
ENDROOT
TORSDOF 0
ENDMDL
