MODEL 1
REMARK minimizedAffinity -0.595833719
REMARK minimizedRMSD -1
REMARK  0 active torsions:
REMARK  status: ('A' for Active; 'I' for Inactive)
ROOT
ATOM      1  C4' PXY d   1       4.359  -5.023  -0.668  0.00  0.00     0.077 C 
ATOM      2  C1' PXY d   1      -0.091  -1.854   1.220  0.00  0.00     0.077 C 
ATOM      3  C1  PXY d   1       1.084  -2.675   0.727  0.00  0.00    -0.082 A 
ATOM      4  C2  PXY d   1       0.872  -3.702  -0.080  0.00  0.00     0.003 A 
ATOM      5  C3  PXY d   1       1.920  -4.475  -0.510  0.00  0.00     0.003 A 
ATOM      6  C4  PXY d   1       3.204  -4.160  -0.153  0.00  0.00    -0.082 A 
ATOM      7  C5  PXY d   1       3.430  -3.108   0.661  0.00  0.00     0.003 A 
ATOM      8  C6  PXY d   1       2.348  -2.361   1.120  0.00  0.00     0.003 A 
ENDROOT
TORSDOF 0
ENDMDL
