MODEL 1
REMARK minimizedAffinity 12.922575
REMARK minimizedRMSD -1
REMARK  0 active torsions:
REMARK  status: ('A' for Active; 'I' for Inactive)
ROOT
ATOM      1  C4' PXY d   1       5.999   1.970  -3.739  0.00  0.00     0.077 C 
ATOM      2  C1' PXY d   1       5.504  -1.553   0.817  0.00  0.00     0.077 C 
ATOM      3  C1  PXY d   1       5.638  -0.639  -0.385  0.00  0.00    -0.082 A 
ATOM      4  C2  PXY d   1       5.771   0.665  -0.204  0.00  0.00     0.003 A 
ATOM      5  C3  PXY d   1       5.862   1.509  -1.281  0.00  0.00     0.003 A 
ATOM      6  C4  PXY d   1       5.870   1.008  -2.555  0.00  0.00    -0.082 A 
ATOM      7  C5  PXY d   1       5.745  -0.322  -2.748  0.00  0.00     0.003 A 
ATOM      8  C6  PXY d   1       5.613  -1.158  -1.643  0.00  0.00     0.003 A 
ENDROOT
TORSDOF 0
ENDMDL
