MODEL 1
REMARK minimizedAffinity 9.87226009
REMARK minimizedRMSD -1
REMARK  0 active torsions:
REMARK  status: ('A' for Active; 'I' for Inactive)
ROOT
ATOM      1  C4' PXY d   1      -4.900   1.634   0.219  0.00  0.00     0.077 C 
ATOM      2  C1' PXY d   1      -4.931   1.603   5.999  0.00  0.00     0.077 C 
ATOM      3  C1  PXY d   1      -4.936   1.613   4.483  0.00  0.00    -0.082 A 
ATOM      4  C2  PXY d   1      -3.924   1.073   3.822  0.00  0.00     0.003 A 
ATOM      5  C3  PXY d   1      -3.897   1.101   2.452  0.00  0.00     0.003 A 
ATOM      6  C4  PXY d   1      -4.942   1.640   1.749  0.00  0.00    -0.082 A 
ATOM      7  C5  PXY d   1      -5.983   2.182   2.416  0.00  0.00     0.003 A 
ATOM      8  C6  PXY d   1      -5.972   2.180   3.808  0.00  0.00     0.003 A 
ENDROOT
TORSDOF 0
ENDMDL
