MODEL 1
REMARK minimizedAffinity 9.48953247
REMARK minimizedRMSD -1
REMARK  0 active torsions:
REMARK  status: ('A' for Active; 'I' for Inactive)
ROOT
ATOM      1  C4' PXY d   1      -1.139  -0.299   3.063  0.00  0.00     0.077 C 
ATOM      2  C1' PXY d   1       2.392  -3.298  -0.394  0.00  0.00     0.077 C 
ATOM      3  C1  PXY d   1       1.457  -2.510   0.503  0.00  0.00    -0.082 A 
ATOM      4  C2  PXY d   1       1.949  -1.842   1.533  0.00  0.00     0.003 A 
ATOM      5  C3  PXY d   1       1.114  -1.151   2.373  0.00  0.00     0.003 A 
ATOM      6  C4  PXY d   1      -0.231  -1.100   2.125  0.00  0.00    -0.082 A 
ATOM      7  C5  PXY d   1      -0.739  -1.770   1.069  0.00  0.00     0.003 A 
ATOM      8  C6  PXY d   1       0.120  -2.500   0.252  0.00  0.00     0.003 A 
ENDROOT
TORSDOF 0
ENDMDL
