MODEL 1
REMARK minimizedAffinity 9.43954659
REMARK minimizedRMSD -1
REMARK  0 active torsions:
REMARK  status: ('A' for Active; 'I' for Inactive)
ROOT
ATOM      1  C4' PXY d   1       1.047  -0.219   2.977  0.00  0.00     0.077 C 
ATOM      2  C1' PXY d   1       2.719  -4.227  -0.838  0.00  0.00     0.077 C 
ATOM      3  C1  PXY d   1       2.272  -3.170   0.153  0.00  0.00    -0.082 A 
ATOM      4  C2  PXY d   1       3.073  -2.829   1.150  0.00  0.00     0.003 A 
ATOM      5  C3  PXY d   1       2.672  -1.899   2.074  0.00  0.00     0.003 A 
ATOM      6  C4  PXY d   1       1.460  -1.273   1.947  0.00  0.00    -0.082 A 
ATOM      7  C5  PXY d   1       0.642  -1.609   0.927  0.00  0.00     0.003 A 
ATOM      8  C6  PXY d   1       1.051  -2.585   0.023  0.00  0.00     0.003 A 
ENDROOT
TORSDOF 0
ENDMDL
