MODEL 1
REMARK minimizedAffinity -3.97934508
REMARK minimizedRMSD -1
REMARK  0 active torsions:
REMARK  status: ('A' for Active; 'I' for Inactive)
ROOT
ATOM      1  C1  BNZ d   1      -0.770   1.138  -0.580  0.00  0.00     0.000 A 
ATOM      2  C2  BNZ d   1       0.184   0.161  -0.682  0.00  0.00     0.000 A 
ATOM      3  C3  BNZ d   1       0.557  -0.569   0.412  0.00  0.00     0.000 A 
ATOM      4  C4  BNZ d   1       0.007  -0.295   1.612  0.00  0.00     0.000 A 
ATOM      5  C5  BNZ d   1      -0.950   0.693   1.733  0.00  0.00     0.000 A 
ATOM      6  C6  BNZ d   1      -1.352   1.400   0.622  0.00  0.00     0.000 A 
ENDROOT
TORSDOF 0
ENDMDL
