MODEL 1
REMARK minimizedAffinity -3.71212339
REMARK minimizedRMSD -1
REMARK  0 active torsions:
REMARK  status: ('A' for Active; 'I' for Inactive)
ROOT
ATOM      1  C1  BNZ d   1      -0.032   0.283  -0.332  0.00  0.00     0.000 A 
ATOM      2  C2  BNZ d   1       0.742  -0.444   0.533  0.00  0.00     0.000 A 
ATOM      3  C3  BNZ d   1       0.460  -0.473   1.870  0.00  0.00     0.000 A 
ATOM      4  C4  BNZ d   1      -0.570   0.257   2.346  0.00  0.00     0.000 A 
ATOM      5  C5  BNZ d   1      -1.354   1.003   1.489  0.00  0.00     0.000 A 
ATOM      6  C6  BNZ d   1      -1.091   0.998   0.138  0.00  0.00     0.000 A 
ENDROOT
TORSDOF 0
ENDMDL
