MODEL 1
REMARK minimizedAffinity -3.04653668
REMARK minimizedRMSD -1
REMARK  0 active torsions:
REMARK  status: ('A' for Active; 'I' for Inactive)
ROOT
ATOM      1  C1  BNZ d   1      -0.116  -0.718   1.135  0.00  0.00     0.000 A 
ATOM      2  C2  BNZ d   1       0.600  -0.754  -0.032  0.00  0.00     0.000 A 
ATOM      3  C3  BNZ d   1       0.879   0.395  -0.718  0.00  0.00     0.000 A 
ATOM      4  C4  BNZ d   1       0.409   1.572  -0.258  0.00  0.00     0.000 A 
ATOM      5  C5  BNZ d   1      -0.322   1.624   0.911  0.00  0.00     0.000 A 
ATOM      6  C6  BNZ d   1      -0.568   0.470   1.620  0.00  0.00     0.000 A 
ENDROOT
TORSDOF 0
ENDMDL
