MODEL 1
REMARK minimizedAffinity -4.72304487
REMARK minimizedRMSD -1
REMARK  0 active torsions:
REMARK  status: ('A' for Active; 'I' for Inactive)
ROOT
ATOM      1  C1  BNZ d   1      -0.199  -0.137   1.495  0.00  0.00     0.000 A 
ATOM      2  C2  BNZ d   1      -1.327   0.634   1.577  0.00  0.00     0.000 A 
ATOM      3  C3  BNZ d   1      -1.752   1.370   0.506  0.00  0.00     0.000 A 
ATOM      4  C4  BNZ d   1      -1.027   1.364  -0.631  0.00  0.00     0.000 A 
ATOM      5  C5  BNZ d   1       0.119   0.599  -0.726  0.00  0.00     0.000 A 
ATOM      6  C6  BNZ d   1       0.521  -0.171   0.341  0.00  0.00     0.000 A 
ENDROOT
TORSDOF 0
ENDMDL
