MODEL 1
REMARK minimizedAffinity -2.95198536
REMARK minimizedRMSD -1
REMARK  0 active torsions:
REMARK  status: ('A' for Active; 'I' for Inactive)
ROOT
ATOM      1  C1  BNZ d   1       2.019  -2.624  -1.580  0.00  0.00     0.000 A 
ATOM      2  C2  BNZ d   1       1.943  -1.541  -0.746  0.00  0.00     0.000 A 
ATOM      3  C3  BNZ d   1       0.780  -0.833  -0.622  0.00  0.00     0.000 A 
ATOM      4  C4  BNZ d   1      -0.292  -1.185  -1.360  0.00  0.00     0.000 A 
ATOM      5  C5  BNZ d   1      -0.229  -2.269  -2.213  0.00  0.00     0.000 A 
ATOM      6  C6  BNZ d   1       0.932  -3.003  -2.306  0.00  0.00     0.000 A 
ENDROOT
TORSDOF 0
ENDMDL
