MODEL 1
REMARK minimizedAffinity -5.26865959
REMARK minimizedRMSD -1
REMARK  0 active torsions:
REMARK  status: ('A' for Active; 'I' for Inactive)
ROOT
ATOM      1  C1  BNZ d   1      -0.591   0.969   0.061  0.00  0.00     0.000 A 
ATOM      2  C2  BNZ d   1      -0.316   2.283  -0.213  0.00  0.00     0.000 A 
ATOM      3  C3  BNZ d   1      -0.973   3.286   0.443  0.00  0.00     0.000 A 
ATOM      4  C4  BNZ d   1      -1.930   2.976   1.341  0.00  0.00     0.000 A 
ATOM      5  C5  BNZ d   1      -2.225   1.657   1.621  0.00  0.00     0.000 A 
ATOM      6  C6  BNZ d   1      -1.535   0.649   0.987  0.00  0.00     0.000 A 
ENDROOT
TORSDOF 0
ENDMDL
