MODEL 1
REMARK minimizedAffinity -4.93433619
REMARK minimizedRMSD -1
REMARK  0 active torsions:
REMARK  status: ('A' for Active; 'I' for Inactive)
ROOT
ATOM      1  C1  BNZ d   1      -1.144   3.192   0.264  0.00  0.00     0.000 A 
ATOM      2  C2  BNZ d   1      -1.839   2.677   1.326  0.00  0.00     0.000 A 
ATOM      3  C3  BNZ d   1      -1.808   1.338   1.600  0.00  0.00     0.000 A 
ATOM      4  C4  BNZ d   1      -1.115   0.512   0.791  0.00  0.00     0.000 A 
ATOM      5  C5  BNZ d   1      -0.417   1.014  -0.289  0.00  0.00     0.000 A 
ATOM      6  C6  BNZ d   1      -0.418   2.367  -0.539  0.00  0.00     0.000 A 
ENDROOT
TORSDOF 0
ENDMDL
