MODEL 1
REMARK minimizedAffinity -4.93103027
REMARK minimizedRMSD -1
REMARK  0 active torsions:
REMARK  status: ('A' for Active; 'I' for Inactive)
ROOT
ATOM      1  C1  BNZ d   1      -0.735   2.324  -0.010  0.00  0.00     0.000 A 
ATOM      2  C2  BNZ d   1       0.169   1.345  -0.327  0.00  0.00     0.000 A 
ATOM      3  C3  BNZ d   1       0.384   0.291   0.517  0.00  0.00     0.000 A 
ATOM      4  C4  BNZ d   1      -0.275   0.237   1.692  0.00  0.00     0.000 A 
ATOM      5  C5  BNZ d   1      -1.182   1.221   2.031  0.00  0.00     0.000 A 
ATOM      6  C6  BNZ d   1      -1.425   2.260   1.162  0.00  0.00     0.000 A 
ENDROOT
TORSDOF 0
ENDMDL
