MODEL 1
REMARK minimizedAffinity -4.8364749
REMARK minimizedRMSD -1
REMARK  0 active torsions:
REMARK  status: ('A' for Active; 'I' for Inactive)
ROOT
ATOM      1  C1  BNZ d   1      -0.511   1.099  -0.752  0.00  0.00     0.000 A 
ATOM      2  C2  BNZ d   1      -1.314   0.744   0.299  0.00  0.00     0.000 A 
ATOM      3  C3  BNZ d   1      -1.862   1.695   1.114  0.00  0.00     0.000 A 
ATOM      4  C4  BNZ d   1      -1.576   2.996   0.900  0.00  0.00     0.000 A 
ATOM      5  C5  BNZ d   1      -0.761   3.369  -0.150  0.00  0.00     0.000 A 
ATOM      6  C6  BNZ d   1      -0.242   2.412  -0.991  0.00  0.00     0.000 A 
ENDROOT
TORSDOF 0
ENDMDL
