MODEL 1
REMARK minimizedAffinity -4.32269716
REMARK minimizedRMSD -1
REMARK  0 active torsions:
REMARK  status: ('A' for Active; 'I' for Inactive)
ROOT
ATOM      1  C1  BNZ d   1      -0.616  -0.393   1.411  0.00  0.00     0.000 A 
ATOM      2  C2  BNZ d   1      -1.613   0.161   2.169  0.00  0.00     0.000 A 
ATOM      3  C3  BNZ d   1      -2.111   1.399   1.876  0.00  0.00     0.000 A 
ATOM      4  C4  BNZ d   1      -1.584   2.099   0.850  0.00  0.00     0.000 A 
ATOM      5  C5  BNZ d   1      -0.572   1.559   0.082  0.00  0.00     0.000 A 
ATOM      6  C6  BNZ d   1      -0.101   0.296   0.356  0.00  0.00     0.000 A 
ENDROOT
TORSDOF 0
ENDMDL
