MODEL 1
REMARK minimizedAffinity -5.23160696
REMARK minimizedRMSD -1
REMARK  0 active torsions:
REMARK  status: ('A' for Active; 'I' for Inactive)
ROOT
ATOM      1  C1  BNZ d   1      -1.907   2.663   1.499  0.00  0.00     0.000 A 
ATOM      2  C2  BNZ d   1      -2.136   1.330   1.718  0.00  0.00     0.000 A 
ATOM      3  C3  BNZ d   1      -1.442   0.378   1.027  0.00  0.00     0.000 A 
ATOM      4  C4  BNZ d   1      -0.549   0.757   0.090  0.00  0.00     0.000 A 
ATOM      5  C5  BNZ d   1      -0.314   2.096  -0.149  0.00  0.00     0.000 A 
ATOM      6  C6  BNZ d   1      -0.987   3.053   0.576  0.00  0.00     0.000 A 
ENDROOT
TORSDOF 0
ENDMDL
