MODEL 1
REMARK minimizedAffinity -4.05605555
REMARK minimizedRMSD -1
REMARK  0 active torsions:
REMARK  status: ('A' for Active; 'I' for Inactive)
ROOT
ATOM      1  C1  BNZ d   1      -1.014   1.859   0.887  0.00  0.00     0.000 A 
ATOM      2  C2  BNZ d   1      -0.225   1.582  -0.198  0.00  0.00     0.000 A 
ATOM      3  C3  BNZ d   1       0.356   0.354  -0.345  0.00  0.00     0.000 A 
ATOM      4  C4  BNZ d   1       0.182  -0.581   0.611  0.00  0.00     0.000 A 
ATOM      5  C5  BNZ d   1      -0.603  -0.314   1.716  0.00  0.00     0.000 A 
ATOM      6  C6  BNZ d   1      -1.218   0.910   1.841  0.00  0.00     0.000 A 
ENDROOT
TORSDOF 0
ENDMDL
