MODEL 1
REMARK minimizedAffinity -1.89353299
REMARK minimizedRMSD -1
REMARK  0 active torsions:
REMARK  status: ('A' for Active; 'I' for Inactive)
ROOT
ATOM      1  C1  BNZ d   1      -0.103  -0.435   2.304  0.00  0.00     0.000 A 
ATOM      2  C2  BNZ d   1       0.830  -0.517   1.304  0.00  0.00     0.000 A 
ATOM      3  C3  BNZ d   1       0.447  -0.651  -0.001  0.00  0.00     0.000 A 
ATOM      4  C4  BNZ d   1      -0.865  -0.742  -0.301  0.00  0.00     0.000 A 
ATOM      5  C5  BNZ d   1      -1.817  -0.670   0.696  0.00  0.00     0.000 A 
ATOM      6  C6  BNZ d   1      -1.429  -0.496   2.005  0.00  0.00     0.000 A 
ENDROOT
TORSDOF 0
ENDMDL
