MODEL 1
REMARK minimizedAffinity -2.71673512
REMARK minimizedRMSD -1
REMARK  0 active torsions:
REMARK  status: ('A' for Active; 'I' for Inactive)
ROOT
ATOM      1  C1  BNZ d   1      -0.025   0.327   2.392  0.00  0.00     0.000 A 
ATOM      2  C2  BNZ d   1       1.166  -0.222   1.998  0.00  0.00     0.000 A 
ATOM      3  C3  BNZ d   1       1.436  -0.431   0.675  0.00  0.00     0.000 A 
ATOM      4  C4  BNZ d   1       0.501  -0.129  -0.249  0.00  0.00     0.000 A 
ATOM      5  C5  BNZ d   1      -0.709   0.416   0.134  0.00  0.00     0.000 A 
ATOM      6  C6  BNZ d   1      -0.962   0.661   1.464  0.00  0.00     0.000 A 
ENDROOT
TORSDOF 0
ENDMDL
