MODEL 1
REMARK minimizedAffinity -5.03587246
REMARK minimizedRMSD -1
REMARK  0 active torsions:
REMARK  status: ('A' for Active; 'I' for Inactive)
ROOT
ATOM      1  C1  BNZ d   1      -2.121   2.792   1.592  0.00  0.00     0.000 A 
ATOM      2  C2  BNZ d   1      -2.245   1.467   1.914  0.00  0.00     0.000 A 
ATOM      3  C3  BNZ d   1      -1.498   0.518   1.273  0.00  0.00     0.000 A 
ATOM      4  C4  BNZ d   1      -0.659   0.891   0.286  0.00  0.00     0.000 A 
ATOM      5  C5  BNZ d   1      -0.529   2.222  -0.057  0.00  0.00     0.000 A 
ATOM      6  C6  BNZ d   1      -1.254   3.178   0.616  0.00  0.00     0.000 A 
ENDROOT
TORSDOF 0
ENDMDL
