MODEL 1
REMARK minimizedAffinity -5.12650776
REMARK minimizedRMSD -1
REMARK  0 active torsions:
REMARK  status: ('A' for Active; 'I' for Inactive)
ROOT
ATOM      1  C1  BNZ d   1      -0.606   0.942  -0.055  0.00  0.00     0.000 A 
ATOM      2  C2  BNZ d   1      -0.418   2.253  -0.402  0.00  0.00     0.000 A 
ATOM      3  C3  BNZ d   1      -1.007   3.258   0.313  0.00  0.00     0.000 A 
ATOM      4  C4  BNZ d   1      -1.814   2.950   1.349  0.00  0.00     0.000 A 
ATOM      5  C5  BNZ d   1      -2.021   1.632   1.705  0.00  0.00     0.000 A 
ATOM      6  C6  BNZ d   1      -1.396   0.625   1.007  0.00  0.00     0.000 A 
ENDROOT
TORSDOF 0
ENDMDL
