MODEL 1
REMARK minimizedAffinity -3.039361
REMARK minimizedRMSD -1
REMARK  0 active torsions:
REMARK  status: ('A' for Active; 'I' for Inactive)
ROOT
ATOM      1  C1  BNZ d   1      -1.169   1.545   2.184  0.00  0.00     0.000 A 
ATOM      2  C2  BNZ d   1      -0.330   0.589   1.676  0.00  0.00     0.000 A 
ATOM      3  C3  BNZ d   1      -0.464   0.155   0.386  0.00  0.00     0.000 A 
ATOM      4  C4  BNZ d   1      -1.459   0.647  -0.379  0.00  0.00     0.000 A 
ATOM      5  C5  BNZ d   1      -2.318   1.605   0.122  0.00  0.00     0.000 A 
ATOM      6  C6  BNZ d   1      -2.157   2.068   1.407  0.00  0.00     0.000 A 
ENDROOT
TORSDOF 0
ENDMDL
