MODEL 1
REMARK minimizedAffinity -2.53836274
REMARK minimizedRMSD -1
REMARK  1 active torsions:
REMARK  status: ('A' for Active; 'I' for Inactive)
REMARK    1  A    between atoms: N_2  and  C1_3 
ROOT
ATOM      1  C1  UNL d   1      -4.443   5.982   2.924  0.00  0.00     0.143 A 
ATOM      2  C2  UNL d   1      -5.748   5.999   3.426  0.00  0.00    -0.057 A 
ATOM      3  C3  UNL d   1      -6.000   5.884   4.799  0.00  0.00     0.033 A 
ATOM      4  C4  UNL d   1      -4.948   5.721   5.694  0.00  0.00    -0.042 A 
ATOM      5  C5  UNL d   1      -3.643   5.677   5.215  0.00  0.00     0.033 A 
ATOM      6  C6  UNL d   1      -3.398   5.798   3.844  0.00  0.00    -0.057 A 
ENDROOT
BRANCH   1   7
ATOM      7  N   UNL d   1      -4.133   5.993   1.562  0.00  0.00    -0.732 N 
ATOM      8  C   UNL d   1      -5.184   6.000   0.567  0.00  0.00     0.284 C 
ATOM      9  H3  UNL d   1      -3.352   6.609   1.346  0.00  0.00     0.395 HD
ENDBRANCH   1   7
TORSDOF 1
ENDMDL
