MODEL 1
REMARK minimizedAffinity -1.55370843
REMARK minimizedRMSD -1
REMARK  1 active torsions:
REMARK  status: ('A' for Active; 'I' for Inactive)
REMARK    1  A    between atoms: N_2  and  C1_3 
ROOT
ATOM      1  C1  UNL d   1      -4.553   5.291   2.945  0.00  0.00     0.143 A 
ATOM      2  C2  UNL d   1      -5.640   4.538   3.402  0.00  0.00    -0.057 A 
ATOM      3  C3  UNL d   1      -6.000   4.530   4.755  0.00  0.00     0.033 A 
ATOM      4  C4  UNL d   1      -5.258   5.255   5.683  0.00  0.00    -0.042 A 
ATOM      5  C5  UNL d   1      -4.159   5.991   5.255  0.00  0.00     0.033 A 
ATOM      6  C6  UNL d   1      -3.809   6.000   3.901  0.00  0.00    -0.057 A 
ENDROOT
BRANCH   1   7
ATOM      7  N   UNL d   1      -4.085   5.263   1.629  0.00  0.00    -0.732 N 
ATOM      8  C   UNL d   1      -4.786   5.975   0.582  0.00  0.00     0.284 C 
ATOM      9  H3  UNL d   1      -3.072   5.336   1.575  0.00  0.00     0.395 HD
ENDBRANCH   1   7
TORSDOF 1
ENDMDL
