MODEL 1
REMARK minimizedAffinity -2.11612964
REMARK minimizedRMSD -1
REMARK  1 active torsions:
REMARK  status: ('A' for Active; 'I' for Inactive)
REMARK    1  A    between atoms: N_2  and  C1_3 
ROOT
ATOM      1  C1  UNL d   1      -4.902   5.346   3.630  0.00  0.00     0.143 A 
ATOM      2  C2  UNL d   1      -4.961   4.714   2.384  0.00  0.00    -0.057 A 
ATOM      3  C3  UNL d   1      -3.854   4.693   1.527  0.00  0.00     0.033 A 
ATOM      4  C4  UNL d   1      -2.673   5.332   1.892  0.00  0.00    -0.042 A 
ATOM      5  C5  UNL d   1      -2.600   5.988   3.115  0.00  0.00     0.033 A 
ATOM      6  C6  UNL d   1      -3.707   5.999   3.969  0.00  0.00    -0.057 A 
ENDROOT
BRANCH   1   7
ATOM      7  N   UNL d   1      -6.000   5.486   4.484  0.00  0.00    -0.732 N 
ATOM      8  C   UNL d   1      -5.828   5.998   5.826  0.00  0.00     0.284 C 
ATOM      9  H3  UNL d   1      -6.822   5.844   4.004  0.00  0.00     0.395 HD
ENDBRANCH   1   7
TORSDOF 1
ENDMDL
