MODEL 1
REMARK minimizedAffinity -3.51481199
REMARK minimizedRMSD -1
REMARK  1 active torsions:
REMARK  status: ('A' for Active; 'I' for Inactive)
REMARK    1  A    between atoms: N_2  and  C1_3 
ROOT
ATOM      1  C1  UNL d   1      -4.873   5.920   3.689  0.00  0.00     0.143 A 
ATOM      2  C2  UNL d   1      -4.943   5.948   2.292  0.00  0.00    -0.057 A 
ATOM      3  C3  UNL d   1      -3.784   5.972   1.508  0.00  0.00     0.033 A 
ATOM      4  C4  UNL d   1      -2.530   5.998   2.110  0.00  0.00    -0.042 A 
ATOM      5  C5  UNL d   1      -2.437   5.995   3.497  0.00  0.00     0.033 A 
ATOM      6  C6  UNL d   1      -3.598   5.964   4.275  0.00  0.00    -0.057 A 
ENDROOT
BRANCH   1   7
ATOM      7  N   UNL d   1      -5.990   5.994   4.526  0.00  0.00    -0.732 N 
ATOM      8  C   UNL d   1      -5.834   6.000   5.964  0.00  0.00     0.284 C 
ATOM      9  H3  UNL d   1      -6.690   6.647   4.181  0.00  0.00     0.395 HD
ENDBRANCH   1   7
TORSDOF 1
ENDMDL
