MODEL 1
REMARK minimizedAffinity -3.12882233
REMARK minimizedRMSD -1
REMARK  1 active torsions:
REMARK  status: ('A' for Active; 'I' for Inactive)
REMARK    1  A    between atoms: N_2  and  C1_3 
ROOT
ATOM      1  C1  UNL d   1      -4.150   5.862   2.748  0.00  0.00     0.143 A 
ATOM      2  C2  UNL d   1      -3.267   6.000   3.824  0.00  0.00    -0.057 A 
ATOM      3  C3  UNL d   1      -3.725   5.973   5.147  0.00  0.00     0.033 A 
ATOM      4  C4  UNL d   1      -5.082   5.837   5.417  0.00  0.00    -0.042 A 
ATOM      5  C5  UNL d   1      -5.981   5.724   4.363  0.00  0.00     0.033 A 
ATOM      6  C6  UNL d   1      -5.518   5.744   3.044  0.00  0.00    -0.057 A 
ENDROOT
BRANCH   1   7
ATOM      7  N   UNL d   1      -3.770   5.980   1.409  0.00  0.00    -0.732 N 
ATOM      8  C   UNL d   1      -4.763   5.977   0.357  0.00  0.00     0.284 C 
ATOM      9  H3  UNL d   1      -3.024   6.660   1.275  0.00  0.00     0.395 HD
ENDBRANCH   1   7
TORSDOF 1
ENDMDL
