MODEL 1
REMARK minimizedAffinity 5.62888432
REMARK minimizedRMSD -1
REMARK  1 active torsions:
REMARK  status: ('A' for Active; 'I' for Inactive)
REMARK    1  A    between atoms: N_2  and  C1_3 
ROOT
ATOM      1  C1  UNL d   1       3.183   0.517  -0.378  0.00  0.00     0.143 A 
ATOM      2  C2  UNL d   1       4.373   1.232  -0.549  0.00  0.00    -0.057 A 
ATOM      3  C3  UNL d   1       4.530   2.519  -0.021  0.00  0.00     0.033 A 
ATOM      4  C4  UNL d   1       3.484   3.128   0.664  0.00  0.00    -0.042 A 
ATOM      5  C5  UNL d   1       2.283   2.446   0.825  0.00  0.00     0.033 A 
ATOM      6  C6  UNL d   1       2.135   1.158   0.301  0.00  0.00    -0.057 A 
ENDROOT
BRANCH   1   7
ATOM      7  N   UNL d   1       2.931  -0.726  -0.963  0.00  0.00    -0.732 N 
ATOM      8  C   UNL d   1       2.270  -1.773  -0.214  0.00  0.00     0.284 C 
ATOM      9  H3  UNL d   1       2.619  -0.645  -1.928  0.00  0.00     0.395 HD
ENDBRANCH   1   7
TORSDOF 1
ENDMDL
