MODEL 1
REMARK minimizedAffinity 0.957389176
REMARK minimizedRMSD -1
REMARK  1 active torsions:
REMARK  status: ('A' for Active; 'I' for Inactive)
REMARK    1  A    between atoms: C3_4  and  O_7 
ROOT
ATOM      1  C   UNL d   1      -4.884   2.533   0.853  0.00  0.00    -0.033 A 
ATOM      2  C1  UNL d   1      -5.998   2.858   1.629  0.00  0.00     0.039 A 
ATOM      3  C2  UNL d   1      -5.995   4.016   2.408  0.00  0.00    -0.080 A 
ATOM      4  C3  UNL d   1      -4.873   4.841   2.402  0.00  0.00     0.150 A 
ATOM      5  C4  UNL d   1      -3.761   4.526   1.628  0.00  0.00    -0.007 A 
ATOM      6  C5  UNL d   1      -3.766   3.368   0.851  0.00  0.00     0.039 A 
ENDROOT
BRANCH   4   7
ATOM      7  O   UNL d   1      -4.822   5.979   3.150  0.00  0.00    -0.526 OA
ATOM      8  H5  UNL d   1      -5.649   6.054   3.655  0.00  0.00     0.418 HD
ENDBRANCH   4   7
TORSDOF 1
ENDMDL
