MODEL 1
REMARK minimizedAffinity 0.899537444
REMARK minimizedRMSD -1
REMARK  1 active torsions:
REMARK  status: ('A' for Active; 'I' for Inactive)
REMARK    1  A    between atoms: C3_4  and  O_7 
ROOT
ATOM      1  C   UNL d   1       2.093  -1.605  -1.547  0.00  0.00    -0.033 A 
ATOM      2  C1  UNL d   1       2.374  -0.828  -2.672  0.00  0.00     0.039 A 
ATOM      3  C2  UNL d   1       2.870   0.468  -2.521  0.00  0.00    -0.080 A 
ATOM      4  C3  UNL d   1       3.082   0.974  -1.242  0.00  0.00     0.150 A 
ATOM      5  C4  UNL d   1       2.808   0.204  -0.116  0.00  0.00    -0.007 A 
ATOM      6  C5  UNL d   1       2.311  -1.090  -0.269  0.00  0.00     0.039 A 
ENDROOT
BRANCH   4   7
ATOM      7  O   UNL d   1       3.561   2.235  -1.044  0.00  0.00    -0.526 OA
ATOM      8  H5  UNL d   1       3.677   2.660  -1.911  0.00  0.00     0.418 HD
ENDBRANCH   4   7
TORSDOF 1
ENDMDL
