MODEL 1
REMARK minimizedAffinity 2.30910516
REMARK minimizedRMSD -1
REMARK  1 active torsions:
REMARK  status: ('A' for Active; 'I' for Inactive)
REMARK    1  A    between atoms: C3_4  and  O_7 
ROOT
ATOM      1  C   UNL d   1      -5.249   0.376  -0.882  0.00  0.00    -0.033 A 
ATOM      2  C1  UNL d   1      -4.490   1.497  -1.225  0.00  0.00     0.039 A 
ATOM      3  C2  UNL d   1      -4.482   2.618  -0.393  0.00  0.00    -0.080 A 
ATOM      4  C3  UNL d   1      -5.235   2.605   0.778  0.00  0.00     0.150 A 
ATOM      5  C4  UNL d   1      -5.991   1.491   1.127  0.00  0.00    -0.007 A 
ATOM      6  C5  UNL d   1      -5.998   0.373   0.295  0.00  0.00     0.039 A 
ENDROOT
BRANCH   4   7
ATOM      7  O   UNL d   1      -5.263   3.678   1.619  0.00  0.00    -0.526 OA
ATOM      8  H5  UNL d   1      -4.717   4.384   1.235  0.00  0.00     0.418 HD
ENDBRANCH   4   7
TORSDOF 1
ENDMDL
