MODEL 1
REMARK minimizedAffinity -3.88458419
REMARK minimizedRMSD -1
REMARK  1 active torsions:
REMARK  status: ('A' for Active; 'I' for Inactive)
REMARK    1  A    between atoms: C3_4  and  O_7 
ROOT
ATOM      1  C   UNL d   1      -5.779   2.475  -4.126  0.00  0.00    -0.033 A 
ATOM      2  C1  UNL d   1      -5.591   1.264  -4.796  0.00  0.00     0.039 A 
ATOM      3  C2  UNL d   1      -4.387   0.570  -4.663  0.00  0.00    -0.080 A 
ATOM      4  C3  UNL d   1      -3.380   1.096  -3.857  0.00  0.00     0.150 A 
ATOM      5  C4  UNL d   1      -3.562   2.299  -3.184  0.00  0.00    -0.007 A 
ATOM      6  C5  UNL d   1      -4.765   2.991  -3.318  0.00  0.00     0.039 A 
ENDROOT
BRANCH   4   7
ATOM      7  O   UNL d   1      -2.187   0.456  -3.700  0.00  0.00    -0.526 OA
ATOM      8  H5  UNL d   1      -2.193  -0.347  -4.247  0.00  0.00     0.418 HD
ENDBRANCH   4   7
TORSDOF 1
ENDMDL
