MODEL 1
REMARK minimizedAffinity -0.19928731
REMARK minimizedRMSD -1
REMARK  1 active torsions:
REMARK  status: ('A' for Active; 'I' for Inactive)
REMARK    1  A    between atoms: C3_4  and  O_7 
ROOT
ATOM      1  C   UNL d   1      -3.658   1.452  -4.112  0.00  0.00    -0.033 A 
ATOM      2  C1  UNL d   1      -4.690   1.992  -3.341  0.00  0.00     0.039 A 
ATOM      3  C2  UNL d   1      -5.005   1.431  -2.102  0.00  0.00    -0.080 A 
ATOM      4  C3  UNL d   1      -4.282   0.333  -1.645  0.00  0.00     0.150 A 
ATOM      5  C4  UNL d   1      -3.250  -0.207  -2.406  0.00  0.00    -0.007 A 
ATOM      6  C5  UNL d   1      -2.937   0.354  -3.643  0.00  0.00     0.039 A 
ENDROOT
BRANCH   4   7
ATOM      7  O   UNL d   1      -4.556  -0.252  -0.445  0.00  0.00    -0.526 OA
ATOM      8  H5  UNL d   1      -5.311   0.209  -0.043  0.00  0.00     0.418 HD
ENDBRANCH   4   7
TORSDOF 1
ENDMDL
