MODEL 1
REMARK minimizedAffinity -1.83991766
REMARK minimizedRMSD -1
REMARK  1 active torsions:
REMARK  status: ('A' for Active; 'I' for Inactive)
REMARK    1  A    between atoms: C3_4  and  O_7 
ROOT
ATOM      1  C   UNL d   1       3.978   1.773  -0.171  0.00  0.00    -0.033 A 
ATOM      2  C1  UNL d   1       4.645   2.307   0.933  0.00  0.00     0.039 A 
ATOM      3  C2  UNL d   1       3.967   2.493   2.139  0.00  0.00    -0.080 A 
ATOM      4  C3  UNL d   1       2.623   2.140   2.228  0.00  0.00     0.150 A 
ATOM      5  C4  UNL d   1       1.953   1.604   1.133  0.00  0.00    -0.007 A 
ATOM      6  C5  UNL d   1       2.632   1.420  -0.070  0.00  0.00     0.039 A 
ENDROOT
BRANCH   4   7
ATOM      7  O   UNL d   1       1.918   2.308   3.382  0.00  0.00    -0.526 OA
ATOM      8  H5  UNL d   1       2.502   2.714   4.044  0.00  0.00     0.418 HD
ENDBRANCH   4   7
TORSDOF 1
ENDMDL
