MODEL 1
REMARK minimizedAffinity 6.94277716
REMARK minimizedRMSD -1
REMARK  1 active torsions:
REMARK  status: ('A' for Active; 'I' for Inactive)
REMARK    1  A    between atoms: C3_4  and  O_7 
ROOT
ATOM      1  C   UNL d   1      -3.512  -5.308  -4.622  0.00  0.00    -0.033 A 
ATOM      2  C1  UNL d   1      -4.309  -5.760  -3.569  0.00  0.00     0.039 A 
ATOM      3  C2  UNL d   1      -3.743  -5.997  -2.315  0.00  0.00    -0.080 A 
ATOM      4  C3  UNL d   1      -2.381  -5.777  -2.127  0.00  0.00     0.150 A 
ATOM      5  C4  UNL d   1      -1.582  -5.323  -3.171  0.00  0.00    -0.007 A 
ATOM      6  C5  UNL d   1      -2.149  -5.088  -4.423  0.00  0.00     0.039 A 
ENDROOT
BRANCH   4   7
ATOM      7  O   UNL d   1      -1.783  -5.999  -0.922  0.00  0.00    -0.526 OA
ATOM      8  H5  UNL d   1      -2.452  -6.338  -0.304  0.00  0.00     0.418 HD
ENDBRANCH   4   7
TORSDOF 1
ENDMDL
