MODEL 1
REMARK minimizedAffinity -2.35445595
REMARK minimizedRMSD -1
REMARK  1 active torsions:
REMARK  status: ('A' for Active; 'I' for Inactive)
REMARK    1  A    between atoms: C3_4  and  O_7 
ROOT
ATOM      1  C   UNL d   1       3.602   0.110  -2.252  0.00  0.00    -0.033 A 
ATOM      2  C1  UNL d   1       2.925  -1.103  -2.107  0.00  0.00     0.039 A 
ATOM      3  C2  UNL d   1       2.672  -1.616  -0.833  0.00  0.00    -0.080 A 
ATOM      4  C3  UNL d   1       3.099  -0.906   0.286  0.00  0.00     0.150 A 
ATOM      5  C4  UNL d   1       3.770   0.305   0.149  0.00  0.00    -0.007 A 
ATOM      6  C5  UNL d   1       4.023   0.815  -1.123  0.00  0.00     0.039 A 
ENDROOT
BRANCH   4   7
ATOM      7  O   UNL d   1       2.879  -1.368   1.550  0.00  0.00    -0.526 OA
ATOM      8  H5  UNL d   1       2.431  -2.229   1.489  0.00  0.00     0.418 HD
ENDBRANCH   4   7
TORSDOF 1
ENDMDL
