MODEL 1
REMARK minimizedAffinity -6.56113577
REMARK minimizedRMSD -1
REMARK  3 active torsions:
REMARK  status: ('A' for Active; 'I' for Inactive)
REMARK    1  A    between atoms: C3'_2  and  C2'_3 
REMARK    2  A    between atoms: C2'_3  and  C1'_4 
REMARK    3  A    between atoms: C1'_4  and  C1_5 
ROOT
ATOM      1  C1  N4B d   1      -0.051  -0.607  -0.038  0.00  0.00    -0.075 A 
ATOM      2  C2  N4B d   1      -1.008  -1.237   0.788  0.00  0.00     0.002 A 
ATOM      3  C3  N4B d   1      -2.329  -1.262   0.413  0.00  0.00     0.002 A 
ATOM      4  C4  N4B d   1      -2.718  -0.649  -0.769  0.00  0.00    -0.004 A 
ATOM      5  C5  N4B d   1      -1.784  -0.065  -1.573  0.00  0.00     0.002 A 
ATOM      6  C6  N4B d   1      -0.452  -0.036  -1.211  0.00  0.00     0.002 A 
ENDROOT
BRANCH   1   7
ATOM      7  C1' N4B d   1       1.390  -0.479   0.372  0.00  0.00     0.057 C 
BRANCH   7   8
ATOM      8  C2' N4B d   1       1.950   0.833  -0.168  0.00  0.00     0.009 C 
BRANCH   8   9
ATOM      9  C3' N4B d   1       2.226   1.833   0.942  0.00  0.00     0.004 C 
ATOM     10  C4' N4B d   1       2.301   3.246   0.445  0.00  0.00     0.003 C 
ENDBRANCH   8   9
ENDBRANCH   7   8
ENDBRANCH   1   7
TORSDOF 3
ENDMDL
