MODEL 1
REMARK minimizedAffinity -4.4237957
REMARK minimizedRMSD -1
REMARK  3 active torsions:
REMARK  status: ('A' for Active; 'I' for Inactive)
REMARK    1  A    between atoms: C3'_2  and  C2'_3 
REMARK    2  A    between atoms: C2'_3  and  C1'_4 
REMARK    3  A    between atoms: C1'_4  and  C1_5 
ROOT
ATOM      1  C1  N4B d   1       0.258  -0.034  -0.283  0.00  0.00    -0.075 A 
ATOM      2  C2  N4B d   1      -0.062   0.175  -1.643  0.00  0.00     0.002 A 
ATOM      3  C3  N4B d   1      -1.359   0.038  -2.072  0.00  0.00     0.002 A 
ATOM      4  C4  N4B d   1      -2.346  -0.326  -1.168  0.00  0.00    -0.004 A 
ATOM      5  C5  N4B d   1      -2.033  -0.501   0.148  0.00  0.00     0.002 A 
ATOM      6  C6  N4B d   1      -0.735  -0.363   0.595  0.00  0.00     0.002 A 
ENDROOT
BRANCH   1   7
ATOM      7  C1' N4B d   1       1.675   0.021   0.217  0.00  0.00     0.057 C 
BRANCH   7   8
ATOM      8  C2' N4B d   1       1.898   1.342   0.946  0.00  0.00     0.009 C 
BRANCH   8   9
ATOM      9  C3' N4B d   1       3.014   2.158   0.315  0.00  0.00     0.004 C 
ATOM     10  C4' N4B d   1       2.781   3.636   0.417  0.00  0.00     0.003 C 
ENDBRANCH   8   9
ENDBRANCH   7   8
ENDBRANCH   1   7
TORSDOF 3
ENDMDL
