MODEL 1
REMARK minimizedAffinity -6.0491786
REMARK minimizedRMSD -1
REMARK  3 active torsions:
REMARK  status: ('A' for Active; 'I' for Inactive)
REMARK    1  A    between atoms: C3'_2  and  C2'_3 
REMARK    2  A    between atoms: C2'_3  and  C1'_4 
REMARK    3  A    between atoms: C1'_4  and  C1_5 
ROOT
ATOM      1  C1  N4B d   1      -0.052   0.036  -0.103  0.00  0.00    -0.075 A 
ATOM      2  C2  N4B d   1      -0.369   0.370  -1.437  0.00  0.00     0.002 A 
ATOM      3  C3  N4B d   1      -1.652   0.207  -1.900  0.00  0.00     0.002 A 
ATOM      4  C4  N4B d   1      -2.626  -0.304  -1.055  0.00  0.00    -0.004 A 
ATOM      5  C5  N4B d   1      -2.317  -0.601   0.241  0.00  0.00     0.002 A 
ATOM      6  C6  N4B d   1      -1.033  -0.438   0.720  0.00  0.00     0.002 A 
ENDROOT
BRANCH   1   7
ATOM      7  C1' N4B d   1       1.355   0.116   0.423  0.00  0.00     0.057 C 
BRANCH   7   8
ATOM      8  C2' N4B d   1       1.823   1.567   0.383  0.00  0.00     0.009 C 
BRANCH   8   9
ATOM      9  C3' N4B d   1       2.551   1.965   1.656  0.00  0.00     0.004 C 
ATOM     10  C4' N4B d   1       3.269   3.276   1.529  0.00  0.00     0.003 C 
ENDBRANCH   8   9
ENDBRANCH   7   8
ENDBRANCH   1   7
TORSDOF 3
ENDMDL
