MODEL 1
REMARK minimizedAffinity -2.22113252
REMARK minimizedRMSD -1
REMARK  3 active torsions:
REMARK  status: ('A' for Active; 'I' for Inactive)
REMARK    1  A    between atoms: C3'_2  and  C2'_3 
REMARK    2  A    between atoms: C2'_3  and  C1'_4 
REMARK    3  A    between atoms: C1'_4  and  C1_5 
ROOT
ATOM      1  C1  N4B d   1       0.477   0.191   0.583  0.00  0.00    -0.075 A 
ATOM      2  C2  N4B d   1       0.993  -1.037   1.050  0.00  0.00     0.002 A 
ATOM      3  C3  N4B d   1       0.141  -2.003   1.527  0.00  0.00     0.002 A 
ATOM      4  C4  N4B d   1      -1.223  -1.756   1.564  0.00  0.00    -0.004 A 
ATOM      5  C5  N4B d   1      -1.716  -0.576   1.087  0.00  0.00     0.002 A 
ATOM      6  C6  N4B d   1      -0.871   0.401   0.601  0.00  0.00     0.002 A 
ENDROOT
BRANCH   1   7
ATOM      7  C1' N4B d   1       1.377   1.310   0.132  0.00  0.00     0.057 C 
BRANCH   7   8
ATOM      8  C2' N4B d   1       1.854   2.092   1.352  0.00  0.00     0.009 C 
BRANCH   8   9
ATOM      9  C3' N4B d   1       2.448   3.436   0.969  0.00  0.00     0.004 C 
ATOM     10  C4' N4B d   1       3.477   3.328  -0.117  0.00  0.00     0.003 C 
ENDBRANCH   8   9
ENDBRANCH   7   8
ENDBRANCH   1   7
TORSDOF 3
ENDMDL
