MODEL 1
REMARK minimizedAffinity -3.26629519
REMARK minimizedRMSD -1
REMARK  3 active torsions:
REMARK  status: ('A' for Active; 'I' for Inactive)
REMARK    1  A    between atoms: C3'_2  and  C2'_3 
REMARK    2  A    between atoms: C2'_3  and  C1'_4 
REMARK    3  A    between atoms: C1'_4  and  C1_5 
ROOT
ATOM      1  C1  N4B d   1       1.216   1.652  -0.100  0.00  0.00    -0.075 A 
ATOM      2  C2  N4B d   1       1.349   3.023   0.211  0.00  0.00     0.002 A 
ATOM      3  C3  N4B d   1       2.420   3.458   0.952  0.00  0.00     0.002 A 
ATOM      4  C4  N4B d   1       3.357   2.542   1.406  0.00  0.00    -0.004 A 
ATOM      5  C5  N4B d   1       3.235   1.223   1.080  0.00  0.00     0.002 A 
ATOM      6  C6  N4B d   1       2.165   0.772   0.333  0.00  0.00     0.002 A 
ENDROOT
BRANCH   1   7
ATOM      7  C1' N4B d   1       0.016   1.117  -0.834  0.00  0.00     0.057 C 
BRANCH   7   8
ATOM      8  C2' N4B d   1       0.002  -0.405  -0.727  0.00  0.00     0.009 C 
BRANCH   8   9
ATOM      9  C3' N4B d   1      -1.296  -0.921  -0.129  0.00  0.00     0.004 C 
ATOM     10  C4' N4B d   1      -2.348  -1.183  -1.164  0.00  0.00     0.003 C 
ENDBRANCH   8   9
ENDBRANCH   7   8
ENDBRANCH   1   7
TORSDOF 3
ENDMDL
