MODEL 1
REMARK minimizedAffinity -3.2001493
REMARK minimizedRMSD -1
REMARK  3 active torsions:
REMARK  status: ('A' for Active; 'I' for Inactive)
REMARK    1  A    between atoms: C3'_2  and  C2'_3 
REMARK    2  A    between atoms: C2'_3  and  C1'_4 
REMARK    3  A    between atoms: C1'_4  and  C1_5 
ROOT
ATOM      1  C1  N4B d   1      -0.281   0.167  -0.563  0.00  0.00    -0.075 A 
ATOM      2  C2  N4B d   1      -1.269   0.161  -1.572  0.00  0.00     0.002 A 
ATOM      3  C3  N4B d   1      -2.536  -0.287  -1.290  0.00  0.00     0.002 A 
ATOM      4  C4  N4B d   1      -2.833  -0.748  -0.016  0.00  0.00    -0.004 A 
ATOM      5  C5  N4B d   1      -1.880  -0.716   0.960  0.00  0.00     0.002 A 
ATOM      6  C6  N4B d   1      -0.603  -0.265   0.691  0.00  0.00     0.002 A 
ENDROOT
BRANCH   1   7
ATOM      7  C1' N4B d   1       1.141   0.566  -0.846  0.00  0.00     0.057 C 
BRANCH   7   8
ATOM      8  C2' N4B d   1       1.723   1.253   0.386  0.00  0.00     0.009 C 
BRANCH   8   9
ATOM      9  C3' N4B d   1       2.856   2.200   0.026  0.00  0.00     0.004 C 
ATOM     10  C4' N4B d   1       2.731   3.535   0.697  0.00  0.00     0.003 C 
ENDBRANCH   8   9
ENDBRANCH   7   8
ENDBRANCH   1   7
TORSDOF 3
ENDMDL
