MODEL 1
REMARK minimizedAffinity -6.05300093
REMARK minimizedRMSD -1
REMARK  3 active torsions:
REMARK  status: ('A' for Active; 'I' for Inactive)
REMARK    1  A    between atoms: C3'_2  and  C2'_3 
REMARK    2  A    between atoms: C2'_3  and  C1'_4 
REMARK    3  A    between atoms: C1'_4  and  C1_5 
ROOT
ATOM      1  C1  N4B d   1      -0.006  -0.282   0.254  0.00  0.00    -0.075 A 
ATOM      2  C2  N4B d   1      -0.321   0.112  -1.065  0.00  0.00     0.002 A 
ATOM      3  C3  N4B d   1      -1.611   0.005  -1.523  0.00  0.00     0.002 A 
ATOM      4  C4  N4B d   1      -2.595  -0.509  -0.691  0.00  0.00    -0.004 A 
ATOM      5  C5  N4B d   1      -2.287  -0.863   0.590  0.00  0.00     0.002 A 
ATOM      6  C6  N4B d   1      -0.996  -0.757   1.065  0.00  0.00     0.002 A 
ENDROOT
BRANCH   1   7
ATOM      7  C1' N4B d   1       1.406  -0.263   0.772  0.00  0.00     0.057 C 
BRANCH   7   8
ATOM      8  C2' N4B d   1       2.024   1.104   0.494  0.00  0.00     0.009 C 
BRANCH   8   9
ATOM      9  C3' N4B d   1       2.200   1.917   1.764  0.00  0.00     0.004 C 
ATOM     10  C4' N4B d   1       2.572   3.345   1.493  0.00  0.00     0.003 C 
ENDBRANCH   8   9
ENDBRANCH   7   8
ENDBRANCH   1   7
TORSDOF 3
ENDMDL
