MODEL 1
REMARK minimizedAffinity -4.82199717
REMARK minimizedRMSD -1
REMARK  3 active torsions:
REMARK  status: ('A' for Active; 'I' for Inactive)
REMARK    1  A    between atoms: C3'_2  and  C2'_3 
REMARK    2  A    between atoms: C2'_3  and  C1'_4 
REMARK    3  A    between atoms: C1'_4  and  C1_5 
ROOT
ATOM      1  C1  N4B d   1       0.698   0.064   0.226  0.00  0.00    -0.075 A 
ATOM      2  C2  N4B d   1       0.437   0.540  -1.078  0.00  0.00     0.002 A 
ATOM      3  C3  N4B d   1      -0.828   0.444  -1.603  0.00  0.00     0.002 A 
ATOM      4  C4  N4B d   1      -1.840  -0.139  -0.855  0.00  0.00    -0.004 A 
ATOM      5  C5  N4B d   1      -1.585  -0.573   0.413  0.00  0.00     0.002 A 
ATOM      6  C6  N4B d   1      -0.320  -0.479   0.956  0.00  0.00     0.002 A 
ENDROOT
BRANCH   1   7
ATOM      7  C1' N4B d   1       2.084   0.069   0.811  0.00  0.00     0.057 C 
BRANCH   7   8
ATOM      8  C2' N4B d   1       2.295   1.365   1.588  0.00  0.00     0.009 C 
BRANCH   8   9
ATOM      9  C3' N4B d   1       3.248   2.307   0.873  0.00  0.00     0.004 C 
ATOM     10  C4' N4B d   1       2.748   3.720   0.835  0.00  0.00     0.003 C 
ENDBRANCH   8   9
ENDBRANCH   7   8
ENDBRANCH   1   7
TORSDOF 3
ENDMDL
