MODEL 1
REMARK minimizedAffinity -5.07850504
REMARK minimizedRMSD -1
REMARK  3 active torsions:
REMARK  status: ('A' for Active; 'I' for Inactive)
REMARK    1  A    between atoms: C3'_2  and  C2'_3 
REMARK    2  A    between atoms: C2'_3  and  C1'_4 
REMARK    3  A    between atoms: C1'_4  and  C1_5 
ROOT
ATOM      1  C1  N4B d   1       0.156   0.168  -0.132  0.00  0.00    -0.075 A 
ATOM      2  C2  N4B d   1      -0.623  -0.342   0.929  0.00  0.00     0.002 A 
ATOM      3  C3  N4B d   1      -1.935  -0.685   0.715  0.00  0.00     0.002 A 
ATOM      4  C4  N4B d   1      -2.493  -0.510  -0.543  0.00  0.00    -0.004 A 
ATOM      5  C5  N4B d   1      -1.727  -0.041  -1.569  0.00  0.00     0.002 A 
ATOM      6  C6  N4B d   1      -0.406   0.304  -1.369  0.00  0.00     0.002 A 
ENDROOT
BRANCH   1   7
ATOM      7  C1' N4B d   1       1.570   0.637   0.074  0.00  0.00     0.057 C 
BRANCH   7   8
ATOM      8  C2' N4B d   1       1.645   1.447   1.365  0.00  0.00     0.009 C 
BRANCH   8   9
ATOM      9  C3' N4B d   1       2.154   2.858   1.122  0.00  0.00     0.004 C 
ATOM     10  C4' N4B d   1       3.501   2.884   0.464  0.00  0.00     0.003 C 
ENDBRANCH   8   9
ENDBRANCH   7   8
ENDBRANCH   1   7
TORSDOF 3
ENDMDL
