MODEL 1
REMARK minimizedAffinity -2.76212168
REMARK minimizedRMSD -1
REMARK  3 active torsions:
REMARK  status: ('A' for Active; 'I' for Inactive)
REMARK    1  A    between atoms: C3'_2  and  C2'_3 
REMARK    2  A    between atoms: C2'_3  and  C1'_4 
REMARK    3  A    between atoms: C1'_4  and  C1_5 
ROOT
ATOM      1  C1  N4B d   1      -0.212   0.045  -0.304  0.00  0.00    -0.075 A 
ATOM      2  C2  N4B d   1      -0.912  -0.038  -1.528  0.00  0.00     0.002 A 
ATOM      3  C3  N4B d   1      -2.236  -0.400  -1.539  0.00  0.00     0.002 A 
ATOM      4  C4  N4B d   1      -2.875  -0.700  -0.345  0.00  0.00    -0.004 A 
ATOM      5  C5  N4B d   1      -2.199  -0.592   0.836  0.00  0.00     0.002 A 
ATOM      6  C6  N4B d   1      -0.869  -0.226   0.862  0.00  0.00     0.002 A 
ENDROOT
BRANCH   1   7
ATOM      7  C1' N4B d   1       1.259   0.353  -0.250  0.00  0.00     0.057 C 
BRANCH   7   8
ATOM      8  C2' N4B d   1       1.487   1.551   0.668  0.00  0.00     0.009 C 
BRANCH   8   9
ATOM      9  C3' N4B d   1       2.758   2.304   0.315  0.00  0.00     0.004 C 
ATOM     10  C4' N4B d   1       2.638   3.782   0.537  0.00  0.00     0.003 C 
ENDBRANCH   8   9
ENDBRANCH   7   8
ENDBRANCH   1   7
TORSDOF 3
ENDMDL
