MODEL 1
REMARK minimizedAffinity 7.23078775
REMARK minimizedRMSD -1
REMARK  1 active torsions:
REMARK  status: ('A' for Active; 'I' for Inactive)
REMARK    1  A    between atoms: C1_2  and  C2_3 
ROOT
ATOM      1  C2  UNL d   1      -0.077   3.010   0.339  0.00  0.00    -0.081 A 
ATOM      2  C3  UNL d   1       0.455   1.997   1.146  0.00  0.00     0.006 A 
ATOM      3  C4  UNL d   1      -0.335   1.376   2.116  0.00  0.00     0.002 A 
ATOM      4  C5  UNL d   1      -1.671   1.752   2.291  0.00  0.00    -0.080 A 
ATOM      5  C6  UNL d   1      -2.538   1.072   3.309  0.00  0.00     0.076 C 
ATOM      6  C7  UNL d   1      -2.198   2.776   1.497  0.00  0.00     0.002 A 
ATOM      7  C8  UNL d   1      -1.408   3.398   0.527  0.00  0.00     0.006 A 
ENDROOT
BRANCH   1   8
ATOM      8  C1  UNL d   1       0.753   3.637  -0.752  0.00  0.00     0.054 C 
ATOM      9  C   UNL d   1      -0.073   3.875  -2.008  0.00  0.00     0.018 C 
ENDBRANCH   1   8
TORSDOF 1
ENDMDL
