MODEL 1
REMARK minimizedAffinity -1.05341733
REMARK minimizedRMSD -1
REMARK  1 active torsions:
REMARK  status: ('A' for Active; 'I' for Inactive)
REMARK    1  A    between atoms: C1_2  and  C2_3 
ROOT
ATOM      1  C2  UNL d   1      -0.183   3.513  -0.667  0.00  0.00    -0.081 A 
ATOM      2  C3  UNL d   1       0.637   4.372   0.075  0.00  0.00     0.006 A 
ATOM      3  C4  UNL d   1       0.910   4.106   1.419  0.00  0.00     0.002 A 
ATOM      4  C5  UNL d   1       0.375   2.973   2.041  0.00  0.00    -0.080 A 
ATOM      5  C6  UNL d   1       0.685   2.659   3.475  0.00  0.00     0.076 C 
ATOM      6  C7  UNL d   1      -0.458   2.123   1.305  0.00  0.00     0.002 A 
ATOM      7  C8  UNL d   1      -0.732   2.389  -0.038  0.00  0.00     0.006 A 
ENDROOT
BRANCH   1   8
ATOM      8  C1  UNL d   1      -0.427   3.762  -2.133  0.00  0.00     0.054 C 
ATOM      9  C   UNL d   1      -1.373   2.725  -2.721  0.00  0.00     0.018 C 
ENDBRANCH   1   8
TORSDOF 1
ENDMDL
