MODEL 1
REMARK minimizedAffinity 8.13911057
REMARK minimizedRMSD -1
REMARK  1 active torsions:
REMARK  status: ('A' for Active; 'I' for Inactive)
REMARK    1  A    between atoms: C1_2  and  C2_3 
ROOT
ATOM      1  C2  UNL d   1      -4.531  -3.487   5.106  0.00  0.00    -0.081 A 
ATOM      2  C3  UNL d   1      -3.836  -2.660   5.997  0.00  0.00     0.006 A 
ATOM      3  C4  UNL d   1      -3.286  -1.452   5.560  0.00  0.00     0.002 A 
ATOM      4  C5  UNL d   1      -3.428  -1.048   4.229  0.00  0.00    -0.080 A 
ATOM      5  C6  UNL d   1      -2.869   0.260   3.754  0.00  0.00     0.076 C 
ATOM      6  C7  UNL d   1      -4.108  -1.882   3.335  0.00  0.00     0.002 A 
ATOM      7  C8  UNL d   1      -4.657  -3.090   3.771  0.00  0.00     0.006 A 
ENDROOT
BRANCH   1   8
ATOM      8  C1  UNL d   1      -5.181  -4.758   5.589  0.00  0.00     0.054 C 
ATOM      9  C   UNL d   1      -5.922  -5.463   4.462  0.00  0.00     0.018 C 
ENDBRANCH   1   8
TORSDOF 1
ENDMDL
