MODEL 1
REMARK minimizedAffinity 0.995392919
REMARK minimizedRMSD -1
REMARK  1 active torsions:
REMARK  status: ('A' for Active; 'I' for Inactive)
REMARK    1  A    between atoms: C1_2  and  C2_3 
ROOT
ATOM      1  C2  UNL d   1       0.404   3.473  -0.048  0.00  0.00    -0.081 A 
ATOM      2  C3  UNL d   1      -0.628   2.527  -0.023  0.00  0.00     0.006 A 
ATOM      3  C4  UNL d   1      -1.009   1.927   1.180  0.00  0.00     0.002 A 
ATOM      4  C5  UNL d   1      -0.370   2.269   2.377  0.00  0.00    -0.080 A 
ATOM      5  C6  UNL d   1      -0.790   1.655   3.680  0.00  0.00     0.076 C 
ATOM      6  C7  UNL d   1       0.673   3.201   2.349  0.00  0.00     0.002 A 
ATOM      7  C8  UNL d   1       1.054   3.800   1.147  0.00  0.00     0.006 A 
ENDROOT
BRANCH   1   8
ATOM      8  C1  UNL d   1       0.774   4.169  -1.333  0.00  0.00     0.054 C 
ATOM      9  C   UNL d   1      -0.161   3.772  -2.467  0.00  0.00     0.018 C 
ENDBRANCH   1   8
TORSDOF 1
ENDMDL
