MODEL 1
REMARK minimizedAffinity 11.9679356
REMARK minimizedRMSD -1
REMARK  1 active torsions:
REMARK  status: ('A' for Active; 'I' for Inactive)
REMARK    1  A    between atoms: C1_2  and  C2_3 
ROOT
ATOM      1  C2  UNL d   1       4.116  -2.997  -4.714  0.00  0.00    -0.081 A 
ATOM      2  C3  UNL d   1       5.434  -3.435  -4.536  0.00  0.00     0.006 A 
ATOM      3  C4  UNL d   1       5.805  -4.107  -3.369  0.00  0.00     0.002 A 
ATOM      4  C5  UNL d   1       4.863  -4.360  -2.365  0.00  0.00    -0.080 A 
ATOM      5  C6  UNL d   1       5.242  -5.107  -1.121  0.00  0.00     0.076 C 
ATOM      6  C7  UNL d   1       3.551  -3.907  -2.536  0.00  0.00     0.002 A 
ATOM      7  C8  UNL d   1       3.179  -3.234  -3.702  0.00  0.00     0.006 A 
ENDROOT
BRANCH   1   8
ATOM      8  C1  UNL d   1       3.697  -2.329  -5.999  0.00  0.00     0.054 C 
ATOM      9  C   UNL d   1       2.208  -2.014  -5.999  0.00  0.00     0.018 C 
ENDBRANCH   1   8
TORSDOF 1
ENDMDL
