MODEL 1
REMARK minimizedAffinity 14.8863993
REMARK minimizedRMSD -1
REMARK  1 active torsions:
REMARK  status: ('A' for Active; 'I' for Inactive)
REMARK    1  A    between atoms: C1_2  and  C2_3 
ROOT
ATOM      1  C2  UNL d   1      -2.348   4.270   0.852  0.00  0.00    -0.081 A 
ATOM      2  C3  UNL d   1      -1.724   5.507   0.649  0.00  0.00     0.006 A 
ATOM      3  C4  UNL d   1      -0.490   5.580  -0.001  0.00  0.00     0.002 A 
ATOM      4  C5  UNL d   1       0.137   4.419  -0.466  0.00  0.00    -0.080 A 
ATOM      5  C6  UNL d   1       1.447   4.486  -1.192  0.00  0.00     0.076 C 
ATOM      6  C7  UNL d   1      -0.478   3.181  -0.247  0.00  0.00     0.002 A 
ATOM      7  C8  UNL d   1      -1.711   3.108   0.403  0.00  0.00     0.006 A 
ENDROOT
BRANCH   1   8
ATOM      8  C1  UNL d   1      -3.709   4.195   1.495  0.00  0.00     0.054 C 
ATOM      9  C   UNL d   1      -4.463   5.509   1.351  0.00  0.00     0.018 C 
ENDBRANCH   1   8
TORSDOF 1
ENDMDL
