MODEL 1
REMARK minimizedAffinity -3.92648745
REMARK minimizedRMSD -1
REMARK  1 active torsions:
REMARK  status: ('A' for Active; 'I' for Inactive)
REMARK    1  A    between atoms: C1_2  and  C2_3 
ROOT
ATOM      1  C2  UNL d   1      -4.911  -1.759  -0.547  0.00  0.00    -0.081 A 
ATOM      2  C3  UNL d   1      -3.942  -0.755  -0.666  0.00  0.00     0.006 A 
ATOM      3  C4  UNL d   1      -4.006   0.169  -1.712  0.00  0.00     0.002 A 
ATOM      4  C5  UNL d   1      -5.042   0.110  -2.650  0.00  0.00    -0.080 A 
ATOM      5  C6  UNL d   1      -5.139   1.114  -3.760  0.00  0.00     0.076 C 
ATOM      6  C7  UNL d   1      -6.000  -0.904  -2.541  0.00  0.00     0.002 A 
ATOM      7  C8  UNL d   1      -5.937  -1.828  -1.496  0.00  0.00     0.006 A 
ENDROOT
BRANCH   1   8
ATOM      8  C1  UNL d   1      -4.882  -2.717   0.617  0.00  0.00     0.054 C 
ATOM      9  C   UNL d   1      -6.000  -3.745   0.515  0.00  0.00     0.018 C 
ENDBRANCH   1   8
TORSDOF 1
ENDMDL
