MODEL 1
REMARK minimizedAffinity 1.5449928
REMARK minimizedRMSD -1
REMARK  1 active torsions:
REMARK  status: ('A' for Active; 'I' for Inactive)
REMARK    1  A    between atoms: C1_2  and  C2_3 
ROOT
ATOM      1  C2  UNL d   1      -0.432   2.518   1.975  0.00  0.00    -0.081 A 
ATOM      2  C3  UNL d   1      -0.201   2.469   3.355  0.00  0.00     0.006 A 
ATOM      3  C4  UNL d   1      -0.543   1.332   4.090  0.00  0.00     0.002 A 
ATOM      4  C5  UNL d   1      -1.114   0.222   3.457  0.00  0.00    -0.080 A 
ATOM      5  C6  UNL d   1      -1.458  -1.017   4.229  0.00  0.00     0.076 C 
ATOM      6  C7  UNL d   1      -1.360   0.277   2.081  0.00  0.00     0.002 A 
ATOM      7  C8  UNL d   1      -1.019   1.415   1.345  0.00  0.00     0.006 A 
ENDROOT
BRANCH   1   8
ATOM      8  C1  UNL d   1      -0.004   3.718   1.168  0.00  0.00     0.054 C 
ATOM      9  C   UNL d   1       0.323   3.332  -0.267  0.00  0.00     0.018 C 
ENDBRANCH   1   8
TORSDOF 1
ENDMDL
