MODEL 1
REMARK minimizedAffinity -1.29242623
REMARK minimizedRMSD -1
REMARK  1 active torsions:
REMARK  status: ('A' for Active; 'I' for Inactive)
REMARK    1  A    between atoms: C1_2  and  C2_3 
ROOT
ATOM      1  C2  UNL d   1      -4.548  -3.626   4.595  0.00  0.00    -0.081 A 
ATOM      2  C3  UNL d   1      -3.704  -4.103   3.585  0.00  0.00     0.006 A 
ATOM      3  C4  UNL d   1      -2.392  -3.635   3.480  0.00  0.00     0.002 A 
ATOM      4  C5  UNL d   1      -1.901  -2.689   4.385  0.00  0.00    -0.080 A 
ATOM      5  C6  UNL d   1      -0.485  -2.201   4.301  0.00  0.00     0.076 C 
ATOM      6  C7  UNL d   1      -2.750  -2.199   5.383  0.00  0.00     0.002 A 
ATOM      7  C8  UNL d   1      -4.062  -2.666   5.489  0.00  0.00     0.006 A 
ENDROOT
BRANCH   1   8
ATOM      8  C1  UNL d   1      -5.943  -4.176   4.751  0.00  0.00     0.054 C 
ATOM      9  C   UNL d   1      -6.000  -5.652   4.384  0.00  0.00     0.018 C 
ENDBRANCH   1   8
TORSDOF 1
ENDMDL
