MODEL 1
REMARK minimizedAffinity 4.37218475
REMARK minimizedRMSD -1
REMARK  1 active torsions:
REMARK  status: ('A' for Active; 'I' for Inactive)
REMARK    1  A    between atoms: C1_2  and  C2_3 
ROOT
ATOM      1  C2  UNL d   1      -0.863   0.973   2.276  0.00  0.00    -0.081 A 
ATOM      2  C3  UNL d   1      -0.361   2.240   2.600  0.00  0.00     0.006 A 
ATOM      3  C4  UNL d   1       0.036   3.122   1.592  0.00  0.00     0.002 A 
ATOM      4  C5  UNL d   1      -0.069   2.756   0.246  0.00  0.00    -0.080 A 
ATOM      5  C6  UNL d   1       0.325   3.706  -0.846  0.00  0.00     0.076 C 
ATOM      6  C7  UNL d   1      -0.554   1.484  -0.076  0.00  0.00     0.002 A 
ATOM      7  C8  UNL d   1      -0.951   0.601   0.930  0.00  0.00     0.006 A 
ENDROOT
BRANCH   1   8
ATOM      8  C1  UNL d   1      -1.352   0.044   3.358  0.00  0.00     0.054 C 
ATOM      9  C   UNL d   1      -0.763  -1.350   3.198  0.00  0.00     0.018 C 
ENDBRANCH   1   8
TORSDOF 1
ENDMDL
