MODEL 1
REMARK minimizedAffinity 5.97578907
REMARK minimizedRMSD -1
REMARK  0 active torsions:
REMARK  status: ('A' for Active; 'I' for Inactive)
ROOT
ATOM      1  C   UNL d   1      -3.422  -3.842  -3.734  0.00  0.00     0.023 A 
ATOM      2  C1  UNL d   1      -3.207  -2.849  -4.689  0.00  0.00     0.003 A 
ATOM      3  C2  UNL d   1      -3.061  -1.518  -4.294  0.00  0.00     0.048 A 
ATOM      4  C3  UNL d   1      -3.131  -1.187  -2.941  0.00  0.00     0.023 A 
ATOM      5  C4  UNL d   1      -3.346  -2.177  -1.981  0.00  0.00     0.048 A 
ATOM      6  C5  UNL d   1      -3.491  -3.507  -2.381  0.00  0.00     0.003 A 
ATOM      7  I   UNL d   1      -2.915   0.794  -2.351  0.00  0.00    -0.146 I 
ENDROOT
TORSDOF 0
ENDMDL
