MODEL 1
REMARK minimizedAffinity 6.57984638
REMARK minimizedRMSD -1
REMARK  0 active torsions:
REMARK  status: ('A' for Active; 'I' for Inactive)
ROOT
ATOM      1  C   UNL d   1       1.848   2.219   3.745  0.00  0.00     0.023 A 
ATOM      2  C1  UNL d   1       2.009   1.016   4.431  0.00  0.00     0.003 A 
ATOM      3  C2  UNL d   1       2.706  -0.040   3.839  0.00  0.00     0.048 A 
ATOM      4  C3  UNL d   1       3.240   0.116   2.561  0.00  0.00     0.023 A 
ATOM      5  C4  UNL d   1       3.082   1.318   1.870  0.00  0.00     0.048 A 
ATOM      6  C5  UNL d   1       2.384   2.371   2.466  0.00  0.00     0.003 A 
ATOM      7  I   UNL d   1       4.277  -1.454   1.677  0.00  0.00    -0.146 I 
ENDROOT
TORSDOF 0
ENDMDL
