MODEL 1
REMARK minimizedAffinity 5.6149435
REMARK minimizedRMSD -1
REMARK  0 active torsions:
REMARK  status: ('A' for Active; 'I' for Inactive)
ROOT
ATOM      1  C   UNL d   1       1.920  -5.967   1.933  0.00  0.00     0.023 A 
ATOM      2  C1  UNL d   1       0.774  -5.965   1.137  0.00  0.00     0.003 A 
ATOM      3  C2  UNL d   1       0.889  -5.965  -0.254  0.00  0.00     0.048 A 
ATOM      4  C3  UNL d   1       2.153  -5.970  -0.844  0.00  0.00     0.023 A 
ATOM      5  C4  UNL d   1       3.302  -5.973  -0.052  0.00  0.00     0.048 A 
ATOM      6  C5  UNL d   1       3.182  -5.972   1.339  0.00  0.00     0.003 A 
ATOM      7  I   UNL d   1       2.326  -5.971  -2.915  0.00  0.00    -0.146 I 
ENDROOT
TORSDOF 0
ENDMDL
