MODEL 1
REMARK minimizedAffinity 6.62268305
REMARK minimizedRMSD -1
REMARK  0 active torsions:
REMARK  status: ('A' for Active; 'I' for Inactive)
ROOT
ATOM      1  C   UNL d   1      -2.044  -0.844  -2.133  0.00  0.00     0.023 A 
ATOM      2  C1  UNL d   1      -3.011  -1.322  -3.017  0.00  0.00     0.003 A 
ATOM      3  C2  UNL d   1      -3.975  -0.455  -3.535  0.00  0.00     0.048 A 
ATOM      4  C3  UNL d   1      -3.965   0.890  -3.166  0.00  0.00     0.023 A 
ATOM      5  C4  UNL d   1      -2.999   1.373  -2.282  0.00  0.00     0.048 A 
ATOM      6  C5  UNL d   1      -2.038   0.502  -1.765  0.00  0.00     0.003 A 
ATOM      7  I   UNL d   1      -5.399   2.183  -3.935  0.00  0.00    -0.146 I 
ENDROOT
TORSDOF 0
ENDMDL
