MODEL 1
REMARK minimizedAffinity -1.06800032
REMARK minimizedRMSD -1
REMARK  0 active torsions:
REMARK  status: ('A' for Active; 'I' for Inactive)
ROOT
ATOM      1  C   UNL d   1       5.393  -5.983  -2.761  0.00  0.00     0.023 A 
ATOM      2  C1  UNL d   1       4.131  -5.979  -3.356  0.00  0.00     0.003 A 
ATOM      3  C2  UNL d   1       2.983  -5.983  -2.560  0.00  0.00     0.048 A 
ATOM      4  C3  UNL d   1       3.105  -5.990  -1.171  0.00  0.00     0.023 A 
ATOM      5  C4  UNL d   1       4.365  -5.992  -0.572  0.00  0.00     0.048 A 
ATOM      6  C5  UNL d   1       5.510  -5.989  -1.371  0.00  0.00     0.003 A 
ATOM      7  I   UNL d   1       1.398  -5.995   0.015  0.00  0.00    -0.146 I 
ENDROOT
TORSDOF 0
ENDMDL
