MODEL 1
REMARK minimizedAffinity 4.45812798
REMARK minimizedRMSD -1
REMARK  0 active torsions:
REMARK  status: ('A' for Active; 'I' for Inactive)
ROOT
ATOM      1  C   UNL d   1       2.497  -5.962  -1.823  0.00  0.00     0.023 A 
ATOM      2  C1  UNL d   1       3.755  -5.764  -1.254  0.00  0.00     0.003 A 
ATOM      3  C2  UNL d   1       3.880  -5.601   0.128  0.00  0.00     0.048 A 
ATOM      4  C3  UNL d   1       2.742  -5.640   0.934  0.00  0.00     0.023 A 
ATOM      5  C4  UNL d   1       1.482  -5.839   0.369  0.00  0.00     0.048 A 
ATOM      6  C5  UNL d   1       1.362  -5.999  -1.013  0.00  0.00     0.003 A 
ATOM      7  I   UNL d   1       2.926  -5.399   2.990  0.00  0.00    -0.146 I 
ENDROOT
TORSDOF 0
ENDMDL
