MODEL 1
REMARK minimizedAffinity 5.78606749
REMARK minimizedRMSD -1
REMARK  0 active torsions:
REMARK  status: ('A' for Active; 'I' for Inactive)
ROOT
ATOM      1  C   UNL d   1       3.088   1.211   1.104  0.00  0.00     0.023 A 
ATOM      2  C1  UNL d   1       2.344   1.816   2.117  0.00  0.00     0.003 A 
ATOM      3  C2  UNL d   1       1.855   1.052   3.179  0.00  0.00     0.048 A 
ATOM      4  C3  UNL d   1       2.114  -0.318   3.221  0.00  0.00     0.023 A 
ATOM      5  C4  UNL d   1       2.858  -0.928   2.210  0.00  0.00     0.048 A 
ATOM      6  C5  UNL d   1       3.344  -0.160   1.151  0.00  0.00     0.003 A 
ATOM      7  I   UNL d   1       1.387  -1.458   4.800  0.00  0.00    -0.146 I 
ENDROOT
TORSDOF 0
ENDMDL
