MODEL 1
REMARK minimizedAffinity 3.25290632
REMARK minimizedRMSD -1
REMARK  0 active torsions:
REMARK  status: ('A' for Active; 'I' for Inactive)
ROOT
ATOM      1  C   UNL d   1       2.231   6.000  -1.643  0.00  0.00     0.023 A 
ATOM      2  C1  UNL d   1       3.390   5.564  -1.000  0.00  0.00     0.003 A 
ATOM      3  C2  UNL d   1       3.384   4.367  -0.282  0.00  0.00     0.048 A 
ATOM      4  C3  UNL d   1       2.216   3.609  -0.212  0.00  0.00     0.023 A 
ATOM      5  C4  UNL d   1       1.054   4.040  -0.854  0.00  0.00     0.048 A 
ATOM      6  C5  UNL d   1       1.064   5.239  -1.569  0.00  0.00     0.003 A 
ATOM      7  I   UNL d   1       2.204   1.826   0.856  0.00  0.00    -0.146 I 
ENDROOT
TORSDOF 0
ENDMDL
