MODEL 1
REMARK minimizedAffinity 6.20499611
REMARK minimizedRMSD -1
REMARK  0 active torsions:
REMARK  status: ('A' for Active; 'I' for Inactive)
ROOT
ATOM      1  C   UNL d   1       5.023  -5.991  -5.998  0.00  0.00     0.023 A 
ATOM      2  C1  UNL d   1       5.936  -4.976  -5.712  0.00  0.00     0.003 A 
ATOM      3  C2  UNL d   1       5.481  -3.723  -5.296  0.00  0.00     0.048 A 
ATOM      4  C3  UNL d   1       4.112  -3.492  -5.168  0.00  0.00     0.023 A 
ATOM      5  C4  UNL d   1       3.195  -4.505  -5.453  0.00  0.00     0.048 A 
ATOM      6  C5  UNL d   1       3.655  -5.756  -5.869  0.00  0.00     0.003 A 
ATOM      7  I   UNL d   1       3.433  -1.628  -4.550  0.00  0.00    -0.146 I 
ENDROOT
TORSDOF 0
ENDMDL
