MODEL 1
REMARK minimizedAffinity 6.42703438
REMARK minimizedRMSD -1
REMARK  0 active torsions:
REMARK  status: ('A' for Active; 'I' for Inactive)
ROOT
ATOM      1  C   UNL d   1       0.708   1.946   0.251  0.00  0.00     0.023 A 
ATOM      2  C1  UNL d   1       1.818   1.701  -0.558  0.00  0.00     0.003 A 
ATOM      3  C2  UNL d   1       2.148   0.392  -0.914  0.00  0.00     0.048 A 
ATOM      4  C3  UNL d   1       1.364  -0.667  -0.460  0.00  0.00     0.023 A 
ATOM      5  C4  UNL d   1       0.252  -0.427   0.349  0.00  0.00     0.048 A 
ATOM      6  C5  UNL d   1      -0.074   0.884   0.704  0.00  0.00     0.003 A 
ATOM      7  I   UNL d   1       1.853  -2.617  -0.989  0.00  0.00    -0.146 I 
ENDROOT
TORSDOF 0
ENDMDL
