MODEL 1
REMARK minimizedAffinity 1.68935859
REMARK minimizedRMSD -1
REMARK  0 active torsions:
REMARK  status: ('A' for Active; 'I' for Inactive)
ROOT
ATOM      1  C   UNL d   1      -5.353  -3.765  -5.999  0.00  0.00     0.023 A 
ATOM      2  C1  UNL d   1      -5.263  -5.136  -5.760  0.00  0.00     0.003 A 
ATOM      3  C2  UNL d   1      -5.061  -5.608  -4.462  0.00  0.00     0.048 A 
ATOM      4  C3  UNL d   1      -4.950  -4.703  -3.406  0.00  0.00     0.023 A 
ATOM      5  C4  UNL d   1      -5.040  -3.330  -3.641  0.00  0.00     0.048 A 
ATOM      6  C5  UNL d   1      -5.242  -2.863  -4.941  0.00  0.00     0.003 A 
ATOM      7  I   UNL d   1      -4.649  -5.403  -1.473  0.00  0.00    -0.146 I 
ENDROOT
TORSDOF 0
ENDMDL
