MODEL 1
REMARK minimizedAffinity 3.85188437
REMARK minimizedRMSD -1
REMARK  0 active torsions:
REMARK  status: ('A' for Active; 'I' for Inactive)
ROOT
ATOM      1  C   UNL d   1      -2.413  -1.195   1.145  0.00  0.00     0.023 A 
ATOM      2  C1  UNL d   1      -2.169  -2.566   1.216  0.00  0.00     0.003 A 
ATOM      3  C2  UNL d   1      -1.065  -3.116   0.561  0.00  0.00     0.048 A 
ATOM      4  C3  UNL d   1      -0.208  -2.287  -0.163  0.00  0.00     0.023 A 
ATOM      5  C4  UNL d   1      -0.448  -0.914  -0.237  0.00  0.00     0.048 A 
ATOM      6  C5  UNL d   1      -1.553  -0.370   0.419  0.00  0.00     0.003 A 
ATOM      7  I   UNL d   1       1.436  -3.102  -1.139  0.00  0.00    -0.146 I 
ENDROOT
TORSDOF 0
ENDMDL
