MODEL 1
REMARK minimizedAffinity 8.27980518
REMARK minimizedRMSD -1
REMARK  0 active torsions:
REMARK  status: ('A' for Active; 'I' for Inactive)
ROOT
ATOM      1  C   UNL d   1       3.445   5.000  -0.744  0.00  0.00     0.023 A 
ATOM      2  C1  UNL d   1       4.642   5.712  -0.665  0.00  0.00     0.003 A 
ATOM      3  C2  UNL d   1       5.364   5.997  -1.826  0.00  0.00     0.048 A 
ATOM      4  C3  UNL d   1       4.883   5.569  -3.062  0.00  0.00     0.023 A 
ATOM      5  C4  UNL d   1       3.685   4.857  -3.146  0.00  0.00     0.048 A 
ATOM      6  C5  UNL d   1       2.967   4.573  -1.983  0.00  0.00     0.003 A 
ATOM      7  I   UNL d   1       5.956   5.993  -4.791  0.00  0.00    -0.146 I 
ENDROOT
TORSDOF 0
ENDMDL
