MODEL 1
REMARK minimizedAffinity 4.83373022
REMARK minimizedRMSD -1
REMARK  0 active torsions:
REMARK  status: ('A' for Active; 'I' for Inactive)
ROOT
ATOM      1  C   UNL d   1      -1.258   0.089   1.473  0.00  0.00     0.023 A 
ATOM      2  C1  UNL d   1       0.056  -0.339   1.660  0.00  0.00     0.003 A 
ATOM      3  C2  UNL d   1       1.120   0.483   1.281  0.00  0.00     0.048 A 
ATOM      4  C3  UNL d   1       0.862   1.732   0.717  0.00  0.00     0.023 A 
ATOM      5  C4  UNL d   1      -0.451   2.165   0.529  0.00  0.00     0.048 A 
ATOM      6  C5  UNL d   1      -1.511   1.339   0.908  0.00  0.00     0.003 A 
ATOM      7  I   UNL d   1       2.444   2.956   0.153  0.00  0.00    -0.146 I 
ENDROOT
TORSDOF 0
ENDMDL
