MODEL 1
REMARK minimizedAffinity -4.31864786
REMARK minimizedRMSD -1
REMARK  0 active torsions:
REMARK  status: ('A' for Active; 'I' for Inactive)
ROOT
ATOM      1  C   UNL d   1      -4.537  -4.109  -1.602  0.00  0.00     0.023 A 
ATOM      2  C1  UNL d   1      -4.481  -5.485  -1.827  0.00  0.00     0.003 A 
ATOM      3  C2  UNL d   1      -4.786  -6.000  -3.089  0.00  0.00     0.048 A 
ATOM      4  C3  UNL d   1      -5.145  -5.133  -4.121  0.00  0.00     0.023 A 
ATOM      5  C4  UNL d   1      -5.201  -3.756  -3.900  0.00  0.00     0.048 A 
ATOM      6  C5  UNL d   1      -4.897  -3.246  -2.637  0.00  0.00     0.003 A 
ATOM      7  I   UNL d   1      -5.598  -5.897  -6.000  0.00  0.00    -0.146 I 
ENDROOT
TORSDOF 0
ENDMDL
