MODEL 1
REMARK minimizedAffinity 0.0321799442
REMARK minimizedRMSD -1
REMARK  0 active torsions:
REMARK  status: ('A' for Active; 'I' for Inactive)
ROOT
ATOM      1  C   UNL d   1      -4.504   2.207  -4.241  0.00  0.00     0.023 A 
ATOM      2  C1  UNL d   1      -4.820   1.248  -3.278  0.00  0.00     0.003 A 
ATOM      3  C2  UNL d   1      -5.250  -0.021  -3.669  0.00  0.00     0.048 A 
ATOM      4  C3  UNL d   1      -5.360  -0.326  -5.025  0.00  0.00     0.023 A 
ATOM      5  C4  UNL d   1      -5.045   0.630  -5.993  0.00  0.00     0.048 A 
ATOM      6  C5  UNL d   1      -4.616   1.898  -5.597  0.00  0.00     0.003 A 
ATOM      7  I   UNL d   1      -6.000  -2.215  -5.610  0.00  0.00    -0.146 I 
ENDROOT
TORSDOF 0
ENDMDL
