MODEL 1
REMARK minimizedAffinity -2.25646496
REMARK minimizedRMSD -1
REMARK  0 active torsions:
REMARK  status: ('A' for Active; 'I' for Inactive)
ROOT
ATOM      1  N1  IND d   1       5.527  -4.788   5.995  0.00  0.00    -0.196 N 
ATOM      2  C2  IND d   1       5.378  -5.999   5.380  0.00  0.00     0.054 A 
ATOM      3  C3  IND d   1       5.423  -5.853   4.036  0.00  0.00    -0.031 A 
ATOM      4  C4  IND d   1       5.833  -3.734   2.634  0.00  0.00     0.051 A 
ATOM      5  C5  IND d   1       5.987  -2.380   2.748  0.00  0.00    -0.031 A 
ATOM      6  C6  IND d   1       5.999  -1.748   3.974  0.00  0.00     0.015 A 
ATOM      7  C7  IND d   1       5.867  -2.450   5.139  0.00  0.00    -0.016 A 
ATOM      8  C8  IND d   1       5.703  -3.823   5.027  0.00  0.00    -0.047 A 
ATOM      9  C9  IND d   1       5.648  -4.465   3.783  0.00  0.00    -0.096 A 
ATOM     10  HN1 IND d   1       5.512  -4.651   6.844  0.00  0.00     0.298 HD
ENDROOT
TORSDOF 0
ENDMDL
