MODEL 1
REMARK minimizedAffinity 0.362584829
REMARK minimizedRMSD -1
REMARK  0 active torsions:
REMARK  status: ('A' for Active; 'I' for Inactive)
ROOT
ATOM      1  N1  IND d   1       3.463  -3.904   4.919  0.00  0.00    -0.196 N 
ATOM      2  C2  IND d   1       3.667  -5.255   4.961  0.00  0.00     0.054 A 
ATOM      3  C3  IND d   1       4.551  -5.627   4.008  0.00  0.00    -0.031 A 
ATOM      4  C4  IND d   1       5.864  -4.173   2.338  0.00  0.00     0.051 A 
ATOM      5  C5  IND d   1       5.987  -2.886   1.895  0.00  0.00    -0.031 A 
ATOM      6  C6  IND d   1       5.263  -1.851   2.451  0.00  0.00     0.015 A 
ATOM      7  C7  IND d   1       4.392  -2.064   3.482  0.00  0.00    -0.016 A 
ATOM      8  C8  IND d   1       4.259  -3.371   3.930  0.00  0.00    -0.047 A 
ATOM      9  C9  IND d   1       4.961  -4.432   3.342  0.00  0.00    -0.096 A 
ATOM     10  HN1 IND d   1       2.927  -3.462   5.425  0.00  0.00     0.298 HD
ENDROOT
TORSDOF 0
ENDMDL
