MODEL 1
REMARK minimizedAffinity -3.50181532
REMARK minimizedRMSD -1
REMARK  0 active torsions:
REMARK  status: ('A' for Active; 'I' for Inactive)
ROOT
ATOM      1  N1  IND d   1       5.447  -5.933   4.807  0.00  0.00    -0.196 N 
ATOM      2  C2  IND d   1       5.017  -5.423   6.000  0.00  0.00     0.054 A 
ATOM      3  C3  IND d   1       4.865  -4.083   5.910  0.00  0.00    -0.031 A 
ATOM      4  C4  IND d   1       5.165  -2.535   3.876  0.00  0.00     0.051 A 
ATOM      5  C5  IND d   1       5.582  -2.535   2.574  0.00  0.00    -0.031 A 
ATOM      6  C6  IND d   1       5.981  -3.692   1.937  0.00  0.00     0.015 A 
ATOM      7  C7  IND d   1       5.966  -4.899   2.576  0.00  0.00    -0.016 A 
ATOM      8  C8  IND d   1       5.550  -4.901   3.900  0.00  0.00    -0.047 A 
ATOM      9  C9  IND d   1       5.185  -3.724   4.565  0.00  0.00    -0.096 A 
ATOM     10  HN1 IND d   1       5.622  -6.760   4.649  0.00  0.00     0.298 HD
ENDROOT
TORSDOF 0
ENDMDL
