MODEL 1
REMARK minimizedAffinity -3.88243818
REMARK minimizedRMSD -1
REMARK  0 active torsions:
REMARK  status: ('A' for Active; 'I' for Inactive)
ROOT
ATOM      1  N1  IND d   1       4.523  -4.302   5.877  0.00  0.00    -0.196 N 
ATOM      2  C2  IND d   1       4.554  -2.937   5.952  0.00  0.00     0.054 A 
ATOM      3  C3  IND d   1       5.060  -2.414   4.813  0.00  0.00    -0.031 A 
ATOM      4  C4  IND d   1       5.807  -3.605   2.657  0.00  0.00     0.051 A 
ATOM      5  C5  IND d   1       6.000  -4.850   2.125  0.00  0.00    -0.031 A 
ATOM      6  C6  IND d   1       5.702  -5.998   2.830  0.00  0.00     0.015 A 
ATOM      7  C7  IND d   1       5.187  -5.944   4.094  0.00  0.00    -0.016 A 
ATOM      8  C8  IND d   1       4.996  -4.683   4.640  0.00  0.00    -0.047 A 
ATOM      9  C9  IND d   1       5.337  -3.515   3.946  0.00  0.00    -0.096 A 
ATOM     10  HN1 IND d   1       4.254  -4.833   6.497  0.00  0.00     0.298 HD
ENDROOT
TORSDOF 0
ENDMDL
