MODEL 1
REMARK minimizedAffinity -3.97392511
REMARK minimizedRMSD -1
REMARK  0 active torsions:
REMARK  status: ('A' for Active; 'I' for Inactive)
ROOT
ATOM      1  N1  IND d   1       5.775  -1.692   3.714  0.00  0.00    -0.196 N 
ATOM      2  C2  IND d   1       5.999  -1.696   2.366  0.00  0.00     0.054 A 
ATOM      3  C3  IND d   1       5.892  -2.950   1.874  0.00  0.00    -0.031 A 
ATOM      4  C4  IND d   1       5.255  -5.132   3.084  0.00  0.00     0.051 A 
ATOM      5  C5  IND d   1       4.994  -5.638   4.327  0.00  0.00    -0.031 A 
ATOM      6  C6  IND d   1       4.976  -4.837   5.451  0.00  0.00     0.015 A 
ATOM      7  C7  IND d   1       5.209  -3.494   5.372  0.00  0.00    -0.016 A 
ATOM      8  C8  IND d   1       5.482  -2.978   4.113  0.00  0.00    -0.047 A 
ATOM      9  C9  IND d   1       5.543  -3.792   2.975  0.00  0.00    -0.096 A 
ATOM     10  HN1 IND d   1       5.810  -1.003   4.227  0.00  0.00     0.298 HD
ENDROOT
TORSDOF 0
ENDMDL
