MODEL 1
REMARK minimizedAffinity -4.16248703
REMARK minimizedRMSD -1
REMARK  0 active torsions:
REMARK  status: ('A' for Active; 'I' for Inactive)
ROOT
ATOM      1  N1  IND d   1       5.785  -5.976   4.808  0.00  0.00    -0.196 N 
ATOM      2  C2  IND d   1       5.497  -5.306   5.965  0.00  0.00     0.054 A 
ATOM      3  C3  IND d   1       5.307  -3.992   5.712  0.00  0.00    -0.031 A 
ATOM      4  C4  IND d   1       5.317  -2.740   3.463  0.00  0.00     0.051 A 
ATOM      5  C5  IND d   1       5.568  -2.919   2.131  0.00  0.00    -0.031 A 
ATOM      6  C6  IND d   1       5.909  -4.152   1.613  0.00  0.00     0.015 A 
ATOM      7  C7  IND d   1       6.000  -5.259   2.409  0.00  0.00    -0.016 A 
ATOM      8  C8  IND d   1       5.753  -5.079   3.763  0.00  0.00    -0.047 A 
ATOM      9  C9  IND d   1       5.448  -3.822   4.301  0.00  0.00    -0.096 A 
ATOM     10  HN1 IND d   1       5.957  -6.816   4.744  0.00  0.00     0.298 HD
ENDROOT
TORSDOF 0
ENDMDL
