MODEL 1
REMARK minimizedAffinity -2.05887413
REMARK minimizedRMSD -1
REMARK  0 active torsions:
REMARK  status: ('A' for Active; 'I' for Inactive)
ROOT
ATOM      1  N1  IND d   1       2.928  -5.158   3.893  0.00  0.00    -0.196 N 
ATOM      2  C2  IND d   1       2.628  -5.362   5.211  0.00  0.00     0.054 A 
ATOM      3  C3  IND d   1       3.463  -4.650   6.000  0.00  0.00    -0.031 A 
ATOM      4  C4  IND d   1       5.329  -3.003   5.339  0.00  0.00     0.051 A 
ATOM      5  C5  IND d   1       6.000  -2.515   4.254  0.00  0.00    -0.031 A 
ATOM      6  C6  IND d   1       5.673  -2.888   2.966  0.00  0.00     0.015 A 
ATOM      7  C7  IND d   1       4.650  -3.758   2.714  0.00  0.00    -0.016 A 
ATOM      8  C8  IND d   1       3.971  -4.262   3.815  0.00  0.00    -0.047 A 
ATOM      9  C9  IND d   1       4.326  -3.920   5.126  0.00  0.00    -0.096 A 
ATOM     10  HN1 IND d   1       2.531  -5.526   3.225  0.00  0.00     0.298 HD
ENDROOT
TORSDOF 0
ENDMDL
