MODEL 1
REMARK minimizedAffinity -3.25962329
REMARK minimizedRMSD -1
REMARK  0 active torsions:
REMARK  status: ('A' for Active; 'I' for Inactive)
ROOT
ATOM      1  N1  IND d   1       4.998  -2.054   4.511  0.00  0.00    -0.196 N 
ATOM      2  C2  IND d   1       4.875  -1.892   3.159  0.00  0.00     0.054 A 
ATOM      3  C3  IND d   1       5.153  -3.050   2.519  0.00  0.00    -0.031 A 
ATOM      4  C4  IND d   1       5.732  -5.360   3.496  0.00  0.00     0.051 A 
ATOM      5  C5  IND d   1       5.997  -5.994   4.677  0.00  0.00    -0.031 A 
ATOM      6  C6  IND d   1       5.938  -5.335   5.888  0.00  0.00     0.015 A 
ATOM      7  C7  IND d   1       5.600  -4.014   5.964  0.00  0.00    -0.016 A 
ATOM      8  C8  IND d   1       5.338  -3.364   4.766  0.00  0.00    -0.047 A 
ATOM      9  C9  IND d   1       5.437  -4.018   3.531  0.00  0.00    -0.096 A 
ATOM     10  HN1 IND d   1       4.883  -1.441   5.102  0.00  0.00     0.298 HD
ENDROOT
TORSDOF 0
ENDMDL
