MODEL 1
REMARK minimizedAffinity 8.75086117
REMARK minimizedRMSD -1
REMARK  0 active torsions:
REMARK  status: ('A' for Active; 'I' for Inactive)
ROOT
ATOM      1  N1  IND d   1       5.067  -3.894   2.187  0.00  0.00    -0.196 N 
ATOM      2  C2  IND d   1       5.381  -5.023   1.483  0.00  0.00     0.054 A 
ATOM      3  C3  IND d   1       5.799  -5.998   2.321  0.00  0.00    -0.031 A 
ATOM      4  C4  IND d   1       5.948  -5.994   4.891  0.00  0.00     0.051 A 
ATOM      5  C5  IND d   1       5.802  -5.177   5.977  0.00  0.00    -0.031 A 
ATOM      6  C6  IND d   1       5.392  -3.865   5.853  0.00  0.00     0.015 A 
ATOM      7  C7  IND d   1       5.102  -3.322   4.634  0.00  0.00    -0.016 A 
ATOM      8  C8  IND d   1       5.256  -4.146   3.528  0.00  0.00    -0.047 A 
ATOM      9  C9  IND d   1       5.712  -5.466   3.644  0.00  0.00    -0.096 A 
ATOM     10  HN1 IND d   1       4.796  -3.151   1.849  0.00  0.00     0.298 HD
ENDROOT
TORSDOF 0
ENDMDL
