MODEL 1
REMARK minimizedAffinity -3.46081829
REMARK minimizedRMSD -1
REMARK  0 active torsions:
REMARK  status: ('A' for Active; 'I' for Inactive)
ROOT
ATOM      1  N1  IND d   1       5.701  -5.606   2.613  0.00  0.00    -0.196 N 
ATOM      2  C2  IND d   1       6.000  -4.724   1.612  0.00  0.00     0.054 A 
ATOM      3  C3  IND d   1       5.961  -3.455   2.076  0.00  0.00    -0.031 A 
ATOM      4  C4  IND d   1       5.529  -2.599   4.465  0.00  0.00     0.051 A 
ATOM      5  C5  IND d   1       5.174  -3.025   5.714  0.00  0.00    -0.031 A 
ATOM      6  C6  IND d   1       4.974  -4.360   6.000  0.00  0.00     0.015 A 
ATOM      7  C7  IND d   1       5.135  -5.325   5.045  0.00  0.00    -0.016 A 
ATOM      8  C8  IND d   1       5.489  -4.895   3.774  0.00  0.00    -0.047 A 
ATOM      9  C9  IND d   1       5.651  -3.538   3.468  0.00  0.00    -0.096 A 
ATOM     10  HN1 IND d   1       5.654  -6.461   2.532  0.00  0.00     0.298 HD
ENDROOT
TORSDOF 0
ENDMDL
