MODEL 1
REMARK minimizedAffinity -0.862240434
REMARK minimizedRMSD -1
REMARK  0 active torsions:
REMARK  status: ('A' for Active; 'I' for Inactive)
ROOT
ATOM      1  N1  IND d   1       5.988  -2.150   2.547  0.00  0.00    -0.196 N 
ATOM      2  C2  IND d   1       5.985  -3.025   1.497  0.00  0.00     0.054 A 
ATOM      3  C3  IND d   1       6.000  -4.300   1.947  0.00  0.00    -0.031 A 
ATOM      4  C4  IND d   1       5.926  -5.182   4.364  0.00  0.00     0.051 A 
ATOM      5  C5  IND d   1       5.957  -4.763   5.665  0.00  0.00    -0.031 A 
ATOM      6  C6  IND d   1       5.997  -3.425   6.000  0.00  0.00     0.015 A 
ATOM      7  C7  IND d   1       5.997  -2.451   5.042  0.00  0.00    -0.016 A 
ATOM      8  C8  IND d   1       5.974  -2.872   3.720  0.00  0.00    -0.047 A 
ATOM      9  C9  IND d   1       5.975  -4.230   3.374  0.00  0.00    -0.096 A 
ATOM     10  HN1 IND d   1       5.997  -1.292   2.486  0.00  0.00     0.298 HD
ENDROOT
TORSDOF 0
ENDMDL
