MODEL 1
REMARK minimizedAffinity -3.63529348
REMARK minimizedRMSD -1
REMARK  0 active torsions:
REMARK  status: ('A' for Active; 'I' for Inactive)
ROOT
ATOM      1  N1  IND d   1       5.844  -5.761   4.328  0.00  0.00    -0.196 N 
ATOM      2  C2  IND d   1       5.713  -5.605   5.680  0.00  0.00     0.054 A 
ATOM      3  C3  IND d   1       5.674  -4.292   6.000  0.00  0.00    -0.031 A 
ATOM      4  C4  IND d   1       5.704  -2.231   4.457  0.00  0.00     0.051 A 
ATOM      5  C5  IND d   1       5.848  -1.867   3.148  0.00  0.00    -0.031 A 
ATOM      6  C6  IND d   1       5.999  -2.802   2.144  0.00  0.00     0.015 A 
ATOM      7  C7  IND d   1       6.000  -4.142   2.413  0.00  0.00    -0.016 A 
ATOM      8  C8  IND d   1       5.860  -4.514   3.742  0.00  0.00    -0.047 A 
ATOM      9  C9  IND d   1       5.749  -3.569   4.770  0.00  0.00    -0.096 A 
ATOM     10  HN1 IND d   1       5.905  -6.512   3.913  0.00  0.00     0.298 HD
ENDROOT
TORSDOF 0
ENDMDL
