MODEL 1
REMARK minimizedAffinity 0.0342255495
REMARK minimizedRMSD -1
REMARK  0 active torsions:
REMARK  status: ('A' for Active; 'I' for Inactive)
ROOT
ATOM      1  N1  IND d   1       5.981  -2.290   2.323  0.00  0.00    -0.196 N 
ATOM      2  C2  IND d   1       5.999  -3.404   1.531  0.00  0.00     0.054 A 
ATOM      3  C3  IND d   1       5.976  -4.522   2.290  0.00  0.00    -0.031 A 
ATOM      4  C4  IND d   1       5.805  -4.758   4.848  0.00  0.00     0.051 A 
ATOM      5  C5  IND d   1       5.798  -4.022   6.000  0.00  0.00    -0.031 A 
ATOM      6  C6  IND d   1       5.850  -2.643   5.984  0.00  0.00     0.015 A 
ATOM      7  C7  IND d   1       5.900  -1.945   4.810  0.00  0.00    -0.016 A 
ATOM      8  C8  IND d   1       5.914  -2.690   3.639  0.00  0.00    -0.047 A 
ATOM      9  C9  IND d   1       5.904  -4.091   3.650  0.00  0.00    -0.096 A 
ATOM     10  HN1 IND d   1       6.007  -1.477   2.045  0.00  0.00     0.298 HD
ENDROOT
TORSDOF 0
ENDMDL
