MODEL 1
REMARK minimizedAffinity -3.82444882
REMARK minimizedRMSD -1
REMARK  0 active torsions:
REMARK  status: ('A' for Active; 'I' for Inactive)
ROOT
ATOM      1  N1  IND d   1       5.604  -5.960   4.766  0.00  0.00    -0.196 N 
ATOM      2  C2  IND d   1       5.250  -5.489   6.000  0.00  0.00     0.054 A 
ATOM      3  C3  IND d   1       5.103  -4.146   5.966  0.00  0.00    -0.031 A 
ATOM      4  C4  IND d   1       5.295  -2.530   3.971  0.00  0.00     0.051 A 
ATOM      5  C5  IND d   1       5.634  -2.487   2.648  0.00  0.00    -0.031 A 
ATOM      6  C6  IND d   1       5.986  -3.623   1.948  0.00  0.00     0.015 A 
ATOM      7  C7  IND d   1       6.000  -4.852   2.546  0.00  0.00    -0.016 A 
ATOM      8  C8  IND d   1       5.662  -4.898   3.891  0.00  0.00    -0.047 A 
ATOM      9  C9  IND d   1       5.346  -3.742   4.617  0.00  0.00    -0.096 A 
ATOM     10  HN1 IND d   1       5.764  -6.782   4.570  0.00  0.00     0.298 HD
ENDROOT
TORSDOF 0
ENDMDL
