MODEL 1
REMARK minimizedAffinity 2.31785655
REMARK minimizedRMSD -1
REMARK  0 active torsions:
REMARK  status: ('A' for Active; 'I' for Inactive)
ROOT
ATOM      1  N1  IND d   1       4.234  -5.265   3.392  0.00  0.00    -0.196 N 
ATOM      2  C2  IND d   1       3.812  -5.998   4.466  0.00  0.00     0.054 A 
ATOM      3  C3  IND d   1       4.155  -5.382   5.620  0.00  0.00    -0.031 A 
ATOM      4  C4  IND d   1       5.320  -3.115   5.979  0.00  0.00     0.051 A 
ATOM      5  C5  IND d   1       5.927  -2.096   5.300  0.00  0.00    -0.031 A 
ATOM      6  C6  IND d   1       6.000  -2.080   3.922  0.00  0.00     0.015 A 
ATOM      7  C7  IND d   1       5.456  -3.081   3.169  0.00  0.00    -0.016 A 
ATOM      8  C8  IND d   1       4.845  -4.121   3.855  0.00  0.00    -0.047 A 
ATOM      9  C9  IND d   1       4.805  -4.164   5.255  0.00  0.00    -0.096 A 
ATOM     10  HN1 IND d   1       4.134  -5.483   2.566  0.00  0.00     0.298 HD
ENDROOT
TORSDOF 0
ENDMDL
