MODEL 1
REMARK minimizedAffinity 3.86024928
REMARK minimizedRMSD -1
REMARK  0 active torsions:
REMARK  status: ('A' for Active; 'I' for Inactive)
ROOT
ATOM      1  C1  BNZ d   1      -1.958   0.477   1.740  0.00  0.00     0.000 A 
ATOM      2  C2  BNZ d   1      -2.994   0.648   0.861  0.00  0.00     0.000 A 
ATOM      3  C3  BNZ d   1      -4.268   0.854   1.313  0.00  0.00     0.000 A 
ATOM      4  C4  BNZ d   1      -4.510   0.850   2.640  0.00  0.00     0.000 A 
ATOM      5  C5  BNZ d   1      -3.477   0.669   3.538  0.00  0.00     0.000 A 
ATOM      6  C6  BNZ d   1      -2.190   0.501   3.081  0.00  0.00     0.000 A 
ENDROOT
TORSDOF 0
ENDMDL
