MODEL 1
REMARK minimizedAffinity -1.85813069
REMARK minimizedRMSD -1
REMARK  0 active torsions:
REMARK  status: ('A' for Active; 'I' for Inactive)
ROOT
ATOM      1  C1  BNZ d   1      -1.066   0.921   2.433  0.00  0.00     0.000 A 
ATOM      2  C2  BNZ d   1      -1.691  -0.080   1.738  0.00  0.00     0.000 A 
ATOM      3  C3  BNZ d   1      -3.034  -0.025   1.486  0.00  0.00     0.000 A 
ATOM      4  C4  BNZ d   1      -3.756   1.010   1.964  0.00  0.00     0.000 A 
ATOM      5  C5  BNZ d   1      -3.142   2.022   2.674  0.00  0.00     0.000 A 
ATOM      6  C6  BNZ d   1      -1.783   1.982   2.892  0.00  0.00     0.000 A 
ENDROOT
TORSDOF 0
ENDMDL
