MODEL 1
REMARK minimizedAffinity 1.16007257
REMARK minimizedRMSD -1
REMARK  0 active torsions:
REMARK  status: ('A' for Active; 'I' for Inactive)
ROOT
ATOM      1  C1  BNZ d   1      -1.741   1.094   3.634  0.00  0.00     0.000 A 
ATOM      2  C2  BNZ d   1      -0.471   0.794   4.048  0.00  0.00     0.000 A 
ATOM      3  C3  BNZ d   1       0.474   0.371   3.155  0.00  0.00     0.000 A 
ATOM      4  C4  BNZ d   1       0.137   0.211   1.859  0.00  0.00     0.000 A 
ATOM      5  C5  BNZ d   1      -1.142   0.501   1.428  0.00  0.00     0.000 A 
ATOM      6  C6  BNZ d   1      -2.080   0.964   2.323  0.00  0.00     0.000 A 
ENDROOT
TORSDOF 0
ENDMDL
