MODEL 1
REMARK minimizedAffinity 5.92357063
REMARK minimizedRMSD -1
REMARK  0 active torsions:
REMARK  status: ('A' for Active; 'I' for Inactive)
ROOT
ATOM      1  C1  BNZ d   1       3.751  -5.265   1.855  0.00  0.00     0.000 A 
ATOM      2  C2  BNZ d   1       4.866  -4.556   1.496  0.00  0.00     0.000 A 
ATOM      3  C3  BNZ d   1       5.992  -4.583   2.271  0.00  0.00     0.000 A 
ATOM      4  C4  BNZ d   1       5.988  -5.285   3.422  0.00  0.00     0.000 A 
ATOM      5  C5  BNZ d   1       4.868  -5.998   3.803  0.00  0.00     0.000 A 
ATOM      6  C6  BNZ d   1       3.750  -6.000   3.001  0.00  0.00     0.000 A 
ENDROOT
TORSDOF 0
ENDMDL
