MODEL 1
REMARK minimizedAffinity -1.17079771
REMARK minimizedRMSD -1
REMARK  0 active torsions:
REMARK  status: ('A' for Active; 'I' for Inactive)
ROOT
ATOM      1  C1  BNZ d   1      -1.991   0.128   0.749  0.00  0.00     0.000 A 
ATOM      2  C2  BNZ d   1      -3.341   0.229   0.958  0.00  0.00     0.000 A 
ATOM      3  C3  BNZ d   1      -3.845   0.371   2.221  0.00  0.00     0.000 A 
ATOM      4  C4  BNZ d   1      -3.003   0.371   3.275  0.00  0.00     0.000 A 
ATOM      5  C5  BNZ d   1      -1.641   0.260   3.081  0.00  0.00     0.000 A 
ATOM      6  C6  BNZ d   1      -1.134   0.157   1.806  0.00  0.00     0.000 A 
ENDROOT
TORSDOF 0
ENDMDL
