MODEL 1
REMARK minimizedAffinity -0.700469911
REMARK minimizedRMSD -1
REMARK  0 active torsions:
REMARK  status: ('A' for Active; 'I' for Inactive)
ROOT
ATOM      1  C1  BNZ d   1       2.335  -4.515   1.447  0.00  0.00     0.000 A 
ATOM      2  C2  BNZ d   1       1.174  -4.530   2.172  0.00  0.00     0.000 A 
ATOM      3  C3  BNZ d   1       1.078  -5.256   3.327  0.00  0.00     0.000 A 
ATOM      4  C4  BNZ d   1       2.130  -5.997   3.733  0.00  0.00     0.000 A 
ATOM      5  C5  BNZ d   1       3.305  -6.000   3.008  0.00  0.00     0.000 A 
ATOM      6  C6  BNZ d   1       3.410  -5.237   1.867  0.00  0.00     0.000 A 
ENDROOT
TORSDOF 0
ENDMDL
