MODEL 1
REMARK minimizedAffinity 3.70651484
REMARK minimizedRMSD -1
REMARK  0 active torsions:
REMARK  status: ('A' for Active; 'I' for Inactive)
ROOT
ATOM      1  C1  BNZ d   1      -3.309  -1.074  -5.995  0.00  0.00     0.000 A 
ATOM      2  C2  BNZ d   1      -4.672  -1.200  -5.955  0.00  0.00     0.000 A 
ATOM      3  C3  BNZ d   1      -5.260  -2.433  -5.907  0.00  0.00     0.000 A 
ATOM      4  C4  BNZ d   1      -4.488  -3.538  -5.941  0.00  0.00     0.000 A 
ATOM      5  C5  BNZ d   1      -3.112  -3.428  -5.991  0.00  0.00     0.000 A 
ATOM      6  C6  BNZ d   1      -2.522  -2.185  -5.999  0.00  0.00     0.000 A 
ENDROOT
TORSDOF 0
ENDMDL
