MODEL 1
REMARK minimizedAffinity 5.47392321
REMARK minimizedRMSD -1
REMARK  0 active torsions:
REMARK  status: ('A' for Active; 'I' for Inactive)
ROOT
ATOM      1  C1  BNZ d   1      -0.460   1.558   3.403  0.00  0.00     0.000 A 
ATOM      2  C2  BNZ d   1      -1.816   1.623   3.223  0.00  0.00     0.000 A 
ATOM      3  C3  BNZ d   1      -2.435   0.849   2.281  0.00  0.00     0.000 A 
ATOM      4  C4  BNZ d   1      -1.694   0.043   1.494  0.00  0.00     0.000 A 
ATOM      5  C5  BNZ d   1      -0.324  -0.026   1.656  0.00  0.00     0.000 A 
ATOM      6  C6  BNZ d   1       0.290   0.725   2.632  0.00  0.00     0.000 A 
ENDROOT
TORSDOF 0
ENDMDL
