MODEL 1
REMARK minimizedAffinity 1.65014863
REMARK minimizedRMSD -1
REMARK  0 active torsions:
REMARK  status: ('A' for Active; 'I' for Inactive)
ROOT
ATOM      1  C1  BNZ d   1      -2.165  -0.092   2.865  0.00  0.00     0.000 A 
ATOM      2  C2  BNZ d   1      -0.802  -0.223   2.882  0.00  0.00     0.000 A 
ATOM      3  C3  BNZ d   1       0.006   0.835   2.573  0.00  0.00     0.000 A 
ATOM      4  C4  BNZ d   1      -0.548   2.009   2.209  0.00  0.00     0.000 A 
ATOM      5  C5  BNZ d   1      -1.921   2.154   2.178  0.00  0.00     0.000 A 
ATOM      6  C6  BNZ d   1      -2.731   1.099   2.528  0.00  0.00     0.000 A 
ENDROOT
TORSDOF 0
ENDMDL
