MODEL 1
REMARK minimizedAffinity 1.37298751
REMARK minimizedRMSD -1
REMARK  0 active torsions:
REMARK  status: ('A' for Active; 'I' for Inactive)
ROOT
ATOM      1  C1  BNZ d   1      -5.295   0.301   1.533  0.00  0.00     0.000 A 
ATOM      2  C2  BNZ d   1      -4.060   0.787   1.195  0.00  0.00     0.000 A 
ATOM      3  C3  BNZ d   1      -3.002   0.667   2.053  0.00  0.00     0.000 A 
ATOM      4  C4  BNZ d   1      -3.189   0.098   3.261  0.00  0.00     0.000 A 
ATOM      5  C5  BNZ d   1      -4.431  -0.388   3.620  0.00  0.00     0.000 A 
ATOM      6  C6  BNZ d   1      -5.484  -0.300   2.739  0.00  0.00     0.000 A 
ENDROOT
TORSDOF 0
ENDMDL
