MODEL 1
REMARK minimizedAffinity 1.78004396
REMARK minimizedRMSD -1
REMARK  0 active torsions:
REMARK  status: ('A' for Active; 'I' for Inactive)
ROOT
ATOM      1  C1  BNZ d   1      -1.587   0.528   1.414  0.00  0.00     0.000 A 
ATOM      2  C2  BNZ d   1      -2.137  -0.725   1.360  0.00  0.00     0.000 A 
ATOM      3  C3  BNZ d   1      -3.490  -0.899   1.437  0.00  0.00     0.000 A 
ATOM      4  C4  BNZ d   1      -4.288   0.174   1.609  0.00  0.00     0.000 A 
ATOM      5  C5  BNZ d   1      -3.748   1.443   1.675  0.00  0.00     0.000 A 
ATOM      6  C6  BNZ d   1      -2.389   1.618   1.557  0.00  0.00     0.000 A 
ENDROOT
TORSDOF 0
ENDMDL
