MODEL 1
REMARK minimizedAffinity -0.161016136
REMARK minimizedRMSD -1
REMARK  0 active torsions:
REMARK  status: ('A' for Active; 'I' for Inactive)
ROOT
ATOM      1  C1  BNZ d   1      -1.364   0.237   2.805  0.00  0.00     0.000 A 
ATOM      2  C2  BNZ d   1      -0.102   0.233   3.335  0.00  0.00     0.000 A 
ATOM      3  C3  BNZ d   1       0.473   1.389   3.783  0.00  0.00     0.000 A 
ATOM      4  C4  BNZ d   1      -0.198   2.553   3.663  0.00  0.00     0.000 A 
ATOM      5  C5  BNZ d   1      -1.468   2.575   3.121  0.00  0.00     0.000 A 
ATOM      6  C6  BNZ d   1      -2.059   1.403   2.707  0.00  0.00     0.000 A 
ENDROOT
TORSDOF 0
ENDMDL
