MODEL 1
REMARK minimizedAffinity 0.806293309
REMARK minimizedRMSD -1
REMARK  0 active torsions:
REMARK  status: ('A' for Active; 'I' for Inactive)
ROOT
ATOM      1  C1  BNZ d   1      -4.942   1.566   2.614  0.00  0.00     0.000 A 
ATOM      2  C2  BNZ d   1      -3.659   1.737   3.061  0.00  0.00     0.000 A 
ATOM      3  C3  BNZ d   1      -2.607   1.161   2.405  0.00  0.00     0.000 A 
ATOM      4  C4  BNZ d   1      -2.843   0.383   1.328  0.00  0.00     0.000 A 
ATOM      5  C5  BNZ d   1      -4.132   0.194   0.871  0.00  0.00     0.000 A 
ATOM      6  C6  BNZ d   1      -5.185   0.807   1.511  0.00  0.00     0.000 A 
ENDROOT
TORSDOF 0
ENDMDL
