MODEL 1
REMARK minimizedAffinity -0.954146206
REMARK minimizedRMSD -1
REMARK  0 active torsions:
REMARK  status: ('A' for Active; 'I' for Inactive)
ROOT
ATOM      1  C1  BNZ d   1      -2.736   0.371   3.166  0.00  0.00     0.000 A 
ATOM      2  C2  BNZ d   1      -1.681   0.284   4.034  0.00  0.00     0.000 A 
ATOM      3  C3  BNZ d   1      -0.406   0.106   3.573  0.00  0.00     0.000 A 
ATOM      4  C4  BNZ d   1      -0.194  -0.024   2.248  0.00  0.00     0.000 A 
ATOM      5  C5  BNZ d   1      -1.248   0.052   1.359  0.00  0.00     0.000 A 
ATOM      6  C6  BNZ d   1      -2.524   0.270   1.825  0.00  0.00     0.000 A 
ENDROOT
TORSDOF 0
ENDMDL
