MODEL 1
REMARK minimizedAffinity -2.58384109
REMARK minimizedRMSD -1
REMARK  0 active torsions:
REMARK  status: ('A' for Active; 'I' for Inactive)
ROOT
ATOM      1  C1  BNZ d   1      -2.220  -5.959   0.768  0.00  0.00     0.000 A 
ATOM      2  C2  BNZ d   1      -0.851  -6.000   0.758  0.00  0.00     0.000 A 
ATOM      3  C3  BNZ d   1      -0.117  -4.847   0.721  0.00  0.00     0.000 A 
ATOM      4  C4  BNZ d   1      -0.751  -3.659   0.655  0.00  0.00     0.000 A 
ATOM      5  C5  BNZ d   1      -2.131  -3.602   0.656  0.00  0.00     0.000 A 
ATOM      6  C6  BNZ d   1      -2.866  -4.762   0.732  0.00  0.00     0.000 A 
ENDROOT
TORSDOF 0
ENDMDL
