MODEL 1
REMARK minimizedAffinity 2.93344736
REMARK minimizedRMSD -1
REMARK  0 active torsions:
REMARK  status: ('A' for Active; 'I' for Inactive)
ROOT
ATOM      1  C1  BNZ d   1       2.256   0.368   1.992  0.00  0.00     0.000 A 
ATOM      2  C2  BNZ d   1       3.534   0.001   2.321  0.00  0.00     0.000 A 
ATOM      3  C3  BNZ d   1       4.428  -0.366   1.354  0.00  0.00     0.000 A 
ATOM      4  C4  BNZ d   1       4.032  -0.406   0.066  0.00  0.00     0.000 A 
ATOM      5  C5  BNZ d   1       2.744  -0.048  -0.281  0.00  0.00     0.000 A 
ATOM      6  C6  BNZ d   1       1.859   0.359   0.691  0.00  0.00     0.000 A 
ENDROOT
TORSDOF 0
ENDMDL
