MODEL 1
REMARK minimizedAffinity 4.11317921
REMARK minimizedRMSD -1
REMARK  0 active torsions:
REMARK  status: ('A' for Active; 'I' for Inactive)
ROOT
ATOM      1  C1  BNZ d   1      -4.405   1.668   1.185  0.00  0.00     0.000 A 
ATOM      2  C2  BNZ d   1      -5.077   0.701   0.486  0.00  0.00     0.000 A 
ATOM      3  C3  BNZ d   1      -4.527  -0.537   0.297  0.00  0.00     0.000 A 
ATOM      4  C4  BNZ d   1      -3.291  -0.792   0.773  0.00  0.00     0.000 A 
ATOM      5  C5  BNZ d   1      -2.597   0.175   1.472  0.00  0.00     0.000 A 
ATOM      6  C6  BNZ d   1      -3.170   1.407   1.693  0.00  0.00     0.000 A 
ENDROOT
TORSDOF 0
ENDMDL
