MODEL 1
REMARK minimizedAffinity 0.808656633
REMARK minimizedRMSD -1
REMARK  0 active torsions:
REMARK  status: ('A' for Active; 'I' for Inactive)
ROOT
ATOM      1  C1  BNZ d   1      -4.055   0.896   2.977  0.00  0.00     0.000 A 
ATOM      2  C2  BNZ d   1      -2.696   0.896   3.146  0.00  0.00     0.000 A 
ATOM      3  C3  BNZ d   1      -1.872   0.376   2.188  0.00  0.00     0.000 A 
ATOM      4  C4  BNZ d   1      -2.408  -0.179   1.082  0.00  0.00     0.000 A 
ATOM      5  C5  BNZ d   1      -3.776  -0.195   0.901  0.00  0.00     0.000 A 
ATOM      6  C6  BNZ d   1      -4.601   0.365   1.849  0.00  0.00     0.000 A 
ENDROOT
TORSDOF 0
ENDMDL
