MODEL 1
REMARK minimizedAffinity 13.5638113
REMARK minimizedRMSD -1
REMARK  1 active torsions:
REMARK  status: ('A' for Active; 'I' for Inactive)
REMARK    1  A    between atoms: N_2  and  C1_3 
ROOT
ATOM      1  C1  UNL d   1       3.839   2.403   0.999  0.00  0.00     0.143 A 
ATOM      2  C2  UNL d   1       2.485   2.424   0.645  0.00  0.00    -0.057 A 
ATOM      3  C3  UNL d   1       1.499   2.790   1.569  0.00  0.00     0.033 A 
ATOM      4  C4  UNL d   1       1.848   3.115   2.876  0.00  0.00    -0.042 A 
ATOM      5  C5  UNL d   1       3.185   3.077   3.256  0.00  0.00     0.033 A 
ATOM      6  C6  UNL d   1       4.166   2.717   2.327  0.00  0.00    -0.057 A 
ENDROOT
BRANCH   1   7
ATOM      7  N   UNL d   1       4.857   1.953   0.154  0.00  0.00    -0.732 N 
ATOM      8  C   UNL d   1       5.022   0.540  -0.113  0.00  0.00     0.284 C 
ATOM      9  H3  UNL d   1       4.974   2.547  -0.663  0.00  0.00     0.395 HD
ENDBRANCH   1   7
TORSDOF 1
ENDMDL
