MODEL 1
REMARK minimizedAffinity -2.29467297
REMARK minimizedRMSD -1
REMARK  1 active torsions:
REMARK  status: ('A' for Active; 'I' for Inactive)
REMARK    1  A    between atoms: N_2  and  C1_3 
ROOT
ATOM      1  C1  UNL d   1       3.564   3.674  -5.893  0.00  0.00     0.143 A 
ATOM      2  C2  UNL d   1       3.495   2.278  -5.834  0.00  0.00    -0.057 A 
ATOM      3  C3  UNL d   1       4.655   1.493  -5.830  0.00  0.00     0.033 A 
ATOM      4  C4  UNL d   1       5.907   2.092  -5.915  0.00  0.00    -0.042 A 
ATOM      5  C5  UNL d   1       5.999   3.476  -6.000  0.00  0.00     0.033 A 
ATOM      6  C6  UNL d   1       4.838   4.255  -5.997  0.00  0.00    -0.057 A 
ENDROOT
BRANCH   1   7
ATOM      7  N   UNL d   1       2.446   4.505  -6.000  0.00  0.00    -0.732 N 
ATOM      8  C   UNL d   1       2.593   5.944  -5.989  0.00  0.00     0.284 C 
ATOM      9  H3  UNL d   1       1.770   4.161  -6.678  0.00  0.00     0.395 HD
ENDBRANCH   1   7
TORSDOF 1
ENDMDL
