MODEL 1
REMARK minimizedAffinity 5.9267869
REMARK minimizedRMSD -1
REMARK  1 active torsions:
REMARK  status: ('A' for Active; 'I' for Inactive)
REMARK    1  A    between atoms: N_2  and  C1_3 
ROOT
ATOM      1  C1  UNL d   1       3.622  -2.720   2.365  0.00  0.00     0.143 A 
ATOM      2  C2  UNL d   1       3.554  -3.321   1.103  0.00  0.00    -0.057 A 
ATOM      3  C3  UNL d   1       2.606  -2.916   0.156  0.00  0.00     0.033 A 
ATOM      4  C4  UNL d   1       1.686  -1.920   0.466  0.00  0.00    -0.042 A 
ATOM      5  C5  UNL d   1       1.718  -1.327   1.723  0.00  0.00     0.033 A 
ATOM      6  C6  UNL d   1       2.672  -1.731   2.662  0.00  0.00    -0.057 A 
ENDROOT
BRANCH   1   7
ATOM      7  N   UNL d   1       4.477  -3.146   3.384  0.00  0.00    -0.732 N 
ATOM      8  C   UNL d   1       4.972  -2.209   4.370  0.00  0.00     0.284 C 
ATOM      9  H3  UNL d   1       4.206  -4.049   3.767  0.00  0.00     0.395 HD
ENDBRANCH   1   7
TORSDOF 1
ENDMDL
