MODEL 1
REMARK minimizedAffinity 5.35242414
REMARK minimizedRMSD -1
REMARK  1 active torsions:
REMARK  status: ('A' for Active; 'I' for Inactive)
REMARK    1  A    between atoms: N_2  and  C1_3 
ROOT
ATOM      1  C1  UNL d   1       4.525  -4.229   3.402  0.00  0.00     0.143 A 
ATOM      2  C2  UNL d   1       4.555  -5.583   3.753  0.00  0.00    -0.057 A 
ATOM      3  C3  UNL d   1       4.932  -5.992   5.038  0.00  0.00     0.033 A 
ATOM      4  C4  UNL d   1       5.314  -5.053   5.990  0.00  0.00    -0.042 A 
ATOM      5  C5  UNL d   1       5.316  -3.703   5.656  0.00  0.00     0.033 A 
ATOM      6  C6  UNL d   1       4.932  -3.300   4.373  0.00  0.00    -0.057 A 
ENDROOT
BRANCH   1   7
ATOM      7  N   UNL d   1       4.254  -3.766   2.113  0.00  0.00    -0.732 N 
ATOM      8  C   UNL d   1       2.921  -3.337   1.748  0.00  0.00     0.284 C 
ATOM      9  H3  UNL d   1       4.996  -3.171   1.750  0.00  0.00     0.395 HD
ENDBRANCH   1   7
TORSDOF 1
ENDMDL
