MODEL 1
REMARK minimizedAffinity 10.0104113
REMARK minimizedRMSD -1
REMARK  1 active torsions:
REMARK  status: ('A' for Active; 'I' for Inactive)
REMARK    1  A    between atoms: N_2  and  C1_3 
ROOT
ATOM      1  C1  UNL d   1       5.017  -4.290   3.576  0.00  0.00     0.143 A 
ATOM      2  C2  UNL d   1       4.897  -4.965   4.796  0.00  0.00    -0.057 A 
ATOM      3  C3  UNL d   1       5.291  -4.367   5.999  0.00  0.00     0.033 A 
ATOM      4  C4  UNL d   1       5.842  -3.090   6.000  0.00  0.00    -0.042 A 
ATOM      5  C5  UNL d   1       5.995  -2.410   4.797  0.00  0.00     0.033 A 
ATOM      6  C6  UNL d   1       5.593  -3.010   3.599  0.00  0.00    -0.057 A 
ENDROOT
BRANCH   1   7
ATOM      7  N   UNL d   1       4.734  -4.868   2.336  0.00  0.00    -0.732 N 
ATOM      8  C   UNL d   1       3.835  -5.998   2.237  0.00  0.00     0.284 C 
ATOM      9  H3  UNL d   1       4.612  -4.174   1.603  0.00  0.00     0.395 HD
ENDBRANCH   1   7
TORSDOF 1
ENDMDL
