MODEL 1
REMARK minimizedAffinity -1.24615669
REMARK minimizedRMSD -1
REMARK  1 active torsions:
REMARK  status: ('A' for Active; 'I' for Inactive)
REMARK    1  A    between atoms: N_2  and  C1_3 
ROOT
ATOM      1  C1  UNL d   1       3.197   3.582  -5.998  0.00  0.00     0.143 A 
ATOM      2  C2  UNL d   1       4.071   4.674  -5.993  0.00  0.00    -0.057 A 
ATOM      3  C3  UNL d   1       5.460   4.493  -5.999  0.00  0.00     0.033 A 
ATOM      4  C4  UNL d   1       6.000   3.212  -5.981  0.00  0.00    -0.042 A 
ATOM      5  C5  UNL d   1       5.150   2.111  -5.961  0.00  0.00     0.033 A 
ATOM      6  C6  UNL d   1       3.764   2.299  -5.962  0.00  0.00    -0.057 A 
ENDROOT
BRANCH   1   7
ATOM      7  N   UNL d   1       1.809   3.697  -5.893  0.00  0.00    -0.732 N 
ATOM      8  C   UNL d   1       1.170   4.994  -5.950  0.00  0.00     0.284 C 
ATOM      9  H3  UNL d   1       1.319   2.969  -6.408  0.00  0.00     0.395 HD
ENDBRANCH   1   7
TORSDOF 1
ENDMDL
