MODEL 1
REMARK minimizedAffinity 3.5834136
REMARK minimizedRMSD -1
REMARK  1 active torsions:
REMARK  status: ('A' for Active; 'I' for Inactive)
REMARK    1  A    between atoms: N_2  and  C1_3 
ROOT
ATOM      1  C1  UNL d   1       3.571   4.343  -5.897  0.00  0.00     0.143 A 
ATOM      2  C2  UNL d   1       4.903   3.952  -5.725  0.00  0.00    -0.057 A 
ATOM      3  C3  UNL d   1       5.266   2.600  -5.704  0.00  0.00     0.033 A 
ATOM      4  C4  UNL d   1       4.296   1.611  -5.826  0.00  0.00    -0.042 A 
ATOM      5  C5  UNL d   1       2.962   1.976  -5.973  0.00  0.00     0.033 A 
ATOM      6  C6  UNL d   1       2.607   3.328  -6.000  0.00  0.00    -0.057 A 
ENDROOT
BRANCH   1   7
ATOM      7  N   UNL d   1       3.134   5.668  -5.828  0.00  0.00    -0.732 N 
ATOM      8  C   UNL d   1       1.734   5.992  -5.997  0.00  0.00     0.284 C 
ATOM      9  H3  UNL d   1       3.595   6.191  -5.087  0.00  0.00     0.395 HD
ENDBRANCH   1   7
TORSDOF 1
ENDMDL
