MODEL 1
REMARK minimizedAffinity 0.567767084
REMARK minimizedRMSD -1
REMARK  1 active torsions:
REMARK  status: ('A' for Active; 'I' for Inactive)
REMARK    1  A    between atoms: N_2  and  C1_3 
ROOT
ATOM      1  C1  UNL d   1       3.978  -3.756   2.603  0.00  0.00     0.143 A 
ATOM      2  C2  UNL d   1       2.742  -3.117   2.452  0.00  0.00    -0.057 A 
ATOM      3  C3  UNL d   1       2.221  -2.835   1.184  0.00  0.00     0.033 A 
ATOM      4  C4  UNL d   1       2.941  -3.163   0.040  0.00  0.00    -0.042 A 
ATOM      5  C5  UNL d   1       4.182  -3.776   0.166  0.00  0.00     0.033 A 
ATOM      6  C6  UNL d   1       4.695  -4.061   1.435  0.00  0.00    -0.057 A 
ENDROOT
BRANCH   1   7
ATOM      7  N   UNL d   1       4.595  -3.975   3.837  0.00  0.00    -0.732 N 
ATOM      8  C   UNL d   1       4.919  -2.865   4.706  0.00  0.00     0.284 C 
ATOM      9  H3  UNL d   1       4.218  -4.786   4.321  0.00  0.00     0.395 HD
ENDBRANCH   1   7
TORSDOF 1
ENDMDL
