MODEL 1
REMARK minimizedAffinity 2.54413605
REMARK minimizedRMSD -1
REMARK  1 active torsions:
REMARK  status: ('A' for Active; 'I' for Inactive)
REMARK    1  A    between atoms: N_2  and  C1_3 
ROOT
ATOM      1  C1  UNL d   1       2.995   2.259  -5.923  0.00  0.00     0.143 A 
ATOM      2  C2  UNL d   1       3.441   3.584  -5.971  0.00  0.00    -0.057 A 
ATOM      3  C3  UNL d   1       2.538   4.654  -5.993  0.00  0.00     0.033 A 
ATOM      4  C4  UNL d   1       1.167   4.415  -5.997  0.00  0.00    -0.042 A 
ATOM      5  C5  UNL d   1       0.702   3.105  -5.975  0.00  0.00     0.033 A 
ATOM      6  C6  UNL d   1       1.609   2.042  -5.947  0.00  0.00    -0.057 A 
ENDROOT
BRANCH   1   7
ATOM      7  N   UNL d   1       3.842   1.151  -5.999  0.00  0.00    -0.732 N 
ATOM      8  C   UNL d   1       5.279   1.319  -5.995  0.00  0.00     0.284 C 
ATOM      9  H3  UNL d   1       3.513   0.371  -5.433  0.00  0.00     0.395 HD
ENDBRANCH   1   7
TORSDOF 1
ENDMDL
