MODEL 1
REMARK minimizedAffinity 3.39453387
REMARK minimizedRMSD -1
REMARK  1 active torsions:
REMARK  status: ('A' for Active; 'I' for Inactive)
REMARK    1  A    between atoms: N_2  and  C1_3 
ROOT
ATOM      1  C1  UNL d   1      -4.214   3.183  -3.489  0.00  0.00     0.143 A 
ATOM      2  C2  UNL d   1      -4.884   3.972  -4.430  0.00  0.00    -0.057 A 
ATOM      3  C3  UNL d   1      -5.778   3.406  -5.347  0.00  0.00     0.033 A 
ATOM      4  C4  UNL d   1      -5.996   2.033  -5.358  0.00  0.00    -0.042 A 
ATOM      5  C5  UNL d   1      -5.322   1.226  -4.449  0.00  0.00     0.033 A 
ATOM      6  C6  UNL d   1      -4.435   1.797  -3.531  0.00  0.00    -0.057 A 
ENDROOT
BRANCH   1   7
ATOM      7  N   UNL d   1      -3.239   3.672  -2.617  0.00  0.00    -0.732 N 
ATOM      8  C   UNL d   1      -1.914   3.090  -2.590  0.00  0.00     0.284 C 
ATOM      9  H3  UNL d   1      -3.248   4.688  -2.554  0.00  0.00     0.395 HD
ENDBRANCH   1   7
TORSDOF 1
ENDMDL
