MODEL 1
REMARK minimizedAffinity -2.14933109
REMARK minimizedRMSD -1
REMARK  0 active torsions:
REMARK  status: ('A' for Active; 'I' for Inactive)
ROOT
ATOM      1  N1  IND d   1      -0.803   0.919   1.855  0.00  0.00    -0.196 N 
ATOM      2  C2  IND d   1      -1.978   0.737   1.181  0.00  0.00     0.054 A 
ATOM      3  C3  IND d   1      -1.825  -0.194   0.213  0.00  0.00    -0.031 A 
ATOM      4  C4  IND d   1       0.235  -1.621  -0.374  0.00  0.00     0.051 A 
ATOM      5  C5  IND d   1       1.555  -1.787  -0.060  0.00  0.00    -0.031 A 
ATOM      6  C6  IND d   1       2.168  -1.047   0.930  0.00  0.00     0.015 A 
ATOM      7  C7  IND d   1       1.478  -0.117   1.654  0.00  0.00    -0.016 A 
ATOM      8  C8  IND d   1       0.140   0.060   1.334  0.00  0.00    -0.047 A 
ATOM      9  C9  IND d   1      -0.477  -0.658   0.301  0.00  0.00    -0.096 A 
ATOM     10  HN1 IND d   1      -0.674   1.476   2.497  0.00  0.00     0.298 HD
ENDROOT
TORSDOF 0
ENDMDL
