MODEL 1
REMARK minimizedAffinity 13.2995338
REMARK minimizedRMSD -1
REMARK  0 active torsions:
REMARK  status: ('A' for Active; 'I' for Inactive)
ROOT
ATOM      1  N1  IND d   1       0.415  -0.209   2.034  0.00  0.00    -0.196 N 
ATOM      2  C2  IND d   1       1.709  -0.220   2.475  0.00  0.00     0.054 A 
ATOM      3  C3  IND d   1       2.357  -1.309   2.004  0.00  0.00    -0.031 A 
ATOM      4  C4  IND d   1       1.518  -3.150   0.412  0.00  0.00     0.051 A 
ATOM      5  C5  IND d   1       0.395  -3.590  -0.230  0.00  0.00    -0.031 A 
ATOM      6  C6  IND d   1      -0.803  -2.909  -0.150  0.00  0.00     0.015 A 
ATOM      7  C7  IND d   1      -0.919  -1.753   0.568  0.00  0.00    -0.016 A 
ATOM      8  C8  IND d   1       0.218  -1.308   1.227  0.00  0.00    -0.047 A 
ATOM      9  C9  IND d   1       1.425  -2.017   1.185  0.00  0.00    -0.096 A 
ATOM     10  HN1 IND d   1      -0.176   0.384   2.229  0.00  0.00     0.298 HD
ENDROOT
TORSDOF 0
ENDMDL
