MODEL 1
REMARK minimizedAffinity 4.315166
REMARK minimizedRMSD -1
REMARK  0 active torsions:
REMARK  status: ('A' for Active; 'I' for Inactive)
ROOT
ATOM      1  N1  IND d   1       2.145  -2.167  -0.469  0.00  0.00    -0.196 N 
ATOM      2  C2  IND d   1       2.985  -1.143  -0.131  0.00  0.00     0.054 A 
ATOM      3  C3  IND d   1       2.335  -0.230   0.624  0.00  0.00    -0.031 A 
ATOM      4  C4  IND d   1      -0.082  -0.265   1.511  0.00  0.00     0.051 A 
ATOM      5  C5  IND d   1      -1.246  -0.977   1.438  0.00  0.00    -0.031 A 
ATOM      6  C6  IND d   1      -1.341  -2.147   0.713  0.00  0.00     0.015 A 
ATOM      7  C7  IND d   1      -0.267  -2.657   0.040  0.00  0.00    -0.016 A 
ATOM      8  C8  IND d   1       0.915  -1.933   0.106  0.00  0.00    -0.047 A 
ATOM      9  C9  IND d   1       1.006  -0.723   0.806  0.00  0.00    -0.096 A 
ATOM     10  HN1 IND d   1       2.350  -2.844  -0.959  0.00  0.00     0.298 HD
ENDROOT
TORSDOF 0
ENDMDL
