MODEL 1
REMARK minimizedAffinity -2.15342355
REMARK minimizedRMSD -1
REMARK  0 active torsions:
REMARK  status: ('A' for Active; 'I' for Inactive)
ROOT
ATOM      1  N1  IND d   1      -1.175   1.196   1.882  0.00  0.00    -0.196 N 
ATOM      2  C2  IND d   1      -2.504   1.011   1.622  0.00  0.00     0.054 A 
ATOM      3  C3  IND d   1      -2.687  -0.098   0.871  0.00  0.00    -0.031 A 
ATOM      4  C4  IND d   1      -0.957  -1.814   0.041  0.00  0.00     0.051 A 
ATOM      5  C5  IND d   1       0.387  -2.053  -0.004  0.00  0.00    -0.031 A 
ATOM      6  C6  IND d   1       1.299  -1.205   0.592  0.00  0.00     0.015 A 
ATOM      7  C7  IND d   1       0.896  -0.088   1.268  0.00  0.00    -0.016 A 
ATOM      8  C8  IND d   1      -0.469   0.162   1.309  0.00  0.00    -0.047 A 
ATOM      9  C9  IND d   1      -1.395  -0.673   0.670  0.00  0.00    -0.096 A 
ATOM     10  HN1 IND d   1      -0.837   1.849   2.327  0.00  0.00     0.298 HD
ENDROOT
TORSDOF 0
ENDMDL
