MODEL 1
REMARK minimizedAffinity 4.00521898
REMARK minimizedRMSD -1
REMARK  0 active torsions:
REMARK  status: ('A' for Active; 'I' for Inactive)
ROOT
ATOM      1  N1  IND d   1       1.381  -2.633   0.259  0.00  0.00    -0.196 N 
ATOM      2  C2  IND d   1       0.651  -3.501  -0.504  0.00  0.00     0.054 A 
ATOM      3  C3  IND d   1      -0.663  -3.188  -0.444  0.00  0.00    -0.031 A 
ATOM      4  C4  IND d   1      -1.826  -1.233   0.760  0.00  0.00     0.051 A 
ATOM      5  C5  IND d   1      -1.580  -0.195   1.614  0.00  0.00    -0.031 A 
ATOM      6  C6  IND d   1      -0.308   0.091   2.067  0.00  0.00     0.015 A 
ATOM      7  C7  IND d   1       0.771  -0.647   1.672  0.00  0.00    -0.016 A 
ATOM      8  C8  IND d   1       0.524  -1.706   0.811  0.00  0.00    -0.047 A 
ATOM      9  C9  IND d   1      -0.770  -2.027   0.381  0.00  0.00    -0.096 A 
ATOM     10  HN1 IND d   1       2.233  -2.662   0.375  0.00  0.00     0.298 HD
ENDROOT
TORSDOF 0
ENDMDL
