MODEL 1
REMARK minimizedAffinity 8.32469749
REMARK minimizedRMSD -1
REMARK  0 active torsions:
REMARK  status: ('A' for Active; 'I' for Inactive)
ROOT
ATOM      1  N1  IND d   1       2.087  -3.298  -0.145  0.00  0.00    -0.196 N 
ATOM      2  C2  IND d   1       1.460  -4.110  -1.048  0.00  0.00     0.054 A 
ATOM      3  C3  IND d   1       0.129  -3.873  -1.047  0.00  0.00    -0.031 A 
ATOM      4  C4  IND d   1      -1.222  -2.129   0.279  0.00  0.00     0.051 A 
ATOM      5  C5  IND d   1      -1.093  -1.183   1.258  0.00  0.00    -0.031 A 
ATOM      6  C6  IND d   1       0.127  -0.886   1.828  0.00  0.00     0.015 A 
ATOM      7  C7  IND d   1       1.272  -1.519   1.432  0.00  0.00    -0.016 A 
ATOM      8  C8  IND d   1       1.144  -2.484   0.444  0.00  0.00    -0.047 A 
ATOM      9  C9  IND d   1      -0.099  -2.820  -0.109  0.00  0.00    -0.096 A 
ATOM     10  HN1 IND d   1       2.930  -3.295   0.027  0.00  0.00     0.298 HD
ENDROOT
TORSDOF 0
ENDMDL
