MODEL 1
REMARK minimizedAffinity 2.88905239
REMARK minimizedRMSD -1
REMARK  0 active torsions:
REMARK  status: ('A' for Active; 'I' for Inactive)
ROOT
ATOM      1  N1  IND d   1      -0.974  -2.624   0.038  0.00  0.00    -0.196 N 
ATOM      2  C2  IND d   1      -0.158  -3.460  -0.672  0.00  0.00     0.054 A 
ATOM      3  C3  IND d   1       1.107  -2.985  -0.682  0.00  0.00    -0.031 A 
ATOM      4  C4  IND d   1       2.086  -0.910   0.486  0.00  0.00     0.051 A 
ATOM      5  C5  IND d   1       1.723   0.184   1.221  0.00  0.00    -0.031 A 
ATOM      6  C6  IND d   1       0.417   0.401   1.609  0.00  0.00     0.015 A 
ATOM      7  C7  IND d   1      -0.578  -0.478   1.285  0.00  0.00    -0.016 A 
ATOM      8  C8  IND d   1      -0.214  -1.586   0.533  0.00  0.00    -0.047 A 
ATOM      9  C9  IND d   1       1.102  -1.790   0.100  0.00  0.00    -0.096 A 
ATOM     10  HN1 IND d   1      -1.819  -2.728   0.156  0.00  0.00     0.298 HD
ENDROOT
TORSDOF 0
ENDMDL
