MODEL 1
REMARK minimizedAffinity -3.08911777
REMARK minimizedRMSD -1
REMARK  0 active torsions:
REMARK  status: ('A' for Active; 'I' for Inactive)
ROOT
ATOM      1  N1  IND d   1       2.929  -2.275   0.014  0.00  0.00    -0.196 N 
ATOM      2  C2  IND d   1       2.681  -3.541  -0.439  0.00  0.00     0.054 A 
ATOM      3  C3  IND d   1       1.349  -3.766  -0.498  0.00  0.00    -0.031 A 
ATOM      4  C4  IND d   1      -0.604  -2.166   0.004  0.00  0.00     0.051 A 
ATOM      5  C5  IND d   1      -0.877  -0.916   0.484  0.00  0.00    -0.031 A 
ATOM      6  C6  IND d   1       0.126  -0.036   0.836  0.00  0.00     0.015 A 
ATOM      7  C7  IND d   1       1.445  -0.371   0.711  0.00  0.00    -0.016 A 
ATOM      8  C8  IND d   1       1.725  -1.642   0.230  0.00  0.00    -0.047 A 
ATOM      9  C9  IND d   1       0.711  -2.555  -0.089  0.00  0.00    -0.096 A 
ATOM     10  HN1 IND d   1       3.707  -1.932   0.143  0.00  0.00     0.298 HD
ENDROOT
TORSDOF 0
ENDMDL
