MODEL 1
REMARK minimizedAffinity 4.70809031
REMARK minimizedRMSD -1
REMARK  0 active torsions:
REMARK  status: ('A' for Active; 'I' for Inactive)
ROOT
ATOM      1  N1  IND d   1       2.060  -0.146   2.658  0.00  0.00    -0.196 N 
ATOM      2  C2  IND d   1       3.330  -0.405   2.223  0.00  0.00     0.054 A 
ATOM      3  C3  IND d   1       3.297  -1.072   1.048  0.00  0.00    -0.031 A 
ATOM      4  C4  IND d   1       1.274  -1.753  -0.391  0.00  0.00     0.051 A 
ATOM      5  C5  IND d   1      -0.093  -1.766  -0.390  0.00  0.00    -0.031 A 
ATOM      6  C6  IND d   1      -0.827  -1.226   0.646  0.00  0.00     0.015 A 
ATOM      7  C7  IND d   1      -0.218  -0.641   1.720  0.00  0.00    -0.016 A 
ATOM      8  C8  IND d   1       1.169  -0.632   1.726  0.00  0.00    -0.047 A 
ATOM      9  C9  IND d   1       1.919  -1.216   0.698  0.00  0.00    -0.096 A 
ATOM     10  HN1 IND d   1       1.852   0.253   3.391  0.00  0.00     0.298 HD
ENDROOT
TORSDOF 0
ENDMDL
