MODEL 1
REMARK minimizedAffinity 1.69423473
REMARK minimizedRMSD -1
REMARK  0 active torsions:
REMARK  status: ('A' for Active; 'I' for Inactive)
ROOT
ATOM      1  N1  IND d   1       1.305  -0.344   1.083  0.00  0.00    -0.196 N 
ATOM      2  C2  IND d   1      -0.051  -0.427   1.242  0.00  0.00     0.054 A 
ATOM      3  C3  IND d   1      -0.524  -1.552   0.662  0.00  0.00    -0.031 A 
ATOM      4  C4  IND d   1       0.758  -3.450  -0.513  0.00  0.00     0.051 A 
ATOM      5  C5  IND d   1       2.008  -3.805  -0.935  0.00  0.00    -0.031 A 
ATOM      6  C6  IND d   1       3.111  -3.010  -0.699  0.00  0.00     0.015 A 
ATOM      7  C7  IND d   1       3.005  -1.830  -0.019  0.00  0.00    -0.016 A 
ATOM      8  C8  IND d   1       1.736  -1.463   0.405  0.00  0.00    -0.047 A 
ATOM      9  C9  IND d   1       0.607  -2.245   0.131  0.00  0.00    -0.096 A 
ATOM     10  HN1 IND d   1       1.804   0.299   1.360  0.00  0.00     0.298 HD
ENDROOT
TORSDOF 0
ENDMDL
