MODEL 1
REMARK minimizedAffinity 7.56792259
REMARK minimizedRMSD -1
REMARK  0 active torsions:
REMARK  status: ('A' for Active; 'I' for Inactive)
ROOT
ATOM      1  N1  IND d   1       2.466  -3.209  -0.222  0.00  0.00    -0.196 N 
ATOM      2  C2  IND d   1       1.653  -4.076  -0.897  0.00  0.00     0.054 A 
ATOM      3  C3  IND d   1       0.356  -3.737  -0.724  0.00  0.00    -0.031 A 
ATOM      4  C4  IND d   1      -0.656  -1.737   0.544  0.00  0.00     0.051 A 
ATOM      5  C5  IND d   1      -0.314  -0.689   1.351  0.00  0.00    -0.031 A 
ATOM      6  C6  IND d   1       0.999  -0.420   1.679  0.00  0.00     0.015 A 
ATOM      7  C7  IND d   1       2.024  -1.186   1.201  0.00  0.00    -0.016 A 
ATOM      8  C8  IND d   1       1.680  -2.256   0.387  0.00  0.00    -0.047 A 
ATOM      9  C9  IND d   1       0.346  -2.559   0.085  0.00  0.00    -0.096 A 
ATOM     10  HN1 IND d   1       3.324  -3.252  -0.185  0.00  0.00     0.298 HD
ENDROOT
TORSDOF 0
ENDMDL
