MODEL 1
REMARK minimizedAffinity 2.40347242
REMARK minimizedRMSD -1
REMARK  0 active torsions:
REMARK  status: ('A' for Active; 'I' for Inactive)
ROOT
ATOM      1  N1  IND d   1       0.143  -1.142   2.501  0.00  0.00    -0.196 N 
ATOM      2  C2  IND d   1       0.417  -1.631   1.254  0.00  0.00     0.054 A 
ATOM      3  C3  IND d   1      -0.484  -1.168   0.359  0.00  0.00    -0.031 A 
ATOM      4  C4  IND d   1      -2.429   0.484   0.702  0.00  0.00     0.051 A 
ATOM      5  C5  IND d   1      -3.097   1.175   1.673  0.00  0.00    -0.031 A 
ATOM      6  C6  IND d   1      -2.709   1.131   2.997  0.00  0.00     0.015 A 
ATOM      7  C7  IND d   1      -1.627   0.399   3.398  0.00  0.00    -0.016 A 
ATOM      8  C8  IND d   1      -0.951  -0.310   2.415  0.00  0.00    -0.047 A 
ATOM      9  C9  IND d   1      -1.365  -0.302   1.077  0.00  0.00    -0.096 A 
ATOM     10  HN1 IND d   1       0.582  -1.323   3.218  0.00  0.00     0.298 HD
ENDROOT
TORSDOF 0
ENDMDL
