MODEL 1
REMARK minimizedAffinity 13.3087749
REMARK minimizedRMSD -1
REMARK  0 active torsions:
REMARK  status: ('A' for Active; 'I' for Inactive)
ROOT
ATOM      1  N1  IND d   1       5.240  -4.631  -0.456  0.00  0.00    -0.196 N 
ATOM      2  C2  IND d   1       4.823  -5.922  -0.627  0.00  0.00     0.054 A 
ATOM      3  C3  IND d   1       3.476  -5.998  -0.529  0.00  0.00    -0.031 A 
ATOM      4  C4  IND d   1       1.752  -4.116  -0.193  0.00  0.00     0.051 A 
ATOM      5  C5  IND d   1       1.656  -2.774   0.051  0.00  0.00    -0.031 A 
ATOM      6  C6  IND d   1       2.771  -1.967   0.137  0.00  0.00     0.015 A 
ATOM      7  C7  IND d   1       4.030  -2.471  -0.030  0.00  0.00    -0.016 A 
ATOM      8  C8  IND d   1       4.132  -3.833  -0.270  0.00  0.00    -0.047 A 
ATOM      9  C9  IND d   1       3.006  -4.665  -0.316  0.00  0.00    -0.096 A 
ATOM     10  HN1 IND d   1       6.057  -4.363  -0.464  0.00  0.00     0.298 HD
ENDROOT
TORSDOF 0
ENDMDL
