MODEL 1
REMARK minimizedAffinity -1.7040062
REMARK minimizedRMSD -1
REMARK  0 active torsions:
REMARK  status: ('A' for Active; 'I' for Inactive)
ROOT
ATOM      1  N1  IND d   1      -0.523   0.318   1.675  0.00  0.00    -0.196 N 
ATOM      2  C2  IND d   1      -1.876   0.187   1.529  0.00  0.00     0.054 A 
ATOM      3  C3  IND d   1      -2.167  -0.908   0.793  0.00  0.00    -0.031 A 
ATOM      4  C4  IND d   1      -0.584  -2.686  -0.189  0.00  0.00     0.051 A 
ATOM      5  C5  IND d   1       0.741  -2.978  -0.350  0.00  0.00    -0.031 A 
ATOM      6  C6  IND d   1       1.733  -2.171   0.169  0.00  0.00     0.015 A 
ATOM      7  C7  IND d   1       1.435  -1.043   0.881  0.00  0.00    -0.016 A 
ATOM      8  C8  IND d   1       0.090  -0.740   1.040  0.00  0.00    -0.047 A 
ATOM      9  C9  IND d   1      -0.920  -1.533   0.479  0.00  0.00    -0.096 A 
ATOM     10  HN1 IND d   1      -0.122   0.953   2.092  0.00  0.00     0.298 HD
ENDROOT
TORSDOF 0
ENDMDL
