MODEL 1
REMARK minimizedAffinity 14.6635351
REMARK minimizedRMSD -1
REMARK  0 active torsions:
REMARK  status: ('A' for Active; 'I' for Inactive)
ROOT
ATOM      1  C   UNL d   1       0.575  -2.088   6.000  0.00  0.00    -0.002 A 
ATOM      2  C1  UNL d   1      -0.105  -1.871   4.810  0.00  0.00     0.010 A 
ATOM      3  C2  UNL d   1       0.585  -1.819   3.597  0.00  0.00     0.041 A 
ATOM      4  C3  UNL d   1       1.983  -1.993   3.600  0.00  0.00    -0.075 A 
ATOM      5  S   UNL d   1       3.036  -1.971   2.235  0.00  0.00     0.015 SA
ATOM      6  C4  UNL d   1       4.413  -2.249   3.199  0.00  0.00     0.022 A 
ATOM      7  C5  UNL d   1       4.096  -2.359   4.532  0.00  0.00     0.026 A 
ATOM      8  C6  UNL d   1       2.690  -2.214   4.785  0.00  0.00    -0.082 A 
ATOM      9  C7  UNL d   1       1.962  -2.260   5.999  0.00  0.00     0.045 A 
ENDROOT
TORSDOF 0
ENDMDL
