MODEL 1
REMARK minimizedAffinity 24.5783043
REMARK minimizedRMSD -1
REMARK  0 active torsions:
REMARK  status: ('A' for Active; 'I' for Inactive)
ROOT
ATOM      1  C   UNL d   1      -2.426  -3.268  -0.101  0.00  0.00    -0.002 A 
ATOM      2  C1  UNL d   1      -1.130  -3.363  -0.588  0.00  0.00     0.010 A 
ATOM      3  C2  UNL d   1      -0.671  -2.475  -1.562  0.00  0.00     0.041 A 
ATOM      4  C3  UNL d   1      -1.543  -1.478  -2.041  0.00  0.00    -0.075 A 
ATOM      5  S   UNL d   1      -1.198  -0.279  -3.232  0.00  0.00     0.015 SA
ATOM      6  C4  UNL d   1      -2.762   0.388  -3.121  0.00  0.00     0.022 A 
ATOM      7  C5  UNL d   1      -3.542  -0.275  -2.203  0.00  0.00     0.026 A 
ATOM      8  C6  UNL d   1      -2.852  -1.361  -1.565  0.00  0.00    -0.082 A 
ATOM      9  C7  UNL d   1      -3.288  -2.277  -0.578  0.00  0.00     0.045 A 
ENDROOT
TORSDOF 0
ENDMDL
