MODEL 1
REMARK minimizedAffinity 15.0649843
REMARK minimizedRMSD -1
REMARK  0 active torsions:
REMARK  status: ('A' for Active; 'I' for Inactive)
ROOT
ATOM      1  C   UNL d   1      -5.560  -2.670  -0.053  0.00  0.00    -0.002 A 
ATOM      2  C1  UNL d   1      -5.062  -1.730  -0.945  0.00  0.00     0.010 A 
ATOM      3  C2  UNL d   1      -3.687  -1.609  -1.155  0.00  0.00     0.041 A 
ATOM      4  C3  UNL d   1      -2.813  -2.458  -0.449  0.00  0.00    -0.075 A 
ATOM      5  S   UNL d   1      -1.092  -2.492  -0.547  0.00  0.00     0.015 SA
ATOM      6  C4  UNL d   1      -0.977  -3.755   0.591  0.00  0.00     0.022 A 
ATOM      7  C5  UNL d   1      -2.212  -4.154   1.045  0.00  0.00     0.026 A 
ATOM      8  C6  UNL d   1      -3.290  -3.413   0.453  0.00  0.00    -0.082 A 
ATOM      9  C7  UNL d   1      -4.689  -3.511   0.645  0.00  0.00     0.045 A 
ENDROOT
TORSDOF 0
ENDMDL
