MODEL 1
REMARK minimizedAffinity 13.9903898
REMARK minimizedRMSD -1
REMARK  0 active torsions:
REMARK  status: ('A' for Active; 'I' for Inactive)
ROOT
ATOM      1  C   UNL d   1       1.852  -5.999   0.695  0.00  0.00    -0.002 A 
ATOM      2  C1  UNL d   1       2.516  -4.870   0.235  0.00  0.00     0.010 A 
ATOM      3  C2  UNL d   1       1.805  -3.719  -0.111  0.00  0.00     0.041 A 
ATOM      4  C3  UNL d   1       0.401  -3.721   0.015  0.00  0.00    -0.075 A 
ATOM      5  S   UNL d   1      -0.677  -2.426  -0.349  0.00  0.00     0.015 SA
ATOM      6  C4  UNL d   1      -2.044  -3.340   0.098  0.00  0.00     0.022 A 
ATOM      7  C5  UNL d   1      -1.705  -4.605   0.517  0.00  0.00     0.026 A 
ATOM      8  C6  UNL d   1      -0.290  -4.845   0.477  0.00  0.00    -0.082 A 
ATOM      9  C7  UNL d   1       0.460  -5.997   0.819  0.00  0.00     0.045 A 
ENDROOT
TORSDOF 0
ENDMDL
