MODEL 1
REMARK minimizedAffinity 11.3153753
REMARK minimizedRMSD -1
REMARK  0 active torsions:
REMARK  status: ('A' for Active; 'I' for Inactive)
ROOT
ATOM      1  C   UNL d   1       1.010   0.986   3.275  0.00  0.00    -0.002 A 
ATOM      2  C1  UNL d   1       0.834  -0.225   2.621  0.00  0.00     0.010 A 
ATOM      3  C2  UNL d   1       0.483  -0.258   1.270  0.00  0.00     0.041 A 
ATOM      4  C3  UNL d   1       0.313   0.959   0.580  0.00  0.00    -0.075 A 
ATOM      5  S   UNL d   1      -0.114   1.163  -1.078  0.00  0.00     0.015 SA
ATOM      6  C4  UNL d   1      -0.072   2.862  -0.956  0.00  0.00     0.022 A 
ATOM      7  C5  UNL d   1       0.258   3.281   0.311  0.00  0.00     0.026 A 
ATOM      8  C6  UNL d   1       0.486   2.191   1.217  0.00  0.00    -0.082 A 
ATOM      9  C7  UNL d   1       0.840   2.190   2.588  0.00  0.00     0.045 A 
ENDROOT
TORSDOF 0
ENDMDL
