MODEL 1
REMARK minimizedAffinity -4.60246468
REMARK minimizedRMSD -1
REMARK  1 active torsions:
REMARK  status: ('A' for Active; 'I' for Inactive)
REMARK    1  A    between atoms: C1_2  and  C2_3 
ROOT
ATOM      1  C2  UNL d   1      -0.339   0.457   1.212  0.00  0.00    -0.081 A 
ATOM      2  C3  UNL d   1       0.126   0.605  -0.100  0.00  0.00     0.006 A 
ATOM      3  C4  UNL d   1       0.610  -0.497  -0.809  0.00  0.00     0.002 A 
ATOM      4  C5  UNL d   1       0.629  -1.766  -0.221  0.00  0.00    -0.080 A 
ATOM      5  C6  UNL d   1       1.118  -2.963  -0.982  0.00  0.00     0.076 C 
ATOM      6  C7  UNL d   1       0.181  -1.912   1.096  0.00  0.00     0.002 A 
ATOM      7  C8  UNL d   1      -0.302  -0.810   1.805  0.00  0.00     0.006 A 
ENDROOT
BRANCH   1   8
ATOM      8  C1  UNL d   1      -0.922   1.631   1.956  0.00  0.00     0.054 C 
ATOM      9  C   UNL d   1      -1.630   2.590   1.010  0.00  0.00     0.018 C 
ENDBRANCH   1   8
TORSDOF 1
ENDMDL
