MODEL 1
REMARK minimizedAffinity -4.1189847
REMARK minimizedRMSD -1
REMARK  1 active torsions:
REMARK  status: ('A' for Active; 'I' for Inactive)
REMARK    1  A    between atoms: C1_2  and  C2_3 
ROOT
ATOM      1  C2  UNL d   1       0.692  -0.408  -0.049  0.00  0.00    -0.081 A 
ATOM      2  C3  UNL d   1      -0.146  -0.278   1.065  0.00  0.00     0.006 A 
ATOM      3  C4  UNL d   1      -0.684   0.966   1.405  0.00  0.00     0.002 A 
ATOM      4  C5  UNL d   1      -0.399   2.097   0.633  0.00  0.00    -0.080 A 
ATOM      5  C6  UNL d   1      -0.994   3.432   0.969  0.00  0.00     0.076 C 
ATOM      6  C7  UNL d   1       0.453   1.970  -0.470  0.00  0.00     0.002 A 
ATOM      7  C8  UNL d   1       0.991   0.727  -0.810  0.00  0.00     0.006 A 
ENDROOT
BRANCH   1   8
ATOM      8  C1  UNL d   1       1.222  -1.760  -0.456  0.00  0.00     0.054 C 
ATOM      9  C   UNL d   1       0.608  -2.221  -1.770  0.00  0.00     0.018 C 
ENDBRANCH   1   8
TORSDOF 1
ENDMDL
