MODEL 1
REMARK minimizedAffinity -4.0546217
REMARK minimizedRMSD -1
REMARK  1 active torsions:
REMARK  status: ('A' for Active; 'I' for Inactive)
REMARK    1  A    between atoms: C1_2  and  C2_3 
ROOT
ATOM      1  C2  UNL d   1      -0.097  -0.790   0.030  0.00  0.00    -0.081 A 
ATOM      2  C3  UNL d   1      -0.640  -0.521   1.293  0.00  0.00     0.006 A 
ATOM      3  C4  UNL d   1      -1.059   0.770   1.623  0.00  0.00     0.002 A 
ATOM      4  C5  UNL d   1      -0.951   1.811   0.694  0.00  0.00    -0.080 A 
ATOM      5  C6  UNL d   1      -1.426   3.194   1.026  0.00  0.00     0.076 C 
ATOM      6  C7  UNL d   1      -0.393   1.546  -0.561  0.00  0.00     0.002 A 
ATOM      7  C8  UNL d   1       0.027   0.256  -0.891  0.00  0.00     0.006 A 
ENDROOT
BRANCH   1   8
ATOM      8  C1  UNL d   1       0.296  -2.194  -0.352  0.00  0.00     0.054 C 
ATOM      9  C   UNL d   1       0.731  -2.270  -1.809  0.00  0.00     0.018 C 
ENDBRANCH   1   8
TORSDOF 1
ENDMDL
