MODEL 1
REMARK minimizedAffinity -4.83977509
REMARK minimizedRMSD -1
REMARK  1 active torsions:
REMARK  status: ('A' for Active; 'I' for Inactive)
REMARK    1  A    between atoms: C1_2  and  C2_3 
ROOT
ATOM      1  C2  UNL d   1      -0.684   0.418   0.525  0.00  0.00    -0.081 A 
ATOM      2  C3  UNL d   1      -0.917   0.819   1.847  0.00  0.00     0.006 A 
ATOM      3  C4  UNL d   1      -1.576   2.021   2.117  0.00  0.00     0.002 A 
ATOM      4  C5  UNL d   1      -2.020   2.837   1.071  0.00  0.00    -0.080 A 
ATOM      5  C6  UNL d   1      -2.755   4.115   1.347  0.00  0.00     0.076 C 
ATOM      6  C7  UNL d   1      -1.772   2.445  -0.249  0.00  0.00     0.002 A 
ATOM      7  C8  UNL d   1      -1.112   1.244  -0.520  0.00  0.00     0.006 A 
ENDROOT
BRANCH   1   8
ATOM      8  C1  UNL d   1      -0.031  -0.908   0.230  0.00  0.00     0.054 C 
ATOM      9  C   UNL d   1       0.783  -0.851  -1.055  0.00  0.00     0.018 C 
ENDBRANCH   1   8
TORSDOF 1
ENDMDL
