MODEL 1
REMARK minimizedAffinity -5.40633106
REMARK minimizedRMSD -1
REMARK  1 active torsions:
REMARK  status: ('A' for Active; 'I' for Inactive)
REMARK    1  A    between atoms: C1_2  and  C2_3 
ROOT
ATOM      1  C2  UNL d   1       0.489  -0.039  -0.503  0.00  0.00    -0.081 A 
ATOM      2  C3  UNL d   1       0.044   1.131  -1.131  0.00  0.00     0.006 A 
ATOM      3  C4  UNL d   1      -0.854   1.984  -0.486  0.00  0.00     0.002 A 
ATOM      4  C5  UNL d   1      -1.318   1.686   0.800  0.00  0.00    -0.080 A 
ATOM      5  C6  UNL d   1      -2.259   2.609   1.515  0.00  0.00     0.076 C 
ATOM      6  C7  UNL d   1      -0.887   0.509   1.421  0.00  0.00     0.002 A 
ATOM      7  C8  UNL d   1       0.011  -0.345   0.776  0.00  0.00     0.006 A 
ENDROOT
BRANCH   1   8
ATOM      8  C1  UNL d   1       1.508  -0.927  -1.169  0.00  0.00     0.054 C 
ATOM      9  C   UNL d   1       0.837  -1.998  -2.018  0.00  0.00     0.018 C 
ENDBRANCH   1   8
TORSDOF 1
ENDMDL
