MODEL 1
REMARK minimizedAffinity -4.70457363
REMARK minimizedRMSD -1
REMARK  1 active torsions:
REMARK  status: ('A' for Active; 'I' for Inactive)
REMARK    1  A    between atoms: C1_2  and  C2_3 
ROOT
ATOM      1  C2  UNL d   1       0.790  -0.446  -0.437  0.00  0.00    -0.081 A 
ATOM      2  C3  UNL d   1       0.579  -0.652   0.932  0.00  0.00     0.006 A 
ATOM      3  C4  UNL d   1      -0.298   0.168   1.645  0.00  0.00     0.002 A 
ATOM      4  C5  UNL d   1      -0.984   1.203   1.001  0.00  0.00    -0.080 A 
ATOM      5  C6  UNL d   1      -1.952   2.072   1.748  0.00  0.00     0.076 C 
ATOM      6  C7  UNL d   1      -0.761   1.420  -0.363  0.00  0.00     0.002 A 
ATOM      7  C8  UNL d   1       0.117   0.601  -1.076  0.00  0.00     0.006 A 
ENDROOT
BRANCH   1   8
ATOM      8  C1  UNL d   1       1.686  -1.369  -1.222  0.00  0.00     0.054 C 
ATOM      9  C   UNL d   1       1.169  -2.800  -1.192  0.00  0.00     0.018 C 
ENDBRANCH   1   8
TORSDOF 1
ENDMDL
