MODEL 1
REMARK minimizedAffinity -4.77296591
REMARK minimizedRMSD -1
REMARK  1 active torsions:
REMARK  status: ('A' for Active; 'I' for Inactive)
REMARK    1  A    between atoms: C1_2  and  C2_3 
ROOT
ATOM      1  C2  UNL d   1       0.348   0.069  -0.102  0.00  0.00    -0.081 A 
ATOM      2  C3  UNL d   1      -0.373  -0.160   1.076  0.00  0.00     0.006 A 
ATOM      3  C4  UNL d   1      -1.269   0.798   1.556  0.00  0.00     0.002 A 
ATOM      4  C5  UNL d   1      -1.464   1.997   0.862  0.00  0.00    -0.080 A 
ATOM      5  C6  UNL d   1      -2.445   3.021   1.349  0.00  0.00     0.076 C 
ATOM      6  C7  UNL d   1      -0.731   2.233  -0.306  0.00  0.00     0.002 A 
ATOM      7  C8  UNL d   1       0.165   1.276  -0.786  0.00  0.00     0.006 A 
ENDROOT
BRANCH   1   8
ATOM      8  C1  UNL d   1       1.266  -0.990  -0.657  0.00  0.00     0.054 C 
ATOM      9  C   UNL d   1       0.541  -1.886  -1.652  0.00  0.00     0.018 C 
ENDBRANCH   1   8
TORSDOF 1
ENDMDL
