MODEL 1
REMARK minimizedAffinity -5.77077579
REMARK minimizedRMSD -1
REMARK  1 active torsions:
REMARK  status: ('A' for Active; 'I' for Inactive)
REMARK    1  A    between atoms: C1_2  and  C2_3 
ROOT
ATOM      1  C2  UNL d   1       0.522  -0.506   0.123  0.00  0.00    -0.081 A 
ATOM      2  C3  UNL d   1      -0.089  -0.494   1.383  0.00  0.00     0.006 A 
ATOM      3  C4  UNL d   1      -0.968   0.533   1.734  0.00  0.00     0.002 A 
ATOM      4  C5  UNL d   1      -1.257   1.560   0.829  0.00  0.00    -0.080 A 
ATOM      5  C6  UNL d   1      -2.223   2.652   1.182  0.00  0.00     0.076 C 
ATOM      6  C7  UNL d   1      -0.633   1.558  -0.423  0.00  0.00     0.002 A 
ATOM      7  C8  UNL d   1       0.247   0.531  -0.774  0.00  0.00     0.006 A 
ENDROOT
BRANCH   1   8
ATOM      8  C1  UNL d   1       1.421  -1.647  -0.282  0.00  0.00     0.054 C 
ATOM      9  C   UNL d   1       0.825  -2.437  -1.438  0.00  0.00     0.018 C 
ENDBRANCH   1   8
TORSDOF 1
ENDMDL
