MODEL 1
REMARK minimizedAffinity -5.25712299
REMARK minimizedRMSD -1
REMARK  1 active torsions:
REMARK  status: ('A' for Active; 'I' for Inactive)
REMARK    1  A    between atoms: C1_2  and  C2_3 
ROOT
ATOM      1  C2  UNL d   1      -0.952   2.616  -0.109  0.00  0.00    -0.081 A 
ATOM      2  C3  UNL d   1      -1.539   2.487   1.156  0.00  0.00     0.006 A 
ATOM      3  C4  UNL d   1      -1.503   1.266   1.833  0.00  0.00     0.002 A 
ATOM      4  C5  UNL d   1      -0.873   0.156   1.261  0.00  0.00    -0.080 A 
ATOM      5  C6  UNL d   1      -0.801  -1.153   1.990  0.00  0.00     0.076 C 
ATOM      6  C7  UNL d   1      -0.301   0.279  -0.010  0.00  0.00     0.002 A 
ATOM      7  C8  UNL d   1      -0.338   1.500  -0.688  0.00  0.00     0.006 A 
ENDROOT
BRANCH   1   8
ATOM      8  C1  UNL d   1      -0.932   3.948  -0.813  0.00  0.00     0.054 C 
ATOM      9  C   UNL d   1       0.150   3.993  -1.883  0.00  0.00     0.018 C 
ENDBRANCH   1   8
TORSDOF 1
ENDMDL
