MODEL 1
REMARK minimizedAffinity -4.34092999
REMARK minimizedRMSD -1
REMARK  1 active torsions:
REMARK  status: ('A' for Active; 'I' for Inactive)
REMARK    1  A    between atoms: C1_2  and  C2_3 
ROOT
ATOM      1  C2  UNL d   1      -1.132   2.291   0.281  0.00  0.00    -0.081 A 
ATOM      2  C3  UNL d   1      -1.900   2.044   1.425  0.00  0.00     0.006 A 
ATOM      3  C4  UNL d   1      -1.916   0.773   2.007  0.00  0.00     0.002 A 
ATOM      4  C5  UNL d   1      -1.159  -0.267   1.459  0.00  0.00    -0.080 A 
ATOM      5  C6  UNL d   1      -1.144  -1.628   2.091  0.00  0.00     0.076 C 
ATOM      6  C7  UNL d   1      -0.405  -0.025   0.306  0.00  0.00     0.002 A 
ATOM      7  C8  UNL d   1      -0.389   1.244  -0.276  0.00  0.00     0.006 A 
ENDROOT
BRANCH   1   8
ATOM      8  C1  UNL d   1      -1.061   3.676  -0.310  0.00  0.00     0.054 C 
ATOM      9  C   UNL d   1       0.043   3.777  -1.353  0.00  0.00     0.018 C 
ENDBRANCH   1   8
TORSDOF 1
ENDMDL
