MODEL 1
REMARK minimizedAffinity -4.5688591
REMARK minimizedRMSD -1
REMARK  1 active torsions:
REMARK  status: ('A' for Active; 'I' for Inactive)
REMARK    1  A    between atoms: C1_2  and  C2_3 
ROOT
ATOM      1  C2  UNL d   1       0.762  -0.642  -0.210  0.00  0.00    -0.081 A 
ATOM      2  C3  UNL d   1       0.058  -0.833   0.985  0.00  0.00     0.006 A 
ATOM      3  C4  UNL d   1      -0.698   0.205   1.535  0.00  0.00     0.002 A 
ATOM      4  C5  UNL d   1      -0.767   1.448   0.897  0.00  0.00    -0.080 A 
ATOM      5  C6  UNL d   1      -1.599   2.562   1.461  0.00  0.00     0.076 C 
ATOM      6  C7  UNL d   1      -0.049   1.644  -0.288  0.00  0.00     0.002 A 
ATOM      7  C8  UNL d   1       0.707   0.607  -0.838  0.00  0.00     0.006 A 
ENDROOT
BRANCH   1   8
ATOM      8  C1  UNL d   1       1.525  -1.779  -0.839  0.00  0.00     0.054 C 
ATOM      9  C   UNL d   1       0.622  -2.633  -1.718  0.00  0.00     0.018 C 
ENDBRANCH   1   8
TORSDOF 1
ENDMDL
