MODEL 1
REMARK minimizedAffinity -0.284505576
REMARK minimizedRMSD -1
REMARK  2 active torsions:
REMARK  status: ('A' for Active; 'I' for Inactive)
REMARK    1  A    between atoms: C1_2  and  C2_3 
REMARK    2  A    between atoms: C2_3  and  C3_4 
ROOT
ATOM      1  C3  UNL d   1       1.091  -0.376  -2.094  0.00  0.00    -0.075 A 
ATOM      2  C4  UNL d   1       2.259   0.352  -2.361  0.00  0.00     0.002 A 
ATOM      3  C5  UNL d   1       2.380   1.091  -3.538  0.00  0.00     0.002 A 
ATOM      4  C6  UNL d   1       1.341   1.103  -4.466  0.00  0.00    -0.004 A 
ATOM      5  C7  UNL d   1       0.182   0.370  -4.219  0.00  0.00     0.002 A 
ATOM      6  C8  UNL d   1       0.057  -0.366  -3.040  0.00  0.00     0.002 A 
ENDROOT
BRANCH   1   7
ATOM      7  C2  UNL d   1       0.942  -1.154  -0.808  0.00  0.00     0.056 C 
BRANCH   7   8
ATOM      8  C1  UNL d   1       0.063  -0.464   0.240  0.00  0.00     0.007 C 
ATOM      9  C   UNL d   1      -1.418  -0.479  -0.114  0.00  0.00     0.009 C 
ENDBRANCH   7   8
ENDBRANCH   1   7
TORSDOF 2
ENDMDL
