MODEL 1
REMARK minimizedAffinity -5.34145212
REMARK minimizedRMSD -1
REMARK  2 active torsions:
REMARK  status: ('A' for Active; 'I' for Inactive)
REMARK    1  A    between atoms: C1_2  and  C2_3 
REMARK    2  A    between atoms: C2_3  and  C3_4 
ROOT
ATOM      1  C3  UNL d   1       0.149   0.043  -0.005  0.00  0.00    -0.075 A 
ATOM      2  C4  UNL d   1       0.882   0.712   0.986  0.00  0.00     0.002 A 
ATOM      3  C5  UNL d   1       0.235   1.289   2.079  0.00  0.00     0.002 A 
ATOM      4  C6  UNL d   1      -1.152   1.214   2.190  0.00  0.00    -0.004 A 
ATOM      5  C7  UNL d   1      -1.892   0.566   1.203  0.00  0.00     0.002 A 
ATOM      6  C8  UNL d   1      -1.246  -0.016   0.111  0.00  0.00     0.002 A 
ENDROOT
BRANCH   1   7
ATOM      7  C2  UNL d   1       0.846  -0.608  -1.175  0.00  0.00     0.056 C 
BRANCH   7   8
ATOM      8  C1  UNL d   1       0.356  -0.122  -2.543  0.00  0.00     0.007 C 
ATOM      9  C   UNL d   1       1.478   0.392  -3.435  0.00  0.00     0.009 C 
ENDBRANCH   7   8
ENDBRANCH   1   7
TORSDOF 2
ENDMDL
