MODEL 1
REMARK minimizedAffinity -1.98488903
REMARK minimizedRMSD -1
REMARK  2 active torsions:
REMARK  status: ('A' for Active; 'I' for Inactive)
REMARK    1  A    between atoms: C1_2  and  C2_3 
REMARK    2  A    between atoms: C2_3  and  C3_4 
ROOT
ATOM      1  C3  UNL d   1       0.392   0.830   1.145  0.00  0.00    -0.075 A 
ATOM      2  C4  UNL d   1      -0.306   0.730  -0.068  0.00  0.00     0.002 A 
ATOM      3  C5  UNL d   1       0.099  -0.179  -1.045  0.00  0.00     0.002 A 
ATOM      4  C6  UNL d   1       1.211  -0.990  -0.829  0.00  0.00    -0.004 A 
ATOM      5  C7  UNL d   1       1.922  -0.888   0.365  0.00  0.00     0.002 A 
ATOM      6  C8  UNL d   1       1.516   0.018   1.347  0.00  0.00     0.002 A 
ENDROOT
BRANCH   1   7
ATOM      7  C2  UNL d   1      -0.059   1.791   2.219  0.00  0.00     0.056 C 
BRANCH   7   8
ATOM      8  C1  UNL d   1      -0.829   1.128   3.366  0.00  0.00     0.007 C 
ATOM      9  C   UNL d   1      -1.710  -0.027   2.909  0.00  0.00     0.009 C 
ENDBRANCH   7   8
ENDBRANCH   1   7
TORSDOF 2
ENDMDL
