MODEL 1
REMARK minimizedAffinity -2.61774087
REMARK minimizedRMSD -1
REMARK  2 active torsions:
REMARK  status: ('A' for Active; 'I' for Inactive)
REMARK    1  A    between atoms: C1_2  and  C2_3 
REMARK    2  A    between atoms: C2_3  and  C3_4 
ROOT
ATOM      1  C3  UNL d   1      -0.041   0.054  -0.365  0.00  0.00    -0.075 A 
ATOM      2  C4  UNL d   1      -1.397   0.164  -0.026  0.00  0.00     0.002 A 
ATOM      3  C5  UNL d   1      -1.778   0.724   1.194  0.00  0.00     0.002 A 
ATOM      4  C6  UNL d   1      -0.811   1.170   2.092  0.00  0.00    -0.004 A 
ATOM      5  C7  UNL d   1       0.540   1.050   1.772  0.00  0.00     0.002 A 
ATOM      6  C8  UNL d   1       0.924   0.494   0.551  0.00  0.00     0.002 A 
ENDROOT
BRANCH   1   7
ATOM      7  C2  UNL d   1       0.377  -0.524  -1.696  0.00  0.00     0.056 C 
BRANCH   7   8
ATOM      8  C1  UNL d   1       1.280   0.399  -2.521  0.00  0.00     0.007 C 
ATOM      9  C   UNL d   1       0.744   0.669  -3.921  0.00  0.00     0.009 C 
ENDBRANCH   7   8
ENDBRANCH   1   7
TORSDOF 2
ENDMDL
