MODEL 1
REMARK minimizedAffinity 6.1230526
REMARK minimizedRMSD -1
REMARK  0 active torsions:
REMARK  status: ('A' for Active; 'I' for Inactive)
ROOT
ATOM      1  C1  DEN d   1       1.979   1.560  -1.996  0.00  0.00     0.130 A 
ATOM      2  C2  DEN d   1       3.315   1.188  -1.541  0.00  0.00    -0.031 A 
ATOM      3  C3  DEN d   1       3.205   0.696  -0.153  0.00  0.00     0.027 A 
ATOM      4  C4  DEN d   1       1.104   0.470   1.326  0.00  0.00     0.027 A 
ATOM      5  C5  DEN d   1      -0.258   0.670   1.380  0.00  0.00    -0.003 A 
ATOM      6  C6  DEN d   1      -0.959   1.209   0.333  0.00  0.00     0.001 A 
ATOM      7  C7  DEN d   1      -0.307   1.524  -0.830  0.00  0.00     0.017 A 
ATOM      8  C8  DEN d   1       1.067   1.331  -0.889  0.00  0.00    -0.094 A 
ATOM      9  C9  DEN d   1       1.756   0.774   0.175  0.00  0.00    -0.072 A 
ENDROOT
TORSDOF 0
ENDMDL
