MODEL 1
REMARK minimizedAffinity -6.17016125
REMARK minimizedRMSD -1
REMARK  0 active torsions:
REMARK  status: ('A' for Active; 'I' for Inactive)
ROOT
ATOM      1  C1  DEN d   1       1.033  -2.556  -1.446  0.00  0.00     0.130 A 
ATOM      2  C2  DEN d   1       1.845  -2.529  -2.660  0.00  0.00    -0.031 A 
ATOM      3  C3  DEN d   1       2.178  -1.121  -2.955  0.00  0.00     0.027 A 
ATOM      4  C4  DEN d   1       1.524   1.008  -1.655  0.00  0.00     0.027 A 
ATOM      5  C5  DEN d   1       0.832   1.491  -0.567  0.00  0.00    -0.003 A 
ATOM      6  C6  DEN d   1       0.136   0.668   0.279  0.00  0.00     0.001 A 
ATOM      7  C7  DEN d   1       0.154  -0.686   0.076  0.00  0.00     0.017 A 
ATOM      8  C8  DEN d   1       0.843  -1.179  -1.024  0.00  0.00    -0.094 A 
ATOM      9  C9  DEN d   1       1.551  -0.333  -1.861  0.00  0.00    -0.072 A 
ENDROOT
TORSDOF 0
ENDMDL
