MODEL 1
REMARK minimizedAffinity -2.81534123
REMARK minimizedRMSD -1
REMARK  0 active torsions:
REMARK  status: ('A' for Active; 'I' for Inactive)
ROOT
ATOM      1  C1  DEN d   1      -3.060   0.334   0.057  0.00  0.00     0.130 A 
ATOM      2  C2  DEN d   1      -3.393   0.151   1.468  0.00  0.00    -0.031 A 
ATOM      3  C3  DEN d   1      -2.152   0.306   2.253  0.00  0.00     0.027 A 
ATOM      4  C4  DEN d   1       0.238   0.814   1.427  0.00  0.00     0.027 A 
ATOM      5  C5  DEN d   1       1.017   1.040   0.313  0.00  0.00    -0.003 A 
ATOM      6  C6  DEN d   1       0.501   1.014  -0.956  0.00  0.00     0.001 A 
ATOM      7  C7  DEN d   1      -0.839   0.800  -1.139  0.00  0.00     0.017 A 
ATOM      8  C8  DEN d   1      -1.629   0.563  -0.022  0.00  0.00    -0.094 A 
ATOM      9  C9  DEN d   1      -1.091   0.606   1.253  0.00  0.00    -0.072 A 
ENDROOT
TORSDOF 0
ENDMDL
