MODEL 1
REMARK minimizedAffinity -0.153923899
REMARK minimizedRMSD -1
REMARK  0 active torsions:
REMARK  status: ('A' for Active; 'I' for Inactive)
ROOT
ATOM      1  C1  DEN d   1       2.090   0.031  -1.891  0.00  0.00     0.130 A 
ATOM      2  C2  DEN d   1       1.980   1.479  -1.738  0.00  0.00    -0.031 A 
ATOM      3  C3  DEN d   1       1.083   1.751  -0.597  0.00  0.00     0.027 A 
ATOM      4  C4  DEN d   1      -0.138   0.079   0.942  0.00  0.00     0.027 A 
ATOM      5  C5  DEN d   1      -0.362  -1.256   1.195  0.00  0.00    -0.003 A 
ATOM      6  C6  DEN d   1       0.184  -2.248   0.423  0.00  0.00     0.001 A 
ATOM      7  C7  DEN d   1       1.018  -1.919  -0.613  0.00  0.00     0.017 A 
ATOM      8  C8  DEN d   1       1.243  -0.575  -0.879  0.00  0.00    -0.094 A 
ATOM      9  C9  DEN d   1       0.692   0.412  -0.080  0.00  0.00    -0.072 A 
ENDROOT
TORSDOF 0
ENDMDL
