MODEL 1
REMARK minimizedAffinity -5.68307877
REMARK minimizedRMSD -1
REMARK  0 active torsions:
REMARK  status: ('A' for Active; 'I' for Inactive)
ROOT
ATOM      1  C1  DEN d   1       0.463   0.812   0.033  0.00  0.00     0.130 A 
ATOM      2  C2  DEN d   1      -0.241   0.012   1.032  0.00  0.00    -0.031 A 
ATOM      3  C3  DEN d   1      -0.239  -1.393   0.577  0.00  0.00     0.027 A 
ATOM      4  C4  DEN d   1       0.785  -2.402  -1.565  0.00  0.00     0.027 A 
ATOM      5  C5  DEN d   1       1.472  -2.115  -2.724  0.00  0.00    -0.003 A 
ATOM      6  C6  DEN d   1       1.839  -0.839  -3.058  0.00  0.00     0.001 A 
ATOM      7  C7  DEN d   1       1.559   0.194  -2.203  0.00  0.00     0.017 A 
ATOM      8  C8  DEN d   1       0.859  -0.086  -1.036  0.00  0.00    -0.094 A 
ATOM      9  C9  DEN d   1       0.508  -1.385  -0.710  0.00  0.00    -0.072 A 
ENDROOT
TORSDOF 0
ENDMDL
