MODEL 1
REMARK minimizedAffinity -2.64664388
REMARK minimizedRMSD -1
REMARK  0 active torsions:
REMARK  status: ('A' for Active; 'I' for Inactive)
ROOT
ATOM      1  C1  DEN d   1      -0.391  -1.600   0.771  0.00  0.00     0.130 A 
ATOM      2  C2  DEN d   1      -1.166  -0.474   1.284  0.00  0.00    -0.031 A 
ATOM      3  C3  DEN d   1      -0.672   0.755   0.630  0.00  0.00     0.027 A 
ATOM      4  C4  DEN d   1       1.204   1.021  -1.119  0.00  0.00     0.027 A 
ATOM      5  C5  DEN d   1       2.157   0.351  -1.854  0.00  0.00    -0.003 A 
ATOM      6  C6  DEN d   1       2.349  -1.001  -1.741  0.00  0.00     0.001 A 
ATOM      7  C7  DEN d   1       1.546  -1.733  -0.907  0.00  0.00     0.017 A 
ATOM      8  C8  DEN d   1       0.588  -1.063  -0.157  0.00  0.00    -0.094 A 
ATOM      9  C9  DEN d   1       0.401   0.302  -0.294  0.00  0.00    -0.072 A 
ENDROOT
TORSDOF 0
ENDMDL
