MODEL 1
REMARK minimizedAffinity -4.89115095
REMARK minimizedRMSD -1
REMARK  0 active torsions:
REMARK  status: ('A' for Active; 'I' for Inactive)
ROOT
ATOM      1  C1  DEN d   1       0.157  -0.988   0.588  0.00  0.00     0.130 A 
ATOM      2  C2  DEN d   1      -0.599   0.262   0.579  0.00  0.00    -0.031 A 
ATOM      3  C3  DEN d   1      -0.409   0.901  -0.739  0.00  0.00     0.027 A 
ATOM      4  C4  DEN d   1       0.971   0.080  -2.757  0.00  0.00     0.027 A 
ATOM      5  C5  DEN d   1       1.796  -0.922  -3.220  0.00  0.00    -0.003 A 
ATOM      6  C6  DEN d   1       2.157  -1.989  -2.441  0.00  0.00     0.001 A 
ATOM      7  C7  DEN d   1       1.655  -2.103  -1.171  0.00  0.00     0.017 A 
ATOM      8  C8  DEN d   1       0.828  -1.094  -0.695  0.00  0.00    -0.094 A 
ATOM      9  C9  DEN d   1       0.465  -0.029  -1.502  0.00  0.00    -0.072 A 
ENDROOT
TORSDOF 0
ENDMDL
