MODEL 1
REMARK minimizedAffinity -5.01487541
REMARK minimizedRMSD -1
REMARK  0 active torsions:
REMARK  status: ('A' for Active; 'I' for Inactive)
ROOT
ATOM      1  C1  DEN d   1       0.137  -2.622  -0.849  0.00  0.00     0.130 A 
ATOM      2  C2  DEN d   1      -0.723  -2.332   0.295  0.00  0.00    -0.031 A 
ATOM      3  C3  DEN d   1      -0.634  -0.886   0.578  0.00  0.00     0.027 A 
ATOM      4  C4  DEN d   1       0.743   0.924  -0.639  0.00  0.00     0.027 A 
ATOM      5  C5  DEN d   1       1.635   1.157  -1.662  0.00  0.00    -0.003 A 
ATOM      6  C6  DEN d   1       2.113   0.149  -2.457  0.00  0.00     0.001 A 
ATOM      7  C7  DEN d   1       1.666  -1.132  -2.272  0.00  0.00     0.017 A 
ATOM      8  C8  DEN d   1       0.772  -1.376  -1.238  0.00  0.00    -0.094 A 
ATOM      9  C9  DEN d   1       0.291  -0.342  -0.452  0.00  0.00    -0.072 A 
ENDROOT
TORSDOF 0
ENDMDL
