MODEL 1
REMARK minimizedAffinity -3.79583263
REMARK minimizedRMSD -1
REMARK  0 active torsions:
REMARK  status: ('A' for Active; 'I' for Inactive)
ROOT
ATOM      1  C1  DEN d   1      -1.091   0.141  -0.997  0.00  0.00     0.130 A 
ATOM      2  C2  DEN d   1       0.106  -0.239  -0.252  0.00  0.00    -0.031 A 
ATOM      3  C3  DEN d   1      -0.242  -0.279   1.182  0.00  0.00     0.027 A 
ATOM      4  C4  DEN d   1      -2.507   0.205   2.317  0.00  0.00     0.027 A 
ATOM      5  C5  DEN d   1      -3.815   0.578   2.098  0.00  0.00    -0.003 A 
ATOM      6  C6  DEN d   1      -4.294   0.862   0.847  0.00  0.00     0.001 A 
ATOM      7  C7  DEN d   1      -3.470   0.734  -0.240  0.00  0.00     0.017 A 
ATOM      8  C8  DEN d   1      -2.148   0.366  -0.027  0.00  0.00    -0.094 A 
ATOM      9  C9  DEN d   1      -1.686   0.071   1.244  0.00  0.00    -0.072 A 
ENDROOT
TORSDOF 0
ENDMDL
