MODEL 1
REMARK minimizedAffinity -6.11449671
REMARK minimizedRMSD -1
REMARK  0 active torsions:
REMARK  status: ('A' for Active; 'I' for Inactive)
ROOT
ATOM      1  C1  DEN d   1       0.277   0.350   0.893  0.00  0.00     0.130 A 
ATOM      2  C2  DEN d   1      -0.008  -0.932   1.532  0.00  0.00    -0.031 A 
ATOM      3  C3  DEN d   1       0.218  -1.999   0.537  0.00  0.00     0.027 A 
ATOM      4  C4  DEN d   1       0.983  -1.792  -1.918  0.00  0.00     0.027 A 
ATOM      5  C5  DEN d   1       1.337  -0.908  -2.913  0.00  0.00    -0.003 A 
ATOM      6  C6  DEN d   1       1.329   0.448  -2.721  0.00  0.00     0.001 A 
ATOM      7  C7  DEN d   1       1.004   0.958  -1.491  0.00  0.00     0.017 A 
ATOM      8  C8  DEN d   1       0.640   0.073  -0.485  0.00  0.00    -0.094 A 
ATOM      9  C9  DEN d   1       0.665  -1.295  -0.696  0.00  0.00    -0.072 A 
ENDROOT
TORSDOF 0
ENDMDL
