MODEL 1
REMARK minimizedAffinity 0.472612649
REMARK minimizedRMSD -1
REMARK  0 active torsions:
REMARK  status: ('A' for Active; 'I' for Inactive)
ROOT
ATOM      1  C1  DEN d   1      -1.118  -0.504  -0.563  0.00  0.00     0.130 A 
ATOM      2  C2  DEN d   1       0.186  -0.348   0.075  0.00  0.00    -0.031 A 
ATOM      3  C3  DEN d   1      -0.021   0.306   1.383  0.00  0.00     0.027 A 
ATOM      4  C4  DEN d   1      -2.223   1.082   2.479  0.00  0.00     0.027 A 
ATOM      5  C5  DEN d   1      -3.588   1.172   2.315  0.00  0.00    -0.003 A 
ATOM      6  C6  DEN d   1      -4.216   0.745   1.175  0.00  0.00     0.001 A 
ATOM      7  C7  DEN d   1      -3.483   0.166   0.173  0.00  0.00     0.017 A 
ATOM      8  C8  DEN d   1      -2.106   0.078   0.328  0.00  0.00    -0.094 A 
ATOM      9  C9  DEN d   1      -1.491   0.504   1.493  0.00  0.00    -0.072 A 
ENDROOT
TORSDOF 0
ENDMDL
