MODEL 1
REMARK minimizedAffinity -5.63110161
REMARK minimizedRMSD -1
REMARK  0 active torsions:
REMARK  status: ('A' for Active; 'I' for Inactive)
ROOT
ATOM      1  C1  DEN d   1      -0.105  -0.604   0.989  0.00  0.00     0.130 A 
ATOM      2  C2  DEN d   1      -0.217   0.840   1.179  0.00  0.00    -0.031 A 
ATOM      3  C3  DEN d   1       0.543   1.502   0.099  0.00  0.00     0.027 A 
ATOM      4  C4  DEN d   1       1.869   0.439  -1.841  0.00  0.00     0.027 A 
ATOM      5  C5  DEN d   1       2.262  -0.751  -2.412  0.00  0.00    -0.003 A 
ATOM      6  C6  DEN d   1       1.925  -1.965  -1.875  0.00  0.00     0.001 A 
ATOM      7  C7  DEN d   1       1.134  -2.017  -0.758  0.00  0.00     0.017 A 
ATOM      8  C8  DEN d   1       0.740  -0.822  -0.172  0.00  0.00    -0.094 A 
ATOM      9  C9  DEN d   1       1.081   0.396  -0.736  0.00  0.00    -0.072 A 
ENDROOT
TORSDOF 0
ENDMDL
