MODEL 1
REMARK minimizedAffinity -4.4570179
REMARK minimizedRMSD -1
REMARK  0 active torsions:
REMARK  status: ('A' for Active; 'I' for Inactive)
ROOT
ATOM      1  C1  DEN d   1       0.982   1.314   0.378  0.00  0.00     0.130 A 
ATOM      2  C2  DEN d   1      -0.265   0.923   1.030  0.00  0.00    -0.031 A 
ATOM      3  C3  DEN d   1      -0.751  -0.312   0.382  0.00  0.00     0.027 A 
ATOM      4  C4  DEN d   1       0.302  -1.650  -1.555  0.00  0.00     0.027 A 
ATOM      5  C5  DEN d   1       1.355  -1.702  -2.442  0.00  0.00    -0.003 A 
ATOM      6  C6  DEN d   1       2.331  -0.742  -2.473  0.00  0.00     0.001 A 
ATOM      7  C7  DEN d   1       2.299   0.289  -1.571  0.00  0.00     0.017 A 
ATOM      8  C8  DEN d   1       1.236   0.352  -0.679  0.00  0.00    -0.094 A 
ATOM      9  C9  DEN d   1       0.266  -0.636  -0.655  0.00  0.00    -0.072 A 
ENDROOT
TORSDOF 0
ENDMDL
