MODEL 1
REMARK minimizedAffinity 0.723237574
REMARK minimizedRMSD -1
REMARK  0 active torsions:
REMARK  status: ('A' for Active; 'I' for Inactive)
ROOT
ATOM      1  C1  DEN d   1       2.628   0.405  -1.228  0.00  0.00     0.130 A 
ATOM      2  C2  DEN d   1       2.435   1.851  -1.295  0.00  0.00    -0.031 A 
ATOM      3  C3  DEN d   1       1.211   2.184  -0.540  0.00  0.00     0.027 A 
ATOM      4  C4  DEN d   1      -0.394   0.610   0.725  0.00  0.00     0.027 A 
ATOM      5  C5  DEN d   1      -0.650  -0.703   1.055  0.00  0.00    -0.003 A 
ATOM      6  C6  DEN d   1       0.142  -1.733   0.622  0.00  0.00     0.001 A 
ATOM      7  C7  DEN d   1       1.256  -1.463  -0.128  0.00  0.00     0.017 A 
ATOM      8  C8  DEN d   1       1.517  -0.143  -0.471  0.00  0.00    -0.094 A 
ATOM      9  C9  DEN d   1       0.711   0.885  -0.014  0.00  0.00    -0.072 A 
ENDROOT
TORSDOF 0
ENDMDL
