MODEL 1
REMARK minimizedAffinity 6.91928911
REMARK minimizedRMSD -1
REMARK  0 active torsions:
REMARK  status: ('A' for Active; 'I' for Inactive)
ROOT
ATOM      1  C   UNL d   1      -5.690  -3.002  -2.655  0.00  0.00     0.078 C 
ATOM      2  C1  UNL d   1      -5.657  -2.627  -1.204  0.00  0.00    -0.077 A 
ATOM      3  C2  UNL d   1      -5.299  -3.562  -0.225  0.00  0.00    -0.001 A 
ATOM      4  C3  UNL d   1      -5.281  -3.202   1.123  0.00  0.00     0.003 A 
ATOM      5  C4  UNL d   1      -5.622  -1.906   1.506  0.00  0.00    -0.005 A 
ATOM      6  C5  UNL d   1      -5.981  -0.969   0.539  0.00  0.00     0.003 A 
ATOM      7  C6  UNL d   1      -5.999  -1.327  -0.810  0.00  0.00    -0.001 A 
ENDROOT
TORSDOF 0
ENDMDL
