MODEL 1
REMARK minimizedAffinity 17.1699066
REMARK minimizedRMSD -1
REMARK  0 active torsions:
REMARK  status: ('A' for Active; 'I' for Inactive)
ROOT
ATOM      1  C   UNL d   1       5.960   4.080  -4.567  0.00  0.00     0.078 C 
ATOM      2  C1  UNL d   1       4.547   4.533  -4.784  0.00  0.00    -0.077 A 
ATOM      3  C2  UNL d   1       3.978   5.530  -3.982  0.00  0.00    -0.001 A 
ATOM      4  C3  UNL d   1       2.658   5.935  -4.189  0.00  0.00     0.003 A 
ATOM      5  C4  UNL d   1       1.896   5.348  -5.198  0.00  0.00    -0.005 A 
ATOM      6  C5  UNL d   1       2.454   4.354  -6.000  0.00  0.00     0.003 A 
ATOM      7  C6  UNL d   1       3.773   3.948  -5.794  0.00  0.00    -0.001 A 
ENDROOT
TORSDOF 0
ENDMDL
