MODEL 1
REMARK minimizedAffinity 9.49940205
REMARK minimizedRMSD -1
REMARK  0 active torsions:
REMARK  status: ('A' for Active; 'I' for Inactive)
ROOT
ATOM      1  C   UNL d   1      -5.261  -3.293   3.095  0.00  0.00     0.078 C 
ATOM      2  C1  UNL d   1      -5.257  -2.908   1.645  0.00  0.00    -0.077 A 
ATOM      3  C2  UNL d   1      -4.510  -3.634   0.709  0.00  0.00    -0.001 A 
ATOM      4  C3  UNL d   1      -4.508  -3.258  -0.635  0.00  0.00     0.003 A 
ATOM      5  C4  UNL d   1      -5.249  -2.155  -1.055  0.00  0.00    -0.005 A 
ATOM      6  C5  UNL d   1      -5.993  -1.426  -0.130  0.00  0.00     0.003 A 
ATOM      7  C6  UNL d   1      -5.997  -1.800   1.215  0.00  0.00    -0.001 A 
ENDROOT
TORSDOF 0
ENDMDL
