MODEL 1
REMARK minimizedAffinity 5.86191416
REMARK minimizedRMSD -1
REMARK  0 active torsions:
REMARK  status: ('A' for Active; 'I' for Inactive)
ROOT
ATOM      1  C   UNL d   1      -5.809  -3.744  -5.994  0.00  0.00     0.078 C 
ATOM      2  C1  UNL d   1      -5.800  -3.236  -4.583  0.00  0.00    -0.077 A 
ATOM      3  C2  UNL d   1      -5.611  -4.109  -3.504  0.00  0.00    -0.001 A 
ATOM      4  C3  UNL d   1      -5.614  -3.624  -2.195  0.00  0.00     0.003 A 
ATOM      5  C4  UNL d   1      -5.806  -2.265  -1.953  0.00  0.00    -0.005 A 
ATOM      6  C5  UNL d   1      -5.997  -1.390  -3.020  0.00  0.00     0.003 A 
ATOM      7  C6  UNL d   1      -5.994  -1.873  -4.329  0.00  0.00    -0.001 A 
ENDROOT
TORSDOF 0
ENDMDL
