MODEL 1
REMARK minimizedAffinity 2.4021008
REMARK minimizedRMSD -1
REMARK  0 active torsions:
REMARK  status: ('A' for Active; 'I' for Inactive)
ROOT
ATOM      1  C   UNL d   1      -5.999  -3.585  -5.816  0.00  0.00     0.078 C 
ATOM      2  C1  UNL d   1      -5.886  -3.040  -4.424  0.00  0.00    -0.077 A 
ATOM      3  C2  UNL d   1      -5.710  -1.669  -4.198  0.00  0.00    -0.001 A 
ATOM      4  C3  UNL d   1      -5.597  -1.177  -2.897  0.00  0.00     0.003 A 
ATOM      5  C4  UNL d   1      -5.658  -2.049  -1.812  0.00  0.00    -0.005 A 
ATOM      6  C5  UNL d   1      -5.831  -3.414  -2.026  0.00  0.00     0.003 A 
ATOM      7  C6  UNL d   1      -5.944  -3.908  -3.327  0.00  0.00    -0.001 A 
ENDROOT
TORSDOF 0
ENDMDL
