MODEL 1
REMARK minimizedAffinity 3.24353456
REMARK minimizedRMSD -1
REMARK  0 active torsions:
REMARK  status: ('A' for Active; 'I' for Inactive)
ROOT
ATOM      1  C   UNL d   1      -5.999  -1.597  -2.964  0.00  0.00     0.078 C 
ATOM      2  C1  UNL d   1      -5.506  -2.537  -4.023  0.00  0.00    -0.077 A 
ATOM      3  C2  UNL d   1      -6.000  -3.844  -4.113  0.00  0.00    -0.001 A 
ATOM      4  C3  UNL d   1      -5.525  -4.712  -5.098  0.00  0.00     0.003 A 
ATOM      5  C4  UNL d   1      -4.553  -4.282  -6.000  0.00  0.00    -0.005 A 
ATOM      6  C5  UNL d   1      -4.055  -2.984  -5.917  0.00  0.00     0.003 A 
ATOM      7  C6  UNL d   1      -4.528  -2.115  -4.932  0.00  0.00    -0.001 A 
ENDROOT
TORSDOF 0
ENDMDL
