MODEL 1
REMARK minimizedAffinity 0.173400417
REMARK minimizedRMSD -1
REMARK  0 active torsions:
REMARK  status: ('A' for Active; 'I' for Inactive)
ROOT
ATOM      1  C   UNL d   1      -2.737  -0.426  -5.991  0.00  0.00     0.078 C 
ATOM      2  C1  UNL d   1      -3.881  -1.315  -5.603  0.00  0.00    -0.077 A 
ATOM      3  C2  UNL d   1      -4.945  -0.826  -4.835  0.00  0.00    -0.001 A 
ATOM      4  C3  UNL d   1      -5.999  -1.667  -4.473  0.00  0.00     0.003 A 
ATOM      5  C4  UNL d   1      -5.999  -3.001  -4.874  0.00  0.00    -0.005 A 
ATOM      6  C5  UNL d   1      -4.943  -3.497  -5.637  0.00  0.00     0.003 A 
ATOM      7  C6  UNL d   1      -3.889  -2.658  -6.000  0.00  0.00    -0.001 A 
ENDROOT
TORSDOF 0
ENDMDL
