MODEL 1
REMARK minimizedAffinity 11.4443121
REMARK minimizedRMSD -1
REMARK  0 active torsions:
REMARK  status: ('A' for Active; 'I' for Inactive)
ROOT
ATOM      1  C   UNL d   1      -4.589  -5.291   0.994  0.00  0.00     0.078 C 
ATOM      2  C1  UNL d   1      -4.935  -3.849   0.769  0.00  0.00    -0.077 A 
ATOM      3  C2  UNL d   1      -4.780  -2.903   1.790  0.00  0.00    -0.001 A 
ATOM      4  C3  UNL d   1      -5.116  -1.566   1.570  0.00  0.00     0.003 A 
ATOM      5  C4  UNL d   1      -5.610  -1.163   0.330  0.00  0.00    -0.005 A 
ATOM      6  C5  UNL d   1      -5.770  -2.098  -0.690  0.00  0.00     0.003 A 
ATOM      7  C6  UNL d   1      -5.435  -3.436  -0.472  0.00  0.00    -0.001 A 
ENDROOT
TORSDOF 0
ENDMDL
