MODEL 1
REMARK minimizedAffinity 0.714878023
REMARK minimizedRMSD -1
REMARK  0 active torsions:
REMARK  status: ('A' for Active; 'I' for Inactive)
ROOT
ATOM      1  C   UNL d   1      -4.574   3.481   1.632  0.00  0.00     0.078 C 
ATOM      2  C1  UNL d   1      -3.865   2.169   1.787  0.00  0.00    -0.077 A 
ATOM      3  C2  UNL d   1      -4.563   0.957   1.702  0.00  0.00    -0.001 A 
ATOM      4  C3  UNL d   1      -3.891  -0.256   1.858  0.00  0.00     0.003 A 
ATOM      5  C4  UNL d   1      -2.519  -0.271   2.102  0.00  0.00    -0.005 A 
ATOM      6  C5  UNL d   1      -1.817   0.930   2.190  0.00  0.00     0.003 A 
ATOM      7  C6  UNL d   1      -2.487   2.144   2.034  0.00  0.00    -0.001 A 
ENDROOT
TORSDOF 0
ENDMDL
