MODEL 1
REMARK minimizedAffinity 8.09273911
REMARK minimizedRMSD -1
REMARK  0 active torsions:
REMARK  status: ('A' for Active; 'I' for Inactive)
ROOT
ATOM      1  C   UNL d   1      -5.032  -4.283  -5.958  0.00  0.00     0.078 C 
ATOM      2  C1  UNL d   1      -5.375  -3.586  -4.676  0.00  0.00    -0.077 A 
ATOM      3  C2  UNL d   1      -5.391  -2.189  -4.596  0.00  0.00    -0.001 A 
ATOM      4  C3  UNL d   1      -5.702  -1.553  -3.393  0.00  0.00     0.003 A 
ATOM      5  C4  UNL d   1      -6.000  -2.308  -2.260  0.00  0.00    -0.005 A 
ATOM      6  C5  UNL d   1      -5.985  -3.699  -2.329  0.00  0.00     0.003 A 
ATOM      7  C6  UNL d   1      -5.673  -4.336  -3.531  0.00  0.00    -0.001 A 
ENDROOT
TORSDOF 0
ENDMDL
