MODEL 1
REMARK minimizedAffinity 10.5046854
REMARK minimizedRMSD -1
REMARK  0 active torsions:
REMARK  status: ('A' for Active; 'I' for Inactive)
ROOT
ATOM      1  C   UNL d   1       5.741   4.592  -5.935  0.00  0.00     0.078 C 
ATOM      2  C1  UNL d   1       5.413   3.269  -5.310  0.00  0.00    -0.077 A 
ATOM      3  C2  UNL d   1       4.515   2.386  -5.921  0.00  0.00    -0.001 A 
ATOM      4  C3  UNL d   1       4.211   1.162  -5.323  0.00  0.00     0.003 A 
ATOM      5  C4  UNL d   1       4.801   0.810  -4.110  0.00  0.00    -0.005 A 
ATOM      6  C5  UNL d   1       5.695   1.684  -3.493  0.00  0.00     0.003 A 
ATOM      7  C6  UNL d   1       5.999   2.909  -4.090  0.00  0.00    -0.001 A 
ENDROOT
TORSDOF 0
ENDMDL
