MODEL 1
REMARK minimizedAffinity 3.96814489
REMARK minimizedRMSD -1
REMARK  0 active torsions:
REMARK  status: ('A' for Active; 'I' for Inactive)
ROOT
ATOM      1  C   UNL d   1      -5.112   0.370   3.370  0.00  0.00     0.078 C 
ATOM      2  C1  UNL d   1      -3.745   0.402   2.755  0.00  0.00    -0.077 A 
ATOM      3  C2  UNL d   1      -3.438   1.297   1.723  0.00  0.00    -0.001 A 
ATOM      4  C3  UNL d   1      -2.164   1.309   1.153  0.00  0.00     0.003 A 
ATOM      5  C4  UNL d   1      -1.186   0.426   1.609  0.00  0.00    -0.005 A 
ATOM      6  C5  UNL d   1      -1.482  -0.470   2.634  0.00  0.00     0.003 A 
ATOM      7  C6  UNL d   1      -2.756  -0.483   3.204  0.00  0.00    -0.001 A 
ENDROOT
TORSDOF 0
ENDMDL
