MODEL 1
REMARK minimizedAffinity -3.22318077
REMARK minimizedRMSD -1
REMARK  0 active torsions:
REMARK  status: ('A' for Active; 'I' for Inactive)
ROOT
ATOM      1  C   UNL d   1      -5.740  -0.252   2.104  0.00  0.00     0.078 C 
ATOM      2  C1  UNL d   1      -4.380   0.077   1.565  0.00  0.00    -0.077 A 
ATOM      3  C2  UNL d   1      -3.600   1.087   2.142  0.00  0.00    -0.001 A 
ATOM      4  C3  UNL d   1      -2.340   1.390   1.623  0.00  0.00     0.003 A 
ATOM      5  C4  UNL d   1      -1.849   0.688   0.524  0.00  0.00    -0.005 A 
ATOM      6  C5  UNL d   1      -2.619  -0.317  -0.058  0.00  0.00     0.003 A 
ATOM      7  C6  UNL d   1      -3.879  -0.621   0.459  0.00  0.00    -0.001 A 
ENDROOT
TORSDOF 0
ENDMDL
