MODEL 1
REMARK minimizedAffinity 0.807680845
REMARK minimizedRMSD -1
REMARK  0 active torsions:
REMARK  status: ('A' for Active; 'I' for Inactive)
ROOT
ATOM      1  C   UNL d   1       3.035   2.206   0.000  0.00  0.00     0.078 C 
ATOM      2  C1  UNL d   1       3.856   1.303   0.873  0.00  0.00    -0.077 A 
ATOM      3  C2  UNL d   1       5.250   1.253   0.749  0.00  0.00    -0.001 A 
ATOM      4  C3  UNL d   1       6.000   0.401   1.561  0.00  0.00     0.003 A 
ATOM      5  C4  UNL d   1       5.365  -0.409   2.501  0.00  0.00    -0.005 A 
ATOM      6  C5  UNL d   1       3.979  -0.367   2.630  0.00  0.00     0.003 A 
ATOM      7  C6  UNL d   1       3.226   0.484   1.819  0.00  0.00    -0.001 A 
ENDROOT
TORSDOF 0
ENDMDL
