MODEL 1
REMARK minimizedAffinity 1.77441859
REMARK minimizedRMSD -1
REMARK  0 active torsions:
REMARK  status: ('A' for Active; 'I' for Inactive)
ROOT
ATOM      1  C   UNL d   1       2.626   1.931  -5.247  0.00  0.00     0.078 C 
ATOM      2  C1  UNL d   1       2.538   0.459  -4.975  0.00  0.00    -0.077 A 
ATOM      3  C2  UNL d   1       3.269  -0.127  -3.935  0.00  0.00    -0.001 A 
ATOM      4  C3  UNL d   1       3.185  -1.500  -3.699  0.00  0.00     0.003 A 
ATOM      5  C4  UNL d   1       2.372  -2.299  -4.500  0.00  0.00    -0.005 A 
ATOM      6  C5  UNL d   1       1.643  -1.726  -5.540  0.00  0.00     0.003 A 
ATOM      7  C6  UNL d   1       1.725  -0.353  -5.777  0.00  0.00    -0.001 A 
ENDROOT
TORSDOF 0
ENDMDL
