MODEL 1
REMARK minimizedAffinity 5.79189968
REMARK minimizedRMSD -1
REMARK  0 active torsions:
REMARK  status: ('A' for Active; 'I' for Inactive)
ROOT
ATOM      1  C   UNL d   1      -1.931   1.064   1.543  0.00  0.00     0.078 C 
ATOM      2  C1  UNL d   1      -3.242   0.806   2.223  0.00  0.00    -0.077 A 
ATOM      3  C2  UNL d   1      -3.372   0.937   3.611  0.00  0.00    -0.001 A 
ATOM      4  C3  UNL d   1      -4.596   0.685   4.232  0.00  0.00     0.003 A 
ATOM      5  C4  UNL d   1      -5.700   0.300   3.473  0.00  0.00    -0.005 A 
ATOM      6  C5  UNL d   1      -5.579   0.165   2.092  0.00  0.00     0.003 A 
ATOM      7  C6  UNL d   1      -4.356   0.417   1.469  0.00  0.00    -0.001 A 
ENDROOT
TORSDOF 0
ENDMDL
