MODEL 1
REMARK minimizedAffinity 7.12801647
REMARK minimizedRMSD -1
REMARK  1 active torsions:
REMARK  status: ('A' for Active; 'I' for Inactive)
REMARK    1  A    between atoms: C1_2  and  C2_3 
ROOT
ATOM      1  C2  UNL d   1       3.305   0.431   0.554  0.00  0.00    -0.073 A 
ATOM      2  C3  UNL d   1       4.140   1.318  -0.135  0.00  0.00    -0.002 A 
ATOM      3  C4  UNL d   1       4.651   0.976  -1.388  0.00  0.00     0.004 A 
ATOM      4  C5  UNL d   1       4.327  -0.251  -1.967  0.00  0.00    -0.004 A 
ATOM      5  C6  UNL d   1       3.485  -1.146  -1.300  0.00  0.00    -0.075 A 
ATOM      6  C7  UNL d   1       3.129  -2.471  -1.908  0.00  0.00     0.076 C 
ATOM      7  C8  UNL d   1       2.978  -0.796  -0.041  0.00  0.00     0.001 A 
ENDROOT
BRANCH   1   8
ATOM      8  C1  UNL d   1       2.746   0.798   1.904  0.00  0.00     0.053 C 
ATOM      9  C   UNL d   1       1.447   0.066   2.201  0.00  0.00     0.018 C 
ENDBRANCH   1   8
TORSDOF 1
ENDMDL
