MODEL 1
REMARK minimizedAffinity 2.4596777
REMARK minimizedRMSD -1
REMARK  1 active torsions:
REMARK  status: ('A' for Active; 'I' for Inactive)
REMARK    1  A    between atoms: C1_2  and  C2_3 
ROOT
ATOM      1  C2  UNL d   1       2.537   0.307  -0.401  0.00  0.00    -0.073 A 
ATOM      2  C3  UNL d   1       2.863  -1.054  -0.412  0.00  0.00    -0.002 A 
ATOM      3  C4  UNL d   1       4.197  -1.459  -0.467  0.00  0.00     0.004 A 
ATOM      4  C5  UNL d   1       5.218  -0.509  -0.506  0.00  0.00    -0.004 A 
ATOM      5  C6  UNL d   1       4.913   0.856  -0.484  0.00  0.00    -0.075 A 
ATOM      6  C7  UNL d   1       6.000   1.890  -0.527  0.00  0.00     0.076 C 
ATOM      7  C8  UNL d   1       3.571   1.255  -0.431  0.00  0.00     0.001 A 
ENDROOT
BRANCH   1   8
ATOM      8  C1  UNL d   1       1.098   0.750  -0.335  0.00  0.00     0.053 C 
ATOM      9  C   UNL d   1       0.676   1.105   1.082  0.00  0.00     0.018 C 
ENDBRANCH   1   8
TORSDOF 1
ENDMDL
