MODEL 1
REMARK minimizedAffinity 8.03762722
REMARK minimizedRMSD -1
REMARK  1 active torsions:
REMARK  status: ('A' for Active; 'I' for Inactive)
REMARK    1  A    between atoms: C1_2  and  C2_3 
ROOT
ATOM      1  C2  UNL d   1       3.195   0.147  -0.371  0.00  0.00    -0.073 A 
ATOM      2  C3  UNL d   1       3.927   1.096  -1.095  0.00  0.00    -0.002 A 
ATOM      3  C4  UNL d   1       5.322   1.072  -1.079  0.00  0.00     0.004 A 
ATOM      4  C5  UNL d   1       5.999   0.098  -0.345  0.00  0.00    -0.004 A 
ATOM      5  C6  UNL d   1       5.286  -0.866   0.375  0.00  0.00    -0.075 A 
ATOM      6  C7  UNL d   1       5.999  -1.919   1.171  0.00  0.00     0.076 C 
ATOM      7  C8  UNL d   1       3.885  -0.834   0.356  0.00  0.00     0.001 A 
ENDROOT
BRANCH   1   8
ATOM      8  C1  UNL d   1       1.689   0.165  -0.390  0.00  0.00     0.053 C 
ATOM      9  C   UNL d   1       1.102   0.309   1.005  0.00  0.00     0.018 C 
ENDBRANCH   1   8
TORSDOF 1
ENDMDL
