MODEL 1
REMARK minimizedAffinity 14.5525999
REMARK minimizedRMSD -1
REMARK  1 active torsions:
REMARK  status: ('A' for Active; 'I' for Inactive)
REMARK    1  A    between atoms: C1_2  and  C2_3 
ROOT
ATOM      1  C2  UNL d   1      -2.170  -5.216  -4.042  0.00  0.00    -0.073 A 
ATOM      2  C3  UNL d   1      -3.024  -4.129  -3.822  0.00  0.00    -0.002 A 
ATOM      3  C4  UNL d   1      -2.948  -3.402  -2.634  0.00  0.00     0.004 A 
ATOM      4  C5  UNL d   1      -2.014  -3.748  -1.658  0.00  0.00    -0.004 A 
ATOM      5  C6  UNL d   1      -1.143  -4.823  -1.864  0.00  0.00    -0.075 A 
ATOM      6  C7  UNL d   1      -0.134  -5.209  -0.823  0.00  0.00     0.076 C 
ATOM      7  C8  UNL d   1      -1.228  -5.550  -3.059  0.00  0.00     0.001 A 
ENDROOT
BRANCH   1   8
ATOM      8  C1  UNL d   1      -2.244  -6.000  -5.327  0.00  0.00     0.053 C 
ATOM      9  C   UNL d   1      -3.607  -5.880  -5.990  0.00  0.00     0.018 C 
ENDBRANCH   1   8
TORSDOF 1
ENDMDL
