MODEL 1
REMARK minimizedAffinity 16.5229855
REMARK minimizedRMSD -1
REMARK  1 active torsions:
REMARK  status: ('A' for Active; 'I' for Inactive)
REMARK    1  A    between atoms: C1_2  and  C2_3 
ROOT
ATOM      1  C2  UNL d   1       1.575  -4.015   4.463  0.00  0.00    -0.073 A 
ATOM      2  C3  UNL d   1       0.296  -4.387   4.034  0.00  0.00    -0.002 A 
ATOM      3  C4  UNL d   1      -0.497  -3.489   3.319  0.00  0.00     0.004 A 
ATOM      4  C5  UNL d   1      -0.019  -2.213   3.021  0.00  0.00    -0.004 A 
ATOM      5  C6  UNL d   1       1.261  -1.826   3.431  0.00  0.00    -0.075 A 
ATOM      6  C7  UNL d   1       1.790  -0.457   3.120  0.00  0.00     0.076 C 
ATOM      7  C8  UNL d   1       2.051  -2.733   4.150  0.00  0.00     0.001 A 
ENDROOT
BRANCH   1   8
ATOM      8  C1  UNL d   1       2.438  -4.984   5.229  0.00  0.00     0.053 C 
ATOM      9  C   UNL d   1       1.609  -5.999   5.999  0.00  0.00     0.018 C 
ENDBRANCH   1   8
TORSDOF 1
ENDMDL
