MODEL 1
REMARK minimizedAffinity 7.8300705
REMARK minimizedRMSD -1
REMARK  1 active torsions:
REMARK  status: ('A' for Active; 'I' for Inactive)
REMARK    1  A    between atoms: C1_2  and  C2_3 
ROOT
ATOM      1  C2  UNL d   1       3.991  -1.359  -2.558  0.00  0.00    -0.073 A 
ATOM      2  C3  UNL d   1       3.153  -1.671  -1.481  0.00  0.00    -0.002 A 
ATOM      3  C4  UNL d   1       3.024  -0.787  -0.409  0.00  0.00     0.004 A 
ATOM      4  C5  UNL d   1       3.723   0.420  -0.406  0.00  0.00    -0.004 A 
ATOM      5  C6  UNL d   1       4.556   0.755  -1.479  0.00  0.00    -0.075 A 
ATOM      6  C7  UNL d   1       5.318   2.048  -1.489  0.00  0.00     0.076 C 
ATOM      7  C8  UNL d   1       4.683  -0.140  -2.550  0.00  0.00     0.001 A 
ENDROOT
BRANCH   1   8
ATOM      8  C1  UNL d   1       4.129  -2.308  -3.720  0.00  0.00     0.053 C 
ATOM      9  C   UNL d   1       5.584  -2.553  -4.085  0.00  0.00     0.018 C 
ENDBRANCH   1   8
TORSDOF 1
ENDMDL
