MODEL 1
REMARK minimizedAffinity -4.43070889
REMARK minimizedRMSD -1
REMARK  0 active torsions:
REMARK  status: ('A' for Active; 'I' for Inactive)
ROOT
ATOM      1  C   UNL d   1      -1.135   2.997   1.303  0.00  0.00     0.023 A 
ATOM      2  C1  UNL d   1      -0.781   1.890   2.074  0.00  0.00     0.003 A 
ATOM      3  C2  UNL d   1      -0.377   0.706   1.454  0.00  0.00     0.048 A 
ATOM      4  C3  UNL d   1      -0.327   0.636   0.062  0.00  0.00     0.023 A 
ATOM      5  C4  UNL d   1      -0.679   1.742  -0.714  0.00  0.00     0.048 A 
ATOM      6  C5  UNL d   1      -1.084   2.923  -0.089  0.00  0.00     0.003 A 
ATOM      7  I   UNL d   1       0.275  -1.125  -0.863  0.00  0.00    -0.146 I 
ENDROOT
TORSDOF 0
ENDMDL
