MODEL 1
REMARK minimizedAffinity -5.11935616
REMARK minimizedRMSD -1
REMARK  0 active torsions:
REMARK  status: ('A' for Active; 'I' for Inactive)
ROOT
ATOM      1  C   UNL d   1      -1.107   3.084   0.385  0.00  0.00     0.023 A 
ATOM      2  C1  UNL d   1      -0.672   2.158   1.333  0.00  0.00     0.003 A 
ATOM      3  C2  UNL d   1      -0.181   0.917   0.924  0.00  0.00     0.048 A 
ATOM      4  C3  UNL d   1      -0.127   0.608  -0.435  0.00  0.00     0.023 A 
ATOM      5  C4  UNL d   1      -0.561   1.532  -1.387  0.00  0.00     0.048 A 
ATOM      6  C5  UNL d   1      -1.052   2.772  -0.973  0.00  0.00     0.003 A 
ATOM      7  I   UNL d   1       0.604  -1.239  -1.047  0.00  0.00    -0.146 I 
ENDROOT
TORSDOF 0
ENDMDL
