MODEL 1
REMARK minimizedAffinity -3.35027552
REMARK minimizedRMSD -1
REMARK  0 active torsions:
REMARK  status: ('A' for Active; 'I' for Inactive)
ROOT
ATOM      1  C   UNL d   1      -0.809   3.026   1.311  0.00  0.00     0.023 A 
ATOM      2  C1  UNL d   1      -0.814   1.847   2.055  0.00  0.00     0.003 A 
ATOM      3  C2  UNL d   1      -0.471   0.636   1.449  0.00  0.00     0.048 A 
ATOM      4  C3  UNL d   1      -0.123   0.613   0.099  0.00  0.00     0.023 A 
ATOM      5  C4  UNL d   1      -0.116   1.791  -0.649  0.00  0.00     0.048 A 
ATOM      6  C5  UNL d   1      -0.461   2.998  -0.040  0.00  0.00     0.003 A 
ATOM      7  I   UNL d   1       0.388  -1.188  -0.804  0.00  0.00    -0.146 I 
ENDROOT
TORSDOF 0
ENDMDL
