MODEL 1
REMARK minimizedAffinity -4.74870682
REMARK minimizedRMSD -1
REMARK  0 active torsions:
REMARK  status: ('A' for Active; 'I' for Inactive)
ROOT
ATOM      1  C   UNL d   1      -0.808   3.988   0.254  0.00  0.00     0.023 A 
ATOM      2  C1  UNL d   1      -0.758   3.300   1.466  0.00  0.00     0.003 A 
ATOM      3  C2  UNL d   1      -0.604   1.912   1.477  0.00  0.00     0.048 A 
ATOM      4  C3  UNL d   1      -0.499   1.219   0.272  0.00  0.00     0.023 A 
ATOM      5  C4  UNL d   1      -0.547   1.903  -0.944  0.00  0.00     0.048 A 
ATOM      6  C5  UNL d   1      -0.703   3.291  -0.950  0.00  0.00     0.003 A 
ATOM      7  I   UNL d   1      -0.268  -0.847   0.285  0.00  0.00    -0.146 I 
ENDROOT
TORSDOF 0
ENDMDL
