MODEL 1
REMARK minimizedAffinity -6.43118429
REMARK minimizedRMSD -1
REMARK  3 active torsions:
REMARK  status: ('A' for Active; 'I' for Inactive)
REMARK    1  A    between atoms: C3'_2  and  C2'_3 
REMARK    2  A    between atoms: C2'_3  and  C1'_4 
REMARK    3  A    between atoms: C1'_4  and  C1_5 
ROOT
ATOM      1  C1  N4B d   1       0.043  -0.290  -0.394  0.00  0.00    -0.075 A 
ATOM      2  C2  N4B d   1       0.439  -1.487  -1.030  0.00  0.00     0.002 A 
ATOM      3  C3  N4B d   1       0.427  -2.671  -0.334  0.00  0.00     0.002 A 
ATOM      4  C4  N4B d   1       0.043  -2.679   0.999  0.00  0.00    -0.004 A 
ATOM      5  C5  N4B d   1      -0.361  -1.523   1.599  0.00  0.00     0.002 A 
ATOM      6  C6  N4B d   1      -0.358  -0.326   0.910  0.00  0.00     0.002 A 
ENDROOT
BRANCH   1   7
ATOM      7  C1' N4B d   1       0.122   1.042  -1.088  0.00  0.00     0.057 C 
BRANCH   7   8
ATOM      8  C2' N4B d   1       0.119   2.153  -0.043  0.00  0.00     0.009 C 
BRANCH   8   9
ATOM      9  C3' N4B d   1       1.473   2.835   0.065  0.00  0.00     0.004 C 
ATOM     10  C4' N4B d   1       2.016   2.831   1.463  0.00  0.00     0.003 C 
ENDBRANCH   8   9
ENDBRANCH   7   8
ENDBRANCH   1   7
TORSDOF 3
ENDMDL
