MODEL 1
REMARK minimizedAffinity -4.45619917
REMARK minimizedRMSD -1
REMARK  3 active torsions:
REMARK  status: ('A' for Active; 'I' for Inactive)
REMARK    1  A    between atoms: C3'_2  and  C2'_3 
REMARK    2  A    between atoms: C2'_3  and  C1'_4 
REMARK    3  A    between atoms: C1'_4  and  C1_5 
ROOT
ATOM      1  C1  N4B d   1       0.120   0.488   0.018  0.00  0.00    -0.075 A 
ATOM      2  C2  N4B d   1       0.828  -0.470  -0.739  0.00  0.00     0.002 A 
ATOM      3  C3  N4B d   1       0.605  -1.809  -0.533  0.00  0.00     0.002 A 
ATOM      4  C4  N4B d   1      -0.303  -2.212   0.434  0.00  0.00    -0.004 A 
ATOM      5  C5  N4B d   1      -1.002  -1.280   1.144  0.00  0.00     0.002 A 
ATOM      6  C6  N4B d   1      -0.791   0.069   0.944  0.00  0.00     0.002 A 
ENDROOT
BRANCH   1   7
ATOM      7  C1' N4B d   1       0.392   1.962  -0.111  0.00  0.00     0.057 C 
BRANCH   7   8
ATOM      8  C2' N4B d   1       1.830   2.245   0.313  0.00  0.00     0.009 C 
BRANCH   8   9
ATOM      9  C3' N4B d   1       1.901   3.265   1.436  0.00  0.00     0.004 C 
ATOM     10  C4' N4B d   1       0.977   4.427   1.224  0.00  0.00     0.003 C 
ENDBRANCH   8   9
ENDBRANCH   7   8
ENDBRANCH   1   7
TORSDOF 3
ENDMDL
