MODEL 1
REMARK minimizedAffinity -4.08482885
REMARK minimizedRMSD -1
REMARK  3 active torsions:
REMARK  status: ('A' for Active; 'I' for Inactive)
REMARK    1  A    between atoms: C3'_2  and  C2'_3 
REMARK    2  A    between atoms: C2'_3  and  C1'_4 
REMARK    3  A    between atoms: C1'_4  and  C1_5 
ROOT
ATOM      1  C1  N4B d   1      -0.082   0.494  -0.274  0.00  0.00    -0.075 A 
ATOM      2  C2  N4B d   1       0.206  -0.004  -1.564  0.00  0.00     0.002 A 
ATOM      3  C3  N4B d   1       0.026  -1.337  -1.841  0.00  0.00     0.002 A 
ATOM      4  C4  N4B d   1      -0.421  -2.191  -0.843  0.00  0.00    -0.004 A 
ATOM      5  C5  N4B d   1      -0.722  -1.697   0.392  0.00  0.00     0.002 A 
ATOM      6  C6  N4B d   1      -0.549  -0.359   0.684  0.00  0.00     0.002 A 
ENDROOT
BRANCH   1   7
ATOM      7  C1' N4B d   1       0.180   1.927   0.101  0.00  0.00     0.057 C 
BRANCH   7   8
ATOM      8  C2' N4B d   1       1.553   2.338  -0.423  0.00  0.00     0.009 C 
BRANCH   8   9
ATOM      9  C3' N4B d   1       2.182   3.430   0.427  0.00  0.00     0.004 C 
ATOM     10  C4' N4B d   1       1.540   3.557   1.776  0.00  0.00     0.003 C 
ENDBRANCH   8   9
ENDBRANCH   7   8
ENDBRANCH   1   7
TORSDOF 3
ENDMDL
