MODEL 1
REMARK minimizedAffinity -4.35006428
REMARK minimizedRMSD -1
REMARK  3 active torsions:
REMARK  status: ('A' for Active; 'I' for Inactive)
REMARK    1  A    between atoms: C3'_2  and  C2'_3 
REMARK    2  A    between atoms: C2'_3  and  C1'_4 
REMARK    3  A    between atoms: C1'_4  and  C1_5 
ROOT
ATOM      1  C1  N4B d   1      -0.189  -0.309  -0.728  0.00  0.00    -0.075 A 
ATOM      2  C2  N4B d   1      -0.206  -1.479  -1.518  0.00  0.00     0.002 A 
ATOM      3  C3  N4B d   1      -0.694  -2.652  -0.997  0.00  0.00     0.002 A 
ATOM      4  C4  N4B d   1      -1.150  -2.684   0.312  0.00  0.00    -0.004 A 
ATOM      5  C5  N4B d   1      -1.153  -1.543   1.061  0.00  0.00     0.002 A 
ATOM      6  C6  N4B d   1      -0.670  -0.356   0.548  0.00  0.00     0.002 A 
ENDROOT
BRANCH   1   7
ATOM      7  C1' N4B d   1       0.413   0.977  -1.225  0.00  0.00     0.057 C 
BRANCH   7   8
ATOM      8  C2' N4B d   1       0.597   1.932  -0.050  0.00  0.00     0.009 C 
BRANCH   8   9
ATOM      9  C3' N4B d   1       1.977   2.567  -0.043  0.00  0.00     0.004 C 
ATOM     10  C4' N4B d   1       2.173   3.518   1.099  0.00  0.00     0.003 C 
ENDBRANCH   8   9
ENDBRANCH   7   8
ENDBRANCH   1   7
TORSDOF 3
ENDMDL
