MODEL 1
REMARK minimizedAffinity -3.38301587
REMARK minimizedRMSD -1
REMARK  3 active torsions:
REMARK  status: ('A' for Active; 'I' for Inactive)
REMARK    1  A    between atoms: C3'_2  and  C2'_3 
REMARK    2  A    between atoms: C2'_3  and  C1'_4 
REMARK    3  A    between atoms: C1'_4  and  C1_5 
ROOT
ATOM      1  C1  N4B d   1      -0.066  -0.770  -0.362  0.00  0.00    -0.075 A 
ATOM      2  C2  N4B d   1      -0.490  -1.865   0.423  0.00  0.00     0.002 A 
ATOM      3  C3  N4B d   1      -0.476  -3.133  -0.104  0.00  0.00     0.002 A 
ATOM      4  C4  N4B d   1      -0.062  -3.328  -1.413  0.00  0.00    -0.004 A 
ATOM      5  C5  N4B d   1       0.370  -2.268  -2.156  0.00  0.00     0.002 A 
ATOM      6  C6  N4B d   1       0.365  -0.988  -1.639  0.00  0.00     0.002 A 
ENDROOT
BRANCH   1   7
ATOM      7  C1' N4B d   1      -0.145   0.646   0.141  0.00  0.00     0.057 C 
BRANCH   7   8
ATOM      8  C2' N4B d   1       0.226   1.601  -0.990  0.00  0.00     0.009 C 
BRANCH   8   9
ATOM      9  C3' N4B d   1       0.711   2.941  -0.465  0.00  0.00     0.004 C 
ATOM     10  C4' N4B d   1       1.235   2.861   0.938  0.00  0.00     0.003 C 
ENDBRANCH   8   9
ENDBRANCH   7   8
ENDBRANCH   1   7
TORSDOF 3
ENDMDL
