MODEL 1
REMARK minimizedAffinity -6.37572336
REMARK minimizedRMSD -1
REMARK  3 active torsions:
REMARK  status: ('A' for Active; 'I' for Inactive)
REMARK    1  A    between atoms: C3'_2  and  C2'_3 
REMARK    2  A    between atoms: C2'_3  and  C1'_4 
REMARK    3  A    between atoms: C1'_4  and  C1_5 
ROOT
ATOM      1  C1  N4B d   1      -0.599  -0.326   0.507  0.00  0.00    -0.075 A 
ATOM      2  C2  N4B d   1       0.060  -0.991  -0.550  0.00  0.00     0.002 A 
ATOM      3  C3  N4B d   1       0.495  -2.284  -0.383  0.00  0.00     0.002 A 
ATOM      4  C4  N4B d   1       0.298  -2.921   0.833  0.00  0.00    -0.004 A 
ATOM      5  C5  N4B d   1      -0.362  -2.280   1.840  0.00  0.00     0.002 A 
ATOM      6  C6  N4B d   1      -0.808  -0.983   1.685  0.00  0.00     0.002 A 
ENDROOT
BRANCH   1   7
ATOM      7  C1' N4B d   1      -1.016   1.116   0.400  0.00  0.00     0.057 C 
BRANCH   7   8
ATOM      8  C2' N4B d   1      -0.072   1.840  -0.555  0.00  0.00     0.009 C 
BRANCH   8   9
ATOM      9  C3' N4B d   1       0.500   3.105   0.063  0.00  0.00     0.004 C 
ATOM     10  C4' N4B d   1       1.945   2.965   0.439  0.00  0.00     0.003 C 
ENDBRANCH   8   9
ENDBRANCH   7   8
ENDBRANCH   1   7
TORSDOF 3
ENDMDL
