MODEL 1
REMARK minimizedAffinity -5.95226049
REMARK minimizedRMSD -1
REMARK  3 active torsions:
REMARK  status: ('A' for Active; 'I' for Inactive)
REMARK    1  A    between atoms: C3'_2  and  C2'_3 
REMARK    2  A    between atoms: C2'_3  and  C1'_4 
REMARK    3  A    between atoms: C1'_4  and  C1_5 
ROOT
ATOM      1  C1  N4B d   1       0.030  -1.248  -0.275  0.00  0.00    -0.075 A 
ATOM      2  C2  N4B d   1      -0.319  -2.471   0.340  0.00  0.00     0.002 A 
ATOM      3  C3  N4B d   1      -0.213  -3.646  -0.362  0.00  0.00     0.002 A 
ATOM      4  C4  N4B d   1       0.220  -3.623  -1.679  0.00  0.00    -0.004 A 
ATOM      5  C5  N4B d   1       0.579  -2.440  -2.258  0.00  0.00     0.002 A 
ATOM      6  C6  N4B d   1       0.481  -1.251  -1.563  0.00  0.00     0.002 A 
ENDROOT
BRANCH   1   7
ATOM      7  C1' N4B d   1      -0.151   0.072   0.424  0.00  0.00     0.057 C 
BRANCH   7   8
ATOM      8  C2' N4B d   1      -0.005   1.201  -0.593  0.00  0.00     0.009 C 
BRANCH   8   9
ATOM      9  C3' N4B d   1       0.475   2.489   0.054  0.00  0.00     0.004 C 
ATOM     10  C4' N4B d   1       1.968   2.627   0.035  0.00  0.00     0.003 C 
ENDBRANCH   8   9
ENDBRANCH   7   8
ENDBRANCH   1   7
TORSDOF 3
ENDMDL
