MODEL 1
REMARK minimizedAffinity -4.39570045
REMARK minimizedRMSD -1
REMARK  3 active torsions:
REMARK  status: ('A' for Active; 'I' for Inactive)
REMARK    1  A    between atoms: C3'_2  and  C2'_3 
REMARK    2  A    between atoms: C2'_3  and  C1'_4 
REMARK    3  A    between atoms: C1'_4  and  C1_5 
ROOT
ATOM      1  C1  N4B d   1      -0.124  -1.004  -0.056  0.00  0.00    -0.075 A 
ATOM      2  C2  N4B d   1       0.207  -1.064  -1.427  0.00  0.00     0.002 A 
ATOM      3  C3  N4B d   1       0.230  -2.274  -2.076  0.00  0.00     0.002 A 
ATOM      4  C4  N4B d   1      -0.056  -3.434  -1.373  0.00  0.00    -0.004 A 
ATOM      5  C5  N4B d   1      -0.400  -3.366  -0.055  0.00  0.00     0.002 A 
ATOM      6  C6  N4B d   1      -0.431  -2.156   0.609  0.00  0.00     0.002 A 
ENDROOT
BRANCH   1   7
ATOM      7  C1' N4B d   1      -0.078   0.286   0.717  0.00  0.00     0.057 C 
BRANCH   7   8
ATOM      8  C2' N4B d   1      -0.002   1.454  -0.262  0.00  0.00     0.009 C 
BRANCH   8   9
ATOM      9  C3' N4B d   1       0.472   2.730   0.412  0.00  0.00     0.004 C 
ATOM     10  C4' N4B d   1       1.966   2.825   0.491  0.00  0.00     0.003 C 
ENDBRANCH   8   9
ENDBRANCH   7   8
ENDBRANCH   1   7
TORSDOF 3
ENDMDL
