MODEL 1
REMARK minimizedAffinity -3.18243265
REMARK minimizedRMSD -1
REMARK  3 active torsions:
REMARK  status: ('A' for Active; 'I' for Inactive)
REMARK    1  A    between atoms: C3'_2  and  C2'_3 
REMARK    2  A    between atoms: C2'_3  and  C1'_4 
REMARK    3  A    between atoms: C1'_4  and  C1_5 
ROOT
ATOM      1  C1  N4B d   1      -0.126   0.079  -0.047  0.00  0.00    -0.075 A 
ATOM      2  C2  N4B d   1      -0.433  -0.326   1.271  0.00  0.00     0.002 A 
ATOM      3  C3  N4B d   1      -0.365  -1.654   1.614  0.00  0.00     0.002 A 
ATOM      4  C4  N4B d   1      -0.012  -2.593   0.656  0.00  0.00    -0.004 A 
ATOM      5  C5  N4B d   1       0.308  -2.191  -0.607  0.00  0.00     0.002 A 
ATOM      6  C6  N4B d   1       0.248  -0.859  -0.965  0.00  0.00     0.002 A 
ENDROOT
BRANCH   1   7
ATOM      7  C1' N4B d   1      -0.270   1.509  -0.492  0.00  0.00     0.057 C 
BRANCH   7   8
ATOM      8  C2' N4B d   1       1.067   2.223  -0.320  0.00  0.00     0.009 C 
BRANCH   8   9
ATOM      9  C3' N4B d   1       0.920   3.529   0.442  0.00  0.00     0.004 C 
ATOM     10  C4' N4B d   1       1.853   3.627   1.612  0.00  0.00     0.003 C 
ENDBRANCH   8   9
ENDBRANCH   7   8
ENDBRANCH   1   7
TORSDOF 3
ENDMDL
