MODEL 1
REMARK minimizedAffinity -5.8990345
REMARK minimizedRMSD -1
REMARK  3 active torsions:
REMARK  status: ('A' for Active; 'I' for Inactive)
REMARK    1  A    between atoms: C3'_2  and  C2'_3 
REMARK    2  A    between atoms: C2'_3  and  C1'_4 
REMARK    3  A    between atoms: C1'_4  and  C1_5 
ROOT
ATOM      1  C1  N4B d   1      -0.050   0.499   0.479  0.00  0.00    -0.075 A 
ATOM      2  C2  N4B d   1      -0.301   1.502  -0.482  0.00  0.00     0.002 A 
ATOM      3  C3  N4B d   1      -1.249   2.465  -0.238  0.00  0.00     0.002 A 
ATOM      4  C4  N4B d   1      -1.968   2.434   0.948  0.00  0.00    -0.004 A 
ATOM      5  C5  N4B d   1      -1.702   1.477   1.882  0.00  0.00     0.002 A 
ATOM      6  C6  N4B d   1      -0.749   0.505   1.652  0.00  0.00     0.002 A 
ENDROOT
BRANCH   1   7
ATOM      7  C1' N4B d   1       0.917  -0.624   0.221  0.00  0.00     0.057 C 
BRANCH   7   8
ATOM      8  C2' N4B d   1       1.119  -0.774  -1.284  0.00  0.00     0.009 C 
BRANCH   8   9
ATOM      9  C3' N4B d   1       1.188  -2.232  -1.706  0.00  0.00     0.004 C 
ATOM     10  C4' N4B d   1       0.413  -2.511  -2.959  0.00  0.00     0.003 C 
ENDBRANCH   8   9
ENDBRANCH   7   8
ENDBRANCH   1   7
TORSDOF 3
ENDMDL
