MODEL 1
REMARK minimizedAffinity -5.98407602
REMARK minimizedRMSD -1
REMARK  3 active torsions:
REMARK  status: ('A' for Active; 'I' for Inactive)
REMARK    1  A    between atoms: C3'_2  and  C2'_3 
REMARK    2  A    between atoms: C2'_3  and  C1'_4 
REMARK    3  A    between atoms: C1'_4  and  C1_5 
ROOT
ATOM      1  C1  N4B d   1      -0.490   0.999   0.099  0.00  0.00    -0.075 A 
ATOM      2  C2  N4B d   1      -1.461   1.508   0.988  0.00  0.00     0.002 A 
ATOM      3  C3  N4B d   1      -1.775   2.845   0.970  0.00  0.00     0.002 A 
ATOM      4  C4  N4B d   1      -1.119   3.691   0.088  0.00  0.00    -0.004 A 
ATOM      5  C5  N4B d   1      -0.201   3.187  -0.785  0.00  0.00     0.002 A 
ATOM      6  C6  N4B d   1       0.122   1.844  -0.780  0.00  0.00     0.002 A 
ENDROOT
BRANCH   1   7
ATOM      7  C1' N4B d   1      -0.052  -0.440   0.141  0.00  0.00     0.057 C 
BRANCH   7   8
ATOM      8  C2' N4B d   1       1.066  -0.653  -0.876  0.00  0.00     0.009 C 
BRANCH   8   9
ATOM      9  C3' N4B d   1       1.245  -2.120  -1.224  0.00  0.00     0.004 C 
ATOM     10  C4' N4B d   1       0.745  -2.456  -2.598  0.00  0.00     0.003 C 
ENDBRANCH   8   9
ENDBRANCH   7   8
ENDBRANCH   1   7
TORSDOF 3
ENDMDL
