MODEL 1
REMARK minimizedAffinity -5.88737822
REMARK minimizedRMSD -1
REMARK  3 active torsions:
REMARK  status: ('A' for Active; 'I' for Inactive)
REMARK    1  A    between atoms: C3'_2  and  C2'_3 
REMARK    2  A    between atoms: C2'_3  and  C1'_4 
REMARK    3  A    between atoms: C1'_4  and  C1_5 
ROOT
ATOM      1  C1  N4B d   1      -0.311   0.794   0.495  0.00  0.00    -0.075 A 
ATOM      2  C2  N4B d   1      -1.283   1.089   1.475  0.00  0.00     0.002 A 
ATOM      3  C3  N4B d   1      -1.858   2.336   1.519  0.00  0.00     0.002 A 
ATOM      4  C4  N4B d   1      -1.464   3.305   0.608  0.00  0.00    -0.004 A 
ATOM      5  C5  N4B d   1      -0.543   3.004  -0.352  0.00  0.00     0.002 A 
ATOM      6  C6  N4B d   1       0.040   1.754  -0.410  0.00  0.00     0.002 A 
ENDROOT
BRANCH   1   7
ATOM      7  C1' N4B d   1       0.408  -0.527   0.461  0.00  0.00     0.057 C 
BRANCH   7   8
ATOM      8  C2' N4B d   1       1.324  -0.568  -0.758  0.00  0.00     0.009 C 
BRANCH   8   9
ATOM      9  C3' N4B d   1       1.523  -1.984  -1.272  0.00  0.00     0.004 C 
ATOM     10  C4' N4B d   1       0.600  -2.326  -2.402  0.00  0.00     0.003 C 
ENDBRANCH   8   9
ENDBRANCH   7   8
ENDBRANCH   1   7
TORSDOF 3
ENDMDL
