MODEL 1
REMARK minimizedAffinity -5.94873524
REMARK minimizedRMSD -1
REMARK  3 active torsions:
REMARK  status: ('A' for Active; 'I' for Inactive)
REMARK    1  A    between atoms: C3'_2  and  C2'_3 
REMARK    2  A    between atoms: C2'_3  and  C1'_4 
REMARK    3  A    between atoms: C1'_4  and  C1_5 
ROOT
ATOM      1  C1  N4B d   1      -0.305   1.280  -0.636  0.00  0.00    -0.075 A 
ATOM      2  C2  N4B d   1      -1.313   1.022   0.319  0.00  0.00     0.002 A 
ATOM      3  C3  N4B d   1      -2.110   2.045   0.770  0.00  0.00     0.002 A 
ATOM      4  C4  N4B d   1      -1.907   3.333   0.297  0.00  0.00    -0.004 A 
ATOM      5  C5  N4B d   1      -0.949   3.569  -0.645  0.00  0.00     0.002 A 
ATOM      6  C6  N4B d   1      -0.143   2.550  -1.110  0.00  0.00     0.002 A 
ENDROOT
BRANCH   1   7
ATOM      7  C1' N4B d   1       0.647   0.211  -1.095  0.00  0.00     0.057 C 
BRANCH   7   8
ATOM      8  C2' N4B d   1      -0.037  -1.149  -0.986  0.00  0.00     0.009 C 
BRANCH   8   9
ATOM      9  C3' N4B d   1      -0.096  -1.864  -2.325  0.00  0.00     0.004 C 
ATOM     10  C4' N4B d   1      -0.092  -3.357  -2.187  0.00  0.00     0.003 C 
ENDBRANCH   8   9
ENDBRANCH   7   8
ENDBRANCH   1   7
TORSDOF 3
ENDMDL
