MODEL 1
REMARK minimizedAffinity -5.16421175
REMARK minimizedRMSD -1
REMARK  3 active torsions:
REMARK  status: ('A' for Active; 'I' for Inactive)
REMARK    1  A    between atoms: C3'_2  and  C2'_3 
REMARK    2  A    between atoms: C2'_3  and  C1'_4 
REMARK    3  A    between atoms: C1'_4  and  C1_5 
ROOT
ATOM      1  C1  N4B d   1       0.013  -0.036   0.209  0.00  0.00    -0.075 A 
ATOM      2  C2  N4B d   1       0.145   0.166   1.600  0.00  0.00     0.002 A 
ATOM      3  C3  N4B d   1      -0.777   0.928   2.274  0.00  0.00     0.002 A 
ATOM      4  C4  N4B d   1      -1.825   1.512   1.578  0.00  0.00    -0.004 A 
ATOM      5  C5  N4B d   1      -1.960   1.291   0.238  0.00  0.00     0.002 A 
ATOM      6  C6  N4B d   1      -1.043   0.524  -0.451  0.00  0.00     0.002 A 
ENDROOT
BRANCH   1   7
ATOM      7  C1' N4B d   1       1.044  -0.790  -0.585  0.00  0.00     0.057 C 
BRANCH   7   8
ATOM      8  C2' N4B d   1       0.380  -1.399  -1.817  0.00  0.00     0.009 C 
BRANCH   8   9
ATOM      9  C3' N4B d   1       0.749  -2.862  -1.997  0.00  0.00     0.004 C 
ATOM     10  C4' N4B d   1      -0.451  -3.750  -2.140  0.00  0.00     0.003 C 
ENDBRANCH   8   9
ENDBRANCH   7   8
ENDBRANCH   1   7
TORSDOF 3
ENDMDL
