MODEL 1
REMARK minimizedAffinity -4.78518486
REMARK minimizedRMSD -1
REMARK  3 active torsions:
REMARK  status: ('A' for Active; 'I' for Inactive)
REMARK    1  A    between atoms: C3'_2  and  C2'_3 
REMARK    2  A    between atoms: C2'_3  and  C1'_4 
REMARK    3  A    between atoms: C1'_4  and  C1_5 
ROOT
ATOM      1  C1  N4B d   1       0.561  -1.152  -1.015  0.00  0.00    -0.075 A 
ATOM      2  C2  N4B d   1       1.468  -2.231  -0.935  0.00  0.00     0.002 A 
ATOM      3  C3  N4B d   1       1.337  -3.303  -1.783  0.00  0.00     0.002 A 
ATOM      4  C4  N4B d   1       0.300  -3.326  -2.704  0.00  0.00    -0.004 A 
ATOM      5  C5  N4B d   1      -0.557  -2.268  -2.792  0.00  0.00     0.002 A 
ATOM      6  C6  N4B d   1      -0.435  -1.182  -1.948  0.00  0.00     0.002 A 
ENDROOT
BRANCH   1   7
ATOM      7  C1' N4B d   1       0.612   0.003  -0.052  0.00  0.00     0.057 C 
BRANCH   7   8
ATOM      8  C2' N4B d   1       0.030  -0.438   1.288  0.00  0.00     0.009 C 
BRANCH   8   9
ATOM      9  C3' N4B d   1      -1.314   0.213   1.565  0.00  0.00     0.004 C 
ATOM     10  C4' N4B d   1      -1.192   1.498   2.328  0.00  0.00     0.003 C 
ENDBRANCH   8   9
ENDBRANCH   7   8
ENDBRANCH   1   7
TORSDOF 3
ENDMDL
