MODEL 1
REMARK minimizedAffinity -5.5316062
REMARK minimizedRMSD -1
REMARK  3 active torsions:
REMARK  status: ('A' for Active; 'I' for Inactive)
REMARK    1  A    between atoms: C3'_2  and  C2'_3 
REMARK    2  A    between atoms: C2'_3  and  C1'_4 
REMARK    3  A    between atoms: C1'_4  and  C1_5 
ROOT
ATOM      1  C1  N4B d   1       0.036   0.289  -0.005  0.00  0.00    -0.075 A 
ATOM      2  C2  N4B d   1       0.051  -0.086   1.356  0.00  0.00     0.002 A 
ATOM      3  C3  N4B d   1      -0.882   0.431   2.221  0.00  0.00     0.002 A 
ATOM      4  C4  N4B d   1      -1.825   1.334   1.753  0.00  0.00    -0.004 A 
ATOM      5  C5  N4B d   1      -1.848   1.672   0.432  0.00  0.00     0.002 A 
ATOM      6  C6  N4B d   1      -0.918   1.157  -0.450  0.00  0.00     0.002 A 
ENDROOT
BRANCH   1   7
ATOM      7  C1' N4B d   1       1.089  -0.183  -0.970  0.00  0.00     0.057 C 
BRANCH   7   8
ATOM      8  C2' N4B d   1       0.480  -1.221  -1.908  0.00  0.00     0.009 C 
BRANCH   8   9
ATOM      9  C3' N4B d   1       1.132  -2.583  -1.749  0.00  0.00     0.004 C 
ATOM     10  C4' N4B d   1       0.426  -3.659  -2.519  0.00  0.00     0.003 C 
ENDBRANCH   8   9
ENDBRANCH   7   8
ENDBRANCH   1   7
TORSDOF 3
ENDMDL
