MODEL 1
REMARK minimizedAffinity -3.77877593
REMARK minimizedRMSD -1
REMARK  3 active torsions:
REMARK  status: ('A' for Active; 'I' for Inactive)
REMARK    1  A    between atoms: C3'_2  and  C2'_3 
REMARK    2  A    between atoms: C2'_3  and  C1'_4 
REMARK    3  A    between atoms: C1'_4  and  C1_5 
ROOT
ATOM      1  C1  N4B d   1       0.040   0.050  -0.119  0.00  0.00    -0.075 A 
ATOM      2  C2  N4B d   1      -0.174  -0.712   1.051  0.00  0.00     0.002 A 
ATOM      3  C3  N4B d   1      -0.966  -0.216   2.058  0.00  0.00     0.002 A 
ATOM      4  C4  N4B d   1      -1.536   1.041   1.926  0.00  0.00    -0.004 A 
ATOM      5  C5  N4B d   1      -1.345   1.759   0.782  0.00  0.00     0.002 A 
ATOM      6  C6  N4B d   1      -0.555   1.272  -0.240  0.00  0.00     0.002 A 
ENDROOT
BRANCH   1   7
ATOM      7  C1' N4B d   1       0.967  -0.413  -1.210  0.00  0.00     0.057 C 
BRANCH   7   8
ATOM      8  C2' N4B d   1       1.053  -1.936  -1.180  0.00  0.00     0.009 C 
BRANCH   8   9
ATOM      9  C3' N4B d   1       0.713  -2.551  -2.526  0.00  0.00     0.004 C 
ATOM     10  C4' N4B d   1      -0.126  -3.788  -2.405  0.00  0.00     0.003 C 
ENDBRANCH   8   9
ENDBRANCH   7   8
ENDBRANCH   1   7
TORSDOF 3
ENDMDL
