MODEL 1
REMARK minimizedAffinity -6.13239717
REMARK minimizedRMSD -1
REMARK  3 active torsions:
REMARK  status: ('A' for Active; 'I' for Inactive)
REMARK    1  A    between atoms: C3'_2  and  C2'_3 
REMARK    2  A    between atoms: C2'_3  and  C1'_4 
REMARK    3  A    between atoms: C1'_4  and  C1_5 
ROOT
ATOM      1  C1  N4B d   1      -0.380   0.877   0.556  0.00  0.00    -0.075 A 
ATOM      2  C2  N4B d   1      -1.541   1.036   1.343  0.00  0.00     0.002 A 
ATOM      3  C3  N4B d   1      -2.224   2.228   1.327  0.00  0.00     0.002 A 
ATOM      4  C4  N4B d   1      -1.755   3.276   0.549  0.00  0.00    -0.004 A 
ATOM      5  C5  N4B d   1      -0.647   3.106  -0.228  0.00  0.00     0.002 A 
ATOM      6  C6  N4B d   1       0.047   1.912  -0.224  0.00  0.00     0.002 A 
ENDROOT
BRANCH   1   7
ATOM      7  C1' N4B d   1       0.448  -0.378   0.607  0.00  0.00     0.057 C 
BRANCH   7   8
ATOM      8  C2' N4B d   1       1.249  -0.503  -0.686  0.00  0.00     0.009 C 
BRANCH   8   9
ATOM      9  C3' N4B d   1       1.440  -1.952  -1.098  0.00  0.00     0.004 C 
ATOM     10  C4' N4B d   1       0.359  -2.443  -2.014  0.00  0.00     0.003 C 
ENDBRANCH   8   9
ENDBRANCH   7   8
ENDBRANCH   1   7
TORSDOF 3
ENDMDL
