MODEL 1
REMARK minimizedAffinity -5.96867561
REMARK minimizedRMSD -1
REMARK  3 active torsions:
REMARK  status: ('A' for Active; 'I' for Inactive)
REMARK    1  A    between atoms: C3'_2  and  C2'_3 
REMARK    2  A    between atoms: C2'_3  and  C1'_4 
REMARK    3  A    between atoms: C1'_4  and  C1_5 
ROOT
ATOM      1  C1  N4B d   1       0.132   0.130  -0.116  0.00  0.00    -0.075 A 
ATOM      2  C2  N4B d   1      -0.121  -0.359   1.184  0.00  0.00     0.002 A 
ATOM      3  C3  N4B d   1      -1.136   0.181   1.936  0.00  0.00     0.002 A 
ATOM      4  C4  N4B d   1      -1.895   1.219   1.417  0.00  0.00    -0.004 A 
ATOM      5  C5  N4B d   1      -1.661   1.668   0.151  0.00  0.00     0.002 A 
ATOM      6  C6  N4B d   1      -0.647   1.132  -0.617  0.00  0.00     0.002 A 
ENDROOT
BRANCH   1   7
ATOM      7  C1' N4B d   1       1.285  -0.370  -0.943  0.00  0.00     0.057 C 
BRANCH   7   8
ATOM      8  C2' N4B d   1       1.192  -1.888  -1.066  0.00  0.00     0.009 C 
BRANCH   8   9
ATOM      9  C3' N4B d   1       0.507  -2.313  -2.354  0.00  0.00     0.004 C 
ATOM     10  C4' N4B d   1      -0.277  -3.582  -2.204  0.00  0.00     0.003 C 
ENDBRANCH   8   9
ENDBRANCH   7   8
ENDBRANCH   1   7
TORSDOF 3
ENDMDL
