MODEL 1
REMARK minimizedAffinity -5.60611486
REMARK minimizedRMSD -1
REMARK  3 active torsions:
REMARK  status: ('A' for Active; 'I' for Inactive)
REMARK    1  A    between atoms: C3'_2  and  C2'_3 
REMARK    2  A    between atoms: C2'_3  and  C1'_4 
REMARK    3  A    between atoms: C1'_4  and  C1_5 
ROOT
ATOM      1  C1  N4B d   1      -0.795   0.473   0.571  0.00  0.00    -0.075 A 
ATOM      2  C2  N4B d   1      -0.149   1.233  -0.428  0.00  0.00     0.002 A 
ATOM      3  C3  N4B d   1      -0.421   2.573  -0.555  0.00  0.00     0.002 A 
ATOM      4  C4  N4B d   1      -1.345   3.169   0.290  0.00  0.00    -0.004 A 
ATOM      5  C5  N4B d   1      -1.945   2.433   1.270  0.00  0.00     0.002 A 
ATOM      6  C6  N4B d   1      -1.679   1.086   1.411  0.00  0.00     0.002 A 
ENDROOT
BRANCH   1   7
ATOM      7  C1' N4B d   1      -0.595  -1.013   0.693  0.00  0.00     0.057 C 
BRANCH   7   8
ATOM      8  C2' N4B d   1       0.606  -1.427  -0.153  0.00  0.00     0.009 C 
BRANCH   8   9
ATOM      9  C3' N4B d   1       0.206  -2.351  -1.291  0.00  0.00     0.004 C 
ATOM     10  C4' N4B d   1       0.938  -3.660  -1.260  0.00  0.00     0.003 C 
ENDBRANCH   8   9
ENDBRANCH   7   8
ENDBRANCH   1   7
TORSDOF 3
ENDMDL
