MODEL 1
REMARK minimizedAffinity 2.2665379
REMARK minimizedRMSD -1
REMARK  0 active torsions:
REMARK  status: ('A' for Active; 'I' for Inactive)
ROOT
ATOM      1  C2' OXE d   1       6.000   5.997   5.461  0.00  0.00     0.078 C 
ATOM      2  C1' OXE d   1       4.890   5.998   2.882  0.00  0.00     0.078 C 
ATOM      3  C1  OXE d   1       4.571   4.833   3.785  0.00  0.00    -0.078 A 
ATOM      4  C2  OXE d   1       5.156   4.817   5.029  0.00  0.00    -0.078 A 
ATOM      5  C3  OXE d   1       4.852   3.794   5.921  0.00  0.00     0.003 A 
ATOM      6  C4  OXE d   1       4.078   2.701   5.510  0.00  0.00    -0.002 A 
ATOM      7  C5  OXE d   1       3.505   2.678   4.234  0.00  0.00    -0.002 A 
ATOM      8  C6  OXE d   1       3.706   3.753   3.376  0.00  0.00     0.003 A 
ENDROOT
TORSDOF 0
ENDMDL
