MODEL 1
REMARK minimizedAffinity 6.37563992
REMARK minimizedRMSD -1
REMARK  0 active torsions:
REMARK  status: ('A' for Active; 'I' for Inactive)
ROOT
ATOM      1  C2' OXE d   1      -6.000   3.075  -3.268  0.00  0.00     0.078 C 
ATOM      2  C1' OXE d   1      -5.397   4.793  -1.132  0.00  0.00     0.078 C 
ATOM      3  C1  OXE d   1      -5.554   3.324  -0.830  0.00  0.00    -0.078 A 
ATOM      4  C2  OXE d   1      -5.895   2.497  -1.873  0.00  0.00    -0.078 A 
ATOM      5  C3  OXE d   1      -5.998   1.125  -1.661  0.00  0.00     0.003 A 
ATOM      6  C4  OXE d   1      -5.909   0.600  -0.366  0.00  0.00    -0.002 A 
ATOM      7  C5  OXE d   1      -5.602   1.430   0.717  0.00  0.00    -0.002 A 
ATOM      8  C6  OXE d   1      -5.379   2.785   0.496  0.00  0.00     0.003 A 
ENDROOT
TORSDOF 0
ENDMDL
