MODEL 1
REMARK minimizedAffinity 17.7556992
REMARK minimizedRMSD -1
REMARK  0 active torsions:
REMARK  status: ('A' for Active; 'I' for Inactive)
ROOT
ATOM      1  C2' OXE d   1      -1.097  -4.449   3.366  0.00  0.00     0.078 C 
ATOM      2  C1' OXE d   1      -0.156  -4.691   5.999  0.00  0.00     0.078 C 
ATOM      3  C1  OXE d   1      -0.023  -3.348   5.325  0.00  0.00    -0.078 A 
ATOM      4  C2  OXE d   1      -0.444  -3.251   4.021  0.00  0.00    -0.078 A 
ATOM      5  C3  OXE d   1      -0.394  -2.022   3.370  0.00  0.00     0.003 A 
ATOM      6  C4  OXE d   1       0.221  -0.922   3.979  0.00  0.00    -0.002 A 
ATOM      7  C5  OXE d   1       0.692  -1.009   5.293  0.00  0.00    -0.002 A 
ATOM      8  C6  OXE d   1       0.540  -2.201   5.994  0.00  0.00     0.003 A 
ENDROOT
TORSDOF 0
ENDMDL
