MODEL 1
REMARK minimizedAffinity 7.14757538
REMARK minimizedRMSD -1
REMARK  0 active torsions:
REMARK  status: ('A' for Active; 'I' for Inactive)
ROOT
ATOM      1  C2' OXE d   1       0.953   0.330   3.488  0.00  0.00     0.078 C 
ATOM      2  C1' OXE d   1       2.294  -1.490   1.823  0.00  0.00     0.078 C 
ATOM      3  C1  OXE d   1       2.368  -0.026   1.469  0.00  0.00    -0.078 A 
ATOM      4  C2  OXE d   1       1.670   0.853   2.262  0.00  0.00    -0.078 A 
ATOM      5  C3  OXE d   1       1.750   2.220   2.012  0.00  0.00     0.003 A 
ATOM      6  C4  OXE d   1       2.407   2.695   0.870  0.00  0.00    -0.002 A 
ATOM      7  C5  OXE d   1       3.091   1.813   0.027  0.00  0.00    -0.002 A 
ATOM      8  C6  OXE d   1       3.116   0.457   0.335  0.00  0.00     0.003 A 
ENDROOT
TORSDOF 0
ENDMDL
