MODEL 1
REMARK minimizedAffinity 2.12563634
REMARK minimizedRMSD -1
REMARK  0 active torsions:
REMARK  status: ('A' for Active; 'I' for Inactive)
ROOT
ATOM      1  C2' OXE d   1       4.066  -0.807  -2.206  0.00  0.00     0.078 C 
ATOM      2  C1' OXE d   1       3.170   1.203  -0.464  0.00  0.00     0.078 C 
ATOM      3  C1  OXE d   1       2.622  -0.189  -0.273  0.00  0.00    -0.078 A 
ATOM      4  C2  OXE d   1       3.031  -1.157  -1.159  0.00  0.00    -0.078 A 
ATOM      5  C3  OXE d   1       2.598  -2.469  -0.995  0.00  0.00     0.003 A 
ATOM      6  C4  OXE d   1       1.633  -2.782  -0.030  0.00  0.00    -0.002 A 
ATOM      7  C5  OXE d   1       1.173  -1.803   0.858  0.00  0.00    -0.002 A 
ATOM      8  C6  OXE d   1       1.689  -0.514   0.777  0.00  0.00     0.003 A 
ENDROOT
TORSDOF 0
ENDMDL
