MODEL 1
REMARK minimizedAffinity 10.3074255
REMARK minimizedRMSD -1
REMARK  0 active torsions:
REMARK  status: ('A' for Active; 'I' for Inactive)
ROOT
ATOM      1  C2' OXE d   1      -4.807   2.469   1.099  0.00  0.00     0.078 C 
ATOM      2  C1' OXE d   1      -5.807   4.712  -0.261  0.00  0.00     0.078 C 
ATOM      3  C1  OXE d   1      -5.666   4.803   1.238  0.00  0.00    -0.078 A 
ATOM      4  C2  OXE d   1      -5.220   3.685   1.900  0.00  0.00    -0.078 A 
ATOM      5  C3  OXE d   1      -5.020   3.733   3.277  0.00  0.00     0.003 A 
ATOM      6  C4  OXE d   1      -5.413   4.858   4.012  0.00  0.00    -0.002 A 
ATOM      7  C5  OXE d   1      -5.907   5.993   3.362  0.00  0.00    -0.002 A 
ATOM      8  C6  OXE d   1      -6.000   5.998   1.974  0.00  0.00     0.003 A 
ENDROOT
TORSDOF 0
ENDMDL
