MODEL 1
REMARK minimizedAffinity 5.58444977
REMARK minimizedRMSD -1
REMARK  0 active torsions:
REMARK  status: ('A' for Active; 'I' for Inactive)
ROOT
ATOM      1  C2' OXE d   1       5.248   3.127  -0.092  0.00  0.00     0.078 C 
ATOM      2  C1' OXE d   1       5.409   1.961  -2.641  0.00  0.00     0.078 C 
ATOM      3  C1  OXE d   1       4.372   1.424  -1.686  0.00  0.00    -0.078 A 
ATOM      4  C2  OXE d   1       4.332   1.969  -0.425  0.00  0.00    -0.078 A 
ATOM      5  C3  OXE d   1       3.359   1.548   0.477  0.00  0.00     0.003 A 
ATOM      6  C4  OXE d   1       2.522   0.469   0.165  0.00  0.00    -0.002 A 
ATOM      7  C5  OXE d   1       2.574  -0.126  -1.100  0.00  0.00    -0.002 A 
ATOM      8  C6  OXE d   1       3.462   0.366  -2.049  0.00  0.00     0.003 A 
ENDROOT
TORSDOF 0
ENDMDL
