MODEL 1
REMARK minimizedAffinity 7.49567032
REMARK minimizedRMSD -1
REMARK  0 active torsions:
REMARK  status: ('A' for Active; 'I' for Inactive)
ROOT
ATOM      1  C2' OXE d   1       2.937   2.299   1.923  0.00  0.00     0.078 C 
ATOM      2  C1' OXE d   1       2.117   0.520  -0.087  0.00  0.00     0.078 C 
ATOM      3  C1  OXE d   1       3.327   1.379  -0.358  0.00  0.00    -0.078 A 
ATOM      4  C2  OXE d   1       3.693   2.280   0.612  0.00  0.00    -0.078 A 
ATOM      5  C3  OXE d   1       4.834   3.058   0.436  0.00  0.00     0.003 A 
ATOM      6  C4  OXE d   1       5.522   3.041  -0.784  0.00  0.00    -0.002 A 
ATOM      7  C5  OXE d   1       5.141   2.159  -1.801  0.00  0.00    -0.002 A 
ATOM      8  C6  OXE d   1       4.075   1.293  -1.589  0.00  0.00     0.003 A 
ENDROOT
TORSDOF 0
ENDMDL
