MODEL 1
REMARK minimizedAffinity 20.3257065
REMARK minimizedRMSD -1
REMARK  0 active torsions:
REMARK  status: ('A' for Active; 'I' for Inactive)
ROOT
ATOM      1  C2' OXE d   1      -5.923   0.302  -4.962  0.00  0.00     0.078 C 
ATOM      2  C1' OXE d   1      -3.310   0.400  -5.982  0.00  0.00     0.078 C 
ATOM      3  C1  OXE d   1      -4.021   1.708  -5.744  0.00  0.00    -0.078 A 
ATOM      4  C2  OXE d   1      -5.317   1.650  -5.288  0.00  0.00    -0.078 A 
ATOM      5  C3  OXE d   1      -6.000   2.827  -4.999  0.00  0.00     0.003 A 
ATOM      6  C4  OXE d   1      -5.436   4.070  -5.314  0.00  0.00    -0.002 A 
ATOM      7  C5  OXE d   1      -4.132   4.151  -5.815  0.00  0.00    -0.002 A 
ATOM      8  C6  OXE d   1      -3.398   2.984  -5.996  0.00  0.00     0.003 A 
ENDROOT
TORSDOF 0
ENDMDL
