MODEL 1
REMARK minimizedAffinity -2.71576405
REMARK minimizedRMSD -1
REMARK  0 active torsions:
REMARK  status: ('A' for Active; 'I' for Inactive)
ROOT
ATOM      1  N1  IND d   1       0.422  -1.910   0.359  0.00  0.00    -0.196 N 
ATOM      2  C2  IND d   1      -0.392  -1.397   1.330  0.00  0.00     0.054 A 
ATOM      3  C3  IND d   1      -0.424  -0.048   1.253  0.00  0.00    -0.031 A 
ATOM      4  C4  IND d   1       0.700   1.520  -0.451  0.00  0.00     0.051 A 
ATOM      5  C5  IND d   1       1.572   1.520  -1.503  0.00  0.00    -0.031 A 
ATOM      6  C6  IND d   1       2.113   0.353  -2.001  0.00  0.00     0.015 A 
ATOM      7  C7  IND d   1       1.794  -0.864  -1.469  0.00  0.00    -0.016 A 
ATOM      8  C8  IND d   1       0.914  -0.867  -0.396  0.00  0.00    -0.047 A 
ATOM      9  C9  IND d   1       0.394   0.318   0.141  0.00  0.00    -0.096 A 
ATOM     10  HN1 IND d   1       0.597  -2.743   0.239  0.00  0.00     0.298 HD
ENDROOT
TORSDOF 0
ENDMDL
