MODEL 1
REMARK minimizedAffinity -4.2844739
REMARK minimizedRMSD -1
REMARK  0 active torsions:
REMARK  status: ('A' for Active; 'I' for Inactive)
ROOT
ATOM      1  N1  IND d   1       0.960   1.492   0.652  0.00  0.00    -0.196 N 
ATOM      2  C2  IND d   1       1.921   2.425   0.380  0.00  0.00     0.054 A 
ATOM      3  C3  IND d   1       2.318   2.330  -0.908  0.00  0.00    -0.031 A 
ATOM      4  C4  IND d   1       1.454   0.783  -2.776  0.00  0.00     0.051 A 
ATOM      5  C5  IND d   1       0.605  -0.265  -3.000  0.00  0.00    -0.031 A 
ATOM      6  C6  IND d   1      -0.186  -0.789  -1.999  0.00  0.00     0.015 A 
ATOM      7  C7  IND d   1      -0.167  -0.276  -0.733  0.00  0.00    -0.016 A 
ATOM      8  C8  IND d   1       0.698   0.784  -0.500  0.00  0.00    -0.047 A 
ATOM      9  C9  IND d   1       1.535   1.292  -1.501  0.00  0.00    -0.096 A 
ATOM     10  HN1 IND d   1       0.582   1.369   1.415  0.00  0.00     0.298 HD
ENDROOT
TORSDOF 0
ENDMDL
