MODEL 1
REMARK minimizedAffinity -1.54406488
REMARK minimizedRMSD -1
REMARK  0 active torsions:
REMARK  status: ('A' for Active; 'I' for Inactive)
ROOT
ATOM      1  N1  IND d   1       0.916   1.286   0.621  0.00  0.00    -0.196 N 
ATOM      2  C2  IND d   1      -0.285   0.728   0.960  0.00  0.00     0.054 A 
ATOM      3  C3  IND d   1      -0.618  -0.243   0.080  0.00  0.00    -0.031 A 
ATOM      4  C4  IND d   1       0.707  -1.151  -1.932  0.00  0.00     0.051 A 
ATOM      5  C5  IND d   1       1.842  -0.933  -2.661  0.00  0.00    -0.031 A 
ATOM      6  C6  IND d   1       2.747   0.053  -2.324  0.00  0.00     0.015 A 
ATOM      7  C7  IND d   1       2.554   0.855  -1.235  0.00  0.00    -0.016 A 
ATOM      8  C8  IND d   1       1.398   0.642  -0.497  0.00  0.00    -0.047 A 
ATOM      9  C9  IND d   1       0.456  -0.330  -0.858  0.00  0.00    -0.096 A 
ATOM     10  HN1 IND d   1       1.304   1.930   1.037  0.00  0.00     0.298 HD
ENDROOT
TORSDOF 0
ENDMDL
