MODEL 1
REMARK minimizedAffinity -5.0173974
REMARK minimizedRMSD -1
REMARK  0 active torsions:
REMARK  status: ('A' for Active; 'I' for Inactive)
ROOT
ATOM      1  N1  IND d   1       0.826   0.965   1.019  0.00  0.00    -0.196 N 
ATOM      2  C2  IND d   1      -0.036   0.057   1.569  0.00  0.00     0.054 A 
ATOM      3  C3  IND d   1      -0.404  -0.860   0.645  0.00  0.00    -0.031 A 
ATOM      4  C4  IND d   1       0.364  -1.120  -1.798  0.00  0.00     0.051 A 
ATOM      5  C5  IND d   1       1.116  -0.509  -2.762  0.00  0.00    -0.031 A 
ATOM      6  C6  IND d   1       1.827   0.647  -2.508  0.00  0.00     0.015 A 
ATOM      7  C7  IND d   1       1.820   1.230  -1.273  0.00  0.00    -0.016 A 
ATOM      8  C8  IND d   1       1.052   0.617  -0.294  0.00  0.00    -0.047 A 
ATOM      9  C9  IND d   1       0.295  -0.532  -0.557  0.00  0.00    -0.096 A 
ATOM     10  HN1 IND d   1       1.169   1.641   1.426  0.00  0.00     0.298 HD
ENDROOT
TORSDOF 0
ENDMDL
