MODEL 1
REMARK minimizedAffinity -1.37436616
REMARK minimizedRMSD -1
REMARK  0 active torsions:
REMARK  status: ('A' for Active; 'I' for Inactive)
ROOT
ATOM      1  N1  IND d   1      -0.766  -0.848  -0.205  0.00  0.00    -0.196 N 
ATOM      2  C2  IND d   1      -1.186  -0.194   0.920  0.00  0.00     0.054 A 
ATOM      3  C3  IND d   1      -0.350   0.829   1.209  0.00  0.00    -0.031 A 
ATOM      4  C4  IND d   1       1.710   1.673  -0.084  0.00  0.00     0.051 A 
ATOM      5  C5  IND d   1       2.507   1.376  -1.154  0.00  0.00    -0.031 A 
ATOM      6  C6  IND d   1       2.247   0.302  -1.980  0.00  0.00     0.015 A 
ATOM      7  C7  IND d   1       1.169  -0.512  -1.774  0.00  0.00    -0.016 A 
ATOM      8  C8  IND d   1       0.361  -0.217  -0.684  0.00  0.00    -0.047 A 
ATOM      9  C9  IND d   1       0.644   0.846   0.183  0.00  0.00    -0.096 A 
ATOM     10  HN1 IND d   1      -1.143  -1.537  -0.555  0.00  0.00     0.298 HD
ENDROOT
TORSDOF 0
ENDMDL
