MODEL 1
REMARK minimizedAffinity -2.77813077
REMARK minimizedRMSD -1
REMARK  0 active torsions:
REMARK  status: ('A' for Active; 'I' for Inactive)
ROOT
ATOM      1  N1  IND d   1      -0.619   1.629  -0.840  0.00  0.00    -0.196 N 
ATOM      2  C2  IND d   1       0.729   1.428  -0.954  0.00  0.00     0.054 A 
ATOM      3  C3  IND d   1       1.162   0.586   0.011  0.00  0.00    -0.031 A 
ATOM      4  C4  IND d   1      -0.182  -0.661   1.818  0.00  0.00     0.051 A 
ATOM      5  C5  IND d   1      -1.439  -0.770   2.342  0.00  0.00    -0.031 A 
ATOM      6  C6  IND d   1      -2.510  -0.073   1.820  0.00  0.00     0.015 A 
ATOM      7  C7  IND d   1      -2.364   0.754   0.742  0.00  0.00    -0.016 A 
ATOM      8  C8  IND d   1      -1.087   0.872   0.212  0.00  0.00    -0.047 A 
ATOM      9  C9  IND d   1       0.011   0.201   0.764  0.00  0.00    -0.096 A 
ATOM     10  HN1 IND d   1      -1.094   2.141  -1.341  0.00  0.00     0.298 HD
ENDROOT
TORSDOF 0
ENDMDL
