MODEL 1
REMARK minimizedAffinity -6.60696411
REMARK minimizedRMSD -1
REMARK  0 active torsions:
REMARK  status: ('A' for Active; 'I' for Inactive)
ROOT
ATOM      1  N1  IND d   1       0.507  -2.254   0.626  0.00  0.00    -0.196 N 
ATOM      2  C2  IND d   1       0.024  -1.317   1.497  0.00  0.00     0.054 A 
ATOM      3  C3  IND d   1       0.125  -0.080   0.961  0.00  0.00    -0.031 A 
ATOM      4  C4  IND d   1       0.957   0.630  -1.370  0.00  0.00     0.051 A 
ATOM      5  C5  IND d   1       1.533   0.133  -2.506  0.00  0.00    -0.031 A 
ATOM      6  C6  IND d   1       1.799  -1.212  -2.660  0.00  0.00     0.015 A 
ATOM      7  C7  IND d   1       1.487  -2.116  -1.684  0.00  0.00    -0.016 A 
ATOM      8  C8  IND d   1       0.909  -1.615  -0.527  0.00  0.00    -0.047 A 
ATOM      9  C9  IND d   1       0.676  -0.245  -0.347  0.00  0.00    -0.096 A 
ATOM     10  HN1 IND d   1       0.552  -3.100   0.773  0.00  0.00     0.298 HD
ENDROOT
TORSDOF 0
ENDMDL
