MODEL 1
REMARK minimizedAffinity 0.0733228251
REMARK minimizedRMSD -1
REMARK  0 active torsions:
REMARK  status: ('A' for Active; 'I' for Inactive)
ROOT
ATOM      1  N1  IND d   1       1.474  -1.740  -0.675  0.00  0.00    -0.196 N 
ATOM      2  C2  IND d   1       0.422  -1.918   0.179  0.00  0.00     0.054 A 
ATOM      3  C3  IND d   1       0.026  -0.731   0.692  0.00  0.00    -0.031 A 
ATOM      4  C4  IND d   1       0.898   1.639   0.190  0.00  0.00     0.051 A 
ATOM      5  C5  IND d   1       1.875   2.305  -0.496  0.00  0.00    -0.031 A 
ATOM      6  C6  IND d   1       2.784   1.643  -1.296  0.00  0.00     0.015 A 
ATOM      7  C7  IND d   1       2.744   0.286  -1.448  0.00  0.00    -0.016 A 
ATOM      8  C8  IND d   1       1.758  -0.394  -0.747  0.00  0.00    -0.047 A 
ATOM      9  C9  IND d   1       0.859   0.268   0.099  0.00  0.00    -0.096 A 
ATOM     10  HN1 IND d   1       1.890  -2.364  -1.096  0.00  0.00     0.298 HD
ENDROOT
TORSDOF 0
ENDMDL
