MODEL 1
REMARK minimizedAffinity -2.76472378
REMARK minimizedRMSD -1
REMARK  0 active torsions:
REMARK  status: ('A' for Active; 'I' for Inactive)
ROOT
ATOM      1  N1  IND d   1      -1.068   1.135   0.895  0.00  0.00    -0.196 N 
ATOM      2  C2  IND d   1      -1.567  -0.071   1.300  0.00  0.00     0.054 A 
ATOM      3  C3  IND d   1      -0.896  -1.082   0.703  0.00  0.00    -0.031 A 
ATOM      4  C4  IND d   1       1.121  -0.988  -0.894  0.00  0.00     0.051 A 
ATOM      5  C5  IND d   1       1.909  -0.110  -1.584  0.00  0.00    -0.031 A 
ATOM      6  C6  IND d   1       1.743   1.256  -1.478  0.00  0.00     0.015 A 
ATOM      7  C7  IND d   1       0.787   1.797  -0.666  0.00  0.00    -0.016 A 
ATOM      8  C8  IND d   1      -0.020   0.908   0.030  0.00  0.00    -0.047 A 
ATOM      9  C9  IND d   1       0.115  -0.480  -0.106  0.00  0.00    -0.096 A 
ATOM     10  HN1 IND d   1      -1.360   1.906   1.139  0.00  0.00     0.298 HD
ENDROOT
TORSDOF 0
ENDMDL
