MODEL 1
REMARK minimizedAffinity -3.03579688
REMARK minimizedRMSD -1
REMARK  0 active torsions:
REMARK  status: ('A' for Active; 'I' for Inactive)
ROOT
ATOM      1  N1  IND d   1       0.009   0.029   1.068  0.00  0.00    -0.196 N 
ATOM      2  C2  IND d   1      -0.015  -1.337   1.023  0.00  0.00     0.054 A 
ATOM      3  C3  IND d   1       0.651  -1.784  -0.065  0.00  0.00    -0.031 A 
ATOM      4  C4  IND d   1       1.944  -0.454  -1.851  0.00  0.00     0.051 A 
ATOM      5  C5  IND d   1       2.220   0.822  -2.254  0.00  0.00    -0.031 A 
ATOM      6  C6  IND d   1       1.766   1.922  -1.554  0.00  0.00     0.015 A 
ATOM      7  C7  IND d   1       1.026   1.785  -0.414  0.00  0.00    -0.016 A 
ATOM      8  C8  IND d   1       0.738   0.490  -0.006  0.00  0.00    -0.047 A 
ATOM      9  C9  IND d   1       1.160  -0.629  -0.735  0.00  0.00    -0.096 A 
ATOM     10  HN1 IND d   1      -0.367   0.517   1.667  0.00  0.00     0.298 HD
ENDROOT
TORSDOF 0
ENDMDL
