MODEL 1
REMARK minimizedAffinity -3.78098035
REMARK minimizedRMSD -1
REMARK  0 active torsions:
REMARK  status: ('A' for Active; 'I' for Inactive)
ROOT
ATOM      1  N1  IND d   1       0.821  -2.049   0.478  0.00  0.00    -0.196 N 
ATOM      2  C2  IND d   1      -0.040  -1.553   1.417  0.00  0.00     0.054 A 
ATOM      3  C3  IND d   1      -0.239  -0.231   1.220  0.00  0.00    -0.031 A 
ATOM      4  C4  IND d   1       0.665   1.301  -0.641  0.00  0.00     0.051 A 
ATOM      5  C5  IND d   1       1.519   1.310  -1.708  0.00  0.00    -0.031 A 
ATOM      6  C6  IND d   1       2.196   0.177  -2.111  0.00  0.00     0.015 A 
ATOM      7  C7  IND d   1       2.034  -1.016  -1.465  0.00  0.00    -0.016 A 
ATOM      8  C8  IND d   1       1.173  -1.028  -0.377  0.00  0.00    -0.047 A 
ATOM      9  C9  IND d   1       0.516   0.129   0.062  0.00  0.00    -0.096 A 
ATOM     10  HN1 IND d   1       1.097  -2.862   0.429  0.00  0.00     0.298 HD
ENDROOT
TORSDOF 0
ENDMDL
