MODEL 1
REMARK minimizedAffinity -3.12888241
REMARK minimizedRMSD -1
REMARK  0 active torsions:
REMARK  status: ('A' for Active; 'I' for Inactive)
ROOT
ATOM      1  N1  IND d   1      -0.704   0.716  -1.119  0.00  0.00    -0.196 N 
ATOM      2  C2  IND d   1       0.603   0.476  -0.799  0.00  0.00     0.054 A 
ATOM      3  C3  IND d   1       0.715   0.151   0.509  0.00  0.00    -0.031 A 
ATOM      4  C4  IND d   1      -1.125  -0.146   2.284  0.00  0.00     0.051 A 
ATOM      5  C5  IND d   1      -2.471   0.000   2.475  0.00  0.00    -0.031 A 
ATOM      6  C6  IND d   1      -3.313   0.398   1.457  0.00  0.00     0.015 A 
ATOM      7  C7  IND d   1      -2.841   0.654   0.201  0.00  0.00    -0.016 A 
ATOM      8  C8  IND d   1      -1.475   0.514   0.005  0.00  0.00    -0.047 A 
ATOM      9  C9  IND d   1      -0.609   0.152   1.045  0.00  0.00    -0.096 A 
ATOM     10  HN1 IND d   1      -0.996   0.953  -1.892  0.00  0.00     0.298 HD
ENDROOT
TORSDOF 0
ENDMDL
