MODEL 1
REMARK minimizedAffinity -2.03279996
REMARK minimizedRMSD -1
REMARK  0 active torsions:
REMARK  status: ('A' for Active; 'I' for Inactive)
ROOT
ATOM      1  N1  IND d   1       1.481   1.854  -1.236  0.00  0.00    -0.196 N 
ATOM      2  C2  IND d   1       2.378   1.407  -2.166  0.00  0.00     0.054 A 
ATOM      3  C3  IND d   1       2.378   0.056  -2.209  0.00  0.00    -0.031 A 
ATOM      4  C4  IND d   1       0.915  -1.621  -0.915  0.00  0.00     0.051 A 
ATOM      5  C5  IND d   1      -0.026  -1.690   0.075  0.00  0.00    -0.031 A 
ATOM      6  C6  IND d   1      -0.524  -0.559   0.688  0.00  0.00     0.015 A 
ATOM      7  C7  IND d   1      -0.107   0.690   0.325  0.00  0.00    -0.016 A 
ATOM      8  C8  IND d   1       0.853   0.764  -0.674  0.00  0.00    -0.047 A 
ATOM      9  C9  IND d   1       1.394  -0.382  -1.270  0.00  0.00    -0.096 A 
ATOM     10  HN1 IND d   1       1.334   2.677  -1.036  0.00  0.00     0.298 HD
ENDROOT
TORSDOF 0
ENDMDL
