MODEL 1
REMARK minimizedAffinity -1.68855894
REMARK minimizedRMSD -1
REMARK  0 active torsions:
REMARK  status: ('A' for Active; 'I' for Inactive)
ROOT
ATOM      1  N1  IND d   1      -1.692  -1.515   1.403  0.00  0.00    -0.196 N 
ATOM      2  C2  IND d   1      -0.428  -1.224   1.834  0.00  0.00     0.054 A 
ATOM      3  C3  IND d   1      -0.358   0.059   2.253  0.00  0.00    -0.031 A 
ATOM      4  C4  IND d   1      -2.219   1.831   2.415  0.00  0.00     0.051 A 
ATOM      5  C5  IND d   1      -3.532   2.045   2.104  0.00  0.00    -0.031 A 
ATOM      6  C6  IND d   1      -4.316   1.062   1.535  0.00  0.00     0.015 A 
ATOM      7  C7  IND d   1      -3.817  -0.180   1.264  0.00  0.00    -0.016 A 
ATOM      8  C8  IND d   1      -2.481  -0.399   1.572  0.00  0.00    -0.047 A 
ATOM      9  C9  IND d   1      -1.669   0.608   2.111  0.00  0.00    -0.096 A 
ATOM     10  HN1 IND d   1      -1.951  -2.269   1.080  0.00  0.00     0.298 HD
ENDROOT
TORSDOF 0
ENDMDL
