MODEL 1
REMARK minimizedAffinity -4.44867039
REMARK minimizedRMSD -1
REMARK  1 active torsions:
REMARK  status: ('A' for Active; 'I' for Inactive)
REMARK    1  A    between atoms: N_2  and  C1_3 
ROOT
ATOM      1  C1  UNL d   1      -1.360  -0.559   1.266  0.00  0.00     0.143 A 
ATOM      2  C2  UNL d   1      -0.702  -0.029   0.151  0.00  0.00    -0.057 A 
ATOM      3  C3  UNL d   1       0.658   0.301   0.199  0.00  0.00     0.033 A 
ATOM      4  C4  UNL d   1       1.379   0.132   1.377  0.00  0.00    -0.042 A 
ATOM      5  C5  UNL d   1       0.739  -0.369   2.505  0.00  0.00     0.033 A 
ATOM      6  C6  UNL d   1      -0.617  -0.703   2.448  0.00  0.00    -0.057 A 
ENDROOT
BRANCH   1   7
ATOM      7  N   UNL d   1      -2.733  -0.814   1.310  0.00  0.00    -0.732 N 
ATOM      8  C   UNL d   1      -3.383  -1.539   0.240  0.00  0.00     0.284 C 
ATOM      9  H3  UNL d   1      -3.050  -1.075   2.241  0.00  0.00     0.395 HD
ENDBRANCH   1   7
TORSDOF 1
ENDMDL
