MODEL 1
REMARK minimizedAffinity -4.46980286
REMARK minimizedRMSD -1
REMARK  1 active torsions:
REMARK  status: ('A' for Active; 'I' for Inactive)
REMARK    1  A    between atoms: N_2  and  C1_3 
ROOT
ATOM      1  C1  UNL d   1       0.468  -0.429  -0.212  0.00  0.00     0.143 A 
ATOM      2  C2  UNL d   1       1.825  -0.759  -0.135  0.00  0.00    -0.057 A 
ATOM      3  C3  UNL d   1       2.485  -0.837   1.097  0.00  0.00     0.033 A 
ATOM      4  C4  UNL d   1       1.803  -0.558   2.277  0.00  0.00    -0.042 A 
ATOM      5  C5  UNL d   1       0.459  -0.204   2.223  0.00  0.00     0.033 A 
ATOM      6  C6  UNL d   1      -0.195  -0.134   0.989  0.00  0.00    -0.057 A 
ENDROOT
BRANCH   1   7
ATOM      7  N   UNL d   1      -0.219  -0.239  -1.413  0.00  0.00    -0.732 N 
ATOM      8  C   UNL d   1      -0.638   1.085  -1.821  0.00  0.00     0.284 C 
ATOM      9  H3  UNL d   1       0.154  -0.808  -2.169  0.00  0.00     0.395 HD
ENDBRANCH   1   7
TORSDOF 1
ENDMDL
