MODEL 1
REMARK minimizedAffinity -0.0867349207
REMARK minimizedRMSD -1
REMARK  1 active torsions:
REMARK  status: ('A' for Active; 'I' for Inactive)
REMARK    1  A    between atoms: N_2  and  C1_3 
ROOT
ATOM      1  C1  UNL d   1       0.304   1.295  -0.435  0.00  0.00     0.143 A 
ATOM      2  C2  UNL d   1       0.464   0.074  -1.099  0.00  0.00    -0.057 A 
ATOM      3  C3  UNL d   1       1.180  -0.981  -0.519  0.00  0.00     0.033 A 
ATOM      4  C4  UNL d   1       1.776  -0.821   0.728  0.00  0.00    -0.042 A 
ATOM      5  C5  UNL d   1       1.652   0.392   1.395  0.00  0.00     0.033 A 
ATOM      6  C6  UNL d   1       0.930   1.439   0.814  0.00  0.00    -0.057 A 
ENDROOT
BRANCH   1   7
ATOM      7  N   UNL d   1      -0.312   2.413  -1.001  0.00  0.00    -0.732 N 
ATOM      8  C   UNL d   1       0.293   3.100  -2.122  0.00  0.00     0.284 C 
ATOM      9  H3  UNL d   1      -1.321   2.305  -1.075  0.00  0.00     0.395 HD
ENDBRANCH   1   7
TORSDOF 1
ENDMDL
