MODEL 1
REMARK minimizedAffinity -4.87418747
REMARK minimizedRMSD -1
REMARK  1 active torsions:
REMARK  status: ('A' for Active; 'I' for Inactive)
REMARK    1  A    between atoms: N_2  and  C1_3 
ROOT
ATOM      1  C1  UNL d   1      -0.165  -0.053   0.273  0.00  0.00     0.143 A 
ATOM      2  C2  UNL d   1      -1.055  -0.564   1.224  0.00  0.00    -0.057 A 
ATOM      3  C3  UNL d   1      -0.603  -1.039   2.461  0.00  0.00     0.033 A 
ATOM      4  C4  UNL d   1       0.755  -1.038   2.759  0.00  0.00    -0.042 A 
ATOM      5  C5  UNL d   1       1.661  -0.559   1.819  0.00  0.00     0.033 A 
ATOM      6  C6  UNL d   1       1.203  -0.080   0.588  0.00  0.00    -0.057 A 
ENDROOT
BRANCH   1   7
ATOM      7  N   UNL d   1      -0.542   0.342  -1.012  0.00  0.00    -0.732 N 
ATOM      8  C   UNL d   1      -0.365   1.712  -1.444  0.00  0.00     0.284 C 
ATOM      9  H3  UNL d   1      -0.301  -0.350  -1.718  0.00  0.00     0.395 HD
ENDBRANCH   1   7
TORSDOF 1
ENDMDL
