MODEL 1
REMARK minimizedAffinity 3.15161705
REMARK minimizedRMSD -1
REMARK  1 active torsions:
REMARK  status: ('A' for Active; 'I' for Inactive)
REMARK    1  A    between atoms: N_2  and  C1_3 
ROOT
ATOM      1  C1  UNL d   1       0.113   0.381  -0.706  0.00  0.00     0.143 A 
ATOM      2  C2  UNL d   1       0.797  -0.424  -1.622  0.00  0.00    -0.057 A 
ATOM      3  C3  UNL d   1       1.897  -1.197  -1.230  0.00  0.00     0.033 A 
ATOM      4  C4  UNL d   1       2.351  -1.155   0.084  0.00  0.00    -0.042 A 
ATOM      5  C5  UNL d   1       1.702  -0.342   1.006  0.00  0.00     0.033 A 
ATOM      6  C6  UNL d   1       0.600   0.422   0.610  0.00  0.00    -0.057 A 
ENDROOT
BRANCH   1   7
ATOM      7  N   UNL d   1      -0.926   1.247  -1.055  0.00  0.00    -0.732 N 
ATOM      8  C   UNL d   1      -0.665   2.429  -1.848  0.00  0.00     0.284 C 
ATOM      9  H3  UNL d   1      -1.775   0.750  -1.317  0.00  0.00     0.395 HD
ENDBRANCH   1   7
TORSDOF 1
ENDMDL
