MODEL 1
REMARK minimizedAffinity -3.25349379
REMARK minimizedRMSD -1
REMARK  1 active torsions:
REMARK  status: ('A' for Active; 'I' for Inactive)
REMARK    1  A    between atoms: N_2  and  C1_3 
ROOT
ATOM      1  C1  UNL d   1       0.470  -0.401  -0.050  0.00  0.00     0.143 A 
ATOM      2  C2  UNL d   1       1.865  -0.363   0.048  0.00  0.00    -0.057 A 
ATOM      3  C3  UNL d   1       2.506  -0.350   1.293  0.00  0.00     0.033 A 
ATOM      4  C4  UNL d   1       1.758  -0.346   2.466  0.00  0.00    -0.042 A 
ATOM      5  C5  UNL d   1       0.370  -0.359   2.393  0.00  0.00     0.033 A 
ATOM      6  C6  UNL d   1      -0.264  -0.378   1.147  0.00  0.00    -0.057 A 
ENDROOT
BRANCH   1   7
ATOM      7  N   UNL d   1      -0.228  -0.316  -1.257  0.00  0.00    -0.732 N 
ATOM      8  C   UNL d   1      -0.528   0.972  -1.845  0.00  0.00     0.284 C 
ATOM      9  H3  UNL d   1       0.070  -1.020  -1.928  0.00  0.00     0.395 HD
ENDBRANCH   1   7
TORSDOF 1
ENDMDL
