MODEL 1
REMARK minimizedAffinity 0.66571635
REMARK minimizedRMSD -1
REMARK  1 active torsions:
REMARK  status: ('A' for Active; 'I' for Inactive)
REMARK    1  A    between atoms: N_2  and  C1_3 
ROOT
ATOM      1  C1  UNL d   1       1.019  -0.913   1.148  0.00  0.00     0.143 A 
ATOM      2  C2  UNL d   1       1.987  -1.352   0.238  0.00  0.00    -0.057 A 
ATOM      3  C3  UNL d   1       1.906  -1.025  -1.121  0.00  0.00     0.033 A 
ATOM      4  C4  UNL d   1       0.837  -0.275  -1.600  0.00  0.00    -0.042 A 
ATOM      5  C5  UNL d   1      -0.149   0.152  -0.717  0.00  0.00     0.033 A 
ATOM      6  C6  UNL d   1      -0.059  -0.173   0.640  0.00  0.00    -0.057 A 
ENDROOT
BRANCH   1   7
ATOM      7  N   UNL d   1       0.991  -1.287   2.494  0.00  0.00    -0.732 N 
ATOM      8  C   UNL d   1       0.106  -2.338   2.948  0.00  0.00     0.284 C 
ATOM      9  H3  UNL d   1       1.920  -1.317   2.908  0.00  0.00     0.395 HD
ENDBRANCH   1   7
TORSDOF 1
ENDMDL
