MODEL 1
REMARK minimizedAffinity -2.3802247
REMARK minimizedRMSD -1
REMARK  1 active torsions:
REMARK  status: ('A' for Active; 'I' for Inactive)
REMARK    1  A    between atoms: N_2  and  C1_3 
ROOT
ATOM      1  C1  UNL d   1      -0.170   0.289  -1.547  0.00  0.00     0.143 A 
ATOM      2  C2  UNL d   1       0.835  -0.454  -2.176  0.00  0.00    -0.057 A 
ATOM      3  C3  UNL d   1       1.799  -1.146  -1.433  0.00  0.00     0.033 A 
ATOM      4  C4  UNL d   1       1.792  -1.083  -0.043  0.00  0.00    -0.042 A 
ATOM      5  C5  UNL d   1       0.818  -0.329   0.602  0.00  0.00     0.033 A 
ATOM      6  C6  UNL d   1      -0.146   0.354  -0.145  0.00  0.00    -0.057 A 
ENDROOT
BRANCH   1   7
ATOM      7  N   UNL d   1      -1.097   1.079  -2.231  0.00  0.00    -0.732 N 
ATOM      8  C   UNL d   1      -0.729   2.389  -2.723  0.00  0.00     0.284 C 
ATOM      9  H3  UNL d   1      -1.667   0.537  -2.877  0.00  0.00     0.395 HD
ENDBRANCH   1   7
TORSDOF 1
ENDMDL
