MODEL 1
REMARK minimizedAffinity -2.56959653
REMARK minimizedRMSD -1
REMARK  0 active torsions:
REMARK  status: ('A' for Active; 'I' for Inactive)
ROOT
ATOM      1  C   UNL d   1      -0.199   0.212   2.441  0.00  0.00     0.124 A 
ATOM      2  C1  UNL d   1      -0.911  -0.701   1.675  0.00  0.00     0.062 A 
ATOM      3  C2  UNL d   1      -0.522  -0.968   0.366  0.00  0.00     0.162 A 
ATOM      4  C3  UNL d   1       0.584  -0.322  -0.186  0.00  0.00    -0.034 A 
ATOM      5  C4  UNL d   1       1.293   0.596   0.590  0.00  0.00     0.162 A 
ATOM      6  C5  UNL d   1       0.901   0.859   1.898  0.00  0.00     0.062 A 
ATOM      7  F   UNL d   1       1.590   1.742   2.637  0.00  0.00    -0.097 F 
ATOM      8  F1  UNL d   1       2.362   1.235   0.091  0.00  0.00    -0.096 F 
ATOM      9  I   UNL d   1       1.167  -0.719  -2.144  0.00  0.00    -0.060 I 
ATOM     10  F2  UNL d   1      -1.228  -1.855  -0.352  0.00  0.00    -0.096 F 
ATOM     11  F3  UNL d   1      -1.975  -1.327   2.197  0.00  0.00    -0.097 F 
ATOM     12  F4  UNL d   1      -0.576   0.468   3.701  0.00  0.00    -0.092 F 
ENDROOT
TORSDOF 0
ENDMDL
