MODEL 1
REMARK minimizedAffinity -1.97343802
REMARK minimizedRMSD -1
REMARK  0 active torsions:
REMARK  status: ('A' for Active; 'I' for Inactive)
ROOT
ATOM      1  C   UNL d   1      -1.295  -0.441   2.593  0.00  0.00     0.124 A 
ATOM      2  C1  UNL d   1       0.058  -0.747   2.534  0.00  0.00     0.062 A 
ATOM      3  C2  UNL d   1       0.737  -0.686   1.321  0.00  0.00     0.162 A 
ATOM      4  C3  UNL d   1       0.064  -0.317   0.155  0.00  0.00    -0.034 A 
ATOM      5  C4  UNL d   1      -1.296  -0.013   0.222  0.00  0.00     0.162 A 
ATOM      6  C5  UNL d   1      -1.971  -0.075   1.438  0.00  0.00     0.062 A 
ATOM      7  F   UNL d   1      -3.278   0.221   1.493  0.00  0.00    -0.097 F 
ATOM      8  F1  UNL d   1      -1.974   0.346  -0.879  0.00  0.00    -0.096 F 
ATOM      9  I   UNL d   1       1.076  -0.225  -1.661  0.00  0.00    -0.060 I 
ATOM     10  F2  UNL d   1       2.044  -0.986   1.293  0.00  0.00    -0.096 F 
ATOM     11  F3  UNL d   1       0.712  -1.102   3.649  0.00  0.00    -0.097 F 
ATOM     12  F4  UNL d   1      -1.946  -0.501   3.762  0.00  0.00    -0.092 F 
ENDROOT
TORSDOF 0
ENDMDL
