MODEL 1
REMARK minimizedAffinity 0.20605813
REMARK minimizedRMSD -1
REMARK  0 active torsions:
REMARK  status: ('A' for Active; 'I' for Inactive)
ROOT
ATOM      1  C   UNL d   1      -0.999   0.094   2.922  0.00  0.00     0.124 A 
ATOM      2  C1  UNL d   1      -1.456  -0.922   2.094  0.00  0.00     0.062 A 
ATOM      3  C2  UNL d   1      -0.947  -1.058   0.806  0.00  0.00     0.162 A 
ATOM      4  C3  UNL d   1       0.027  -0.175   0.338  0.00  0.00    -0.034 A 
ATOM      5  C4  UNL d   1       0.481   0.845   1.176  0.00  0.00     0.162 A 
ATOM      6  C5  UNL d   1      -0.031   0.976   2.462  0.00  0.00     0.062 A 
ATOM      7  F   UNL d   1       0.412   1.958   3.261  0.00  0.00    -0.097 F 
ATOM      8  F1  UNL d   1       1.416   1.710   0.757  0.00  0.00    -0.096 F 
ATOM      9  I   UNL d   1       0.790  -0.375  -1.588  0.00  0.00    -0.060 I 
ATOM     10  F2  UNL d   1      -1.407  -2.048   0.028  0.00  0.00    -0.096 F 
ATOM     11  F3  UNL d   1      -2.392  -1.775   2.536  0.00  0.00    -0.097 F 
ATOM     12  F4  UNL d   1      -1.491   0.223   4.161  0.00  0.00    -0.092 F 
ENDROOT
TORSDOF 0
ENDMDL
