MODEL 1
REMARK minimizedAffinity 3.25648141
REMARK minimizedRMSD -1
REMARK  0 active torsions:
REMARK  status: ('A' for Active; 'I' for Inactive)
ROOT
ATOM      1  C   UNL d   1      -0.525  -0.362   2.540  0.00  0.00     0.124 A 
ATOM      2  C1  UNL d   1      -1.472  -0.572   1.547  0.00  0.00     0.062 A 
ATOM      3  C2  UNL d   1      -1.082  -0.649   0.213  0.00  0.00     0.162 A 
ATOM      4  C3  UNL d   1       0.262  -0.517  -0.136  0.00  0.00    -0.034 A 
ATOM      5  C4  UNL d   1       1.208  -0.305   0.868  0.00  0.00     0.162 A 
ATOM      6  C5  UNL d   1       0.813  -0.229   2.200  0.00  0.00     0.062 A 
ATOM      7  F   UNL d   1       1.729  -0.026   3.158  0.00  0.00    -0.097 F 
ATOM      8  F1  UNL d   1       2.509  -0.173   0.568  0.00  0.00    -0.096 F 
ATOM      9  I   UNL d   1       0.849  -0.632  -2.129  0.00  0.00    -0.060 I 
ATOM     10  F2  UNL d   1      -2.019  -0.853  -0.725  0.00  0.00    -0.096 F 
ATOM     11  F3  UNL d   1      -2.766  -0.700   1.873  0.00  0.00    -0.097 F 
ATOM     12  F4  UNL d   1      -0.904  -0.287   3.823  0.00  0.00    -0.092 F 
ENDROOT
TORSDOF 0
ENDMDL
