MODEL 1
REMARK minimizedAffinity -2.12646532
REMARK minimizedRMSD -1
REMARK  0 active torsions:
REMARK  status: ('A' for Active; 'I' for Inactive)
ROOT
ATOM      1  C   UNL d   1       0.528  -0.729  -1.924  0.00  0.00     0.124 A 
ATOM      2  C1  UNL d   1      -0.512   0.022  -1.392  0.00  0.00     0.062 A 
ATOM      3  C2  UNL d   1      -0.720   0.053  -0.016  0.00  0.00     0.162 A 
ATOM      4  C3  UNL d   1       0.113  -0.669   0.838  0.00  0.00    -0.034 A 
ATOM      5  C4  UNL d   1       1.156  -1.422   0.296  0.00  0.00     0.162 A 
ATOM      6  C5  UNL d   1       1.360  -1.450  -1.080  0.00  0.00     0.062 A 
ATOM      7  F   UNL d   1       2.365  -2.176  -1.592  0.00  0.00    -0.097 F 
ATOM      8  F1  UNL d   1       1.976  -2.128   1.089  0.00  0.00    -0.096 F 
ATOM      9  I   UNL d   1      -0.195  -0.626   2.896  0.00  0.00    -0.060 I 
ATOM     10  F2  UNL d   1      -1.732   0.787   0.470  0.00  0.00    -0.096 F 
ATOM     11  F3  UNL d   1      -1.318   0.719  -2.205  0.00  0.00    -0.097 F 
ATOM     12  F4  UNL d   1       0.726  -0.757  -3.248  0.00  0.00    -0.092 F 
ENDROOT
TORSDOF 0
ENDMDL
