MODEL 1
REMARK minimizedAffinity -1.04560816
REMARK minimizedRMSD -1
REMARK  0 active torsions:
REMARK  status: ('A' for Active; 'I' for Inactive)
ROOT
ATOM      1  C   UNL d   1      -2.366  -0.540   0.811  0.00  0.00     0.124 A 
ATOM      2  C1  UNL d   1      -1.458  -0.899   1.798  0.00  0.00     0.062 A 
ATOM      3  C2  UNL d   1      -0.192  -0.321   1.827  0.00  0.00     0.162 A 
ATOM      4  C3  UNL d   1       0.173   0.623   0.867  0.00  0.00    -0.034 A 
ATOM      5  C4  UNL d   1      -0.745   0.978  -0.122  0.00  0.00     0.162 A 
ATOM      6  C5  UNL d   1      -2.009   0.397  -0.147  0.00  0.00     0.062 A 
ATOM      7  F   UNL d   1      -2.885   0.745  -1.101  0.00  0.00    -0.097 F 
ATOM      8  F1  UNL d   1      -0.427   1.882  -1.061  0.00  0.00    -0.096 F 
ATOM      9  I   UNL d   1       2.065   1.490   0.908  0.00  0.00    -0.060 I 
ATOM     10  F2  UNL d   1       0.666  -0.686   2.792  0.00  0.00    -0.096 F 
ATOM     11  F3  UNL d   1      -1.800  -1.805   2.725  0.00  0.00    -0.097 F 
ATOM     12  F4  UNL d   1      -3.583  -1.099   0.785  0.00  0.00    -0.092 F 
ENDROOT
TORSDOF 0
ENDMDL
