MODEL 1
REMARK minimizedAffinity -4.72511864
REMARK minimizedRMSD -1
REMARK  0 active torsions:
REMARK  status: ('A' for Active; 'I' for Inactive)
ROOT
ATOM      1  C   UNL d   1       0.026   0.897  -0.357  0.00  0.00     0.124 A 
ATOM      2  C1  UNL d   1      -1.334   0.639  -0.256  0.00  0.00     0.062 A 
ATOM      3  C2  UNL d   1      -1.877   0.206   0.949  0.00  0.00     0.162 A 
ATOM      4  C3  UNL d   1      -1.060   0.028   2.066  0.00  0.00    -0.034 A 
ATOM      5  C4  UNL d   1       0.307   0.288   1.957  0.00  0.00     0.162 A 
ATOM      6  C5  UNL d   1       0.845   0.721   0.750  0.00  0.00     0.062 A 
ATOM      7  F   UNL d   1       2.159   0.970   0.655  0.00  0.00    -0.097 F 
ATOM      8  F1  UNL d   1       1.121   0.128   3.011  0.00  0.00    -0.096 F 
ATOM      9  I   UNL d   1      -1.869  -0.621   3.871  0.00  0.00    -0.060 I 
ATOM     10  F2  UNL d   1      -3.195  -0.036   1.017  0.00  0.00    -0.096 F 
ATOM     11  F3  UNL d   1      -2.127   0.807  -1.324  0.00  0.00    -0.097 F 
ATOM     12  F4  UNL d   1       0.547   1.313  -1.518  0.00  0.00    -0.092 F 
ENDROOT
TORSDOF 0
ENDMDL
