MODEL 1
REMARK minimizedAffinity -0.772411346
REMARK minimizedRMSD -1
REMARK  0 active torsions:
REMARK  status: ('A' for Active; 'I' for Inactive)
ROOT
ATOM      1  C   UNL d   1       0.537   0.405   1.744  0.00  0.00     0.124 A 
ATOM      2  C1  UNL d   1       1.484   0.734   0.784  0.00  0.00     0.062 A 
ATOM      3  C2  UNL d   1       1.345   0.276  -0.523  0.00  0.00     0.162 A 
ATOM      4  C3  UNL d   1       0.253  -0.516  -0.878  0.00  0.00    -0.034 A 
ATOM      5  C4  UNL d   1      -0.695  -0.844   0.093  0.00  0.00     0.162 A 
ATOM      6  C5  UNL d   1      -0.551  -0.384   1.398  0.00  0.00     0.062 A 
ATOM      7  F   UNL d   1      -1.467  -0.703   2.324  0.00  0.00    -0.097 F 
ATOM      8  F1  UNL d   1      -1.756  -1.604  -0.215  0.00  0.00    -0.096 F 
ATOM      9  I   UNL d   1       0.041  -1.203  -2.831  0.00  0.00    -0.060 I 
ATOM     10  F2  UNL d   1       2.275   0.610  -1.430  0.00  0.00    -0.096 F 
ATOM     11  F3  UNL d   1       2.537   1.495   1.116  0.00  0.00    -0.097 F 
ATOM     12  F4  UNL d   1       0.674   0.846   3.001  0.00  0.00    -0.092 F 
ENDROOT
TORSDOF 0
ENDMDL
