MODEL 1
REMARK minimizedAffinity -2.62576532
REMARK minimizedRMSD -1
REMARK  0 active torsions:
REMARK  status: ('A' for Active; 'I' for Inactive)
ROOT
ATOM      1  C   UNL d   1      -1.744  -0.239   2.067  0.00  0.00     0.124 A 
ATOM      2  C1  UNL d   1      -0.438  -0.710   2.093  0.00  0.00     0.062 A 
ATOM      3  C2  UNL d   1       0.428  -0.429   1.041  0.00  0.00     0.162 A 
ATOM      4  C3  UNL d   1      -0.009   0.327  -0.047  0.00  0.00    -0.034 A 
ATOM      5  C4  UNL d   1      -1.323   0.796  -0.067  0.00  0.00     0.162 A 
ATOM      6  C5  UNL d   1      -2.185   0.513   0.988  0.00  0.00     0.062 A 
ATOM      7  F   UNL d   1      -3.446   0.968   0.961  0.00  0.00    -0.097 F 
ATOM      8  F1  UNL d   1      -1.776   1.526  -1.098  0.00  0.00    -0.096 F 
ATOM      9  I   UNL d   1       1.283   0.749  -1.623  0.00  0.00    -0.060 I 
ATOM     10  F2  UNL d   1       1.684  -0.896   1.092  0.00  0.00    -0.096 F 
ATOM     11  F3  UNL d   1      -0.010  -1.437   3.135  0.00  0.00    -0.097 F 
ATOM     12  F4  UNL d   1      -2.576  -0.512   3.081  0.00  0.00    -0.092 F 
ENDROOT
TORSDOF 0
ENDMDL
