MODEL 1
REMARK minimizedAffinity -3.88344383
REMARK minimizedRMSD -1
REMARK  0 active torsions:
REMARK  status: ('A' for Active; 'I' for Inactive)
ROOT
ATOM      1  C   UNL d   1      -2.908  -0.030   0.826  0.00  0.00     0.124 A 
ATOM      2  C1  UNL d   1      -2.517   0.734  -0.265  0.00  0.00     0.062 A 
ATOM      3  C2  UNL d   1      -1.174   1.047  -0.455  0.00  0.00     0.162 A 
ATOM      4  C3  UNL d   1      -0.212   0.595   0.448  0.00  0.00    -0.034 A 
ATOM      5  C4  UNL d   1      -0.613  -0.172   1.543  0.00  0.00     0.162 A 
ATOM      6  C5  UNL d   1      -1.956  -0.482   1.729  0.00  0.00     0.062 A 
ATOM      7  F   UNL d   1      -2.332  -1.220   2.783  0.00  0.00    -0.097 F 
ATOM      8  F1  UNL d   1       0.286  -0.623   2.431  0.00  0.00    -0.096 F 
ATOM      9  I   UNL d   1       1.797   1.061   0.167  0.00  0.00    -0.060 I 
ATOM     10  F2  UNL d   1      -0.825   1.787  -1.518  0.00  0.00    -0.096 F 
ATOM     11  F3  UNL d   1      -3.435   1.173  -1.138  0.00  0.00    -0.097 F 
ATOM     12  F4  UNL d   1      -4.201  -0.329   1.007  0.00  0.00    -0.092 F 
ENDROOT
TORSDOF 0
ENDMDL
