MODEL 1
REMARK minimizedAffinity -2.32758546
REMARK minimizedRMSD -1
REMARK  0 active torsions:
REMARK  status: ('A' for Active; 'I' for Inactive)
ROOT
ATOM      1  C   UNL d   1      -0.659   1.481  -0.792  0.00  0.00     0.124 A 
ATOM      2  C1  UNL d   1      -1.812   0.738  -0.581  0.00  0.00     0.062 A 
ATOM      3  C2  UNL d   1      -1.911  -0.102   0.524  0.00  0.00     0.162 A 
ATOM      4  C3  UNL d   1      -0.854  -0.203   1.429  0.00  0.00    -0.034 A 
ATOM      5  C4  UNL d   1       0.303   0.547   1.210  0.00  0.00     0.162 A 
ATOM      6  C5  UNL d   1       0.397   1.385   0.104  0.00  0.00     0.062 A 
ATOM      7  F   UNL d   1       1.512   2.103  -0.098  0.00  0.00    -0.097 F 
ATOM      8  F1  UNL d   1       1.338   0.474   2.060  0.00  0.00    -0.096 F 
ATOM      9  I   UNL d   1      -0.998  -1.458   3.083  0.00  0.00    -0.060 I 
ATOM     10  F2  UNL d   1      -3.037  -0.809   0.703  0.00  0.00    -0.096 F 
ATOM     11  F3  UNL d   1      -2.833   0.828  -1.445  0.00  0.00    -0.097 F 
ATOM     12  F4  UNL d   1      -0.566   2.288  -1.856  0.00  0.00    -0.092 F 
ENDROOT
TORSDOF 0
ENDMDL
