MODEL 1
REMARK minimizedAffinity 10.9227057
REMARK minimizedRMSD -1
REMARK  0 active torsions:
REMARK  status: ('A' for Active; 'I' for Inactive)
ROOT
ATOM      1  C   UNL d   1       0.907  -0.135   0.659  0.00  0.00     0.124 A 
ATOM      2  C1  UNL d   1       1.475   1.126   0.543  0.00  0.00     0.062 A 
ATOM      3  C2  UNL d   1       1.346   2.049   1.576  0.00  0.00     0.162 A 
ATOM      4  C3  UNL d   1       0.646   1.715   2.736  0.00  0.00    -0.034 A 
ATOM      5  C4  UNL d   1       0.077   0.445   2.845  0.00  0.00     0.162 A 
ATOM      6  C5  UNL d   1       0.208  -0.474   1.809  0.00  0.00     0.062 A 
ATOM      7  F   UNL d   1      -0.341  -1.692   1.923  0.00  0.00    -0.097 F 
ATOM      8  F1  UNL d   1      -0.602   0.090   3.946  0.00  0.00    -0.096 F 
ATOM      9  I   UNL d   1       0.452   3.093   4.283  0.00  0.00    -0.060 I 
ATOM     10  F2  UNL d   1       1.905   3.261   1.437  0.00  0.00    -0.096 F 
ATOM     11  F3  UNL d   1       2.149   1.457  -0.568  0.00  0.00    -0.097 F 
ATOM     12  F4  UNL d   1       1.031  -1.021  -0.338  0.00  0.00    -0.092 F 
ENDROOT
TORSDOF 0
ENDMDL
