MODEL 1
REMARK minimizedAffinity -0.607142329
REMARK minimizedRMSD -1
REMARK  0 active torsions:
REMARK  status: ('A' for Active; 'I' for Inactive)
ROOT
ATOM      1  C   UNL d   1      -2.161  -0.095   0.934  0.00  0.00     0.124 A 
ATOM      2  C1  UNL d   1      -1.682   0.426  -0.260  0.00  0.00     0.062 A 
ATOM      3  C2  UNL d   1      -0.384   0.921  -0.337  0.00  0.00     0.162 A 
ATOM      4  C3  UNL d   1       0.447   0.896   0.783  0.00  0.00    -0.034 A 
ATOM      5  C4  UNL d   1      -0.042   0.371   1.981  0.00  0.00     0.162 A 
ATOM      6  C5  UNL d   1      -1.341  -0.122   2.053  0.00  0.00     0.062 A 
ATOM      7  F   UNL d   1      -1.801  -0.625   3.208  0.00  0.00    -0.097 F 
ATOM      8  F1  UNL d   1       0.730   0.332   3.077  0.00  0.00    -0.096 F 
ATOM      9  I   UNL d   1       2.389   1.635   0.672  0.00  0.00    -0.060 I 
ATOM     10  F2  UNL d   1       0.053   1.419  -1.504  0.00  0.00    -0.096 F 
ATOM     11  F3  UNL d   1      -2.473   0.454  -1.343  0.00  0.00    -0.097 F 
ATOM     12  F4  UNL d   1      -3.411  -0.570   1.006  0.00  0.00    -0.092 F 
ENDROOT
TORSDOF 0
ENDMDL
