MODEL 1
REMARK minimizedAffinity -0.659683526
REMARK minimizedRMSD -1
REMARK  0 active torsions:
REMARK  status: ('A' for Active; 'I' for Inactive)
ROOT
ATOM      1  C   UNL d   1      -0.004   0.481   1.019  0.00  0.00     0.124 A 
ATOM      2  C1  UNL d   1       0.731   1.018  -0.029  0.00  0.00     0.062 A 
ATOM      3  C2  UNL d   1       0.834   0.333  -1.236  0.00  0.00     0.162 A 
ATOM      4  C3  UNL d   1       0.197  -0.898  -1.402  0.00  0.00    -0.034 A 
ATOM      5  C4  UNL d   1      -0.540  -1.431  -0.344  0.00  0.00     0.162 A 
ATOM      6  C5  UNL d   1      -0.639  -0.742   0.861  0.00  0.00     0.062 A 
ATOM      7  F   UNL d   1      -1.350  -1.263   1.872  0.00  0.00    -0.097 F 
ATOM      8  F1  UNL d   1      -1.164  -2.612  -0.470  0.00  0.00    -0.096 F 
ATOM      9  I   UNL d   1       0.348  -1.926  -3.206  0.00  0.00    -0.060 I 
ATOM     10  F2  UNL d   1       1.551   0.875  -2.231  0.00  0.00    -0.096 F 
ATOM     11  F3  UNL d   1       1.346   2.200   0.122  0.00  0.00    -0.097 F 
ATOM     12  F4  UNL d   1      -0.100   1.143   2.180  0.00  0.00    -0.092 F 
ENDROOT
TORSDOF 0
ENDMDL
