MODEL 1
REMARK minimizedAffinity -0.0464321338
REMARK minimizedRMSD -1
REMARK  0 active torsions:
REMARK  status: ('A' for Active; 'I' for Inactive)
ROOT
ATOM      1  C   UNL d   1       0.325   0.495   1.366  0.00  0.00     0.124 A 
ATOM      2  C1  UNL d   1      -0.094  -0.816   1.186  0.00  0.00     0.062 A 
ATOM      3  C2  UNL d   1      -0.045  -1.400  -0.076  0.00  0.00     0.162 A 
ATOM      4  C3  UNL d   1       0.426  -0.673  -1.170  0.00  0.00    -0.034 A 
ATOM      5  C4  UNL d   1       0.844   0.646  -0.981  0.00  0.00     0.162 A 
ATOM      6  C5  UNL d   1       0.793   1.225   0.283  0.00  0.00     0.062 A 
ATOM      7  F   UNL d   1       1.198   2.492   0.455  0.00  0.00    -0.097 F 
ATOM      8  F1  UNL d   1       1.303   1.373  -2.011  0.00  0.00    -0.096 F 
ATOM      9  I   UNL d   1       0.502  -1.542  -3.059  0.00  0.00    -0.060 I 
ATOM     10  F2  UNL d   1      -0.455  -2.668  -0.221  0.00  0.00    -0.096 F 
ATOM     11  F3  UNL d   1      -0.548  -1.523   2.232  0.00  0.00    -0.097 F 
ATOM     12  F4  UNL d   1       0.275   1.055   2.582  0.00  0.00    -0.092 F 
ENDROOT
TORSDOF 0
ENDMDL
