MODEL 1
REMARK minimizedAffinity 11.2363777
REMARK minimizedRMSD -1
REMARK  0 active torsions:
REMARK  status: ('A' for Active; 'I' for Inactive)
ROOT
ATOM      1  C   UNL d   1      -0.120   0.277   0.768  0.00  0.00     0.124 A 
ATOM      2  C1  UNL d   1      -0.584  -1.011   0.540  0.00  0.00     0.062 A 
ATOM      3  C2  UNL d   1      -0.304  -1.653  -0.663  0.00  0.00     0.162 A 
ATOM      4  C3  UNL d   1       0.445  -1.008  -1.648  0.00  0.00    -0.034 A 
ATOM      5  C4  UNL d   1       0.908   0.288  -1.411  0.00  0.00     0.162 A 
ATOM      6  C5  UNL d   1       0.625   0.925  -0.207  0.00  0.00     0.062 A 
ATOM      7  F   UNL d   1       1.075   2.169   0.012  0.00  0.00    -0.097 F 
ATOM      8  F1  UNL d   1       1.631   0.937  -2.336  0.00  0.00    -0.096 F 
ATOM      9  I   UNL d   1       0.865  -1.964  -3.448  0.00  0.00    -0.060 I 
ATOM     10  F2  UNL d   1      -0.766  -2.897  -0.857  0.00  0.00    -0.096 F 
ATOM     11  F3  UNL d   1      -1.305  -1.638   1.480  0.00  0.00    -0.097 F 
ATOM     12  F4  UNL d   1      -0.391   0.893   1.926  0.00  0.00    -0.092 F 
ENDROOT
TORSDOF 0
ENDMDL
