MODEL 1
REMARK minimizedAffinity 5.33914375
REMARK minimizedRMSD -1
REMARK  0 active torsions:
REMARK  status: ('A' for Active; 'I' for Inactive)
ROOT
ATOM      1  C   UNL d   1       0.517   0.819   2.663  0.00  0.00     0.124 A 
ATOM      2  C1  UNL d   1      -0.853   0.621   2.765  0.00  0.00     0.062 A 
ATOM      3  C2  UNL d   1      -1.627   0.477   1.617  0.00  0.00     0.162 A 
ATOM      4  C3  UNL d   1      -1.032   0.530   0.357  0.00  0.00    -0.034 A 
ATOM      5  C4  UNL d   1       0.346   0.731   0.262  0.00  0.00     0.162 A 
ATOM      6  C5  UNL d   1       1.115   0.874   1.412  0.00  0.00     0.062 A 
ATOM      7  F   UNL d   1       2.438   1.066   1.312  0.00  0.00    -0.097 F 
ATOM      8  F1  UNL d   1       0.950   0.787  -0.934  0.00  0.00    -0.096 F 
ATOM      9  I   UNL d   1      -2.186   0.315  -1.362  0.00  0.00    -0.060 I 
ATOM     10  F2  UNL d   1      -2.948   0.286   1.746  0.00  0.00    -0.096 F 
ATOM     11  F3  UNL d   1      -1.433   0.568   3.973  0.00  0.00    -0.097 F 
ATOM     12  F4  UNL d   1       1.259   0.959   3.769  0.00  0.00    -0.092 F 
ENDROOT
TORSDOF 0
ENDMDL
