MODEL 1
REMARK minimizedAffinity 1.872437
REMARK minimizedRMSD -1
REMARK  0 active torsions:
REMARK  status: ('A' for Active; 'I' for Inactive)
ROOT
ATOM      1  C   UNL d   1      -0.480  -0.388   2.704  0.00  0.00     0.124 A 
ATOM      2  C1  UNL d   1      -1.412  -0.644   1.708  0.00  0.00     0.062 A 
ATOM      3  C2  UNL d   1      -1.077  -0.456   0.371  0.00  0.00     0.162 A 
ATOM      4  C3  UNL d   1       0.198  -0.010   0.020  0.00  0.00    -0.034 A 
ATOM      5  C4  UNL d   1       1.130   0.246   1.028  0.00  0.00     0.162 A 
ATOM      6  C5  UNL d   1       0.790   0.057   2.363  0.00  0.00     0.062 A 
ATOM      7  F   UNL d   1       1.692   0.305   3.324  0.00  0.00    -0.097 F 
ATOM      8  F1  UNL d   1       2.364   0.676   0.726  0.00  0.00    -0.096 F 
ATOM      9  I   UNL d   1       0.703   0.272  -1.979  0.00  0.00    -0.060 I 
ATOM     10  F2  UNL d   1      -1.998  -0.711  -0.571  0.00  0.00    -0.096 F 
ATOM     11  F3  UNL d   1      -2.640  -1.072   2.035  0.00  0.00    -0.097 F 
ATOM     12  F4  UNL d   1      -0.805  -0.568   3.991  0.00  0.00    -0.092 F 
ENDROOT
TORSDOF 0
ENDMDL
