MODEL 1
REMARK minimizedAffinity 0.956137002
REMARK minimizedRMSD -1
REMARK  0 active torsions:
REMARK  status: ('A' for Active; 'I' for Inactive)
ROOT
ATOM      1  C   UNL d   1       0.218   0.767   2.780  0.00  0.00     0.124 A 
ATOM      2  C1  UNL d   1      -0.159  -0.565   2.677  0.00  0.00     0.062 A 
ATOM      3  C2  UNL d   1      -0.195  -1.188   1.433  0.00  0.00     0.162 A 
ATOM      4  C3  UNL d   1       0.148  -0.480   0.281  0.00  0.00    -0.034 A 
ATOM      5  C4  UNL d   1       0.525   0.860   0.392  0.00  0.00     0.162 A 
ATOM      6  C5  UNL d   1       0.560   1.478   1.638  0.00  0.00     0.062 A 
ATOM      7  F   UNL d   1       0.925   2.765   1.735  0.00  0.00    -0.097 F 
ATOM      8  F1  UNL d   1       0.861   1.570  -0.695  0.00  0.00    -0.096 F 
ATOM      9  I   UNL d   1       0.095  -1.408  -1.582  0.00  0.00    -0.060 I 
ATOM     10  F2  UNL d   1      -0.563  -2.476   1.363  0.00  0.00    -0.096 F 
ATOM     11  F3  UNL d   1      -0.490  -1.253   3.778  0.00  0.00    -0.097 F 
ATOM     12  F4  UNL d   1       0.252   1.364   3.978  0.00  0.00    -0.092 F 
ENDROOT
TORSDOF 0
ENDMDL
