MODEL 1
REMARK minimizedAffinity 10.5644712
REMARK minimizedRMSD -1
REMARK  0 active torsions:
REMARK  status: ('A' for Active; 'I' for Inactive)
ROOT
ATOM      1  C   UNL d   1       0.986  -5.328   6.000  0.00  0.00     0.077 C 
ATOM      2  C1  UNL d   1       1.911  -4.465   5.195  0.00  0.00    -0.074 A 
ATOM      3  C2  UNL d   1       2.934  -5.029   4.426  0.00  0.00    -0.005 A 
ATOM      4  C3  UNL d   1       3.781  -4.214   3.675  0.00  0.00     0.006 A 
ATOM      5  C4  UNL d   1       3.613  -2.829   3.685  0.00  0.00    -0.005 A 
ATOM      6  C5  UNL d   1       2.595  -2.247   4.446  0.00  0.00    -0.074 A 
ATOM      7  C6  UNL d   1       2.395  -0.760   4.460  0.00  0.00     0.077 C 
ATOM      8  C7  UNL d   1       1.744  -3.073   5.193  0.00  0.00    -0.001 A 
ENDROOT
TORSDOF 0
ENDMDL
