MODEL 1
REMARK minimizedAffinity 3.95501542
REMARK minimizedRMSD -1
REMARK  0 active torsions:
REMARK  status: ('A' for Active; 'I' for Inactive)
ROOT
ATOM      1  C   UNL d   1      -5.614   2.788  -2.433  0.00  0.00     0.077 C 
ATOM      2  C1  UNL d   1      -4.735   2.906  -1.223  0.00  0.00    -0.074 A 
ATOM      3  C2  UNL d   1      -3.367   2.628  -1.299  0.00  0.00    -0.005 A 
ATOM      4  C3  UNL d   1      -2.560   2.751  -0.168  0.00  0.00     0.006 A 
ATOM      5  C4  UNL d   1      -3.113   3.152   1.049  0.00  0.00    -0.005 A 
ATOM      6  C5  UNL d   1      -4.479   3.435   1.144  0.00  0.00    -0.074 A 
ATOM      7  C6  UNL d   1      -5.087   3.877   2.442  0.00  0.00     0.077 C 
ATOM      8  C7  UNL d   1      -5.282   3.316   0.001  0.00  0.00    -0.001 A 
ENDROOT
TORSDOF 0
ENDMDL
