MODEL 1
REMARK minimizedAffinity 0.713486373
REMARK minimizedRMSD -1
REMARK  0 active torsions:
REMARK  status: ('A' for Active; 'I' for Inactive)
ROOT
ATOM      1  C   UNL d   1       5.999  -1.875   4.108  0.00  0.00     0.077 C 
ATOM      2  C1  UNL d   1       4.504  -1.756   4.144  0.00  0.00    -0.074 A 
ATOM      3  C2  UNL d   1       3.762  -2.325   5.184  0.00  0.00    -0.005 A 
ATOM      4  C3  UNL d   1       2.374  -2.197   5.209  0.00  0.00     0.006 A 
ATOM      5  C4  UNL d   1       1.714  -1.501   4.196  0.00  0.00    -0.005 A 
ATOM      6  C5  UNL d   1       2.439  -0.924   3.148  0.00  0.00    -0.074 A 
ATOM      7  C6  UNL d   1       1.746  -0.164   2.056  0.00  0.00     0.077 C 
ATOM      8  C7  UNL d   1       3.835  -1.051   3.134  0.00  0.00    -0.001 A 
ENDROOT
TORSDOF 0
ENDMDL
