MODEL 1
REMARK minimizedAffinity 9.32988071
REMARK minimizedRMSD -1
REMARK  0 active torsions:
REMARK  status: ('A' for Active; 'I' for Inactive)
ROOT
ATOM      1  C   UNL d   1       1.483   1.503   2.677  0.00  0.00     0.077 C 
ATOM      2  C1  UNL d   1       2.144   0.166   2.839  0.00  0.00    -0.074 A 
ATOM      3  C2  UNL d   1       3.113  -0.271   1.930  0.00  0.00    -0.005 A 
ATOM      4  C3  UNL d   1       3.725  -1.512   2.099  0.00  0.00     0.006 A 
ATOM      5  C4  UNL d   1       3.375  -2.328   3.175  0.00  0.00    -0.005 A 
ATOM      6  C5  UNL d   1       2.409  -1.908   4.094  0.00  0.00    -0.074 A 
ATOM      7  C6  UNL d   1       2.028  -2.768   5.262  0.00  0.00     0.077 C 
ATOM      8  C7  UNL d   1       1.803  -0.656   3.922  0.00  0.00    -0.001 A 
ENDROOT
TORSDOF 0
ENDMDL
