MODEL 1
REMARK minimizedAffinity 10.4950867
REMARK minimizedRMSD -1
REMARK  0 active torsions:
REMARK  status: ('A' for Active; 'I' for Inactive)
ROOT
ATOM      1  C   UNL d   1      -5.933  -2.494  -5.878  0.00  0.00     0.077 C 
ATOM      2  C1  UNL d   1      -5.916  -1.142  -5.229  0.00  0.00    -0.074 A 
ATOM      3  C2  UNL d   1      -5.873   0.024  -5.999  0.00  0.00    -0.005 A 
ATOM      4  C3  UNL d   1      -5.868   1.275  -5.382  0.00  0.00     0.006 A 
ATOM      5  C4  UNL d   1      -5.905   1.371  -3.990  0.00  0.00    -0.005 A 
ATOM      6  C5  UNL d   1      -5.949   0.216  -3.204  0.00  0.00    -0.074 A 
ATOM      7  C6  UNL d   1      -6.000   0.302  -1.707  0.00  0.00     0.077 C 
ATOM      8  C7  UNL d   1      -5.961  -1.037  -3.832  0.00  0.00    -0.001 A 
ENDROOT
TORSDOF 0
ENDMDL
