MODEL 1
REMARK minimizedAffinity 12.3458595
REMARK minimizedRMSD -1
REMARK  0 active torsions:
REMARK  status: ('A' for Active; 'I' for Inactive)
ROOT
ATOM      1  C   UNL d   1       0.335  -5.860   4.958  0.00  0.00     0.077 C 
ATOM      2  C1  UNL d   1       1.322  -4.909   4.348  0.00  0.00    -0.074 A 
ATOM      3  C2  UNL d   1       2.555  -5.362   3.869  0.00  0.00    -0.005 A 
ATOM      4  C3  UNL d   1       3.459  -4.468   3.296  0.00  0.00     0.006 A 
ATOM      5  C4  UNL d   1       3.139  -3.113   3.196  0.00  0.00    -0.005 A 
ATOM      6  C5  UNL d   1       1.910  -2.642   3.668  0.00  0.00    -0.074 A 
ATOM      7  C6  UNL d   1       1.546  -1.191   3.560  0.00  0.00     0.077 C 
ATOM      8  C7  UNL d   1       1.004  -3.548   4.237  0.00  0.00    -0.001 A 
ENDROOT
TORSDOF 0
ENDMDL
