MODEL 1
REMARK minimizedAffinity 3.92353749
REMARK minimizedRMSD -1
REMARK  0 active torsions:
REMARK  status: ('A' for Active; 'I' for Inactive)
ROOT
ATOM      1  C   UNL d   1       2.304   1.827   5.028  0.00  0.00     0.077 C 
ATOM      2  C1  UNL d   1       2.228   0.594   4.178  0.00  0.00    -0.074 A 
ATOM      3  C2  UNL d   1       2.386   0.667   2.790  0.00  0.00    -0.005 A 
ATOM      4  C3  UNL d   1       2.322  -0.489   2.013  0.00  0.00     0.006 A 
ATOM      5  C4  UNL d   1       2.100  -1.728   2.614  0.00  0.00    -0.005 A 
ATOM      6  C5  UNL d   1       1.940  -1.822   4.000  0.00  0.00    -0.074 A 
ATOM      7  C6  UNL d   1       1.709  -3.147   4.663  0.00  0.00     0.077 C 
ATOM      8  C7  UNL d   1       2.012  -0.656   4.775  0.00  0.00    -0.001 A 
ENDROOT
TORSDOF 0
ENDMDL
