MODEL 1
REMARK minimizedAffinity -1.59326851
REMARK minimizedRMSD -1
REMARK  0 active torsions:
REMARK  status: ('A' for Active; 'I' for Inactive)
ROOT
ATOM      1  C   UNL d   1       6.000   4.092  -5.252  0.00  0.00     0.077 C 
ATOM      2  C1  UNL d   1       5.265   2.800  -5.053  0.00  0.00    -0.074 A 
ATOM      3  C2  UNL d   1       3.912   2.790  -4.699  0.00  0.00    -0.005 A 
ATOM      4  C3  UNL d   1       3.240   1.580  -4.527  0.00  0.00     0.006 A 
ATOM      5  C4  UNL d   1       3.912   0.370  -4.707  0.00  0.00    -0.005 A 
ATOM      6  C5  UNL d   1       5.264   0.361  -5.062  0.00  0.00    -0.074 A 
ATOM      7  C6  UNL d   1       5.999  -0.930  -5.270  0.00  0.00     0.077 C 
ATOM      8  C7  UNL d   1       5.931   1.581  -5.240  0.00  0.00    -0.001 A 
ENDROOT
TORSDOF 0
ENDMDL
