MODEL 1
REMARK minimizedAffinity 13.7139473
REMARK minimizedRMSD -1
REMARK  0 active torsions:
REMARK  status: ('A' for Active; 'I' for Inactive)
ROOT
ATOM      1  C   UNL d   1       1.887  -0.287   2.631  0.00  0.00     0.077 C 
ATOM      2  C1  UNL d   1       1.024  -0.646   1.459  0.00  0.00    -0.074 A 
ATOM      3  C2  UNL d   1      -0.288  -0.170   1.360  0.00  0.00    -0.005 A 
ATOM      4  C3  UNL d   1      -1.076  -0.505   0.259  0.00  0.00     0.006 A 
ATOM      5  C4  UNL d   1      -0.562  -1.317  -0.753  0.00  0.00    -0.005 A 
ATOM      6  C5  UNL d   1       0.748  -1.802  -0.671  0.00  0.00    -0.074 A 
ATOM      7  C6  UNL d   1       1.319  -2.668  -1.754  0.00  0.00     0.077 C 
ATOM      8  C7  UNL d   1       1.536  -1.456   0.435  0.00  0.00    -0.001 A 
ENDROOT
TORSDOF 0
ENDMDL
