MODEL 1
REMARK minimizedAffinity 5.83618641
REMARK minimizedRMSD -1
REMARK  0 active torsions:
REMARK  status: ('A' for Active; 'I' for Inactive)
ROOT
ATOM      1  C   UNL d   1       1.889  -1.933   5.044  0.00  0.00     0.077 C 
ATOM      2  C1  UNL d   1       2.569  -1.441   3.801  0.00  0.00    -0.074 A 
ATOM      3  C2  UNL d   1       1.892  -0.630   2.884  0.00  0.00    -0.005 A 
ATOM      4  C3  UNL d   1       2.541  -0.172   1.737  0.00  0.00     0.006 A 
ATOM      5  C4  UNL d   1       3.870  -0.521   1.495  0.00  0.00    -0.005 A 
ATOM      6  C5  UNL d   1       4.563  -1.331   2.400  0.00  0.00    -0.074 A 
ATOM      7  C6  UNL d   1       5.994  -1.708   2.160  0.00  0.00     0.077 C 
ATOM      8  C7  UNL d   1       3.906  -1.781   3.554  0.00  0.00    -0.001 A 
ENDROOT
TORSDOF 0
ENDMDL
