MODEL 1
REMARK minimizedAffinity 1.35546684
REMARK minimizedRMSD -1
REMARK  0 active torsions:
REMARK  status: ('A' for Active; 'I' for Inactive)
ROOT
ATOM      1  C   UNL d   1       2.459  -2.010  -2.983  0.00  0.00     0.077 C 
ATOM      2  C1  UNL d   1       2.828  -3.403  -2.569  0.00  0.00    -0.074 A 
ATOM      3  C2  UNL d   1       3.766  -4.144  -3.295  0.00  0.00    -0.005 A 
ATOM      4  C3  UNL d   1       4.106  -5.435  -2.892  0.00  0.00     0.006 A 
ATOM      5  C4  UNL d   1       3.514  -5.997  -1.761  0.00  0.00    -0.005 A 
ATOM      6  C5  UNL d   1       2.575  -5.271  -1.021  0.00  0.00    -0.074 A 
ATOM      7  C6  UNL d   1       1.937  -5.857   0.203  0.00  0.00     0.077 C 
ATOM      8  C7  UNL d   1       2.244  -3.972  -1.429  0.00  0.00    -0.001 A 
ENDROOT
TORSDOF 0
ENDMDL
