MODEL 1
REMARK minimizedAffinity 12.8770733
REMARK minimizedRMSD -1
REMARK  0 active torsions:
REMARK  status: ('A' for Active; 'I' for Inactive)
ROOT
ATOM      1  C   UNL d   1       1.831  -6.000   6.000  0.00  0.00     0.077 C 
ATOM      2  C1  UNL d   1       2.258  -5.019   4.949  0.00  0.00    -0.074 A 
ATOM      3  C2  UNL d   1       2.995  -5.434   3.835  0.00  0.00    -0.005 A 
ATOM      4  C3  UNL d   1       3.376  -4.511   2.860  0.00  0.00     0.006 A 
ATOM      5  C4  UNL d   1       3.025  -3.167   2.990  0.00  0.00    -0.005 A 
ATOM      6  C5  UNL d   1       2.288  -2.734   4.097  0.00  0.00    -0.074 A 
ATOM      7  C6  UNL d   1       1.894  -1.294   4.246  0.00  0.00     0.077 C 
ATOM      8  C7  UNL d   1       1.902  -3.668   5.068  0.00  0.00    -0.001 A 
ENDROOT
TORSDOF 0
ENDMDL
