MODEL 1
REMARK minimizedAffinity -3.13994193
REMARK minimizedRMSD -1
REMARK  0 active torsions:
REMARK  status: ('A' for Active; 'I' for Inactive)
ROOT
ATOM      1  C   UNL d   1       5.931  -5.999   5.142  0.00  0.00     0.077 C 
ATOM      2  C1  UNL d   1       5.313  -5.487   3.875  0.00  0.00    -0.074 A 
ATOM      3  C2  UNL d   1       5.986  -4.563   3.069  0.00  0.00    -0.005 A 
ATOM      4  C3  UNL d   1       5.403  -4.103   1.889  0.00  0.00     0.006 A 
ATOM      5  C4  UNL d   1       4.143  -4.561   1.502  0.00  0.00    -0.005 A 
ATOM      6  C5  UNL d   1       3.455  -5.486   2.295  0.00  0.00    -0.074 A 
ATOM      7  C6  UNL d   1       2.104  -5.996   1.889  0.00  0.00     0.077 C 
ATOM      8  C7  UNL d   1       4.051  -5.949   3.476  0.00  0.00    -0.001 A 
ENDROOT
TORSDOF 0
ENDMDL
