MODEL 1
REMARK minimizedAffinity -0.284208536
REMARK minimizedRMSD -1
REMARK  0 active torsions:
REMARK  status: ('A' for Active; 'I' for Inactive)
ROOT
ATOM      1  C   UNL d   1       5.330  -0.615   3.032  0.00  0.00     0.077 C 
ATOM      2  C1  UNL d   1       5.571  -1.845   3.856  0.00  0.00    -0.074 A 
ATOM      3  C2  UNL d   1       5.786  -1.755   5.235  0.00  0.00    -0.005 A 
ATOM      4  C3  UNL d   1       6.000  -2.909   5.989  0.00  0.00     0.006 A 
ATOM      5  C4  UNL d   1       6.000  -4.161   5.374  0.00  0.00    -0.005 A 
ATOM      6  C5  UNL d   1       5.785  -4.270   3.996  0.00  0.00    -0.074 A 
ATOM      7  C6  UNL d   1       5.772  -5.609   3.321  0.00  0.00     0.077 C 
ATOM      8  C7  UNL d   1       5.564  -3.107   3.246  0.00  0.00    -0.001 A 
ENDROOT
TORSDOF 0
ENDMDL
