MODEL 1
REMARK minimizedAffinity 1.38500702
REMARK minimizedRMSD -1
REMARK  0 active torsions:
REMARK  status: ('A' for Active; 'I' for Inactive)
ROOT
ATOM      1  C   UNL d   1      -4.285  -0.745   1.158  0.00  0.00     0.077 C 
ATOM      2  C1  UNL d   1      -4.495  -1.756   2.245  0.00  0.00    -0.074 A 
ATOM      3  C2  UNL d   1      -5.049  -3.009   1.965  0.00  0.00    -0.005 A 
ATOM      4  C3  UNL d   1      -5.229  -3.943   2.985  0.00  0.00     0.006 A 
ATOM      5  C4  UNL d   1      -4.860  -3.633   4.294  0.00  0.00    -0.005 A 
ATOM      6  C5  UNL d   1      -4.304  -2.385   4.594  0.00  0.00    -0.074 A 
ATOM      7  C6  UNL d   1      -3.892  -2.039   5.994  0.00  0.00     0.077 C 
ATOM      8  C7  UNL d   1      -4.119  -1.455   3.562  0.00  0.00    -0.001 A 
ENDROOT
TORSDOF 0
ENDMDL
