MODEL 1
REMARK minimizedAffinity 15.7884998
REMARK minimizedRMSD -1
REMARK  0 active torsions:
REMARK  status: ('A' for Active; 'I' for Inactive)
ROOT
ATOM      1  C   UNL d   1       4.788   2.653  -6.000  0.00  0.00     0.077 C 
ATOM      2  C1  UNL d   1       4.173   1.401  -5.447  0.00  0.00    -0.074 A 
ATOM      3  C2  UNL d   1       4.469   0.151  -6.000  0.00  0.00    -0.005 A 
ATOM      4  C3  UNL d   1       3.897  -1.006  -5.469  0.00  0.00     0.006 A 
ATOM      5  C4  UNL d   1       3.025  -0.923  -4.383  0.00  0.00    -0.005 A 
ATOM      6  C5  UNL d   1       2.718   0.318  -3.817  0.00  0.00    -0.074 A 
ATOM      7  C6  UNL d   1       1.791   0.423  -2.643  0.00  0.00     0.077 C 
ATOM      8  C7  UNL d   1       3.303   1.475  -4.351  0.00  0.00    -0.001 A 
ENDROOT
TORSDOF 0
ENDMDL
