MODEL 1
REMARK minimizedAffinity 2.1551404
REMARK minimizedRMSD -1
REMARK  0 active torsions:
REMARK  status: ('A' for Active; 'I' for Inactive)
ROOT
ATOM      1  C   UNL d   1       5.276  -5.978   5.585  0.00  0.00     0.077 C 
ATOM      2  C1  UNL d   1       4.650  -5.972   4.222  0.00  0.00    -0.074 A 
ATOM      3  C2  UNL d   1       5.440  -5.973   3.068  0.00  0.00    -0.005 A 
ATOM      4  C3  UNL d   1       4.844  -5.976   1.807  0.00  0.00     0.006 A 
ATOM      5  C4  UNL d   1       3.454  -5.979   1.687  0.00  0.00    -0.005 A 
ATOM      6  C5  UNL d   1       2.647  -5.979   2.830  0.00  0.00    -0.074 A 
ATOM      7  C6  UNL d   1       1.152  -5.992   2.719  0.00  0.00     0.077 C 
ATOM      8  C7  UNL d   1       3.254  -5.982   4.093  0.00  0.00    -0.001 A 
ENDROOT
TORSDOF 0
ENDMDL
