MODEL 1
REMARK minimizedAffinity -0.51301688
REMARK minimizedRMSD -1
REMARK  0 active torsions:
REMARK  status: ('A' for Active; 'I' for Inactive)
ROOT
ATOM      1  C   UNL d   1      -1.454   5.261   3.726  0.00  0.00     0.077 C 
ATOM      2  C1  UNL d   1      -2.940   5.067   3.665  0.00  0.00    -0.074 A 
ATOM      3  C2  UNL d   1      -3.527   4.347   2.620  0.00  0.00    -0.005 A 
ATOM      4  C3  UNL d   1      -4.910   4.166   2.581  0.00  0.00     0.006 A 
ATOM      5  C4  UNL d   1      -5.717   4.703   3.584  0.00  0.00    -0.005 A 
ATOM      6  C5  UNL d   1      -5.147   5.425   4.637  0.00  0.00    -0.074 A 
ATOM      7  C6  UNL d   1      -5.999   6.000   5.730  0.00  0.00     0.077 C 
ATOM      8  C7  UNL d   1      -3.757   5.596   4.673  0.00  0.00    -0.001 A 
ENDROOT
TORSDOF 0
ENDMDL
