MODEL 1
REMARK minimizedAffinity -2.40526056
REMARK minimizedRMSD -1
REMARK  0 active torsions:
REMARK  status: ('A' for Active; 'I' for Inactive)
ROOT
ATOM      1  C   UNL d   1       3.262  -5.610   1.299  0.00  0.00     0.077 C 
ATOM      2  C1  UNL d   1       1.863  -5.622   1.840  0.00  0.00    -0.074 A 
ATOM      3  C2  UNL d   1       1.607  -5.998   3.162  0.00  0.00    -0.005 A 
ATOM      4  C3  UNL d   1       0.302  -5.995   3.655  0.00  0.00     0.006 A 
ATOM      5  C4  UNL d   1      -0.759  -5.616   2.831  0.00  0.00    -0.005 A 
ATOM      6  C5  UNL d   1      -0.522  -5.236   1.506  0.00  0.00    -0.074 A 
ATOM      7  C6  UNL d   1      -1.649  -4.817   0.610  0.00  0.00     0.077 C 
ATOM      8  C7  UNL d   1       0.793  -5.235   1.021  0.00  0.00    -0.001 A 
ENDROOT
TORSDOF 0
ENDMDL
