MODEL 1
REMARK minimizedAffinity 1.94148183
REMARK minimizedRMSD -1
REMARK  0 active torsions:
REMARK  status: ('A' for Active; 'I' for Inactive)
ROOT
ATOM      1  C   UNL d   1      -0.901  -5.981   2.690  0.00  0.00     0.077 C 
ATOM      2  C1  UNL d   1      -2.062  -5.975   1.739  0.00  0.00    -0.074 A 
ATOM      3  C2  UNL d   1      -1.858  -5.996   0.356  0.00  0.00    -0.005 A 
ATOM      4  C3  UNL d   1      -2.947  -6.000  -0.515  0.00  0.00     0.006 A 
ATOM      5  C4  UNL d   1      -4.249  -5.983  -0.013  0.00  0.00    -0.005 A 
ATOM      6  C5  UNL d   1      -4.472  -5.963   1.367  0.00  0.00    -0.074 A 
ATOM      7  C6  UNL d   1      -5.865  -5.954   1.924  0.00  0.00     0.077 C 
ATOM      8  C7  UNL d   1      -3.373  -5.966   2.236  0.00  0.00    -0.001 A 
ENDROOT
TORSDOF 0
ENDMDL
