MODEL 1
REMARK minimizedAffinity 9.6958704
REMARK minimizedRMSD -1
REMARK  0 active torsions:
REMARK  status: ('A' for Active; 'I' for Inactive)
ROOT
ATOM      1  C   UNL d   1       0.710   2.810   3.325  0.00  0.00     0.077 C 
ATOM      2  C1  UNL d   1      -0.362   2.144   2.514  0.00  0.00    -0.074 A 
ATOM      3  C2  UNL d   1      -0.038   1.338   1.418  0.00  0.00    -0.005 A 
ATOM      4  C3  UNL d   1      -1.045   0.717   0.680  0.00  0.00     0.006 A 
ATOM      5  C4  UNL d   1      -2.384   0.895   1.029  0.00  0.00    -0.005 A 
ATOM      6  C5  UNL d   1      -2.727   1.697   2.123  0.00  0.00    -0.074 A 
ATOM      7  C6  UNL d   1      -4.161   1.891   2.518  0.00  0.00     0.077 C 
ATOM      8  C7  UNL d   1      -1.709   2.312   2.864  0.00  0.00    -0.001 A 
ENDROOT
TORSDOF 0
ENDMDL
