MODEL 1
REMARK minimizedAffinity 4.35285425
REMARK minimizedRMSD -1
REMARK  0 active torsions:
REMARK  status: ('A' for Active; 'I' for Inactive)
ROOT
ATOM      1  C   UNL d   1       1.647   2.182   0.754  0.00  0.00     0.077 C 
ATOM      2  C1  UNL d   1       0.634   1.153   1.161  0.00  0.00    -0.074 A 
ATOM      3  C2  UNL d   1       0.987   0.086   1.994  0.00  0.00    -0.005 A 
ATOM      4  C3  UNL d   1       0.032  -0.857   2.372  0.00  0.00     0.006 A 
ATOM      5  C4  UNL d   1      -1.284  -0.744   1.922  0.00  0.00    -0.005 A 
ATOM      6  C5  UNL d   1      -1.656   0.317   1.089  0.00  0.00    -0.074 A 
ATOM      7  C6  UNL d   1      -3.068   0.459   0.605  0.00  0.00     0.077 C 
ATOM      8  C7  UNL d   1      -0.692   1.265   0.719  0.00  0.00    -0.001 A 
ENDROOT
TORSDOF 0
ENDMDL
