MODEL 1
REMARK minimizedAffinity 5.40445232
REMARK minimizedRMSD -1
REMARK  0 active torsions:
REMARK  status: ('A' for Active; 'I' for Inactive)
ROOT
ATOM      1  C   UNL d   1      -5.464  -1.943   5.737  0.00  0.00     0.077 C 
ATOM      2  C1  UNL d   1      -5.644  -0.626   5.042  0.00  0.00    -0.074 A 
ATOM      3  C2  UNL d   1      -5.747  -0.556   3.649  0.00  0.00    -0.005 A 
ATOM      4  C3  UNL d   1      -5.924   0.675   3.018  0.00  0.00     0.006 A 
ATOM      5  C4  UNL d   1      -6.000   1.847   3.772  0.00  0.00    -0.005 A 
ATOM      6  C5  UNL d   1      -5.900   1.796   5.166  0.00  0.00    -0.074 A 
ATOM      7  C6  UNL d   1      -5.989   3.045   5.992  0.00  0.00     0.077 C 
ATOM      8  C7  UNL d   1      -5.729   0.555   5.794  0.00  0.00    -0.001 A 
ENDROOT
TORSDOF 0
ENDMDL
