MODEL 1
REMARK minimizedAffinity 9.21200943
REMARK minimizedRMSD -1
REMARK  0 active torsions:
REMARK  status: ('A' for Active; 'I' for Inactive)
ROOT
ATOM      1  C   UNL d   1       5.293   4.087  -0.427  0.00  0.00     0.077 C 
ATOM      2  C1  UNL d   1       4.517   2.973   0.212  0.00  0.00    -0.074 A 
ATOM      3  C2  UNL d   1       3.131   2.878   0.049  0.00  0.00    -0.005 A 
ATOM      4  C3  UNL d   1       2.424   1.832   0.641  0.00  0.00     0.006 A 
ATOM      5  C4  UNL d   1       3.094   0.872   1.401  0.00  0.00    -0.005 A 
ATOM      6  C5  UNL d   1       4.479   0.951   1.574  0.00  0.00    -0.074 A 
ATOM      7  C6  UNL d   1       5.216  -0.078   2.379  0.00  0.00     0.077 C 
ATOM      8  C7  UNL d   1       5.184   2.001   0.970  0.00  0.00    -0.001 A 
ENDROOT
TORSDOF 0
ENDMDL
