MODEL 1
REMARK minimizedAffinity 6.89086628
REMARK minimizedRMSD -1
REMARK  0 active torsions:
REMARK  status: ('A' for Active; 'I' for Inactive)
ROOT
ATOM      1  C   UNL d   1       3.008  -1.127  -1.698  0.00  0.00     0.077 C 
ATOM      2  C1  UNL d   1       2.993  -1.130  -3.198  0.00  0.00    -0.074 A 
ATOM      3  C2  UNL d   1       4.078  -0.634  -3.928  0.00  0.00    -0.005 A 
ATOM      4  C3  UNL d   1       4.054  -0.652  -5.323  0.00  0.00     0.006 A 
ATOM      5  C4  UNL d   1       2.947  -1.164  -6.000  0.00  0.00    -0.005 A 
ATOM      6  C5  UNL d   1       1.853  -1.665  -5.287  0.00  0.00    -0.074 A 
ATOM      7  C6  UNL d   1       0.659  -2.228  -5.999  0.00  0.00     0.077 C 
ATOM      8  C7  UNL d   1       1.887  -1.650  -3.885  0.00  0.00    -0.001 A 
ENDROOT
TORSDOF 0
ENDMDL
