MODEL 1
REMARK minimizedAffinity 7.32107496
REMARK minimizedRMSD -1
REMARK  1 active torsions:
REMARK  status: ('A' for Active; 'I' for Inactive)
REMARK    1  A    between atoms: C1_2  and  C2_3 
ROOT
ATOM      1  C2  UNL d   1      -0.731   3.354  -1.009  0.00  0.00    -0.081 A 
ATOM      2  C3  UNL d   1       0.227   2.405  -1.387  0.00  0.00     0.006 A 
ATOM      3  C4  UNL d   1       1.133   1.901  -0.450  0.00  0.00     0.002 A 
ATOM      4  C5  UNL d   1       1.090   2.330   0.881  0.00  0.00    -0.080 A 
ATOM      5  C6  UNL d   1       2.036   1.775   1.903  0.00  0.00     0.076 C 
ATOM      6  C7  UNL d   1       0.144   3.291   1.255  0.00  0.00     0.002 A 
ATOM      7  C8  UNL d   1      -0.761   3.796   0.318  0.00  0.00     0.006 A 
ENDROOT
BRANCH   1   8
ATOM      8  C1  UNL d   1      -1.750   3.851  -2.002  0.00  0.00     0.054 C 
ATOM      9  C   UNL d   1      -2.090   5.314  -1.759  0.00  0.00     0.018 C 
ENDBRANCH   1   8
TORSDOF 1
ENDMDL
