MODEL 1
REMARK minimizedAffinity 6.03399038
REMARK minimizedRMSD -1
REMARK  1 active torsions:
REMARK  status: ('A' for Active; 'I' for Inactive)
REMARK    1  A    between atoms: C1_2  and  C2_3 
ROOT
ATOM      1  C2  UNL d   1      -5.315   2.963  -2.562  0.00  0.00    -0.081 A 
ATOM      2  C3  UNL d   1      -6.000   3.301  -3.735  0.00  0.00     0.006 A 
ATOM      3  C4  UNL d   1      -5.387   4.091  -4.711  0.00  0.00     0.002 A 
ATOM      4  C5  UNL d   1      -4.078   4.549  -4.533  0.00  0.00    -0.080 A 
ATOM      5  C6  UNL d   1      -3.397   5.373  -5.587  0.00  0.00     0.076 C 
ATOM      6  C7  UNL d   1      -3.399   4.227  -3.353  0.00  0.00     0.002 A 
ATOM      7  C8  UNL d   1      -4.011   3.438  -2.377  0.00  0.00     0.006 A 
ENDROOT
BRANCH   1   8
ATOM      8  C1  UNL d   1      -5.949   2.058  -1.537  0.00  0.00     0.054 C 
ATOM      9  C   UNL d   1      -5.910   0.603  -1.984  0.00  0.00     0.018 C 
ENDBRANCH   1   8
TORSDOF 1
ENDMDL
