MODEL 1
REMARK minimizedAffinity 3.06242251
REMARK minimizedRMSD -1
REMARK  3 active torsions:
REMARK  status: ('A' for Active; 'I' for Inactive)
REMARK    1  A    between atoms: C3'_2  and  C2'_3 
REMARK    2  A    between atoms: C2'_3  and  C1'_4 
REMARK    3  A    between atoms: C1'_4  and  C1_5 
ROOT
ATOM      1  C1  N4B d   1       0.237   3.781  -5.544  0.00  0.00    -0.075 A 
ATOM      2  C2  N4B d   1       1.164   2.716  -5.531  0.00  0.00     0.002 A 
ATOM      3  C3  N4B d   1       2.498   2.964  -5.747  0.00  0.00     0.002 A 
ATOM      4  C4  N4B d   1       2.923   4.260  -5.997  0.00  0.00    -0.004 A 
ATOM      5  C5  N4B d   1       2.024   5.287  -5.983  0.00  0.00     0.002 A 
ATOM      6  C6  N4B d   1       0.682   5.053  -5.763  0.00  0.00     0.002 A 
ENDROOT
BRANCH   1   7
ATOM      7  C1' N4B d   1      -1.242   3.548  -5.398  0.00  0.00     0.057 C 
BRANCH   7   8
ATOM      8  C2' N4B d   1      -1.997   4.731  -5.997  0.00  0.00     0.009 C 
BRANCH   8   9
ATOM      9  C3' N4B d   1      -2.522   5.671  -4.926  0.00  0.00     0.004 C 
ATOM     10  C4' N4B d   1      -2.367   5.118  -3.541  0.00  0.00     0.003 C 
ENDBRANCH   8   9
ENDBRANCH   7   8
ENDBRANCH   1   7
TORSDOF 3
ENDMDL
