MODEL 1
REMARK minimizedAffinity 3.236269
REMARK minimizedRMSD -1
REMARK  3 active torsions:
REMARK  status: ('A' for Active; 'I' for Inactive)
REMARK    1  A    between atoms: C3'_2  and  C2'_3 
REMARK    2  A    between atoms: C2'_3  and  C1'_4 
REMARK    3  A    between atoms: C1'_4  and  C1_5 
ROOT
ATOM      1  C1  N4B d   1      -1.415   3.479  -5.676  0.00  0.00    -0.075 A 
ATOM      2  C2  N4B d   1      -0.941   4.774  -5.984  0.00  0.00     0.002 A 
ATOM      3  C3  N4B d   1      -1.747   5.867  -5.775  0.00  0.00     0.002 A 
ATOM      4  C4  N4B d   1      -3.030   5.688  -5.280  0.00  0.00    -0.004 A 
ATOM      5  C5  N4B d   1      -3.470   4.437  -4.962  0.00  0.00     0.002 A 
ATOM      6  C6  N4B d   1      -2.670   3.330  -5.163  0.00  0.00     0.002 A 
ENDROOT
BRANCH   1   7
ATOM      7  C1' N4B d   1      -0.602   2.247  -5.968  0.00  0.00     0.057 C 
BRANCH   7   8
ATOM      8  C2' N4B d   1       0.758   2.372  -5.288  0.00  0.00     0.009 C 
BRANCH   8   9
ATOM      9  C3' N4B d   1       1.822   1.547  -5.991  0.00  0.00     0.004 C 
ATOM     10  C4' N4B d   1       3.165   2.216  -5.998  0.00  0.00     0.003 C 
ENDBRANCH   8   9
ENDBRANCH   7   8
ENDBRANCH   1   7
TORSDOF 3
ENDMDL
