MODEL 1
REMARK minimizedAffinity 3.01269269
REMARK minimizedRMSD -1
REMARK  3 active torsions:
REMARK  status: ('A' for Active; 'I' for Inactive)
REMARK    1  A    between atoms: C3'_2  and  C2'_3 
REMARK    2  A    between atoms: C2'_3  and  C1'_4 
REMARK    3  A    between atoms: C1'_4  and  C1_5 
ROOT
ATOM      1  C1  N4B d   1      -1.151   3.371  -5.701  0.00  0.00    -0.075 A 
ATOM      2  C2  N4B d   1      -0.478   4.612  -5.674  0.00  0.00     0.002 A 
ATOM      3  C3  N4B d   1      -1.187   5.780  -5.814  0.00  0.00     0.002 A 
ATOM      4  C4  N4B d   1      -2.561   5.731  -5.999  0.00  0.00    -0.004 A 
ATOM      5  C5  N4B d   1      -3.206   4.529  -5.999  0.00  0.00     0.002 A 
ATOM      6  C6  N4B d   1      -2.507   3.348  -5.855  0.00  0.00     0.002 A 
ENDROOT
BRANCH   1   7
ATOM      7  C1' N4B d   1      -0.409   2.064  -5.638  0.00  0.00     0.057 C 
BRANCH   7   8
ATOM      8  C2' N4B d   1       0.950   2.290  -4.981  0.00  0.00     0.009 C 
BRANCH   8   9
ATOM      9  C3' N4B d   1       2.085   2.232  -5.989  0.00  0.00     0.004 C 
ATOM     10  C4' N4B d   1       2.917   3.480  -5.999  0.00  0.00     0.003 C 
ENDBRANCH   8   9
ENDBRANCH   7   8
ENDBRANCH   1   7
TORSDOF 3
ENDMDL
