MODEL 1
REMARK minimizedAffinity 6.55987883
REMARK minimizedRMSD -1
REMARK  3 active torsions:
REMARK  status: ('A' for Active; 'I' for Inactive)
REMARK    1  A    between atoms: C3'_2  and  C2'_3 
REMARK    2  A    between atoms: C2'_3  and  C1'_4 
REMARK    3  A    between atoms: C1'_4  and  C1_5 
ROOT
ATOM      1  C1  N4B d   1      -1.119  -0.419   1.617  0.00  0.00    -0.075 A 
ATOM      2  C2  N4B d   1      -1.038  -1.760   2.053  0.00  0.00     0.002 A 
ATOM      3  C3  N4B d   1      -2.067  -2.309   2.778  0.00  0.00     0.002 A 
ATOM      4  C4  N4B d   1      -3.173  -1.534   3.094  0.00  0.00    -0.004 A 
ATOM      5  C5  N4B d   1      -3.254  -0.248   2.648  0.00  0.00     0.002 A 
ATOM      6  C6  N4B d   1      -2.229   0.316   1.914  0.00  0.00     0.002 A 
ENDROOT
BRANCH   1   7
ATOM      7  C1' N4B d   1       0.019   0.250   0.895  0.00  0.00     0.057 C 
BRANCH   7   8
ATOM      8  C2' N4B d   1       0.986  -0.815   0.387  0.00  0.00     0.009 C 
BRANCH   8   9
ATOM      9  C3' N4B d   1       1.621  -0.421  -0.935  0.00  0.00     0.004 C 
ATOM     10  C4' N4B d   1       2.638  -1.416  -1.410  0.00  0.00     0.003 C 
ENDBRANCH   8   9
ENDBRANCH   7   8
ENDBRANCH   1   7
TORSDOF 3
ENDMDL
