MODEL 1
REMARK minimizedAffinity 2.49904776
REMARK minimizedRMSD -1
REMARK  3 active torsions:
REMARK  status: ('A' for Active; 'I' for Inactive)
REMARK    1  A    between atoms: C3'_2  and  C2'_3 
REMARK    2  A    between atoms: C2'_3  and  C1'_4 
REMARK    3  A    between atoms: C1'_4  and  C1_5 
ROOT
ATOM      1  C1  N4B d   1      -0.620   4.178  -5.993  0.00  0.00    -0.075 A 
ATOM      2  C2  N4B d   1      -1.479   3.057  -5.997  0.00  0.00     0.002 A 
ATOM      3  C3  N4B d   1      -2.840   3.235  -5.981  0.00  0.00     0.002 A 
ATOM      4  C4  N4B d   1      -3.363   4.519  -5.942  0.00  0.00    -0.004 A 
ATOM      5  C5  N4B d   1      -2.527   5.597  -5.964  0.00  0.00     0.002 A 
ATOM      6  C6  N4B d   1      -1.157   5.432  -5.984  0.00  0.00     0.002 A 
ENDROOT
BRANCH   1   7
ATOM      7  C1' N4B d   1       0.876   4.032  -5.923  0.00  0.00     0.057 C 
BRANCH   7   8
ATOM      8  C2' N4B d   1       1.220   2.629  -5.430  0.00  0.00     0.009 C 
BRANCH   8   9
ATOM      9  C3' N4B d   1       2.559   2.152  -5.964  0.00  0.00     0.004 C 
ATOM     10  C4' N4B d   1       3.592   3.238  -5.998  0.00  0.00     0.003 C 
ENDBRANCH   8   9
ENDBRANCH   7   8
ENDBRANCH   1   7
TORSDOF 3
ENDMDL
