MODEL 1
REMARK minimizedAffinity 6.62959957
REMARK minimizedRMSD -1
REMARK  3 active torsions:
REMARK  status: ('A' for Active; 'I' for Inactive)
REMARK    1  A    between atoms: C3'_2  and  C2'_3 
REMARK    2  A    between atoms: C2'_3  and  C1'_4 
REMARK    3  A    between atoms: C1'_4  and  C1_5 
ROOT
ATOM      1  C1  N4B d   1       0.718   4.672  -5.116  0.00  0.00    -0.075 A 
ATOM      2  C2  N4B d   1       1.044   3.299  -5.163  0.00  0.00     0.002 A 
ATOM      3  C3  N4B d   1       2.287   2.902  -5.592  0.00  0.00     0.002 A 
ATOM      4  C4  N4B d   1       3.209   3.855  -5.995  0.00  0.00    -0.004 A 
ATOM      5  C5  N4B d   1       2.896   5.181  -5.923  0.00  0.00     0.002 A 
ATOM      6  C6  N4B d   1       1.652   5.594  -5.490  0.00  0.00     0.002 A 
ENDROOT
BRANCH   1   7
ATOM      7  C1' N4B d   1      -0.657   5.150  -4.736  0.00  0.00     0.057 C 
BRANCH   7   8
ATOM      8  C2' N4B d   1      -1.497   5.312  -5.999  0.00  0.00     0.009 C 
BRANCH   8   9
ATOM      9  C3' N4B d   1      -2.927   4.842  -5.794  0.00  0.00     0.004 C 
ATOM     10  C4' N4B d   1      -3.036   3.352  -5.661  0.00  0.00     0.003 C 
ENDBRANCH   8   9
ENDBRANCH   7   8
ENDBRANCH   1   7
TORSDOF 3
ENDMDL
