MODEL 1
REMARK minimizedAffinity -1.29640603
REMARK minimizedRMSD -1
REMARK  3 active torsions:
REMARK  status: ('A' for Active; 'I' for Inactive)
REMARK    1  A    between atoms: C3'_2  and  C2'_3 
REMARK    2  A    between atoms: C2'_3  and  C1'_4 
REMARK    3  A    between atoms: C1'_4  and  C1_5 
ROOT
ATOM      1  C1  N4B d   1      -0.665   3.336  -5.990  0.00  0.00    -0.075 A 
ATOM      2  C2  N4B d   1      -2.069   3.490  -5.995  0.00  0.00     0.002 A 
ATOM      3  C3  N4B d   1      -2.622   4.747  -5.999  0.00  0.00     0.002 A 
ATOM      4  C4  N4B d   1      -1.795   5.860  -5.979  0.00  0.00    -0.004 A 
ATOM      5  C5  N4B d   1      -0.440   5.703  -6.000  0.00  0.00     0.002 A 
ATOM      6  C6  N4B d   1       0.129   4.446  -6.000  0.00  0.00     0.002 A 
ENDROOT
BRANCH   1   7
ATOM      7  C1' N4B d   1      -0.015   1.983  -5.899  0.00  0.00     0.057 C 
BRANCH   7   8
ATOM      8  C2' N4B d   1       1.453   2.157  -5.523  0.00  0.00     0.009 C 
BRANCH   8   9
ATOM      9  C3' N4B d   1       1.766   1.561  -4.161  0.00  0.00     0.004 C 
ATOM     10  C4' N4B d   1       1.021   2.235  -3.048  0.00  0.00     0.003 C 
ENDBRANCH   8   9
ENDBRANCH   7   8
ENDBRANCH   1   7
TORSDOF 3
ENDMDL
