MODEL 1
REMARK minimizedAffinity -0.899653018
REMARK minimizedRMSD -1
REMARK  3 active torsions:
REMARK  status: ('A' for Active; 'I' for Inactive)
REMARK    1  A    between atoms: C3'_2  and  C2'_3 
REMARK    2  A    between atoms: C2'_3  and  C1'_4 
REMARK    3  A    between atoms: C1'_4  and  C1_5 
ROOT
ATOM      1  C1  N4B d   1      -1.269   3.605  -5.936  0.00  0.00    -0.075 A 
ATOM      2  C2  N4B d   1      -0.904   4.968  -5.979  0.00  0.00     0.002 A 
ATOM      3  C3  N4B d   1      -1.875   5.939  -5.999  0.00  0.00     0.002 A 
ATOM      4  C4  N4B d   1      -3.213   5.571  -5.997  0.00  0.00    -0.004 A 
ATOM      5  C5  N4B d   1      -3.557   4.253  -5.931  0.00  0.00     0.002 A 
ATOM      6  C6  N4B d   1      -2.591   3.267  -5.905  0.00  0.00     0.002 A 
ENDROOT
BRANCH   1   7
ATOM      7  C1' N4B d   1      -0.244   2.505  -5.999  0.00  0.00     0.057 C 
BRANCH   7   8
ATOM      8  C2' N4B d   1       1.146   3.107  -5.821  0.00  0.00     0.009 C 
BRANCH   8   9
ATOM      9  C3' N4B d   1       2.238   2.056  -5.929  0.00  0.00     0.004 C 
ATOM     10  C4' N4B d   1       3.613   2.652  -5.996  0.00  0.00     0.003 C 
ENDBRANCH   8   9
ENDBRANCH   7   8
ENDBRANCH   1   7
TORSDOF 3
ENDMDL
