MODEL 1
REMARK minimizedAffinity -1.68839395
REMARK minimizedRMSD -1
REMARK  3 active torsions:
REMARK  status: ('A' for Active; 'I' for Inactive)
REMARK    1  A    between atoms: C3'_2  and  C2'_3 
REMARK    2  A    between atoms: C2'_3  and  C1'_4 
REMARK    3  A    between atoms: C1'_4  and  C1_5 
ROOT
ATOM      1  C1  N4B d   1      -0.254   4.450  -5.911  0.00  0.00    -0.075 A 
ATOM      2  C2  N4B d   1      -0.805   3.153  -5.999  0.00  0.00     0.002 A 
ATOM      3  C3  N4B d   1      -2.167   2.981  -5.959  0.00  0.00     0.002 A 
ATOM      4  C4  N4B d   1      -2.993   4.085  -5.813  0.00  0.00    -0.004 A 
ATOM      5  C5  N4B d   1      -2.455   5.337  -5.754  0.00  0.00     0.002 A 
ATOM      6  C6  N4B d   1      -1.088   5.525  -5.797  0.00  0.00     0.002 A 
ENDROOT
BRANCH   1   7
ATOM      7  C1' N4B d   1       1.232   4.680  -5.864  0.00  0.00     0.057 C 
BRANCH   7   8
ATOM      8  C2' N4B d   1       1.943   3.336  -5.745  0.00  0.00     0.009 C 
BRANCH   8   9
ATOM      9  C3' N4B d   1       3.436   3.458  -5.999  0.00  0.00     0.004 C 
ATOM     10  C4' N4B d   1       3.921   4.876  -5.939  0.00  0.00     0.003 C 
ENDBRANCH   8   9
ENDBRANCH   7   8
ENDBRANCH   1   7
TORSDOF 3
ENDMDL
