MODEL 1
REMARK minimizedAffinity 3.80257154
REMARK minimizedRMSD -1
REMARK  3 active torsions:
REMARK  status: ('A' for Active; 'I' for Inactive)
REMARK    1  A    between atoms: C3'_2  and  C2'_3 
REMARK    2  A    between atoms: C2'_3  and  C1'_4 
REMARK    3  A    between atoms: C1'_4  and  C1_5 
ROOT
ATOM      1  C1  N4B d   1      -1.500   3.936  -5.936  0.00  0.00    -0.075 A 
ATOM      2  C2  N4B d   1      -1.688   5.335  -5.909  0.00  0.00     0.002 A 
ATOM      3  C3  N4B d   1      -2.958   5.858  -5.932  0.00  0.00     0.002 A 
ATOM      4  C4  N4B d   1      -4.050   5.005  -6.000  0.00  0.00    -0.004 A 
ATOM      5  C5  N4B d   1      -3.860   3.654  -5.999  0.00  0.00     0.002 A 
ATOM      6  C6  N4B d   1      -2.590   3.115  -5.973  0.00  0.00     0.002 A 
ENDROOT
BRANCH   1   7
ATOM      7  C1' N4B d   1      -0.130   3.319  -5.999  0.00  0.00     0.057 C 
BRANCH   7   8
ATOM      8  C2' N4B d   1       0.760   3.968  -4.943  0.00  0.00     0.009 C 
BRANCH   8   9
ATOM      9  C3' N4B d   1       0.214   3.769  -3.539  0.00  0.00     0.004 C 
ATOM     10  C4' N4B d   1       1.237   3.221  -2.590  0.00  0.00     0.003 C 
ENDBRANCH   8   9
ENDBRANCH   7   8
ENDBRANCH   1   7
TORSDOF 3
ENDMDL
