MODEL 1
REMARK minimizedAffinity 5.82220507
REMARK minimizedRMSD -1
REMARK  3 active torsions:
REMARK  status: ('A' for Active; 'I' for Inactive)
REMARK    1  A    between atoms: C3'_2  and  C2'_3 
REMARK    2  A    between atoms: C2'_3  and  C1'_4 
REMARK    3  A    between atoms: C1'_4  and  C1_5 
ROOT
ATOM      1  C1  N4B d   1       2.096   4.102  -5.934  0.00  0.00    -0.075 A 
ATOM      2  C2  N4B d   1       3.124   3.133  -5.939  0.00  0.00     0.002 A 
ATOM      3  C3  N4B d   1       4.439   3.527  -5.960  0.00  0.00     0.002 A 
ATOM      4  C4  N4B d   1       4.750   4.878  -5.996  0.00  0.00    -0.004 A 
ATOM      5  C5  N4B d   1       3.752   5.808  -5.966  0.00  0.00     0.002 A 
ATOM      6  C6  N4B d   1       2.426   5.427  -5.941  0.00  0.00     0.002 A 
ENDROOT
BRANCH   1   7
ATOM      7  C1' N4B d   1       0.643   3.719  -5.998  0.00  0.00     0.057 C 
BRANCH   7   8
ATOM      8  C2' N4B d   1      -0.213   4.974  -5.852  0.00  0.00     0.009 C 
BRANCH   8   9
ATOM      9  C3' N4B d   1      -1.691   4.644  -5.744  0.00  0.00     0.004 C 
ATOM     10  C4' N4B d   1      -1.955   3.168  -5.700  0.00  0.00     0.003 C 
ENDBRANCH   8   9
ENDBRANCH   7   8
ENDBRANCH   1   7
TORSDOF 3
ENDMDL
