MODEL 1
REMARK minimizedAffinity -3.11986661
REMARK minimizedRMSD -1
REMARK  3 active torsions:
REMARK  status: ('A' for Active; 'I' for Inactive)
REMARK    1  A    between atoms: C3'_2  and  C2'_3 
REMARK    2  A    between atoms: C2'_3  and  C1'_4 
REMARK    3  A    between atoms: C1'_4  and  C1_5 
ROOT
ATOM      1  C1  N4B d   1       3.189   4.369  -5.832  0.00  0.00    -0.075 A 
ATOM      2  C2  N4B d   1       3.712   5.670  -5.998  0.00  0.00     0.002 A 
ATOM      3  C3  N4B d   1       5.043   5.910  -5.760  0.00  0.00     0.002 A 
ATOM      4  C4  N4B d   1       5.863   4.874  -5.340  0.00  0.00    -0.004 A 
ATOM      5  C5  N4B d   1       5.355   3.614  -5.207  0.00  0.00     0.002 A 
ATOM      6  C6  N4B d   1       4.020   3.358  -5.447  0.00  0.00     0.002 A 
ENDROOT
BRANCH   1   7
ATOM      7  C1' N4B d   1       1.723   4.075  -5.997  0.00  0.00     0.057 C 
BRANCH   7   8
ATOM      8  C2' N4B d   1       0.946   5.389  -5.994  0.00  0.00     0.009 C 
BRANCH   8   9
ATOM      9  C3' N4B d   1      -0.441   5.227  -5.396  0.00  0.00     0.004 C 
ATOM     10  C4' N4B d   1      -1.192   4.066  -5.977  0.00  0.00     0.003 C 
ENDBRANCH   8   9
ENDBRANCH   7   8
ENDBRANCH   1   7
TORSDOF 3
ENDMDL
