MODEL 1
REMARK minimizedAffinity 4.87067223
REMARK minimizedRMSD -1
REMARK  1 active torsions:
REMARK  status: ('A' for Active; 'I' for Inactive)
REMARK    1  A    between atoms: N_2  and  C1_3 
ROOT
ATOM      1  C1  UNL d   1       1.628  -2.484   1.924  0.00  0.00     0.143 A 
ATOM      2  C2  UNL d   1       2.560  -2.462   2.967  0.00  0.00    -0.057 A 
ATOM      3  C3  UNL d   1       3.405  -3.553   3.209  0.00  0.00     0.033 A 
ATOM      4  C4  UNL d   1       3.310  -4.700   2.428  0.00  0.00    -0.042 A 
ATOM      5  C5  UNL d   1       2.374  -4.754   1.402  0.00  0.00     0.033 A 
ATOM      6  C6  UNL d   1       1.538  -3.659   1.161  0.00  0.00    -0.057 A 
ENDROOT
BRANCH   1   7
ATOM      7  N   UNL d   1       0.694  -1.471   1.694  0.00  0.00    -0.732 N 
ATOM      8  C   UNL d   1       0.171  -1.238   0.365  0.00  0.00     0.284 C 
ATOM      9  H3  UNL d   1      -0.004  -1.412   2.432  0.00  0.00     0.395 HD
ENDBRANCH   1   7
TORSDOF 1
ENDMDL
