MODEL 1
REMARK minimizedAffinity 8.35192204
REMARK minimizedRMSD -1
REMARK  1 active torsions:
REMARK  status: ('A' for Active; 'I' for Inactive)
REMARK    1  A    between atoms: N_2  and  C1_3 
ROOT
ATOM      1  C1  UNL d   1      -0.296   4.652  -3.178  0.00  0.00     0.143 A 
ATOM      2  C2  UNL d   1      -1.604   5.121  -3.343  0.00  0.00    -0.057 A 
ATOM      3  C3  UNL d   1      -2.708   4.310  -3.053  0.00  0.00     0.033 A 
ATOM      4  C4  UNL d   1      -2.523   3.002  -2.619  0.00  0.00    -0.042 A 
ATOM      5  C5  UNL d   1      -1.232   2.506  -2.472  0.00  0.00     0.033 A 
ATOM      6  C6  UNL d   1      -0.134   3.323  -2.757  0.00  0.00    -0.057 A 
ENDROOT
BRANCH   1   7
ATOM      7  N   UNL d   1       0.841   5.375  -3.544  0.00  0.00    -0.732 N 
ATOM      8  C   UNL d   1       1.793   4.827  -4.486  0.00  0.00     0.284 C 
ATOM      9  H3  UNL d   1       0.646   6.365  -3.679  0.00  0.00     0.395 HD
ENDBRANCH   1   7
TORSDOF 1
ENDMDL
