MODEL 1
REMARK minimizedAffinity 0.481533498
REMARK minimizedRMSD -1
REMARK  1 active torsions:
REMARK  status: ('A' for Active; 'I' for Inactive)
REMARK    1  A    between atoms: N_2  and  C1_3 
ROOT
ATOM      1  C1  UNL d   1       5.899   1.215  -4.791  0.00  0.00     0.143 A 
ATOM      2  C2  UNL d   1       5.919   0.373  -5.907  0.00  0.00    -0.057 A 
ATOM      3  C3  UNL d   1       5.952  -1.020  -5.766  0.00  0.00     0.033 A 
ATOM      4  C4  UNL d   1       5.994  -1.595  -4.500  0.00  0.00    -0.042 A 
ATOM      5  C5  UNL d   1       6.000  -0.777  -3.376  0.00  0.00     0.033 A 
ATOM      6  C6  UNL d   1       5.961   0.613  -3.524  0.00  0.00    -0.057 A 
ENDROOT
BRANCH   1   7
ATOM      7  N   UNL d   1       5.966   2.609  -4.867  0.00  0.00    -0.732 N 
ATOM      8  C   UNL d   1       6.000   3.412  -3.663  0.00  0.00     0.284 C 
ATOM      9  H3  UNL d   1       6.599   2.928  -5.597  0.00  0.00     0.395 HD
ENDBRANCH   1   7
TORSDOF 1
ENDMDL
