MODEL 1
REMARK minimizedAffinity 5.39945698
REMARK minimizedRMSD -1
REMARK  1 active torsions:
REMARK  status: ('A' for Active; 'I' for Inactive)
REMARK    1  A    between atoms: N_2  and  C1_3 
ROOT
ATOM      1  C1  UNL d   1       0.030   2.201  -2.807  0.00  0.00     0.143 A 
ATOM      2  C2  UNL d   1       0.916   1.888  -3.844  0.00  0.00    -0.057 A 
ATOM      3  C3  UNL d   1       2.029   1.068  -3.625  0.00  0.00     0.033 A 
ATOM      4  C4  UNL d   1       2.292   0.567  -2.354  0.00  0.00    -0.042 A 
ATOM      5  C5  UNL d   1       1.439   0.885  -1.303  0.00  0.00     0.033 A 
ATOM      6  C6  UNL d   1       0.325   1.700  -1.530  0.00  0.00    -0.057 A 
ENDROOT
BRANCH   1   7
ATOM      7  N   UNL d   1      -1.039   3.091  -2.939  0.00  0.00    -0.732 N 
ATOM      8  C   UNL d   1      -2.403   2.635  -2.774  0.00  0.00     0.284 C 
ATOM      9  H3  UNL d   1      -0.848   3.994  -2.511  0.00  0.00     0.395 HD
ENDBRANCH   1   7
TORSDOF 1
ENDMDL
