MODEL 1
REMARK minimizedAffinity 5.75859642
REMARK minimizedRMSD -1
REMARK  1 active torsions:
REMARK  status: ('A' for Active; 'I' for Inactive)
REMARK    1  A    between atoms: N_2  and  C1_3 
ROOT
ATOM      1  C1  UNL d   1       0.703   1.466  -1.589  0.00  0.00     0.143 A 
ATOM      2  C2  UNL d   1      -0.561   0.883  -1.440  0.00  0.00    -0.057 A 
ATOM      3  C3  UNL d   1      -1.687   1.419  -2.076  0.00  0.00     0.033 A 
ATOM      4  C4  UNL d   1      -1.574   2.568  -2.852  0.00  0.00    -0.042 A 
ATOM      5  C5  UNL d   1      -0.333   3.178  -2.994  0.00  0.00     0.033 A 
ATOM      6  C6  UNL d   1       0.789   2.635  -2.361  0.00  0.00    -0.057 A 
ENDROOT
BRANCH   1   7
ATOM      7  N   UNL d   1       1.842   1.039  -0.903  0.00  0.00    -0.732 N 
ATOM      8  C   UNL d   1       2.130   1.531   0.427  0.00  0.00     0.284 C 
ATOM      9  H3  UNL d   1       2.019   0.044  -1.025  0.00  0.00     0.395 HD
ENDBRANCH   1   7
TORSDOF 1
ENDMDL
