MODEL 1
REMARK minimizedAffinity -3.28162909
REMARK minimizedRMSD -1
REMARK  2 active torsions:
REMARK  status: ('A' for Active; 'I' for Inactive)
REMARK    1  A    between atoms: C2'_3  and  C1'_4 
REMARK    2  A    between atoms: C1'_4  and  C1_5 
ROOT
ATOM      1  C1  I4B d   1      -0.008  -0.033  -0.200  0.00  0.00    -0.075 A 
ATOM      2  C2  I4B d   1      -0.333   1.250  -0.564  0.00  0.00     0.003 A 
ATOM      3  C3  I4B d   1      -1.255   1.998   0.208  0.00  0.00     0.002 A 
ATOM      4  C4  I4B d   1      -1.862   1.410   1.299  0.00  0.00    -0.004 A 
ATOM      5  C5  I4B d   1      -1.515   0.117   1.679  0.00  0.00     0.002 A 
ATOM      6  C6  I4B d   1      -0.573  -0.605   0.932  0.00  0.00     0.003 A 
ENDROOT
BRANCH   1   7
ATOM      7  C1' I4B d   1       0.944  -0.806  -1.057  0.00  0.00     0.060 C 
BRANCH   7   8
ATOM      8  C2' I4B d   1       0.210  -2.016  -1.597  0.00  0.00    -0.013 C 
ATOM      9  C4' I4B d   1      -0.335  -1.751  -2.976  0.00  0.00     0.013 C 
ATOM     10  C3' I4B d   1       1.165  -3.172  -1.605  0.00  0.00     0.013 C 
ENDBRANCH   7   8
ENDBRANCH   1   7
TORSDOF 2
ENDMDL
