MODEL 1
REMARK minimizedAffinity -1.89999712
REMARK minimizedRMSD -1
REMARK  2 active torsions:
REMARK  status: ('A' for Active; 'I' for Inactive)
REMARK    1  A    between atoms: C2'_3  and  C1'_4 
REMARK    2  A    between atoms: C1'_4  and  C1_5 
ROOT
ATOM      1  C1  I4B d   1      -0.343  -0.636   0.290  0.00  0.00    -0.075 A 
ATOM      2  C2  I4B d   1      -1.226  -0.446   1.324  0.00  0.00     0.003 A 
ATOM      3  C3  I4B d   1      -1.688   0.856   1.636  0.00  0.00     0.002 A 
ATOM      4  C4  I4B d   1      -1.205   1.937   0.927  0.00  0.00    -0.004 A 
ATOM      5  C5  I4B d   1      -0.327   1.740  -0.135  0.00  0.00     0.002 A 
ATOM      6  C6  I4B d   1       0.098   0.444  -0.464  0.00  0.00     0.003 A 
ENDROOT
BRANCH   1   7
ATOM      7  C1' I4B d   1       0.150  -2.020   0.009  0.00  0.00     0.060 C 
BRANCH   7   8
ATOM      8  C2' I4B d   1       0.323  -2.158  -1.490  0.00  0.00    -0.013 C 
ATOM      9  C4' I4B d   1       1.760  -2.426  -1.851  0.00  0.00     0.013 C 
ATOM     10  C3' I4B d   1      -0.569  -3.269  -1.958  0.00  0.00     0.013 C 
ENDBRANCH   7   8
ENDBRANCH   1   7
TORSDOF 2
ENDMDL
