MODEL 1
REMARK minimizedAffinity -1.73700118
REMARK minimizedRMSD -1
REMARK  2 active torsions:
REMARK  status: ('A' for Active; 'I' for Inactive)
REMARK    1  A    between atoms: C2'_3  and  C1'_4 
REMARK    2  A    between atoms: C1'_4  and  C1_5 
ROOT
ATOM      1  C1  I4B d   1       0.286  -0.440  -0.028  0.00  0.00    -0.075 A 
ATOM      2  C2  I4B d   1      -0.188   0.846  -0.106  0.00  0.00     0.003 A 
ATOM      3  C3  I4B d   1      -0.940   1.395   0.961  0.00  0.00     0.002 A 
ATOM      4  C4  I4B d   1      -1.236   0.611   2.057  0.00  0.00    -0.004 A 
ATOM      5  C5  I4B d   1      -0.735  -0.685   2.145  0.00  0.00     0.002 A 
ATOM      6  C6  I4B d   1       0.041  -1.210   1.101  0.00  0.00     0.003 A 
ENDROOT
BRANCH   1   7
ATOM      7  C1' I4B d   1       1.048  -0.999  -1.187  0.00  0.00     0.060 C 
BRANCH   7   8
ATOM      8  C2' I4B d   1       0.370  -2.284  -1.617  0.00  0.00    -0.013 C 
ATOM      9  C4' I4B d   1      -0.016  -2.237  -3.072  0.00  0.00     0.013 C 
ATOM     10  C3' I4B d   1       1.312  -3.418  -1.342  0.00  0.00     0.013 C 
ENDBRANCH   7   8
ENDBRANCH   1   7
TORSDOF 2
ENDMDL
