MODEL 1
REMARK minimizedAffinity -6.56564569
REMARK minimizedRMSD -1
REMARK  2 active torsions:
REMARK  status: ('A' for Active; 'I' for Inactive)
REMARK    1  A    between atoms: C2'_3  and  C1'_4 
REMARK    2  A    between atoms: C1'_4  and  C1_5 
ROOT
ATOM      1  C1  I4B d   1      -0.305  -0.121  -0.125  0.00  0.00    -0.075 A 
ATOM      2  C2  I4B d   1      -1.053   0.919  -0.617  0.00  0.00     0.003 A 
ATOM      3  C3  I4B d   1      -1.854   1.697   0.254  0.00  0.00     0.002 A 
ATOM      4  C4  I4B d   1      -1.914   1.371   1.594  0.00  0.00    -0.004 A 
ATOM      5  C5  I4B d   1      -1.137   0.331   2.095  0.00  0.00     0.002 A 
ATOM      6  C6  I4B d   1      -0.318  -0.412   1.233  0.00  0.00     0.003 A 
ENDROOT
BRANCH   1   7
ATOM      7  C1' I4B d   1       0.503  -0.942  -1.078  0.00  0.00     0.060 C 
BRANCH   7   8
ATOM      8  C2' I4B d   1      -0.246  -2.235  -1.332  0.00  0.00    -0.013 C 
ATOM      9  C4' I4B d   1      -1.240  -2.078  -2.452  0.00  0.00     0.013 C 
ATOM     10  C3' I4B d   1       0.762  -3.300  -1.648  0.00  0.00     0.013 C 
ENDBRANCH   7   8
ENDBRANCH   1   7
TORSDOF 2
ENDMDL
