MODEL 1
REMARK minimizedAffinity -4.8628993
REMARK minimizedRMSD -1
REMARK  2 active torsions:
REMARK  status: ('A' for Active; 'I' for Inactive)
REMARK    1  A    between atoms: C2'_3  and  C1'_4 
REMARK    2  A    between atoms: C1'_4  and  C1_5 
ROOT
ATOM      1  C1  I4B d   1      -0.046   0.100  -0.060  0.00  0.00    -0.075 A 
ATOM      2  C2  I4B d   1      -0.824   1.150  -0.479  0.00  0.00     0.003 A 
ATOM      3  C3  I4B d   1      -1.786   1.717   0.392  0.00  0.00     0.002 A 
ATOM      4  C4  I4B d   1      -1.970   1.174   1.647  0.00  0.00    -0.004 A 
ATOM      5  C5  I4B d   1      -1.164   0.125   2.079  0.00  0.00     0.002 A 
ATOM      6  C6  I4B d   1      -0.187  -0.408   1.225  0.00  0.00     0.003 A 
ENDROOT
BRANCH   1   7
ATOM      7  C1' I4B d   1       0.937  -0.496  -1.017  0.00  0.00     0.060 C 
BRANCH   7   8
ATOM      8  C2' I4B d   1       0.545  -1.941  -1.250  0.00  0.00    -0.013 C 
ATOM      9  C4' I4B d   1       0.121  -2.167  -2.677  0.00  0.00     0.013 C 
ATOM     10  C3' I4B d   1       1.717  -2.803  -0.889  0.00  0.00     0.013 C 
ENDBRANCH   7   8
ENDBRANCH   1   7
TORSDOF 2
ENDMDL
