MODEL 1
REMARK minimizedAffinity -3.5070715
REMARK minimizedRMSD -1
REMARK  2 active torsions:
REMARK  status: ('A' for Active; 'I' for Inactive)
REMARK    1  A    between atoms: C2'_3  and  C1'_4 
REMARK    2  A    between atoms: C1'_4  and  C1_5 
ROOT
ATOM      1  C1  I4B d   1      -0.421  -0.184   0.625  0.00  0.00    -0.075 A 
ATOM      2  C2  I4B d   1      -0.718  -0.284   1.962  0.00  0.00     0.003 A 
ATOM      3  C3  I4B d   1      -1.627   0.621   2.560  0.00  0.00     0.002 A 
ATOM      4  C4  I4B d   1      -2.174   1.636   1.802  0.00  0.00    -0.004 A 
ATOM      5  C5  I4B d   1      -1.890   1.722   0.442  0.00  0.00     0.002 A 
ATOM      6  C6  I4B d   1      -1.018   0.799  -0.153  0.00  0.00     0.003 A 
ENDROOT
BRANCH   1   7
ATOM      7  C1' I4B d   1       0.569  -1.136   0.033  0.00  0.00     0.060 C 
BRANCH   7   8
ATOM      8  C2' I4B d   1       0.268  -1.262  -1.446  0.00  0.00    -0.013 C 
ATOM      9  C4' I4B d   1       1.089  -0.291  -2.254  0.00  0.00     0.013 C 
ATOM     10  C3' I4B d   1       0.545  -2.677  -1.856  0.00  0.00     0.013 C 
ENDBRANCH   7   8
ENDBRANCH   1   7
TORSDOF 2
ENDMDL
