MODEL 1
REMARK minimizedAffinity -4.94607258
REMARK minimizedRMSD -1
REMARK  2 active torsions:
REMARK  status: ('A' for Active; 'I' for Inactive)
REMARK    1  A    between atoms: C2'_3  and  C1'_4 
REMARK    2  A    between atoms: C1'_4  and  C1_5 
ROOT
ATOM      1  C1  I4B d   1      -0.074  -0.225   0.077  0.00  0.00    -0.075 A 
ATOM      2  C2  I4B d   1      -0.883   0.661  -0.591  0.00  0.00     0.003 A 
ATOM      3  C3  I4B d   1      -1.799   1.469   0.124  0.00  0.00     0.002 A 
ATOM      4  C4  I4B d   1      -1.909   1.324   1.492  0.00  0.00    -0.004 A 
ATOM      5  C5  I4B d   1      -1.073   0.442   2.171  0.00  0.00     0.002 A 
ATOM      6  C6  I4B d   1      -0.141  -0.328   1.460  0.00  0.00     0.003 A 
ENDROOT
BRANCH   1   7
ATOM      7  C1' I4B d   1       0.859  -1.086  -0.713  0.00  0.00     0.060 C 
BRANCH   7   8
ATOM      8  C2' I4B d   1       0.192  -2.431  -0.919  0.00  0.00    -0.013 C 
ATOM      9  C4' I4B d   1      -0.274  -2.596  -2.342  0.00  0.00     0.013 C 
ATOM     10  C3' I4B d   1       1.175  -3.498  -0.543  0.00  0.00     0.013 C 
ENDBRANCH   7   8
ENDBRANCH   1   7
TORSDOF 2
ENDMDL
