MODEL 1
REMARK minimizedAffinity -4.13743353
REMARK minimizedRMSD -1
REMARK  2 active torsions:
REMARK  status: ('A' for Active; 'I' for Inactive)
REMARK    1  A    between atoms: C2'_3  and  C1'_4 
REMARK    2  A    between atoms: C1'_4  and  C1_5 
ROOT
ATOM      1  C1  I4B d   1       0.275  -0.747  -0.521  0.00  0.00    -0.075 A 
ATOM      2  C2  I4B d   1       0.202   0.481  -1.129  0.00  0.00     0.003 A 
ATOM      3  C3  I4B d   1      -0.352   1.586  -0.438  0.00  0.00     0.002 A 
ATOM      4  C4  I4B d   1      -0.864   1.408   0.831  0.00  0.00    -0.004 A 
ATOM      5  C5  I4B d   1      -0.768   0.167   1.454  0.00  0.00     0.002 A 
ATOM      6  C6  I4B d   1      -0.184  -0.915   0.780  0.00  0.00     0.003 A 
ENDROOT
BRANCH   1   7
ATOM      7  C1' I4B d   1       0.836  -1.901  -1.291  0.00  0.00     0.060 C 
BRANCH   7   8
ATOM      8  C2' I4B d   1      -0.224  -2.370  -2.266  0.00  0.00    -0.013 C 
ATOM      9  C4' I4B d   1       0.099  -1.936  -3.672  0.00  0.00     0.013 C 
ATOM     10  C3' I4B d   1      -0.315  -3.864  -2.168  0.00  0.00     0.013 C 
ENDBRANCH   7   8
ENDBRANCH   1   7
TORSDOF 2
ENDMDL
