MODEL 1
REMARK minimizedAffinity -4.55290127
REMARK minimizedRMSD -1
REMARK  2 active torsions:
REMARK  status: ('A' for Active; 'I' for Inactive)
REMARK    1  A    between atoms: C2'_3  and  C1'_4 
REMARK    2  A    between atoms: C1'_4  and  C1_5 
ROOT
ATOM      1  C1  I4B d   1       0.072   0.181   0.058  0.00  0.00    -0.075 A 
ATOM      2  C2  I4B d   1      -0.815   1.026  -0.561  0.00  0.00     0.003 A 
ATOM      3  C3  I4B d   1      -1.868   1.618   0.177  0.00  0.00     0.002 A 
ATOM      4  C4  I4B d   1      -2.026   1.300   1.510  0.00  0.00    -0.004 A 
ATOM      5  C5  I4B d   1      -1.113   0.461   2.142  0.00  0.00     0.002 A 
ATOM      6  C6  I4B d   1      -0.049  -0.093   1.414  0.00  0.00     0.003 A 
ENDROOT
BRANCH   1   7
ATOM      7  C1' I4B d   1       1.154  -0.453  -0.758  0.00  0.00     0.060 C 
BRANCH   7   8
ATOM      8  C2' I4B d   1       0.839  -1.930  -0.884  0.00  0.00    -0.013 C 
ATOM      9  C4' I4B d   1       0.279  -2.255  -2.244  0.00  0.00     0.013 C 
ATOM     10  C3' I4B d   1       2.100  -2.697  -0.620  0.00  0.00     0.013 C 
ENDBRANCH   7   8
ENDBRANCH   1   7
TORSDOF 2
ENDMDL
