MODEL 1
REMARK minimizedAffinity -2.46682811
REMARK minimizedRMSD -1
REMARK  2 active torsions:
REMARK  status: ('A' for Active; 'I' for Inactive)
REMARK    1  A    between atoms: C2'_3  and  C1'_4 
REMARK    2  A    between atoms: C1'_4  and  C1_5 
ROOT
ATOM      1  C1  I4B d   1      -0.266  -1.135  -0.613  0.00  0.00    -0.075 A 
ATOM      2  C2  I4B d   1       0.934  -1.693  -0.976  0.00  0.00     0.003 A 
ATOM      3  C3  I4B d   1       0.985  -2.678  -1.992  0.00  0.00     0.002 A 
ATOM      4  C4  I4B d   1      -0.187  -3.108  -2.581  0.00  0.00    -0.004 A 
ATOM      5  C5  I4B d   1      -1.400  -2.524  -2.228  0.00  0.00     0.002 A 
ATOM      6  C6  I4B d   1      -1.439  -1.523  -1.247  0.00  0.00     0.003 A 
ENDROOT
BRANCH   1   7
ATOM      7  C1' I4B d   1      -0.287  -0.122   0.487  0.00  0.00     0.060 C 
BRANCH   7   8
ATOM      8  C2' I4B d   1      -1.030   1.099  -0.017  0.00  0.00    -0.013 C 
ATOM      9  C4' I4B d   1      -1.664   1.858   1.119  0.00  0.00     0.013 C 
ATOM     10  C3' I4B d   1      -0.055   1.958  -0.765  0.00  0.00     0.013 C 
ENDBRANCH   7   8
ENDBRANCH   1   7
TORSDOF 2
ENDMDL
