MODEL 1
REMARK minimizedAffinity -4.41945076
REMARK minimizedRMSD -1
REMARK  2 active torsions:
REMARK  status: ('A' for Active; 'I' for Inactive)
REMARK    1  A    between atoms: C2'_3  and  C1'_4 
REMARK    2  A    between atoms: C1'_4  and  C1_5 
ROOT
ATOM      1  C1  I4B d   1       0.029   0.185  -0.117  0.00  0.00    -0.075 A 
ATOM      2  C2  I4B d   1      -0.207  -0.350   1.125  0.00  0.00     0.003 A 
ATOM      3  C3  I4B d   1      -1.102   0.288   2.017  0.00  0.00     0.002 A 
ATOM      4  C4  I4B d   1      -1.697   1.477   1.648  0.00  0.00    -0.004 A 
ATOM      5  C5  I4B d   1      -1.475   2.006   0.379  0.00  0.00     0.002 A 
ATOM      6  C6  I4B d   1      -0.616   1.349  -0.514  0.00  0.00     0.003 A 
ENDROOT
BRANCH   1   7
ATOM      7  C1' I4B d   1       1.006  -0.498  -1.022  0.00  0.00     0.060 C 
BRANCH   7   8
ATOM      8  C2' I4B d   1       0.503  -1.904  -1.277  0.00  0.00    -0.013 C 
ATOM      9  C4' I4B d   1       0.116  -2.090  -2.721  0.00  0.00     0.013 C 
ATOM     10  C3' I4B d   1       1.584  -2.863  -0.878  0.00  0.00     0.013 C 
ENDBRANCH   7   8
ENDBRANCH   1   7
TORSDOF 2
ENDMDL
