MODEL 1
REMARK minimizedAffinity 0.0566838831
REMARK minimizedRMSD -1
REMARK  1 active torsions:
REMARK  status: ('A' for Active; 'I' for Inactive)
REMARK    1  A    between atoms: C1_2  and  C2_3 
ROOT
ATOM      1  C2  UNL d   1      -0.133  -5.979  -4.180  0.00  0.00    -0.081 A 
ATOM      2  C3  UNL d   1      -1.246  -5.989  -5.030  0.00  0.00     0.006 A 
ATOM      3  C4  UNL d   1      -2.540  -6.000  -4.502  0.00  0.00     0.002 A 
ATOM      4  C5  UNL d   1      -2.742  -5.992  -3.118  0.00  0.00    -0.080 A 
ATOM      5  C6  UNL d   1      -4.126  -5.973  -2.539  0.00  0.00     0.076 C 
ATOM      6  C7  UNL d   1      -1.630  -6.000  -2.269  0.00  0.00     0.002 A 
ATOM      7  C8  UNL d   1      -0.337  -5.990  -2.796  0.00  0.00     0.006 A 
ENDROOT
BRANCH   1   8
ATOM      8  C1  UNL d   1       1.262  -5.902  -4.745  0.00  0.00     0.054 C 
ATOM      9  C   UNL d   1       2.310  -5.970  -3.644  0.00  0.00     0.018 C 
ENDBRANCH   1   8
TORSDOF 1
ENDMDL
