MODEL 1
REMARK minimizedAffinity 9.11077499
REMARK minimizedRMSD -1
REMARK  1 active torsions:
REMARK  status: ('A' for Active; 'I' for Inactive)
REMARK    1  A    between atoms: C1_2  and  C2_3 
ROOT
ATOM      1  C2  UNL d   1      -3.968   0.253  -1.384  0.00  0.00    -0.081 A 
ATOM      2  C3  UNL d   1      -4.103   0.652  -2.719  0.00  0.00     0.006 A 
ATOM      3  C4  UNL d   1      -3.129   1.452  -3.321  0.00  0.00     0.002 A 
ATOM      4  C5  UNL d   1      -2.001   1.860  -2.602  0.00  0.00    -0.080 A 
ATOM      5  C6  UNL d   1      -0.934   2.694  -3.245  0.00  0.00     0.076 C 
ATOM      6  C7  UNL d   1      -1.875   1.476  -1.262  0.00  0.00     0.002 A 
ATOM      7  C8  UNL d   1      -2.848   0.677  -0.660  0.00  0.00     0.006 A 
ENDROOT
BRANCH   1   8
ATOM      8  C1  UNL d   1      -4.984  -0.663  -0.751  0.00  0.00     0.054 C 
ATOM      9  C   UNL d   1      -4.845  -0.681   0.764  0.00  0.00     0.018 C 
ENDBRANCH   1   8
TORSDOF 1
ENDMDL
