MODEL 1
REMARK minimizedAffinity 1.15108073
REMARK minimizedRMSD -1
REMARK  1 active torsions:
REMARK  status: ('A' for Active; 'I' for Inactive)
REMARK    1  A    between atoms: C1_2  and  C2_3 
ROOT
ATOM      1  C2  UNL d   1      -1.100  -5.914  -2.806  0.00  0.00    -0.081 A 
ATOM      2  C3  UNL d   1      -1.508  -5.810  -4.142  0.00  0.00     0.006 A 
ATOM      3  C4  UNL d   1      -0.565  -5.802  -5.172  0.00  0.00     0.002 A 
ATOM      4  C5  UNL d   1       0.800  -5.906  -4.886  0.00  0.00    -0.080 A 
ATOM      5  C6  UNL d   1       1.821  -5.929  -5.984  0.00  0.00     0.076 C 
ATOM      6  C7  UNL d   1       1.210  -5.992  -3.551  0.00  0.00     0.002 A 
ATOM      7  C8  UNL d   1       0.267  -6.000  -2.520  0.00  0.00     0.006 A 
ENDROOT
BRANCH   1   8
ATOM      8  C1  UNL d   1      -2.118  -5.988  -1.697  0.00  0.00     0.054 C 
ATOM      9  C   UNL d   1      -3.537  -5.986  -2.248  0.00  0.00     0.018 C 
ENDBRANCH   1   8
TORSDOF 1
ENDMDL
