MODEL 1
REMARK minimizedAffinity 5.38851595
REMARK minimizedRMSD -1
REMARK  1 active torsions:
REMARK  status: ('A' for Active; 'I' for Inactive)
REMARK    1  A    between atoms: C1_2  and  C2_3 
ROOT
ATOM      1  C2  UNL d   1       4.896   2.307  -1.400  0.00  0.00    -0.081 A 
ATOM      2  C3  UNL d   1       3.805   1.526  -1.001  0.00  0.00     0.006 A 
ATOM      3  C4  UNL d   1       2.755   2.094  -0.276  0.00  0.00     0.002 A 
ATOM      4  C5  UNL d   1       2.775   3.453   0.056  0.00  0.00    -0.080 A 
ATOM      5  C6  UNL d   1       1.640   4.081   0.809  0.00  0.00     0.076 C 
ATOM      6  C7  UNL d   1       3.874   4.229  -0.327  0.00  0.00     0.002 A 
ATOM      7  C8  UNL d   1       4.924   3.662  -1.052  0.00  0.00     0.006 A 
ENDROOT
BRANCH   1   8
ATOM      8  C1  UNL d   1       5.999   1.712  -2.238  0.00  0.00     0.054 C 
ATOM      9  C   UNL d   1       5.951   0.191  -2.218  0.00  0.00     0.018 C 
ENDBRANCH   1   8
TORSDOF 1
ENDMDL
