MODEL 1
REMARK minimizedAffinity 2.31553435
REMARK minimizedRMSD -1
REMARK  1 active torsions:
REMARK  status: ('A' for Active; 'I' for Inactive)
REMARK    1  A    between atoms: C1_2  and  C2_3 
ROOT
ATOM      1  C2  UNL d   1      -0.528  -5.658  -4.488  0.00  0.00    -0.081 A 
ATOM      2  C3  UNL d   1      -1.643  -5.591  -5.333  0.00  0.00     0.006 A 
ATOM      3  C4  UNL d   1      -2.934  -5.698  -4.812  0.00  0.00     0.002 A 
ATOM      4  C5  UNL d   1      -3.134  -5.867  -3.438  0.00  0.00    -0.080 A 
ATOM      5  C6  UNL d   1      -4.516  -5.953  -2.862  0.00  0.00     0.076 C 
ATOM      6  C7  UNL d   1      -2.020  -5.951  -2.595  0.00  0.00     0.002 A 
ATOM      7  C8  UNL d   1      -0.728  -5.845  -3.116  0.00  0.00     0.006 A 
ENDROOT
BRANCH   1   8
ATOM      8  C1  UNL d   1       0.863  -5.477  -5.038  0.00  0.00     0.054 C 
ATOM      9  C   UNL d   1       1.640  -4.434  -4.248  0.00  0.00     0.018 C 
ENDBRANCH   1   8
TORSDOF 1
ENDMDL
