MODEL 1
REMARK minimizedAffinity 5.97629213
REMARK minimizedRMSD -1
REMARK  1 active torsions:
REMARK  status: ('A' for Active; 'I' for Inactive)
REMARK    1  A    between atoms: C1_2  and  C2_3 
ROOT
ATOM      1  C2  UNL d   1      -0.844   0.326  -1.259  0.00  0.00    -0.081 A 
ATOM      2  C3  UNL d   1      -0.731  -0.015   0.095  0.00  0.00     0.006 A 
ATOM      3  C4  UNL d   1       0.526  -0.182   0.681  0.00  0.00     0.002 A 
ATOM      4  C5  UNL d   1       1.690  -0.004  -0.074  0.00  0.00    -0.080 A 
ATOM      5  C6  UNL d   1       3.046  -0.151   0.550  0.00  0.00     0.076 C 
ATOM      6  C7  UNL d   1       1.577   0.319  -1.431  0.00  0.00     0.002 A 
ATOM      7  C8  UNL d   1       0.321   0.486  -2.017  0.00  0.00     0.006 A 
ENDROOT
BRANCH   1   8
ATOM      8  C1  UNL d   1      -2.196   0.570  -1.878  0.00  0.00     0.054 C 
ATOM      9  C   UNL d   1      -3.305  -0.069  -1.054  0.00  0.00     0.018 C 
ENDBRANCH   1   8
TORSDOF 1
ENDMDL
