MODEL 1
REMARK minimizedAffinity 5.32026386
REMARK minimizedRMSD -1
REMARK  1 active torsions:
REMARK  status: ('A' for Active; 'I' for Inactive)
REMARK    1  A    between atoms: C1_2  and  C2_3 
ROOT
ATOM      1  C2  UNL d   1      -3.796   0.899  -2.481  0.00  0.00    -0.081 A 
ATOM      2  C3  UNL d   1      -5.189   0.930  -2.345  0.00  0.00     0.006 A 
ATOM      3  C4  UNL d   1      -5.802   0.397  -1.208  0.00  0.00     0.002 A 
ATOM      4  C5  UNL d   1      -5.032  -0.168  -0.186  0.00  0.00    -0.080 A 
ATOM      5  C6  UNL d   1      -5.675  -0.716   1.053  0.00  0.00     0.076 C 
ATOM      6  C7  UNL d   1      -3.641  -0.215  -0.330  0.00  0.00     0.002 A 
ATOM      7  C8  UNL d   1      -3.028   0.317  -1.466  0.00  0.00     0.006 A 
ENDROOT
BRANCH   1   8
ATOM      8  C1  UNL d   1      -3.128   1.531  -3.676  0.00  0.00     0.054 C 
ATOM      9  C   UNL d   1      -1.705   1.961  -3.351  0.00  0.00     0.018 C 
ENDBRANCH   1   8
TORSDOF 1
ENDMDL
