MODEL 1
REMARK minimizedAffinity -0.668082237
REMARK minimizedRMSD -1
REMARK  1 active torsions:
REMARK  status: ('A' for Active; 'I' for Inactive)
REMARK    1  A    between atoms: C1_2  and  C2_3 
ROOT
ATOM      1  C2  UNL d   1       0.359  -5.921  -4.432  0.00  0.00    -0.081 A 
ATOM      2  C3  UNL d   1       0.116  -5.990  -3.054  0.00  0.00     0.006 A 
ATOM      3  C4  UNL d   1      -1.192  -6.000  -2.565  0.00  0.00     0.002 A 
ATOM      4  C5  UNL d   1      -2.279  -5.950  -3.444  0.00  0.00    -0.080 A 
ATOM      5  C6  UNL d   1      -3.689  -5.990  -2.934  0.00  0.00     0.076 C 
ATOM      6  C7  UNL d   1      -2.037  -5.864  -4.820  0.00  0.00     0.002 A 
ATOM      7  C8  UNL d   1      -0.729  -5.853  -5.309  0.00  0.00     0.006 A 
ENDROOT
BRANCH   1   8
ATOM      8  C1  UNL d   1       1.767  -5.976  -4.965  0.00  0.00     0.054 C 
ATOM      9  C   UNL d   1       2.787  -5.997  -3.836  0.00  0.00     0.018 C 
ENDBRANCH   1   8
TORSDOF 1
ENDMDL
