MODEL 1
REMARK minimizedAffinity 3.38037133
REMARK minimizedRMSD -1
REMARK  1 active torsions:
REMARK  status: ('A' for Active; 'I' for Inactive)
REMARK    1  A    between atoms: C1_2  and  C2_3 
ROOT
ATOM      1  C2  UNL d   1       1.310  -1.865   3.809  0.00  0.00    -0.081 A 
ATOM      2  C3  UNL d   1       0.760  -1.907   2.522  0.00  0.00     0.006 A 
ATOM      3  C4  UNL d   1       1.304  -1.134   1.494  0.00  0.00     0.002 A 
ATOM      4  C5  UNL d   1       2.412  -0.314   1.732  0.00  0.00    -0.080 A 
ATOM      5  C6  UNL d   1       3.025   0.497   0.630  0.00  0.00     0.076 C 
ATOM      6  C7  UNL d   1       2.951  -0.259   3.022  0.00  0.00     0.002 A 
ATOM      7  C8  UNL d   1       2.406  -1.030   4.051  0.00  0.00     0.006 A 
ENDROOT
BRANCH   1   8
ATOM      8  C1  UNL d   1       0.765  -2.745   4.904  0.00  0.00     0.054 C 
ATOM      9  C   UNL d   1       1.798  -2.969   5.999  0.00  0.00     0.018 C 
ENDBRANCH   1   8
TORSDOF 1
ENDMDL
