MODEL 1
REMARK minimizedAffinity 2.41261292
REMARK minimizedRMSD -1
REMARK  1 active torsions:
REMARK  status: ('A' for Active; 'I' for Inactive)
REMARK    1  A    between atoms: C1_2  and  C2_3 
ROOT
ATOM      1  C2  UNL d   1      -1.167  -5.937  -2.666  0.00  0.00    -0.081 A 
ATOM      2  C3  UNL d   1      -1.495  -5.987  -4.026  0.00  0.00     0.006 A 
ATOM      3  C4  UNL d   1      -0.491  -5.989  -4.997  0.00  0.00     0.002 A 
ATOM      4  C5  UNL d   1       0.857  -5.949  -4.624  0.00  0.00    -0.080 A 
ATOM      5  C6  UNL d   1       1.945  -5.981  -5.656  0.00  0.00     0.076 C 
ATOM      6  C7  UNL d   1       1.184  -5.881  -3.266  0.00  0.00     0.002 A 
ATOM      7  C8  UNL d   1       0.180  -5.878  -2.295  0.00  0.00     0.006 A 
ENDROOT
BRANCH   1   8
ATOM      8  C1  UNL d   1      -2.246  -6.000  -1.614  0.00  0.00     0.054 C 
ATOM      9  C   UNL d   1      -3.538  -5.365  -2.109  0.00  0.00     0.018 C 
ENDBRANCH   1   8
TORSDOF 1
ENDMDL
