MODEL 1
REMARK minimizedAffinity 1.69057536
REMARK minimizedRMSD -1
REMARK  1 active torsions:
REMARK  status: ('A' for Active; 'I' for Inactive)
REMARK    1  A    between atoms: C1_2  and  C2_3 
ROOT
ATOM      1  C2  UNL d   1      -3.448  -5.998  -1.568  0.00  0.00    -0.081 A 
ATOM      2  C3  UNL d   1      -4.847  -5.999  -1.637  0.00  0.00     0.006 A 
ATOM      3  C4  UNL d   1      -5.613  -5.990  -0.469  0.00  0.00     0.002 A 
ATOM      4  C5  UNL d   1      -4.994  -5.972   0.786  0.00  0.00    -0.080 A 
ATOM      5  C6  UNL d   1      -5.805  -5.931   2.047  0.00  0.00     0.076 C 
ATOM      6  C7  UNL d   1      -3.597  -5.989   0.855  0.00  0.00     0.002 A 
ATOM      7  C8  UNL d   1      -2.830  -5.999  -0.313  0.00  0.00     0.006 A 
ENDROOT
BRANCH   1   8
ATOM      8  C1  UNL d   1      -2.619  -5.943  -2.826  0.00  0.00     0.054 C 
ATOM      9  C   UNL d   1      -1.132  -5.899  -2.507  0.00  0.00     0.018 C 
ENDBRANCH   1   8
TORSDOF 1
ENDMDL
