MODEL 1
REMARK minimizedAffinity 1.16413057
REMARK minimizedRMSD -1
REMARK  1 active torsions:
REMARK  status: ('A' for Active; 'I' for Inactive)
REMARK    1  A    between atoms: C1_2  and  C2_3 
ROOT
ATOM      1  C2  UNL d   1      -4.449   1.204  -1.906  0.00  0.00    -0.081 A 
ATOM      2  C3  UNL d   1      -5.412   0.188  -1.958  0.00  0.00     0.006 A 
ATOM      3  C4  UNL d   1      -5.771  -0.507  -0.801  0.00  0.00     0.002 A 
ATOM      4  C5  UNL d   1      -5.180  -0.194   0.428  0.00  0.00    -0.080 A 
ATOM      5  C6  UNL d   1      -5.578  -0.913   1.683  0.00  0.00     0.076 C 
ATOM      6  C7  UNL d   1      -4.206   0.809   0.477  0.00  0.00     0.002 A 
ATOM      7  C8  UNL d   1      -3.846   1.504  -0.680  0.00  0.00     0.006 A 
ENDROOT
BRANCH   1   8
ATOM      8  C1  UNL d   1      -4.107   2.000  -3.139  0.00  0.00     0.054 C 
ATOM      9  C   UNL d   1      -2.625   2.342  -3.184  0.00  0.00     0.018 C 
ENDBRANCH   1   8
TORSDOF 1
ENDMDL
