MODEL 1
REMARK minimizedAffinity -1.59914649
REMARK minimizedRMSD -1
REMARK  1 active torsions:
REMARK  status: ('A' for Active; 'I' for Inactive)
REMARK    1  A    between atoms: C1_2  and  C2_3 
ROOT
ATOM      1  C2  UNL d   1      -1.900  -5.934  -2.965  0.00  0.00    -0.081 A 
ATOM      2  C3  UNL d   1      -2.242  -5.864  -4.322  0.00  0.00     0.006 A 
ATOM      3  C4  UNL d   1      -1.247  -5.863  -5.303  0.00  0.00     0.002 A 
ATOM      4  C5  UNL d   1       0.103  -5.940  -4.946  0.00  0.00    -0.080 A 
ATOM      5  C6  UNL d   1       1.179  -5.971  -5.990  0.00  0.00     0.076 C 
ATOM      6  C7  UNL d   1       0.445  -5.992  -3.590  0.00  0.00     0.002 A 
ATOM      7  C8  UNL d   1      -0.549  -5.992  -2.608  0.00  0.00     0.006 A 
ENDROOT
BRANCH   1   8
ATOM      8  C1  UNL d   1      -2.972  -6.000  -1.908  0.00  0.00     0.054 C 
ATOM      9  C   UNL d   1      -4.362  -5.982  -2.527  0.00  0.00     0.018 C 
ENDBRANCH   1   8
TORSDOF 1
ENDMDL
