MODEL 1
REMARK minimizedAffinity -2.49818325
REMARK minimizedRMSD -1
REMARK  0 active torsions:
REMARK  status: ('A' for Active; 'I' for Inactive)
ROOT
ATOM      1  C   UNL d   1      -0.770   2.531   0.453  0.00  0.00     0.124 A 
ATOM      2  C1  UNL d   1       0.260   2.496  -0.478  0.00  0.00     0.062 A 
ATOM      3  C2  UNL d   1       0.766   1.276  -0.916  0.00  0.00     0.162 A 
ATOM      4  C3  UNL d   1       0.243   0.080  -0.426  0.00  0.00    -0.034 A 
ATOM      5  C4  UNL d   1      -0.791   0.123   0.511  0.00  0.00     0.162 A 
ATOM      6  C5  UNL d   1      -1.294   1.345   0.946  0.00  0.00     0.062 A 
ATOM      7  F   UNL d   1      -2.289   1.376   1.844  0.00  0.00    -0.097 F 
ATOM      8  F1  UNL d   1      -1.318  -1.009   1.003  0.00  0.00    -0.096 F 
ATOM      9  I   UNL d   1       0.998  -1.746  -1.079  0.00  0.00    -0.060 I 
ATOM     10  F2  UNL d   1       1.761   1.273  -1.816  0.00  0.00    -0.096 F 
ATOM     11  F3  UNL d   1       0.769   3.641  -0.955  0.00  0.00    -0.097 F 
ATOM     12  F4  UNL d   1      -1.255   3.706   0.873  0.00  0.00    -0.092 F 
ENDROOT
TORSDOF 0
ENDMDL
