MODEL 1
REMARK minimizedAffinity -1.96940684
REMARK minimizedRMSD -1
REMARK  0 active torsions:
REMARK  status: ('A' for Active; 'I' for Inactive)
ROOT
ATOM      1  C   UNL d   1      -1.511   3.149   0.449  0.00  0.00     0.124 A 
ATOM      2  C1  UNL d   1      -1.745   1.920   1.051  0.00  0.00     0.062 A 
ATOM      3  C2  UNL d   1      -0.990   0.808   0.690  0.00  0.00     0.162 A 
ATOM      4  C3  UNL d   1       0.009   0.919  -0.277  0.00  0.00    -0.034 A 
ATOM      5  C4  UNL d   1       0.239   2.158  -0.879  0.00  0.00     0.162 A 
ATOM      6  C5  UNL d   1      -0.519   3.266  -0.515  0.00  0.00     0.062 A 
ATOM      7  F   UNL d   1      -0.291   4.452  -1.098  0.00  0.00    -0.097 F 
ATOM      8  F1  UNL d   1       1.191   2.300  -1.813  0.00  0.00    -0.096 F 
ATOM      9  I   UNL d   1       1.140  -0.741  -0.819  0.00  0.00    -0.060 I 
ATOM     10  F2  UNL d   1      -1.239  -0.366   1.288  0.00  0.00    -0.096 F 
ATOM     11  F3  UNL d   1      -2.703   1.804   1.982  0.00  0.00    -0.097 F 
ATOM     12  F4  UNL d   1      -2.240   4.217   0.797  0.00  0.00    -0.092 F 
ENDROOT
TORSDOF 0
ENDMDL
