MODEL 1
REMARK minimizedAffinity -2.61600542
REMARK minimizedRMSD -1
REMARK  0 active torsions:
REMARK  status: ('A' for Active; 'I' for Inactive)
ROOT
ATOM      1  C   UNL d   1      -0.573   1.079   0.677  0.00  0.00     0.124 A 
ATOM      2  C1  UNL d   1      -1.174  -0.084   1.139  0.00  0.00     0.062 A 
ATOM      3  C2  UNL d   1      -1.005  -1.281   0.449  0.00  0.00     0.162 A 
ATOM      4  C3  UNL d   1      -0.230  -1.322  -0.710  0.00  0.00    -0.034 A 
ATOM      5  C4  UNL d   1       0.370  -0.148  -1.169  0.00  0.00     0.162 A 
ATOM      6  C5  UNL d   1       0.198   1.046  -0.477  0.00  0.00     0.062 A 
ATOM      7  F   UNL d   1       0.780   2.168  -0.925  0.00  0.00    -0.097 F 
ATOM      8  F1  UNL d   1       1.122  -0.152  -2.280  0.00  0.00    -0.096 F 
ATOM      9  I   UNL d   1       0.025  -3.110  -1.744  0.00  0.00    -0.060 I 
ATOM     10  F2  UNL d   1      -1.598  -2.389   0.919  0.00  0.00    -0.096 F 
ATOM     11  F3  UNL d   1      -1.921  -0.054   2.252  0.00  0.00    -0.097 F 
ATOM     12  F4  UNL d   1      -0.738   2.230   1.341  0.00  0.00    -0.092 F 
ENDROOT
TORSDOF 0
ENDMDL
