MODEL 1
REMARK minimizedAffinity -2.26282907
REMARK minimizedRMSD -1
REMARK  0 active torsions:
REMARK  status: ('A' for Active; 'I' for Inactive)
ROOT
ATOM      1  C   UNL d   1      -1.498   2.008   1.042  0.00  0.00     0.124 A 
ATOM      2  C1  UNL d   1      -1.264   0.765   1.615  0.00  0.00     0.062 A 
ATOM      3  C2  UNL d   1      -0.495  -0.181   0.944  0.00  0.00     0.162 A 
ATOM      4  C3  UNL d   1       0.046   0.111  -0.309  0.00  0.00    -0.034 A 
ATOM      5  C4  UNL d   1      -0.196   1.363  -0.879  0.00  0.00     0.162 A 
ATOM      6  C5  UNL d   1      -0.964   2.305  -0.204  0.00  0.00     0.062 A 
ATOM      7  F   UNL d   1      -1.190   3.505  -0.759  0.00  0.00    -0.097 F 
ATOM      8  F1  UNL d   1       0.309   1.677  -2.081  0.00  0.00    -0.096 F 
ATOM      9  I   UNL d   1       1.196  -1.301  -1.316  0.00  0.00    -0.060 I 
ATOM     10  F2  UNL d   1      -0.284  -1.373   1.521  0.00  0.00    -0.096 F 
ATOM     11  F3  UNL d   1      -1.779   0.475   2.818  0.00  0.00    -0.097 F 
ATOM     12  F4  UNL d   1      -2.239   2.916   1.690  0.00  0.00    -0.092 F 
ENDROOT
TORSDOF 0
ENDMDL
