MODEL 1
REMARK minimizedAffinity 0.844033778
REMARK minimizedRMSD -1
REMARK  0 active torsions:
REMARK  status: ('A' for Active; 'I' for Inactive)
ROOT
ATOM      1  C   UNL d   1       1.075  -1.626   0.604  0.00  0.00     0.124 A 
ATOM      2  C1  UNL d   1       0.627  -0.946  -0.519  0.00  0.00     0.062 A 
ATOM      3  C2  UNL d   1      -0.182   0.178  -0.381  0.00  0.00     0.162 A 
ATOM      4  C3  UNL d   1      -0.550   0.629   0.887  0.00  0.00    -0.034 A 
ATOM      5  C4  UNL d   1      -0.097  -0.061   2.012  0.00  0.00     0.162 A 
ATOM      6  C5  UNL d   1       0.712  -1.184   1.869  0.00  0.00     0.062 A 
ATOM      7  F   UNL d   1       1.143  -1.840   2.956  0.00  0.00    -0.097 F 
ATOM      8  F1  UNL d   1      -0.431   0.345   3.246  0.00  0.00    -0.096 F 
ATOM      9  I   UNL d   1      -1.760   2.309   1.098  0.00  0.00    -0.060 I 
ATOM     10  F2  UNL d   1      -0.600   0.816  -1.485  0.00  0.00    -0.096 F 
ATOM     11  F3  UNL d   1       0.975  -1.372  -1.742  0.00  0.00    -0.097 F 
ATOM     12  F4  UNL d   1       1.853  -2.708   0.468  0.00  0.00    -0.092 F 
ENDROOT
TORSDOF 0
ENDMDL
