MODEL 1
REMARK minimizedAffinity -0.726890385
REMARK minimizedRMSD -1
REMARK  0 active torsions:
REMARK  status: ('A' for Active; 'I' for Inactive)
ROOT
ATOM      1  C   UNL d   1      -1.311   1.533   0.655  0.00  0.00     0.124 A 
ATOM      2  C1  UNL d   1      -1.065   0.538   1.592  0.00  0.00     0.062 A 
ATOM      3  C2  UNL d   1      -0.262  -0.550   1.264  0.00  0.00     0.162 A 
ATOM      4  C3  UNL d   1       0.303  -0.649  -0.008  0.00  0.00    -0.034 A 
ATOM      5  C4  UNL d   1       0.052   0.354  -0.945  0.00  0.00     0.162 A 
ATOM      6  C5  UNL d   1      -0.752   1.440  -0.612  0.00  0.00     0.062 A 
ATOM      7  F   UNL d   1      -0.988   2.399  -1.518  0.00  0.00    -0.097 F 
ATOM      8  F1  UNL d   1       0.579   0.290  -2.176  0.00  0.00    -0.096 F 
ATOM      9  I   UNL d   1       1.505  -2.275  -0.502  0.00  0.00    -0.060 I 
ATOM     10  F2  UNL d   1      -0.042  -1.496   2.189  0.00  0.00    -0.096 F 
ATOM     11  F3  UNL d   1      -1.604   0.625   2.816  0.00  0.00    -0.097 F 
ATOM     12  F4  UNL d   1      -2.085   2.578   0.973  0.00  0.00    -0.092 F 
ENDROOT
TORSDOF 0
ENDMDL
