MODEL 1
REMARK minimizedAffinity 0.0266845301
REMARK minimizedRMSD -1
REMARK  0 active torsions:
REMARK  status: ('A' for Active; 'I' for Inactive)
ROOT
ATOM      1  C   UNL d   1      -1.188   2.003   0.576  0.00  0.00     0.124 A 
ATOM      2  C1  UNL d   1      -0.491   2.068  -0.623  0.00  0.00     0.062 A 
ATOM      3  C2  UNL d   1       0.238   0.970  -1.069  0.00  0.00     0.162 A 
ATOM      4  C3  UNL d   1       0.274  -0.204  -0.317  0.00  0.00    -0.034 A 
ATOM      5  C4  UNL d   1      -0.428  -0.262   0.888  0.00  0.00     0.162 A 
ATOM      6  C5  UNL d   1      -1.156   0.839   1.330  0.00  0.00     0.062 A 
ATOM      7  F   UNL d   1      -1.828   0.774   2.488  0.00  0.00    -0.097 F 
ATOM      8  F1  UNL d   1      -0.415  -1.375   1.636  0.00  0.00    -0.096 F 
ATOM      9  I   UNL d   1       1.364  -1.848  -0.981  0.00  0.00    -0.060 I 
ATOM     10  F2  UNL d   1       0.902   1.061  -2.231  0.00  0.00    -0.096 F 
ATOM     11  F3  UNL d   1      -0.520   3.193  -1.353  0.00  0.00    -0.097 F 
ATOM     12  F4  UNL d   1      -1.888   3.062   1.003  0.00  0.00    -0.092 F 
ENDROOT
TORSDOF 0
ENDMDL
