MODEL 1
REMARK minimizedAffinity 1.12255466
REMARK minimizedRMSD -1
REMARK  0 active torsions:
REMARK  status: ('A' for Active; 'I' for Inactive)
ROOT
ATOM      1  C   UNL d   1       0.552   1.228  -0.490  0.00  0.00     0.124 A 
ATOM      2  C1  UNL d   1       1.463   0.567  -1.302  0.00  0.00     0.062 A 
ATOM      3  C2  UNL d   1       1.459  -0.823  -1.372  0.00  0.00     0.162 A 
ATOM      4  C3  UNL d   1       0.538  -1.562  -0.628  0.00  0.00    -0.034 A 
ATOM      5  C4  UNL d   1      -0.374  -0.890   0.187  0.00  0.00     0.162 A 
ATOM      6  C5  UNL d   1      -0.365   0.500   0.253  0.00  0.00     0.062 A 
ATOM      7  F   UNL d   1      -1.246   1.137   1.038  0.00  0.00    -0.097 F 
ATOM      8  F1  UNL d   1      -1.273  -1.569   0.916  0.00  0.00    -0.096 F 
ATOM      9  I   UNL d   1       0.528  -3.641  -0.729  0.00  0.00    -0.060 I 
ATOM     10  F2  UNL d   1       2.350  -1.436  -2.164  0.00  0.00    -0.096 F 
ATOM     11  F3  UNL d   1       2.352   1.268  -2.021  0.00  0.00    -0.097 F 
ATOM     12  F4  UNL d   1       0.560   2.566  -0.424  0.00  0.00    -0.092 F 
ENDROOT
TORSDOF 0
ENDMDL
