MODEL 1
REMARK minimizedAffinity -2.39441943
REMARK minimizedRMSD -1
REMARK  0 active torsions:
REMARK  status: ('A' for Active; 'I' for Inactive)
ROOT
ATOM      1  C   UNL d   1       1.466  -0.704  -0.991  0.00  0.00     0.124 A 
ATOM      2  C1  UNL d   1       1.275   0.625  -1.344  0.00  0.00     0.062 A 
ATOM      3  C2  UNL d   1       0.253   1.365  -0.757  0.00  0.00     0.162 A 
ATOM      4  C3  UNL d   1      -0.587   0.778   0.190  0.00  0.00    -0.034 A 
ATOM      5  C4  UNL d   1      -0.390  -0.559   0.539  0.00  0.00     0.162 A 
ATOM      6  C5  UNL d   1       0.634  -1.294  -0.051  0.00  0.00     0.062 A 
ATOM      7  F   UNL d   1       0.816  -2.578   0.291  0.00  0.00    -0.097 F 
ATOM      8  F1  UNL d   1      -1.178  -1.154   1.445  0.00  0.00    -0.096 F 
ATOM      9  I   UNL d   1      -2.117   1.882   1.070  0.00  0.00    -0.060 I 
ATOM     10  F2  UNL d   1       0.091   2.648  -1.116  0.00  0.00    -0.096 F 
ATOM     11  F3  UNL d   1       2.077   1.198  -2.253  0.00  0.00    -0.097 F 
ATOM     12  F4  UNL d   1       2.449  -1.414  -1.558  0.00  0.00    -0.092 F 
ENDROOT
TORSDOF 0
ENDMDL
