MODEL 1
REMARK minimizedAffinity -0.480478793
REMARK minimizedRMSD -1
REMARK  0 active torsions:
REMARK  status: ('A' for Active; 'I' for Inactive)
ROOT
ATOM      1  C   UNL d   1      -1.190   1.488   1.060  0.00  0.00     0.124 A 
ATOM      2  C1  UNL d   1      -0.890   0.428   1.906  0.00  0.00     0.062 A 
ATOM      3  C2  UNL d   1      -0.291  -0.722   1.401  0.00  0.00     0.162 A 
ATOM      4  C3  UNL d   1       0.013  -0.819   0.043  0.00  0.00    -0.034 A 
ATOM      5  C4  UNL d   1      -0.293   0.250  -0.801  0.00  0.00     0.162 A 
ATOM      6  C5  UNL d   1      -0.892   1.397  -0.292  0.00  0.00     0.062 A 
ATOM      7  F   UNL d   1      -1.181   2.420  -1.110  0.00  0.00    -0.097 F 
ATOM      8  F1  UNL d   1      -0.015   0.190  -2.112  0.00  0.00    -0.096 F 
ATOM      9  I   UNL d   1       0.909  -2.538  -0.716  0.00  0.00    -0.060 I 
ATOM     10  F2  UNL d   1      -0.012  -1.730   2.241  0.00  0.00    -0.096 F 
ATOM     11  F3  UNL d   1      -1.178   0.513   3.212  0.00  0.00    -0.097 F 
ATOM     12  F4  UNL d   1      -1.768   2.593   1.549  0.00  0.00    -0.092 F 
ENDROOT
TORSDOF 0
ENDMDL
