MODEL 1
REMARK minimizedAffinity 6.31527042
REMARK minimizedRMSD -1
REMARK  0 active torsions:
REMARK  status: ('A' for Active; 'I' for Inactive)
ROOT
ATOM      1  C   UNL d   1      -1.383   1.321   0.710  0.00  0.00     0.124 A 
ATOM      2  C1  UNL d   1      -0.937   1.147  -0.593  0.00  0.00     0.062 A 
ATOM      3  C2  UNL d   1      -0.201   0.017  -0.936  0.00  0.00     0.162 A 
ATOM      4  C3  UNL d   1       0.095  -0.949   0.025  0.00  0.00    -0.034 A 
ATOM      5  C4  UNL d   1      -0.356  -0.767   1.334  0.00  0.00     0.162 A 
ATOM      6  C5  UNL d   1      -1.092   0.364   1.672  0.00  0.00     0.062 A 
ATOM      7  F   UNL d   1      -1.521   0.530   2.932  0.00  0.00    -0.097 F 
ATOM      8  F1  UNL d   1      -0.090  -1.677   2.283  0.00  0.00    -0.096 F 
ATOM      9  I   UNL d   1       1.195  -2.640  -0.484  0.00  0.00    -0.060 I 
ATOM     10  F2  UNL d   1       0.217  -0.124  -2.203  0.00  0.00    -0.096 F 
ATOM     11  F3  UNL d   1      -1.216   2.071  -1.524  0.00  0.00    -0.097 F 
ATOM     12  F4  UNL d   1      -2.090   2.410   1.038  0.00  0.00    -0.092 F 
ENDROOT
TORSDOF 0
ENDMDL
