MODEL 1
REMARK minimizedAffinity -0.123292513
REMARK minimizedRMSD -1
REMARK  0 active torsions:
REMARK  status: ('A' for Active; 'I' for Inactive)
ROOT
ATOM      1  C   UNL d   1       0.587  -3.117  -2.124  0.00  0.00     0.124 A 
ATOM      2  C1  UNL d   1       1.271  -2.635  -1.016  0.00  0.00     0.062 A 
ATOM      3  C2  UNL d   1       0.954  -1.387  -0.486  0.00  0.00     0.162 A 
ATOM      4  C3  UNL d   1      -0.052  -0.613  -1.063  0.00  0.00    -0.034 A 
ATOM      5  C4  UNL d   1      -0.735  -1.104  -2.177  0.00  0.00     0.162 A 
ATOM      6  C5  UNL d   1      -0.415  -2.351  -2.703  0.00  0.00     0.062 A 
ATOM      7  F   UNL d   1      -1.076  -2.815  -3.773  0.00  0.00    -0.097 F 
ATOM      8  F1  UNL d   1      -1.708  -0.385  -2.756  0.00  0.00    -0.096 F 
ATOM      9  I   UNL d   1      -0.529   1.253  -0.274  0.00  0.00    -0.060 I 
ATOM     10  F2  UNL d   1       1.632  -0.947   0.584  0.00  0.00    -0.096 F 
ATOM     11  F3  UNL d   1       2.240  -3.372  -0.455  0.00  0.00    -0.097 F 
ATOM     12  F4  UNL d   1       0.895  -4.317  -2.632  0.00  0.00    -0.092 F 
ENDROOT
TORSDOF 0
ENDMDL
