MODEL 1
REMARK minimizedAffinity -0.0932364315
REMARK minimizedRMSD -1
REMARK  0 active torsions:
REMARK  status: ('A' for Active; 'I' for Inactive)
ROOT
ATOM      1  C   UNL d   1      -1.156   1.936   0.822  0.00  0.00     0.124 A 
ATOM      2  C1  UNL d   1      -0.468   1.873  -0.382  0.00  0.00     0.062 A 
ATOM      3  C2  UNL d   1       0.243   0.726  -0.723  0.00  0.00     0.162 A 
ATOM      4  C3  UNL d   1       0.269  -0.368   0.141  0.00  0.00    -0.034 A 
ATOM      5  C4  UNL d   1      -0.424  -0.297   1.351  0.00  0.00     0.162 A 
ATOM      6  C5  UNL d   1      -1.133   0.851   1.687  0.00  0.00     0.062 A 
ATOM      7  F   UNL d   1      -1.797   0.910   2.851  0.00  0.00    -0.097 F 
ATOM      8  F1  UNL d   1      -0.420  -1.331   2.205  0.00  0.00    -0.096 F 
ATOM      9  I   UNL d   1       1.331  -2.085  -0.365  0.00  0.00    -0.060 I 
ATOM     10  F2  UNL d   1       0.898   0.693  -1.893  0.00  0.00    -0.096 F 
ATOM     11  F3  UNL d   1      -0.488   2.921  -1.219  0.00  0.00    -0.097 F 
ATOM     12  F4  UNL d   1      -1.838   3.042   1.148  0.00  0.00    -0.092 F 
ENDROOT
TORSDOF 0
ENDMDL
