MODEL 1
REMARK minimizedAffinity 6.90187407
REMARK minimizedRMSD -1
REMARK  0 active torsions:
REMARK  status: ('A' for Active; 'I' for Inactive)
ROOT
ATOM      1  C   UNL d   1       0.254   1.693  -0.230  0.00  0.00     0.124 A 
ATOM      2  C1  UNL d   1       0.438   1.273  -1.539  0.00  0.00     0.062 A 
ATOM      3  C2  UNL d   1       0.411  -0.084  -1.850  0.00  0.00     0.162 A 
ATOM      4  C3  UNL d   1       0.197  -1.031  -0.848  0.00  0.00    -0.034 A 
ATOM      5  C4  UNL d   1       0.013  -0.601   0.467  0.00  0.00     0.162 A 
ATOM      6  C5  UNL d   1       0.041   0.756   0.772  0.00  0.00     0.062 A 
ATOM      7  F   UNL d   1      -0.137   1.160   2.038  0.00  0.00    -0.097 F 
ATOM      8  F1  UNL d   1      -0.195  -1.484   1.454  0.00  0.00    -0.096 F 
ATOM      9  I   UNL d   1       0.155  -3.060  -1.308  0.00  0.00    -0.060 I 
ATOM     10  F2  UNL d   1       0.592  -0.461  -3.124  0.00  0.00    -0.096 F 
ATOM     11  F3  UNL d   1       0.644   2.176  -2.509  0.00  0.00    -0.097 F 
ATOM     12  F4  UNL d   1       0.281   2.999   0.067  0.00  0.00    -0.092 F 
ENDROOT
TORSDOF 0
ENDMDL
