MODEL 1
REMARK minimizedAffinity 4.59947252
REMARK minimizedRMSD -1
REMARK  0 active torsions:
REMARK  status: ('A' for Active; 'I' for Inactive)
ROOT
ATOM      1  C   UNL d   1       0.149   0.378   0.694  0.00  0.00     0.124 A 
ATOM      2  C1  UNL d   1       0.971  -0.735   0.806  0.00  0.00     0.062 A 
ATOM      3  C2  UNL d   1       0.976  -1.704  -0.193  0.00  0.00     0.162 A 
ATOM      4  C3  UNL d   1       0.157  -1.564  -1.314  0.00  0.00    -0.034 A 
ATOM      5  C4  UNL d   1      -0.667  -0.442  -1.418  0.00  0.00     0.162 A 
ATOM      6  C5  UNL d   1      -0.669   0.524  -0.417  0.00  0.00     0.062 A 
ATOM      7  F   UNL d   1      -1.463   1.599  -0.526  0.00  0.00    -0.097 F 
ATOM      8  F1  UNL d   1      -1.467  -0.276  -2.482  0.00  0.00    -0.096 F 
ATOM      9  I   UNL d   1       0.161  -3.011  -2.810  0.00  0.00    -0.060 I 
ATOM     10  F2  UNL d   1       1.779  -2.769  -0.059  0.00  0.00    -0.096 F 
ATOM     11  F3  UNL d   1       1.761  -0.878   1.879  0.00  0.00    -0.097 F 
ATOM     12  F4  UNL d   1       0.146   1.309   1.658  0.00  0.00    -0.092 F 
ENDROOT
TORSDOF 0
ENDMDL
