MODEL 1
REMARK minimizedAffinity 0.19830294
REMARK minimizedRMSD -1
REMARK  0 active torsions:
REMARK  status: ('A' for Active; 'I' for Inactive)
ROOT
ATOM      1  C   UNL d   1       1.435  -0.116  -1.398  0.00  0.00     0.124 A 
ATOM      2  C1  UNL d   1       1.101   1.215  -1.603  0.00  0.00     0.062 A 
ATOM      3  C2  UNL d   1       0.148   1.830  -0.797  0.00  0.00     0.162 A 
ATOM      4  C3  UNL d   1      -0.479   1.115   0.223  0.00  0.00    -0.034 A 
ATOM      5  C4  UNL d   1      -0.139  -0.225   0.423  0.00  0.00     0.162 A 
ATOM      6  C5  UNL d   1       0.815  -0.835  -0.385  0.00  0.00     0.062 A 
ATOM      7  F   UNL d   1       1.135  -2.121  -0.186  0.00  0.00    -0.097 F 
ATOM      8  F1  UNL d   1      -0.722  -0.942   1.395  0.00  0.00    -0.096 F 
ATOM      9  I   UNL d   1      -1.905   2.030   1.431  0.00  0.00    -0.060 I 
ATOM     10  F2  UNL d   1      -0.155   3.118  -1.017  0.00  0.00    -0.096 F 
ATOM     11  F3  UNL d   1       1.699   1.912  -2.581  0.00  0.00    -0.097 F 
ATOM     12  F4  UNL d   1       2.352  -0.706  -2.175  0.00  0.00    -0.092 F 
ENDROOT
TORSDOF 0
ENDMDL
