MODEL 1
REMARK minimizedAffinity 2.82028675
REMARK minimizedRMSD -1
REMARK  0 active torsions:
REMARK  status: ('A' for Active; 'I' for Inactive)
ROOT
ATOM      1  C   UNL d   1      -1.339   1.795  -0.542  0.00  0.00     0.124 A 
ATOM      2  C1  UNL d   1      -2.025   0.605  -0.340  0.00  0.00     0.062 A 
ATOM      3  C2  UNL d   1      -1.327  -0.593  -0.220  0.00  0.00     0.162 A 
ATOM      4  C3  UNL d   1       0.065  -0.608  -0.300  0.00  0.00    -0.034 A 
ATOM      5  C4  UNL d   1       0.748   0.592  -0.504  0.00  0.00     0.162 A 
ATOM      6  C5  UNL d   1       0.046   1.787  -0.624  0.00  0.00     0.062 A 
ATOM      7  F   UNL d   1       0.711   2.936  -0.818  0.00  0.00    -0.097 F 
ATOM      8  F1  UNL d   1       2.087   0.614  -0.586  0.00  0.00    -0.096 F 
ATOM      9  I   UNL d   1       1.112  -2.398  -0.121  0.00  0.00    -0.060 I 
ATOM     10  F2  UNL d   1      -2.016  -1.728  -0.026  0.00  0.00    -0.096 F 
ATOM     11  F3  UNL d   1      -3.363   0.610  -0.262  0.00  0.00    -0.097 F 
ATOM     12  F4  UNL d   1      -2.012   2.947  -0.658  0.00  0.00    -0.092 F 
ENDROOT
TORSDOF 0
ENDMDL
