MODEL 1
REMARK minimizedAffinity 11.8653669
REMARK minimizedRMSD -1
REMARK  1 active torsions:
REMARK  status: ('A' for Active; 'I' for Inactive)
REMARK    1  A    between atoms: C1_2  and  C2_3 
ROOT
ATOM      1  C2  UNL d   1       1.975   0.951  -0.014  0.00  0.00    -0.081 A 
ATOM      2  C3  UNL d   1       1.518   0.405   1.191  0.00  0.00     0.006 A 
ATOM      3  C4  UNL d   1       0.201   0.612   1.608  0.00  0.00     0.002 A 
ATOM      4  C5  UNL d   1      -0.682   1.362   0.824  0.00  0.00    -0.080 A 
ATOM      5  C6  UNL d   1      -2.107   1.567   1.245  0.00  0.00     0.076 C 
ATOM      6  C7  UNL d   1      -0.221   1.923  -0.372  0.00  0.00     0.002 A 
ATOM      7  C8  UNL d   1       1.096   1.716  -0.789  0.00  0.00     0.006 A 
ENDROOT
BRANCH   1   8
ATOM      8  C1  UNL d   1       3.376   0.675  -0.498  0.00  0.00     0.054 C 
ATOM      9  C   UNL d   1       3.465  -0.676  -1.192  0.00  0.00     0.018 C 
ENDBRANCH   1   8
TORSDOF 1
ENDMDL
