MODEL 1
REMARK minimizedAffinity 3.3603406
REMARK minimizedRMSD -1
REMARK  1 active torsions:
REMARK  status: ('A' for Active; 'I' for Inactive)
REMARK    1  A    between atoms: C1_2  and  C2_3 
ROOT
ATOM      1  C2  UNL d   1       1.203   4.666   2.530  0.00  0.00    -0.081 A 
ATOM      2  C3  UNL d   1       0.022   4.794   1.788  0.00  0.00     0.006 A 
ATOM      3  C4  UNL d   1      -0.666   3.660   1.351  0.00  0.00     0.002 A 
ATOM      4  C5  UNL d   1      -0.190   2.380   1.654  0.00  0.00    -0.080 A 
ATOM      5  C6  UNL d   1      -0.935   1.154   1.216  0.00  0.00     0.076 C 
ATOM      6  C7  UNL d   1       0.999   2.251   2.380  0.00  0.00     0.002 A 
ATOM      7  C8  UNL d   1       1.688   3.385   2.817  0.00  0.00     0.006 A 
ENDROOT
BRANCH   1   8
ATOM      8  C1  UNL d   1       1.912   5.886   3.059  0.00  0.00     0.054 C 
ATOM      9  C   UNL d   1       2.851   5.529   4.202  0.00  0.00     0.018 C 
ENDBRANCH   1   8
TORSDOF 1
ENDMDL
