MODEL 1
REMARK minimizedAffinity 10.6139221
REMARK minimizedRMSD -1
REMARK  1 active torsions:
REMARK  status: ('A' for Active; 'I' for Inactive)
REMARK    1  A    between atoms: C1_2  and  C2_3 
ROOT
ATOM      1  C2  UNL d   1       2.493   0.896   0.830  0.00  0.00    -0.081 A 
ATOM      2  C3  UNL d   1       3.653   1.407   1.426  0.00  0.00     0.006 A 
ATOM      3  C4  UNL d   1       4.794   1.654   0.658  0.00  0.00     0.002 A 
ATOM      4  C5  UNL d   1       4.791   1.401  -0.718  0.00  0.00    -0.080 A 
ATOM      5  C6  UNL d   1       5.999   1.691  -1.559  0.00  0.00     0.076 C 
ATOM      6  C7  UNL d   1       3.639   0.874  -1.310  0.00  0.00     0.002 A 
ATOM      7  C8  UNL d   1       2.498   0.627  -0.543  0.00  0.00     0.006 A 
ENDROOT
BRANCH   1   8
ATOM      8  C1  UNL d   1       1.241   0.689   1.643  0.00  0.00     0.054 C 
ATOM      9  C   UNL d   1       1.568   0.213   3.051  0.00  0.00     0.018 C 
ENDBRANCH   1   8
TORSDOF 1
ENDMDL
