MODEL 1
REMARK minimizedAffinity 3.78681636
REMARK minimizedRMSD -1
REMARK  1 active torsions:
REMARK  status: ('A' for Active; 'I' for Inactive)
REMARK    1  A    between atoms: C1_2  and  C2_3 
ROOT
ATOM      1  C2  UNL d   1       2.724  -1.271  -0.098  0.00  0.00    -0.081 A 
ATOM      2  C3  UNL d   1       2.586  -2.002  -1.284  0.00  0.00     0.006 A 
ATOM      3  C4  UNL d   1       1.778  -3.141  -1.324  0.00  0.00     0.002 A 
ATOM      4  C5  UNL d   1       1.088  -3.562  -0.182  0.00  0.00    -0.080 A 
ATOM      5  C6  UNL d   1       0.194  -4.766  -0.219  0.00  0.00     0.076 C 
ATOM      6  C7  UNL d   1       1.240  -2.842   1.008  0.00  0.00     0.002 A 
ATOM      7  C8  UNL d   1       2.048  -1.704   1.048  0.00  0.00     0.006 A 
ENDROOT
BRANCH   1   8
ATOM      8  C1  UNL d   1       3.543  -0.006  -0.068  0.00  0.00     0.054 C 
ATOM      9  C   UNL d   1       2.658   1.223   0.082  0.00  0.00     0.018 C 
ENDBRANCH   1   8
TORSDOF 1
ENDMDL
