MODEL 1
REMARK minimizedAffinity 8.02802181
REMARK minimizedRMSD -1
REMARK  1 active torsions:
REMARK  status: ('A' for Active; 'I' for Inactive)
REMARK    1  A    between atoms: C1_2  and  C2_3 
ROOT
ATOM      1  C2  UNL d   1       2.291  -1.179  -0.902  0.00  0.00    -0.081 A 
ATOM      2  C3  UNL d   1       3.090  -1.165  -2.052  0.00  0.00     0.006 A 
ATOM      3  C4  UNL d   1       3.895  -0.060  -2.341  0.00  0.00     0.002 A 
ATOM      4  C5  UNL d   1       3.921   1.044  -1.483  0.00  0.00    -0.080 A 
ATOM      5  C6  UNL d   1       4.804   2.223  -1.766  0.00  0.00     0.076 C 
ATOM      6  C7  UNL d   1       3.109   1.037  -0.343  0.00  0.00     0.002 A 
ATOM      7  C8  UNL d   1       2.304  -0.066  -0.054  0.00  0.00     0.006 A 
ENDROOT
BRANCH   1   8
ATOM      8  C1  UNL d   1       1.471  -2.394  -0.554  0.00  0.00     0.054 C 
ATOM      9  C   UNL d   1       0.379  -2.640  -1.586  0.00  0.00     0.018 C 
ENDBRANCH   1   8
TORSDOF 1
ENDMDL
