MODEL 1
REMARK minimizedAffinity 2.22934532
REMARK minimizedRMSD -1
REMARK  0 active torsions:
REMARK  status: ('A' for Active; 'I' for Inactive)
ROOT
ATOM      1  C   UNL d   1       0.386  -2.061   5.839  0.00  0.00     0.078 C 
ATOM      2  C1  UNL d   1       1.465  -2.254   4.815  0.00  0.00    -0.077 A 
ATOM      3  C2  UNL d   1       2.698  -2.818   5.165  0.00  0.00    -0.001 A 
ATOM      4  C3  UNL d   1       3.697  -2.983   4.204  0.00  0.00     0.003 A 
ATOM      5  C4  UNL d   1       3.474  -2.585   2.888  0.00  0.00    -0.005 A 
ATOM      6  C5  UNL d   1       2.251  -2.020   2.531  0.00  0.00     0.003 A 
ATOM      7  C6  UNL d   1       1.251  -1.854   3.490  0.00  0.00    -0.001 A 
ENDROOT
TORSDOF 0
ENDMDL
