MODEL 1
REMARK minimizedAffinity 1.36719918
REMARK minimizedRMSD -1
REMARK  0 active torsions:
REMARK  status: ('A' for Active; 'I' for Inactive)
ROOT
ATOM      1  C   UNL d   1      -4.297   1.069  -0.725  0.00  0.00     0.078 C 
ATOM      2  C1  UNL d   1      -3.409   0.311  -1.666  0.00  0.00    -0.077 A 
ATOM      3  C2  UNL d   1      -2.031   0.553  -1.710  0.00  0.00    -0.001 A 
ATOM      4  C3  UNL d   1      -1.218  -0.153  -2.599  0.00  0.00     0.003 A 
ATOM      5  C4  UNL d   1      -1.775  -1.105  -3.451  0.00  0.00    -0.005 A 
ATOM      6  C5  UNL d   1      -3.146  -1.351  -3.416  0.00  0.00     0.003 A 
ATOM      7  C6  UNL d   1      -3.960  -0.646  -2.528  0.00  0.00    -0.001 A 
ENDROOT
TORSDOF 0
ENDMDL
