MODEL 1
REMARK minimizedAffinity 5.25036049
REMARK minimizedRMSD -1
REMARK  0 active torsions:
REMARK  status: ('A' for Active; 'I' for Inactive)
ROOT
ATOM      1  C   UNL d   1       0.543  -1.810   5.444  0.00  0.00     0.078 C 
ATOM      2  C1  UNL d   1       1.818  -2.013   4.680  0.00  0.00    -0.077 A 
ATOM      3  C2  UNL d   1       2.917  -2.651   5.268  0.00  0.00    -0.001 A 
ATOM      4  C3  UNL d   1       4.100  -2.825   4.548  0.00  0.00     0.003 A 
ATOM      5  C4  UNL d   1       4.196  -2.363   3.237  0.00  0.00    -0.005 A 
ATOM      6  C5  UNL d   1       3.108  -1.726   2.644  0.00  0.00     0.003 A 
ATOM      7  C6  UNL d   1       1.924  -1.551   3.362  0.00  0.00    -0.001 A 
ENDROOT
TORSDOF 0
ENDMDL
