MODEL 1
REMARK minimizedAffinity 2.27567506
REMARK minimizedRMSD -1
REMARK  0 active torsions:
REMARK  status: ('A' for Active; 'I' for Inactive)
ROOT
ATOM      1  C   UNL d   1      -2.005  -2.563  -0.020  0.00  0.00     0.078 C 
ATOM      2  C1  UNL d   1      -2.951  -1.677  -0.774  0.00  0.00    -0.077 A 
ATOM      3  C2  UNL d   1      -4.296  -2.030  -0.936  0.00  0.00    -0.001 A 
ATOM      4  C3  UNL d   1      -5.163  -1.200  -1.648  0.00  0.00     0.003 A 
ATOM      5  C4  UNL d   1      -4.694  -0.012  -2.205  0.00  0.00    -0.005 A 
ATOM      6  C5  UNL d   1      -3.357   0.347  -2.051  0.00  0.00     0.003 A 
ATOM      7  C6  UNL d   1      -2.488  -0.482  -1.339  0.00  0.00    -0.001 A 
ENDROOT
TORSDOF 0
ENDMDL
