MODEL 1
REMARK minimizedAffinity 14.4690447
REMARK minimizedRMSD -1
REMARK  0 active torsions:
REMARK  status: ('A' for Active; 'I' for Inactive)
ROOT
ATOM      1  C   UNL d   1       1.656  -5.351   0.542  0.00  0.00     0.078 C 
ATOM      2  C1  UNL d   1       0.447  -4.516   0.243  0.00  0.00    -0.077 A 
ATOM      3  C2  UNL d   1       0.025  -3.514   1.126  0.00  0.00    -0.001 A 
ATOM      4  C3  UNL d   1      -1.108  -2.751   0.839  0.00  0.00     0.003 A 
ATOM      5  C4  UNL d   1      -1.829  -2.982  -0.331  0.00  0.00    -0.005 A 
ATOM      6  C5  UNL d   1      -1.419  -3.979  -1.214  0.00  0.00     0.003 A 
ATOM      7  C6  UNL d   1      -0.286  -4.743  -0.929  0.00  0.00    -0.001 A 
ENDROOT
TORSDOF 0
ENDMDL
