MODEL 1
REMARK minimizedAffinity 3.32356143
REMARK minimizedRMSD -1
REMARK  0 active torsions:
REMARK  status: ('A' for Active; 'I' for Inactive)
ROOT
ATOM      1  C   UNL d   1      -5.073  -2.476   0.154  0.00  0.00     0.078 C 
ATOM      2  C1  UNL d   1      -3.592  -2.694   0.067  0.00  0.00    -0.077 A 
ATOM      3  C2  UNL d   1      -2.793  -1.895  -0.760  0.00  0.00    -0.001 A 
ATOM      4  C3  UNL d   1      -1.417  -2.115  -0.839  0.00  0.00     0.003 A 
ATOM      5  C4  UNL d   1      -0.828  -3.135  -0.094  0.00  0.00    -0.005 A 
ATOM      6  C5  UNL d   1      -1.615  -3.937   0.730  0.00  0.00     0.003 A 
ATOM      7  C6  UNL d   1      -2.991  -3.718   0.810  0.00  0.00    -0.001 A 
ENDROOT
TORSDOF 0
ENDMDL
