MODEL 1
REMARK minimizedAffinity 6.65216255
REMARK minimizedRMSD -1
REMARK  0 active torsions:
REMARK  status: ('A' for Active; 'I' for Inactive)
ROOT
ATOM      1  C   UNL d   1      -3.084  -2.987   0.215  0.00  0.00     0.078 C 
ATOM      2  C1  UNL d   1      -1.717  -3.603   0.174  0.00  0.00    -0.077 A 
ATOM      3  C2  UNL d   1      -0.579  -2.817  -0.041  0.00  0.00    -0.001 A 
ATOM      4  C3  UNL d   1       0.686  -3.404  -0.087  0.00  0.00     0.003 A 
ATOM      5  C4  UNL d   1       0.825  -4.781   0.079  0.00  0.00    -0.005 A 
ATOM      6  C5  UNL d   1      -0.302  -5.572   0.291  0.00  0.00     0.003 A 
ATOM      7  C6  UNL d   1      -1.568  -4.986   0.337  0.00  0.00    -0.001 A 
ENDROOT
TORSDOF 0
ENDMDL
