MODEL 1
REMARK minimizedAffinity 7.704772
REMARK minimizedRMSD -1
REMARK  0 active torsions:
REMARK  status: ('A' for Active; 'I' for Inactive)
ROOT
ATOM      1  C   UNL d   1       0.654  -5.360   0.433  0.00  0.00     0.078 C 
ATOM      2  C1  UNL d   1      -0.516  -4.429   0.554  0.00  0.00    -0.077 A 
ATOM      3  C2  UNL d   1      -1.187  -3.963  -0.583  0.00  0.00    -0.001 A 
ATOM      4  C3  UNL d   1      -2.269  -3.090  -0.455  0.00  0.00     0.003 A 
ATOM      5  C4  UNL d   1      -2.687  -2.674   0.807  0.00  0.00    -0.005 A 
ATOM      6  C5  UNL d   1      -2.024  -3.131   1.944  0.00  0.00     0.003 A 
ATOM      7  C6  UNL d   1      -0.942  -4.004   1.819  0.00  0.00    -0.001 A 
ENDROOT
TORSDOF 0
ENDMDL
