MODEL 1
REMARK minimizedAffinity 6.0117321
REMARK minimizedRMSD -1
REMARK  0 active torsions:
REMARK  status: ('A' for Active; 'I' for Inactive)
ROOT
ATOM      1  C   UNL d   1       1.039  -6.000   0.589  0.00  0.00     0.078 C 
ATOM      2  C1  UNL d   1       0.031  -4.920   0.332  0.00  0.00    -0.077 A 
ATOM      3  C2  UNL d   1       0.238  -3.963  -0.668  0.00  0.00    -0.001 A 
ATOM      4  C3  UNL d   1      -0.704  -2.958  -0.890  0.00  0.00     0.003 A 
ATOM      5  C4  UNL d   1      -1.860  -2.899  -0.114  0.00  0.00    -0.005 A 
ATOM      6  C5  UNL d   1      -2.075  -3.846   0.885  0.00  0.00     0.003 A 
ATOM      7  C6  UNL d   1      -1.133  -4.852   1.108  0.00  0.00    -0.001 A 
ENDROOT
TORSDOF 0
ENDMDL
