MODEL 1
REMARK minimizedAffinity -3.88801646
REMARK minimizedRMSD -1
REMARK  0 active torsions:
REMARK  status: ('A' for Active; 'I' for Inactive)
ROOT
ATOM      1  C   UNL d   1       0.184   0.542  -1.229  0.00  0.00     0.078 C 
ATOM      2  C1  UNL d   1      -0.104  -0.749  -0.523  0.00  0.00    -0.077 A 
ATOM      3  C2  UNL d   1       0.856  -1.350   0.301  0.00  0.00    -0.001 A 
ATOM      4  C3  UNL d   1       0.578  -2.557   0.945  0.00  0.00     0.003 A 
ATOM      5  C4  UNL d   1      -0.659  -3.174   0.771  0.00  0.00    -0.005 A 
ATOM      6  C5  UNL d   1      -1.620  -2.585  -0.049  0.00  0.00     0.003 A 
ATOM      7  C6  UNL d   1      -1.344  -1.378  -0.694  0.00  0.00    -0.001 A 
ENDROOT
TORSDOF 0
ENDMDL
