MODEL 1
REMARK minimizedAffinity -0.474022865
REMARK minimizedRMSD -1
REMARK  0 active torsions:
REMARK  status: ('A' for Active; 'I' for Inactive)
ROOT
ATOM      1  C   UNL d   1      -5.997  -0.758   4.975  0.00  0.00     0.078 C 
ATOM      2  C1  UNL d   1      -5.985  -0.178   3.592  0.00  0.00    -0.077 A 
ATOM      3  C2  UNL d   1      -5.991   1.208   3.392  0.00  0.00    -0.001 A 
ATOM      4  C3  UNL d   1      -5.990   1.734   2.099  0.00  0.00     0.003 A 
ATOM      5  C4  UNL d   1      -5.984   0.882   0.997  0.00  0.00    -0.005 A 
ATOM      6  C5  UNL d   1      -5.981  -0.499   1.186  0.00  0.00     0.003 A 
ATOM      7  C6  UNL d   1      -5.982  -1.027   2.478  0.00  0.00    -0.001 A 
ENDROOT
TORSDOF 0
ENDMDL
