MODEL 1
REMARK minimizedAffinity 4.08047915
REMARK minimizedRMSD -1
REMARK  0 active torsions:
REMARK  status: ('A' for Active; 'I' for Inactive)
ROOT
ATOM      1  C   UNL d   1      -0.154   1.742  -0.733  0.00  0.00     0.078 C 
ATOM      2  C1  UNL d   1       0.279   1.313   0.638  0.00  0.00    -0.077 A 
ATOM      3  C2  UNL d   1       0.260   2.210   1.713  0.00  0.00    -0.001 A 
ATOM      4  C3  UNL d   1       0.675   1.800   2.981  0.00  0.00     0.003 A 
ATOM      5  C4  UNL d   1       1.113   0.493   3.186  0.00  0.00    -0.005 A 
ATOM      6  C5  UNL d   1       1.138  -0.405   2.121  0.00  0.00     0.003 A 
ATOM      7  C6  UNL d   1       0.723   0.003   0.852  0.00  0.00    -0.001 A 
ENDROOT
TORSDOF 0
ENDMDL
