MODEL 1
REMARK minimizedAffinity 20.087429
REMARK minimizedRMSD -1
REMARK  0 active torsions:
REMARK  status: ('A' for Active; 'I' for Inactive)
ROOT
ATOM      1  C   UNL d   1       5.250   4.314   1.280  0.00  0.00     0.124 A 
ATOM      2  C1  UNL d   1       4.472   3.755   2.285  0.00  0.00     0.062 A 
ATOM      3  C2  UNL d   1       3.691   2.633   2.023  0.00  0.00     0.162 A 
ATOM      4  C3  UNL d   1       3.686   2.061   0.751  0.00  0.00    -0.034 A 
ATOM      5  C4  UNL d   1       4.470   2.629  -0.254  0.00  0.00     0.162 A 
ATOM      6  C5  UNL d   1       5.249   3.750   0.012  0.00  0.00     0.062 A 
ATOM      7  F   UNL d   1       6.000   4.289  -0.959  0.00  0.00    -0.097 F 
ATOM      8  F1  UNL d   1       4.488   2.104  -1.489  0.00  0.00    -0.096 F 
ATOM      9  I   UNL d   1       2.520   0.383   0.356  0.00  0.00    -0.060 I 
ATOM     10  F2  UNL d   1       2.949   2.114   3.013  0.00  0.00    -0.096 F 
ATOM     11  F3  UNL d   1       4.471   4.298   3.511  0.00  0.00    -0.097 F 
ATOM     12  F4  UNL d   1       6.000   5.394   1.535  0.00  0.00    -0.092 F 
ENDROOT
TORSDOF 0
ENDMDL
