MODEL 1
REMARK minimizedAffinity 30.1020756
REMARK minimizedRMSD -1
REMARK  0 active torsions:
REMARK  status: ('A' for Active; 'I' for Inactive)
ROOT
ATOM      1  C   UNL d   1       0.617  -2.015  -1.527  0.00  0.00     0.124 A 
ATOM      2  C1  UNL d   1       0.651  -0.628  -1.555  0.00  0.00     0.062 A 
ATOM      3  C2  UNL d   1      -0.533   0.100  -1.636  0.00  0.00     0.162 A 
ATOM      4  C3  UNL d   1      -1.762  -0.559  -1.689  0.00  0.00    -0.034 A 
ATOM      5  C4  UNL d   1      -1.787  -1.954  -1.661  0.00  0.00     0.162 A 
ATOM      6  C5  UNL d   1      -0.602  -2.677  -1.579  0.00  0.00     0.062 A 
ATOM      7  F   UNL d   1      -0.636  -4.017  -1.552  0.00  0.00    -0.097 F 
ATOM      8  F1  UNL d   1      -2.951  -2.620  -1.710  0.00  0.00    -0.096 F 
ATOM      9  I   UNL d   1      -3.534   0.525  -1.811  0.00  0.00    -0.060 I 
ATOM     10  F2  UNL d   1      -0.470   1.439  -1.662  0.00  0.00    -0.096 F 
ATOM     11  F3  UNL d   1       1.827   0.014  -1.505  0.00  0.00    -0.097 F 
ATOM     12  F4  UNL d   1       1.758  -2.713  -1.449  0.00  0.00    -0.092 F 
ENDROOT
TORSDOF 0
ENDMDL
