MODEL 1
REMARK minimizedAffinity 23.3389397
REMARK minimizedRMSD -1
REMARK  0 active torsions:
REMARK  status: ('A' for Active; 'I' for Inactive)
ROOT
ATOM      1  C   UNL d   1      -2.373   0.393  -1.224  0.00  0.00     0.124 A 
ATOM      2  C1  UNL d   1      -3.692   0.464  -0.799  0.00  0.00     0.062 A 
ATOM      3  C2  UNL d   1      -4.730   0.418  -1.726  0.00  0.00     0.162 A 
ATOM      4  C3  UNL d   1      -4.452   0.298  -3.088  0.00  0.00    -0.034 A 
ATOM      5  C4  UNL d   1      -3.122   0.228  -3.508  0.00  0.00     0.162 A 
ATOM      6  C5  UNL d   1      -2.089   0.275  -2.577  0.00  0.00     0.062 A 
ATOM      7  F   UNL d   1      -0.815   0.207  -2.990  0.00  0.00    -0.097 F 
ATOM      8  F1  UNL d   1      -2.819   0.113  -4.809  0.00  0.00    -0.096 F 
ATOM      9  I   UNL d   1      -6.000   0.228  -4.477  0.00  0.00    -0.060 I 
ATOM     10  F2  UNL d   1      -5.995   0.488  -1.287  0.00  0.00    -0.096 F 
ATOM     11  F3  UNL d   1      -3.969   0.579   0.508  0.00  0.00    -0.097 F 
ATOM     12  F4  UNL d   1      -1.377   0.439  -0.330  0.00  0.00    -0.092 F 
ENDROOT
TORSDOF 0
ENDMDL
