MODEL 1
REMARK minimizedAffinity 8.15088367
REMARK minimizedRMSD -1
REMARK  0 active torsions:
REMARK  status: ('A' for Active; 'I' for Inactive)
ROOT
ATOM      1  C   UNL d   1       2.374  -1.360  -0.590  0.00  0.00     0.124 A 
ATOM      2  C1  UNL d   1       2.747  -0.890  -1.841  0.00  0.00     0.062 A 
ATOM      3  C2  UNL d   1       3.263   0.395  -1.981  0.00  0.00     0.162 A 
ATOM      4  C3  UNL d   1       3.411   1.219  -0.865  0.00  0.00    -0.034 A 
ATOM      5  C4  UNL d   1       3.032   0.740   0.390  0.00  0.00     0.162 A 
ATOM      6  C5  UNL d   1       2.517  -0.545   0.524  0.00  0.00     0.062 A 
ATOM      7  F   UNL d   1       2.157  -0.998   1.734  0.00  0.00    -0.097 F 
ATOM      8  F1  UNL d   1       3.161   1.506   1.483  0.00  0.00    -0.096 F 
ATOM      9  I   UNL d   1       4.182   3.141  -1.070  0.00  0.00    -0.060 I 
ATOM     10  F2  UNL d   1       3.615   0.823  -3.202  0.00  0.00    -0.096 F 
ATOM     11  F3  UNL d   1       2.609  -1.675  -2.919  0.00  0.00    -0.097 F 
ATOM     12  F4  UNL d   1       1.877  -2.597  -0.458  0.00  0.00    -0.092 F 
ENDROOT
TORSDOF 0
ENDMDL
