MODEL 1
REMARK minimizedAffinity 23.6990662
REMARK minimizedRMSD -1
REMARK  0 active torsions:
REMARK  status: ('A' for Active; 'I' for Inactive)
ROOT
ATOM      1  C   UNL d   1       2.250  -0.612  -1.127  0.00  0.00     0.124 A 
ATOM      2  C1  UNL d   1       1.385   0.447  -0.889  0.00  0.00     0.062 A 
ATOM      3  C2  UNL d   1       0.186   0.542  -1.589  0.00  0.00     0.162 A 
ATOM      4  C3  UNL d   1      -0.156  -0.426  -2.533  0.00  0.00    -0.034 A 
ATOM      5  C4  UNL d   1       0.720  -1.488  -2.768  0.00  0.00     0.162 A 
ATOM      6  C5  UNL d   1       1.917  -1.578  -2.066  0.00  0.00     0.062 A 
ATOM      7  F   UNL d   1       2.752  -2.601  -2.297  0.00  0.00    -0.097 F 
ATOM      8  F1  UNL d   1       0.422  -2.435  -3.669  0.00  0.00    -0.096 F 
ATOM      9  I   UNL d   1      -1.949  -0.288  -3.582  0.00  0.00    -0.060 I 
ATOM     10  F2  UNL d   1      -0.632   1.575  -1.338  0.00  0.00    -0.096 F 
ATOM     11  F3  UNL d   1       1.705   1.382   0.017  0.00  0.00    -0.097 F 
ATOM     12  F4  UNL d   1       3.404  -0.700  -0.453  0.00  0.00    -0.092 F 
ENDROOT
TORSDOF 0
ENDMDL
