MODEL 1
REMARK minimizedAffinity 10.6591368
REMARK minimizedRMSD -1
REMARK  1 active torsions:
REMARK  status: ('A' for Active; 'I' for Inactive)
REMARK    1  A    between atoms: C1_2  and  C2_3 
ROOT
ATOM      1  C2  UNL d   1       2.062  -0.064   1.297  0.00  0.00    -0.076 A 
ATOM      2  C3  UNL d   1       0.663   0.036   1.381  0.00  0.00     0.004 A 
ATOM      3  C4  UNL d   1      -0.100  -0.999   1.919  0.00  0.00    -0.003 A 
ATOM      4  C5  UNL d   1       0.525  -2.152   2.382  0.00  0.00     0.000 A 
ATOM      5  C6  UNL d   1       1.914  -2.262   2.322  0.00  0.00     0.000 A 
ATOM      6  C7  UNL d   1       2.699  -1.220   1.798  0.00  0.00    -0.073 A 
ATOM      7  C8  UNL d   1       4.192  -1.394   1.752  0.00  0.00     0.078 C 
ENDROOT
BRANCH   1   8
ATOM      8  C1  UNL d   1       2.835   1.079   0.679  0.00  0.00     0.053 C 
ATOM      9  C   UNL d   1       2.092   2.403   0.775  0.00  0.00     0.018 C 
ENDBRANCH   1   8
TORSDOF 1
ENDMDL
