MODEL 1
REMARK minimizedAffinity 5.77568674
REMARK minimizedRMSD -1
REMARK  1 active torsions:
REMARK  status: ('A' for Active; 'I' for Inactive)
REMARK    1  A    between atoms: C1_2  and  C2_3 
ROOT
ATOM      1  C2  UNL d   1       1.662   0.583   2.651  0.00  0.00    -0.076 A 
ATOM      2  C3  UNL d   1       0.835   0.064   3.661  0.00  0.00     0.004 A 
ATOM      3  C4  UNL d   1       0.428  -1.269   3.640  0.00  0.00    -0.003 A 
ATOM      4  C5  UNL d   1       0.843  -2.105   2.609  0.00  0.00     0.000 A 
ATOM      5  C6  UNL d   1       1.679  -1.610   1.608  0.00  0.00     0.000 A 
ATOM      6  C7  UNL d   1       2.111  -0.273   1.623  0.00  0.00    -0.073 A 
ATOM      7  C8  UNL d   1       3.007   0.208   0.515  0.00  0.00     0.078 C 
ENDROOT
BRANCH   1   8
ATOM      8  C1  UNL d   1       2.049   2.044   2.711  0.00  0.00     0.053 C 
ATOM      9  C   UNL d   1       0.842   2.968   2.672  0.00  0.00     0.018 C 
ENDBRANCH   1   8
TORSDOF 1
ENDMDL
