MODEL 1
REMARK minimizedAffinity 3.2189424
REMARK minimizedRMSD -1
REMARK  1 active torsions:
REMARK  status: ('A' for Active; 'I' for Inactive)
REMARK    1  A    between atoms: C1_2  and  C2_3 
ROOT
ATOM      1  C2  UNL d   1      -4.375  -3.568  -4.572  0.00  0.00    -0.076 A 
ATOM      2  C3  UNL d   1      -3.885  -4.830  -4.196  0.00  0.00     0.004 A 
ATOM      3  C4  UNL d   1      -4.447  -5.999  -4.707  0.00  0.00    -0.003 A 
ATOM      4  C5  UNL d   1      -5.508  -5.925  -5.602  0.00  0.00     0.000 A 
ATOM      5  C6  UNL d   1      -5.995  -4.680  -6.000  0.00  0.00     0.000 A 
ATOM      6  C7  UNL d   1      -5.430  -3.492  -5.507  0.00  0.00    -0.073 A 
ATOM      7  C8  UNL d   1      -5.999  -2.177  -5.965  0.00  0.00     0.078 C 
ENDROOT
BRANCH   1   8
ATOM      8  C1  UNL d   1      -3.744  -2.335  -3.964  0.00  0.00     0.053 C 
ATOM      9  C   UNL d   1      -4.687  -1.601  -3.023  0.00  0.00     0.018 C 
ENDBRANCH   1   8
TORSDOF 1
ENDMDL
