MODEL 1
REMARK minimizedAffinity 15.1606617
REMARK minimizedRMSD -1
REMARK  1 active torsions:
REMARK  status: ('A' for Active; 'I' for Inactive)
REMARK    1  A    between atoms: C1_2  and  C2_3 
ROOT
ATOM      1  C2  UNL d   1       1.590   0.740   1.976  0.00  0.00    -0.076 A 
ATOM      2  C3  UNL d   1       1.124   1.348   3.154  0.00  0.00     0.004 A 
ATOM      3  C4  UNL d   1       1.648   2.563   3.591  0.00  0.00    -0.003 A 
ATOM      4  C5  UNL d   1       2.647   3.191   2.855  0.00  0.00     0.000 A 
ATOM      5  C6  UNL d   1       3.109   2.611   1.674  0.00  0.00     0.000 A 
ATOM      6  C7  UNL d   1       2.579   1.394   1.211  0.00  0.00    -0.073 A 
ATOM      7  C8  UNL d   1       3.119   0.811  -0.066  0.00  0.00     0.078 C 
ENDROOT
BRANCH   1   8
ATOM      8  C1  UNL d   1       1.002  -0.592   1.566  0.00  0.00     0.053 C 
ATOM      9  C   UNL d   1       1.692  -1.766   2.243  0.00  0.00     0.018 C 
ENDBRANCH   1   8
TORSDOF 1
ENDMDL
