MODEL 1
REMARK minimizedAffinity 14.3730402
REMARK minimizedRMSD -1
REMARK  1 active torsions:
REMARK  status: ('A' for Active; 'I' for Inactive)
REMARK    1  A    between atoms: C1_2  and  C2_3 
ROOT
ATOM      1  C2  UNL d   1       3.601   5.676  -3.369  0.00  0.00    -0.076 A 
ATOM      2  C3  UNL d   1       3.472   5.655  -4.769  0.00  0.00     0.004 A 
ATOM      3  C4  UNL d   1       4.583   5.812  -5.594  0.00  0.00    -0.003 A 
ATOM      4  C5  UNL d   1       5.843   5.992  -5.034  0.00  0.00     0.000 A 
ATOM      5  C6  UNL d   1       5.993   5.998  -3.648  0.00  0.00     0.000 A 
ATOM      6  C7  UNL d   1       4.884   5.824  -2.801  0.00  0.00    -0.073 A 
ATOM      7  C8  UNL d   1       5.103   5.845  -1.313  0.00  0.00     0.078 C 
ENDROOT
BRANCH   1   8
ATOM      8  C1  UNL d   1       2.356   5.528  -2.524  0.00  0.00     0.053 C 
ATOM      9  C   UNL d   1       2.570   4.616  -1.326  0.00  0.00     0.018 C 
ENDBRANCH   1   8
TORSDOF 1
ENDMDL
