MODEL 1
REMARK minimizedAffinity 13.0482969
REMARK minimizedRMSD -1
REMARK  1 active torsions:
REMARK  status: ('A' for Active; 'I' for Inactive)
REMARK    1  A    between atoms: C1_2  and  C2_3 
ROOT
ATOM      1  C2  UNL d   1      -2.665   1.811  -0.710  0.00  0.00    -0.076 A 
ATOM      2  C3  UNL d   1      -2.040   0.716  -1.331  0.00  0.00     0.004 A 
ATOM      3  C4  UNL d   1      -2.398   0.322  -2.620  0.00  0.00    -0.003 A 
ATOM      4  C5  UNL d   1      -3.386   1.019  -3.308  0.00  0.00     0.000 A 
ATOM      5  C6  UNL d   1      -4.003   2.119  -2.713  0.00  0.00     0.000 A 
ATOM      6  C7  UNL d   1      -3.642   2.538  -1.421  0.00  0.00    -0.073 A 
ATOM      7  C8  UNL d   1      -4.345   3.728  -0.826  0.00  0.00     0.078 C 
ENDROOT
BRANCH   1   8
ATOM      8  C1  UNL d   1      -2.254   2.174   0.700  0.00  0.00     0.053 C 
ATOM      9  C   UNL d   1      -1.573   1.023   1.423  0.00  0.00     0.018 C 
ENDBRANCH   1   8
TORSDOF 1
ENDMDL
