MODEL 1
REMARK minimizedAffinity 5.32157564
REMARK minimizedRMSD -1
REMARK  1 active torsions:
REMARK  status: ('A' for Active; 'I' for Inactive)
REMARK    1  A    between atoms: C1_2  and  C2_3 
ROOT
ATOM      1  C2  UNL d   1       3.563  -2.676   3.756  0.00  0.00    -0.076 A 
ATOM      2  C3  UNL d   1       4.792  -2.676   3.072  0.00  0.00     0.004 A 
ATOM      3  C4  UNL d   1       6.000  -2.687   3.767  0.00  0.00    -0.003 A 
ATOM      4  C5  UNL d   1       5.999  -2.698   5.158  0.00  0.00     0.000 A 
ATOM      5  C6  UNL d   1       4.790  -2.715   5.852  0.00  0.00     0.000 A 
ATOM      6  C7  UNL d   1       3.563  -2.721   5.166  0.00  0.00    -0.073 A 
ATOM      7  C8  UNL d   1       2.289  -2.734   5.966  0.00  0.00     0.078 C 
ENDROOT
BRANCH   1   8
ATOM      8  C1  UNL d   1       2.285  -2.636   2.949  0.00  0.00     0.053 C 
ATOM      9  C   UNL d   1       1.856  -1.218   2.607  0.00  0.00     0.018 C 
ENDBRANCH   1   8
TORSDOF 1
ENDMDL
