MODEL 1
REMARK minimizedAffinity -3.71004343
REMARK minimizedRMSD -1
REMARK  0 active torsions:
REMARK  status: ('A' for Active; 'I' for Inactive)
ROOT
ATOM      1  C   UNL d   1      -1.090   0.054   1.172  0.00  0.00     0.172 C 
ATOM      2  N   UNL d   1      -0.552  -1.143   0.569  0.00  0.00    -0.070 N 
ATOM      3  C1  UNL d   1      -1.107  -2.393   0.644  0.00  0.00    -0.004 A 
ATOM      4  C2  UNL d   1      -0.296  -3.257  -0.059  0.00  0.00    -0.047 A 
ATOM      5  C3  UNL d   1       0.784  -2.501  -0.574  0.00  0.00    -0.047 A 
ATOM      6  C4  UNL d   1       0.600  -1.195  -0.170  0.00  0.00    -0.004 A 
ENDROOT
TORSDOF 0
ENDMDL
