MODEL 1
REMARK minimizedAffinity -3.45994163
REMARK minimizedRMSD -1
REMARK  0 active torsions:
REMARK  status: ('A' for Active; 'I' for Inactive)
ROOT
ATOM      1  C   UNL d   1       0.650   0.812  -0.026  0.00  0.00     0.172 C 
ATOM      2  N   UNL d   1       0.269  -0.562   0.198  0.00  0.00    -0.070 N 
ATOM      3  C1  UNL d   1      -0.981  -0.997   0.550  0.00  0.00    -0.004 A 
ATOM      4  C2  UNL d   1      -0.933  -2.369   0.666  0.00  0.00    -0.047 A 
ATOM      5  C3  UNL d   1       0.392  -2.773   0.375  0.00  0.00    -0.047 A 
ATOM      6  C4  UNL d   1       1.115  -1.635   0.088  0.00  0.00    -0.004 A 
ENDROOT
TORSDOF 0
ENDMDL
