MODEL 1
REMARK minimizedAffinity -2.60217142
REMARK minimizedRMSD -1
REMARK  0 active torsions:
REMARK  status: ('A' for Active; 'I' for Inactive)
ROOT
ATOM      1  C   UNL d   1      -1.164  -2.519   0.600  0.00  0.00     0.172 C 
ATOM      2  N   UNL d   1      -0.487  -1.266   0.363  0.00  0.00    -0.070 N 
ATOM      3  C1  UNL d   1      -0.956  -0.027   0.707  0.00  0.00    -0.004 A 
ATOM      4  C2  UNL d   1      -0.020   0.904   0.311  0.00  0.00    -0.047 A 
ATOM      5  C3  UNL d   1       1.048   0.200  -0.293  0.00  0.00    -0.047 A 
ATOM      6  C4  UNL d   1       0.734  -1.142  -0.248  0.00  0.00    -0.004 A 
ENDROOT
TORSDOF 0
ENDMDL
