MODEL 1
REMARK minimizedAffinity -3.34373879
REMARK minimizedRMSD -1
REMARK  0 active torsions:
REMARK  status: ('A' for Active; 'I' for Inactive)
ROOT
ATOM      1  C   UNL d   1       0.080   1.119  -0.185  0.00  0.00     0.172 C 
ATOM      2  N   UNL d   1      -0.183  -0.284   0.033  0.00  0.00    -0.070 N 
ATOM      3  C1  UNL d   1       0.346  -1.318  -0.693  0.00  0.00    -0.004 A 
ATOM      4  C2  UNL d   1      -0.148  -2.495  -0.174  0.00  0.00    -0.047 A 
ATOM      5  C3  UNL d   1      -1.005  -2.157   0.900  0.00  0.00    -0.047 A 
ATOM      6  C4  UNL d   1      -1.008  -0.782   1.006  0.00  0.00    -0.004 A 
ENDROOT
TORSDOF 0
ENDMDL
