MODEL 1
REMARK minimizedAffinity -2.23312616
REMARK minimizedRMSD -1
REMARK  0 active torsions:
REMARK  status: ('A' for Active; 'I' for Inactive)
ROOT
ATOM      1  C   UNL d   1      -1.215   0.375   0.816  0.00  0.00     0.172 C 
ATOM      2  N   UNL d   1      -0.505  -0.804   0.379  0.00  0.00    -0.070 N 
ATOM      3  C1  UNL d   1      -0.656  -2.064   0.895  0.00  0.00    -0.004 A 
ATOM      4  C2  UNL d   1       0.195  -2.904   0.210  0.00  0.00    -0.047 A 
ATOM      5  C3  UNL d   1       0.882  -2.123  -0.749  0.00  0.00    -0.047 A 
ATOM      6  C4  UNL d   1       0.430  -0.826  -0.622  0.00  0.00    -0.004 A 
ENDROOT
TORSDOF 0
ENDMDL
