MODEL 1
REMARK minimizedAffinity -3.62333226
REMARK minimizedRMSD -1
REMARK  0 active torsions:
REMARK  status: ('A' for Active; 'I' for Inactive)
ROOT
ATOM      1  C   UNL d   1       0.226   1.152  -0.848  0.00  0.00     0.172 C 
ATOM      2  N   UNL d   1       0.311  -0.234  -0.453  0.00  0.00    -0.070 N 
ATOM      3  C1  UNL d   1       0.947  -1.225  -1.151  0.00  0.00    -0.004 A 
ATOM      4  C2  UNL d   1       0.801  -2.399  -0.444  0.00  0.00    -0.047 A 
ATOM      5  C3  UNL d   1       0.050  -2.104   0.718  0.00  0.00    -0.047 A 
ATOM      6  C4  UNL d   1      -0.240  -0.756   0.688  0.00  0.00    -0.004 A 
ENDROOT
TORSDOF 0
ENDMDL
