MODEL 1
REMARK minimizedAffinity -4.2666111
REMARK minimizedRMSD -1
REMARK  0 active torsions:
REMARK  status: ('A' for Active; 'I' for Inactive)
ROOT
ATOM      1  C   UNL d   1      -0.458   0.422  -0.190  0.00  0.00     0.172 C 
ATOM      2  N   UNL d   1       0.021  -0.838  -0.709  0.00  0.00    -0.070 N 
ATOM      3  C1  UNL d   1       0.144  -2.000   0.004  0.00  0.00    -0.004 A 
ATOM      4  C2  UNL d   1       0.633  -2.968  -0.847  0.00  0.00    -0.047 A 
ATOM      5  C3  UNL d   1       0.811  -2.366  -2.115  0.00  0.00    -0.047 A 
ATOM      6  C4  UNL d   1       0.424  -1.047  -2.001  0.00  0.00    -0.004 A 
ENDROOT
TORSDOF 0
ENDMDL
