MODEL 1
REMARK minimizedAffinity -2.80395889
REMARK minimizedRMSD -1
REMARK  0 active torsions:
REMARK  status: ('A' for Active; 'I' for Inactive)
ROOT
ATOM      1  C   UNL d   1      -0.232   1.415  -0.666  0.00  0.00     0.172 C 
ATOM      2  N   UNL d   1       0.173   0.031  -0.595  0.00  0.00    -0.070 N 
ATOM      3  C1  UNL d   1       0.851  -0.653  -1.569  0.00  0.00    -0.004 A 
ATOM      4  C2  UNL d   1       1.047  -1.942  -1.120  0.00  0.00    -0.047 A 
ATOM      5  C3  UNL d   1       0.465  -2.035   0.167  0.00  0.00    -0.047 A 
ATOM      6  C4  UNL d   1      -0.069  -0.800   0.467  0.00  0.00    -0.004 A 
ENDROOT
TORSDOF 0
ENDMDL
