MODEL 1
REMARK minimizedAffinity -3.23759723
REMARK minimizedRMSD -1
REMARK  0 active torsions:
REMARK  status: ('A' for Active; 'I' for Inactive)
ROOT
ATOM      1  C   UNL d   1       0.234   1.381   0.032  0.00  0.00     0.172 C 
ATOM      2  N   UNL d   1      -0.222   0.012   0.095  0.00  0.00    -0.070 N 
ATOM      3  C1  UNL d   1       0.076  -0.971  -0.811  0.00  0.00    -0.004 A 
ATOM      4  C2  UNL d   1      -0.545  -2.129  -0.396  0.00  0.00    -0.047 A 
ATOM      5  C3  UNL d   1      -1.241  -1.832   0.800  0.00  0.00    -0.047 A 
ATOM      6  C4  UNL d   1      -1.024  -0.499   1.081  0.00  0.00    -0.004 A 
ENDROOT
TORSDOF 0
ENDMDL
