MODEL 1
REMARK minimizedAffinity -3.4972775
REMARK minimizedRMSD -1
REMARK  0 active torsions:
REMARK  status: ('A' for Active; 'I' for Inactive)
ROOT
ATOM      1  C   UNL d   1      -1.432  -0.106   0.311  0.00  0.00     0.172 C 
ATOM      2  N   UNL d   1      -0.405  -1.117   0.413  0.00  0.00    -0.070 N 
ATOM      3  C1  UNL d   1      -0.601  -2.468   0.298  0.00  0.00    -0.004 A 
ATOM      4  C2  UNL d   1       0.621  -3.086   0.455  0.00  0.00    -0.047 A 
ATOM      5  C3  UNL d   1       1.584  -2.071   0.672  0.00  0.00    -0.047 A 
ATOM      6  C4  UNL d   1       0.921  -0.863   0.641  0.00  0.00    -0.004 A 
ENDROOT
TORSDOF 0
ENDMDL
