MODEL 1
REMARK minimizedAffinity -3.0623858
REMARK minimizedRMSD -1
REMARK  0 active torsions:
REMARK  status: ('A' for Active; 'I' for Inactive)
ROOT
ATOM      1  C   UNL d   1       0.777  -0.646  -1.786  0.00  0.00     0.172 C 
ATOM      2  N   UNL d   1       0.278  -1.139  -0.524  0.00  0.00    -0.070 N 
ATOM      3  C1  UNL d   1       0.400  -2.424  -0.064  0.00  0.00    -0.004 A 
ATOM      4  C2  UNL d   1      -0.203  -2.488   1.174  0.00  0.00    -0.047 A 
ATOM      5  C3  UNL d   1      -0.704  -1.197   1.468  0.00  0.00    -0.047 A 
ATOM      6  C4  UNL d   1      -0.392  -0.382   0.400  0.00  0.00    -0.004 A 
ENDROOT
TORSDOF 0
ENDMDL
