MODEL 1
REMARK minimizedAffinity -4.19486618
REMARK minimizedRMSD -1
REMARK  0 active torsions:
REMARK  status: ('A' for Active; 'I' for Inactive)
ROOT
ATOM      1  C   UNL d   1       0.362   0.421  -0.205  0.00  0.00     0.172 C 
ATOM      2  N   UNL d   1       0.348  -1.006  -0.427  0.00  0.00    -0.070 N 
ATOM      3  C1  UNL d   1       0.402  -1.624  -1.648  0.00  0.00    -0.004 A 
ATOM      4  C2  UNL d   1       0.367  -2.985  -1.433  0.00  0.00    -0.047 A 
ATOM      5  C3  UNL d   1       0.288  -3.192  -0.036  0.00  0.00    -0.047 A 
ATOM      6  C4  UNL d   1       0.279  -1.950   0.563  0.00  0.00    -0.004 A 
ENDROOT
TORSDOF 0
ENDMDL
