MODEL 1
REMARK minimizedAffinity -3.2235589
REMARK minimizedRMSD -1
REMARK  0 active torsions:
REMARK  status: ('A' for Active; 'I' for Inactive)
ROOT
ATOM      1  C   UNL d   1       0.316   0.559   0.366  0.00  0.00     0.172 C 
ATOM      2  N   UNL d   1       0.258  -0.883   0.316  0.00  0.00    -0.070 N 
ATOM      3  C1  UNL d   1      -0.885  -1.637   0.321  0.00  0.00    -0.004 A 
ATOM      4  C2  UNL d   1      -0.517  -2.963   0.263  0.00  0.00    -0.047 A 
ATOM      5  C3  UNL d   1       0.897  -3.009   0.223  0.00  0.00    -0.047 A 
ATOM      6  C4  UNL d   1       1.351  -1.707   0.258  0.00  0.00    -0.004 A 
ENDROOT
TORSDOF 0
ENDMDL
