MODEL 1
REMARK minimizedAffinity -2.5896647
REMARK minimizedRMSD -1
REMARK  0 active torsions:
REMARK  status: ('A' for Active; 'I' for Inactive)
ROOT
ATOM      1  C   UNL d   1      -0.309   1.182  -0.140  0.00  0.00     0.172 C 
ATOM      2  N   UNL d   1      -0.382  -0.208   0.244  0.00  0.00    -0.070 N 
ATOM      3  C1  UNL d   1       0.365  -1.224  -0.291  0.00  0.00    -0.004 A 
ATOM      4  C2  UNL d   1       0.001  -2.393   0.341  0.00  0.00    -0.047 A 
ATOM      5  C3  UNL d   1      -1.000  -2.069   1.287  0.00  0.00    -0.047 A 
ATOM      6  C4  UNL d   1      -1.218  -0.710   1.206  0.00  0.00    -0.004 A 
ENDROOT
TORSDOF 0
ENDMDL
