MODEL 1
REMARK minimizedAffinity -3.14655113
REMARK minimizedRMSD -1
REMARK  0 active torsions:
REMARK  status: ('A' for Active; 'I' for Inactive)
ROOT
ATOM      1  C   UNL d   1       0.165   1.043  -0.954  0.00  0.00     0.172 C 
ATOM      2  N   UNL d   1       0.077  -0.261  -0.341  0.00  0.00    -0.070 N 
ATOM      3  C1  UNL d   1      -0.868  -0.653   0.569  0.00  0.00    -0.004 A 
ATOM      4  C2  UNL d   1      -0.610  -1.963   0.909  0.00  0.00    -0.047 A 
ATOM      5  C3  UNL d   1       0.531  -2.373   0.178  0.00  0.00    -0.047 A 
ATOM      6  C4  UNL d   1       0.935  -1.300  -0.588  0.00  0.00    -0.004 A 
ENDROOT
TORSDOF 0
ENDMDL
