MODEL 1
REMARK minimizedAffinity -2.39287806
REMARK minimizedRMSD -1
REMARK  0 active torsions:
REMARK  status: ('A' for Active; 'I' for Inactive)
ROOT
ATOM      1  C   UNL d   1       0.428   0.484  -0.486  0.00  0.00     0.172 C 
ATOM      2  N   UNL d   1       0.080  -0.813   0.047  0.00  0.00    -0.070 N 
ATOM      3  C1  UNL d   1      -1.040  -1.099   0.781  0.00  0.00    -0.004 A 
ATOM      4  C2  UNL d   1      -1.006  -2.440   1.097  0.00  0.00    -0.047 A 
ATOM      5  C3  UNL d   1       0.176  -2.978   0.534  0.00  0.00    -0.047 A 
ATOM      6  C4  UNL d   1       0.829  -1.949  -0.111  0.00  0.00    -0.004 A 
ENDROOT
TORSDOF 0
ENDMDL
