MODEL 1
REMARK minimizedAffinity -2.70565367
REMARK minimizedRMSD -1
REMARK  0 active torsions:
REMARK  status: ('A' for Active; 'I' for Inactive)
ROOT
ATOM      1  C   UNL d   1       0.454   1.076  -0.184  0.00  0.00     0.172 C 
ATOM      2  N   UNL d   1       0.199  -0.312   0.121  0.00  0.00    -0.070 N 
ATOM      3  C1  UNL d   1       0.963  -1.372  -0.286  0.00  0.00    -0.004 A 
ATOM      4  C2  UNL d   1       0.388  -2.522   0.210  0.00  0.00    -0.047 A 
ATOM      5  C3  UNL d   1      -0.762  -2.140   0.939  0.00  0.00    -0.047 A 
ATOM      6  C4  UNL d   1      -0.856  -0.766   0.868  0.00  0.00    -0.004 A 
ENDROOT
TORSDOF 0
ENDMDL
