MODEL 1
REMARK minimizedAffinity -2.65725613
REMARK minimizedRMSD -1
REMARK  0 active torsions:
REMARK  status: ('A' for Active; 'I' for Inactive)
ROOT
ATOM      1  C   UNL d   1      -3.049   0.459   2.221  0.00  0.00     0.078 C 
ATOM      2  C1  UNL d   1      -1.626   0.377   1.756  0.00  0.00    -0.077 A 
ATOM      3  C2  UNL d   1      -0.565   0.460   2.665  0.00  0.00    -0.001 A 
ATOM      4  C3  UNL d   1       0.756   0.391   2.217  0.00  0.00     0.003 A 
ATOM      5  C4  UNL d   1       1.026   0.241   0.858  0.00  0.00    -0.005 A 
ATOM      6  C5  UNL d   1      -0.023   0.160  -0.054  0.00  0.00     0.003 A 
ATOM      7  C6  UNL d   1      -1.344   0.228   0.392  0.00  0.00    -0.001 A 
ENDROOT
TORSDOF 0
ENDMDL
