MODEL 1
REMARK minimizedAffinity -1.08151197
REMARK minimizedRMSD -1
REMARK  0 active torsions:
REMARK  status: ('A' for Active; 'I' for Inactive)
ROOT
ATOM      1  C   UNL d   1      -0.788  -0.001   3.118  0.00  0.00     0.078 C 
ATOM      2  C1  UNL d   1      -0.660   0.078   1.626  0.00  0.00    -0.077 A 
ATOM      3  C2  UNL d   1       0.585   0.282   1.019  0.00  0.00    -0.001 A 
ATOM      4  C3  UNL d   1       0.687   0.363  -0.371  0.00  0.00     0.003 A 
ATOM      5  C4  UNL d   1      -0.452   0.242  -1.165  0.00  0.00    -0.005 A 
ATOM      6  C5  UNL d   1      -1.695   0.041  -0.569  0.00  0.00     0.003 A 
ATOM      7  C6  UNL d   1      -1.800  -0.040   0.820  0.00  0.00    -0.001 A 
ENDROOT
TORSDOF 0
ENDMDL
