MODEL 1
REMARK minimizedAffinity -4.79905367
REMARK minimizedRMSD -1
REMARK  0 active torsions:
REMARK  status: ('A' for Active; 'I' for Inactive)
ROOT
ATOM      1  C   UNL d   1      -0.001   0.010  -1.046  0.00  0.00     0.078 C 
ATOM      2  C1  UNL d   1      -0.499   0.031   0.368  0.00  0.00    -0.077 A 
ATOM      3  C2  UNL d   1      -1.840  -0.244   0.665  0.00  0.00    -0.001 A 
ATOM      4  C3  UNL d   1      -2.292  -0.211   1.985  0.00  0.00     0.003 A 
ATOM      5  C4  UNL d   1      -1.411   0.098   3.019  0.00  0.00    -0.005 A 
ATOM      6  C5  UNL d   1      -0.076   0.375   2.734  0.00  0.00     0.003 A 
ATOM      7  C6  UNL d   1       0.379   0.343   1.414  0.00  0.00    -0.001 A 
ENDROOT
TORSDOF 0
ENDMDL
