MODEL 1
REMARK minimizedAffinity -5.23260498
REMARK minimizedRMSD -1
REMARK  0 active torsions:
REMARK  status: ('A' for Active; 'I' for Inactive)
ROOT
ATOM      1  C   UNL d   1      -0.037   0.589  -1.450  0.00  0.00     0.078 C 
ATOM      2  C1  UNL d   1      -0.210   0.254   0.002  0.00  0.00    -0.077 A 
ATOM      3  C2  UNL d   1      -1.456  -0.137   0.508  0.00  0.00    -0.001 A 
ATOM      4  C3  UNL d   1      -1.605  -0.437   1.863  0.00  0.00     0.003 A 
ATOM      5  C4  UNL d   1      -0.512  -0.348   2.723  0.00  0.00    -0.005 A 
ATOM      6  C5  UNL d   1       0.731   0.042   2.229  0.00  0.00     0.003 A 
ATOM      7  C6  UNL d   1       0.882   0.342   0.874  0.00  0.00    -0.001 A 
ENDROOT
TORSDOF 0
ENDMDL
