MODEL 1
REMARK minimizedAffinity -3.70833492
REMARK minimizedRMSD -1
REMARK  0 active torsions:
REMARK  status: ('A' for Active; 'I' for Inactive)
ROOT
ATOM      1  C   UNL d   1      -3.097   0.209   1.238  0.00  0.00     0.078 C 
ATOM      2  C1  UNL d   1      -1.605   0.293   1.107  0.00  0.00    -0.077 A 
ATOM      3  C2  UNL d   1      -0.788   0.407   2.238  0.00  0.00    -0.001 A 
ATOM      4  C3  UNL d   1       0.599   0.494   2.100  0.00  0.00     0.003 A 
ATOM      5  C4  UNL d   1       1.179   0.468   0.834  0.00  0.00    -0.005 A 
ATOM      6  C5  UNL d   1       0.374   0.357  -0.297  0.00  0.00     0.003 A 
ATOM      7  C6  UNL d   1      -1.013   0.270  -0.162  0.00  0.00    -0.001 A 
ENDROOT
TORSDOF 0
ENDMDL
