MODEL 1
REMARK minimizedAffinity -3.08620501
REMARK minimizedRMSD -1
REMARK  0 active torsions:
REMARK  status: ('A' for Active; 'I' for Inactive)
ROOT
ATOM      1  C   UNL d   1       0.508   0.710  -0.429  0.00  0.00     0.078 C 
ATOM      2  C1  UNL d   1       0.832  -0.033  -1.690  0.00  0.00    -0.077 A 
ATOM      3  C2  UNL d   1       0.122  -1.185  -2.051  0.00  0.00    -0.001 A 
ATOM      4  C3  UNL d   1       0.441  -1.873  -3.223  0.00  0.00     0.003 A 
ATOM      5  C4  UNL d   1       1.471  -1.417  -4.043  0.00  0.00    -0.005 A 
ATOM      6  C5  UNL d   1       2.185  -0.274  -3.691  0.00  0.00     0.003 A 
ATOM      7  C6  UNL d   1       1.868   0.415  -2.520  0.00  0.00    -0.001 A 
ENDROOT
TORSDOF 0
ENDMDL
