MODEL 1
REMARK minimizedAffinity -2.75999594
REMARK minimizedRMSD -1
REMARK  0 active torsions:
REMARK  status: ('A' for Active; 'I' for Inactive)
ROOT
ATOM      1  C   UNL d   1       3.226  -0.775  -3.306  0.00  0.00     0.078 C 
ATOM      2  C1  UNL d   1       1.743  -0.763  -3.086  0.00  0.00    -0.077 A 
ATOM      3  C2  UNL d   1       0.864  -1.223  -4.073  0.00  0.00    -0.001 A 
ATOM      4  C3  UNL d   1      -0.515  -1.196  -3.858  0.00  0.00     0.003 A 
ATOM      5  C4  UNL d   1      -1.027  -0.709  -2.657  0.00  0.00    -0.005 A 
ATOM      6  C5  UNL d   1      -0.159  -0.247  -1.670  0.00  0.00     0.003 A 
ATOM      7  C6  UNL d   1       1.220  -0.273  -1.883  0.00  0.00    -0.001 A 
ENDROOT
TORSDOF 0
ENDMDL
