MODEL 1
REMARK minimizedAffinity -3.42594647
REMARK minimizedRMSD -1
REMARK  0 active torsions:
REMARK  status: ('A' for Active; 'I' for Inactive)
ROOT
ATOM      1  C   UNL d   1      -0.414   0.229  -1.227  0.00  0.00     0.078 C 
ATOM      2  C1  UNL d   1      -0.186   0.178   0.255  0.00  0.00    -0.077 A 
ATOM      3  C2  UNL d   1       1.109   0.136   0.784  0.00  0.00    -0.001 A 
ATOM      4  C3  UNL d   1       1.306   0.079   2.165  0.00  0.00     0.003 A 
ATOM      5  C4  UNL d   1       0.212   0.063   3.028  0.00  0.00    -0.005 A 
ATOM      6  C5  UNL d   1      -1.081   0.103   2.510  0.00  0.00     0.003 A 
ATOM      7  C6  UNL d   1      -1.280   0.160   1.129  0.00  0.00    -0.001 A 
ENDROOT
TORSDOF 0
ENDMDL
