MODEL 1
REMARK minimizedAffinity -2.72339249
REMARK minimizedRMSD -1
REMARK  0 active torsions:
REMARK  status: ('A' for Active; 'I' for Inactive)
ROOT
ATOM      1  C   UNL d   1       0.892   1.032  -0.029  0.00  0.00     0.078 C 
ATOM      2  C1  UNL d   1       0.928   0.359  -1.369  0.00  0.00    -0.077 A 
ATOM      3  C2  UNL d   1      -0.220  -0.231  -1.911  0.00  0.00    -0.001 A 
ATOM      4  C3  UNL d   1      -0.169  -0.862  -3.155  0.00  0.00     0.003 A 
ATOM      5  C4  UNL d   1       1.028  -0.911  -3.866  0.00  0.00    -0.005 A 
ATOM      6  C5  UNL d   1       2.176  -0.328  -3.334  0.00  0.00     0.003 A 
ATOM      7  C6  UNL d   1       2.127   0.304  -2.091  0.00  0.00    -0.001 A 
ENDROOT
TORSDOF 0
ENDMDL
