MODEL 1
REMARK minimizedAffinity -3.62398887
REMARK minimizedRMSD -1
REMARK  0 active torsions:
REMARK  status: ('A' for Active; 'I' for Inactive)
ROOT
ATOM      1  C   UNL d   1      -0.051   0.573  -1.061  0.00  0.00     0.078 C 
ATOM      2  C1  UNL d   1      -0.423   0.479   0.389  0.00  0.00    -0.077 A 
ATOM      3  C2  UNL d   1      -1.750   0.646   0.805  0.00  0.00    -0.001 A 
ATOM      4  C3  UNL d   1      -2.080   0.566   2.159  0.00  0.00     0.003 A 
ATOM      5  C4  UNL d   1      -1.089   0.319   3.108  0.00  0.00    -0.005 A 
ATOM      6  C5  UNL d   1       0.234   0.154   2.703  0.00  0.00     0.003 A 
ATOM      7  C6  UNL d   1       0.566   0.234   1.350  0.00  0.00    -0.001 A 
ENDROOT
TORSDOF 0
ENDMDL
