MODEL 1
REMARK minimizedAffinity -3.42247796
REMARK minimizedRMSD -1
REMARK  0 active torsions:
REMARK  status: ('A' for Active; 'I' for Inactive)
ROOT
ATOM      1  C   UNL d   1       0.124   0.430  -0.035  0.00  0.00     0.078 C 
ATOM      2  C1  UNL d   1       0.351  -0.220  -1.367  0.00  0.00    -0.077 A 
ATOM      3  C2  UNL d   1      -0.618  -1.054  -1.937  0.00  0.00    -0.001 A 
ATOM      4  C3  UNL d   1      -0.389  -1.661  -3.173  0.00  0.00     0.003 A 
ATOM      5  C4  UNL d   1       0.810  -1.441  -3.849  0.00  0.00    -0.005 A 
ATOM      6  C5  UNL d   1       1.781  -0.614  -3.289  0.00  0.00     0.003 A 
ATOM      7  C6  UNL d   1       1.554  -0.007  -2.053  0.00  0.00    -0.001 A 
ENDROOT
TORSDOF 0
ENDMDL
