MODEL 1
REMARK minimizedAffinity -3.10125017
REMARK minimizedRMSD -1
REMARK  0 active torsions:
REMARK  status: ('A' for Active; 'I' for Inactive)
ROOT
ATOM      1  C   UNL d   1       0.596   0.515   0.441  0.00  0.00     0.078 C 
ATOM      2  C1  UNL d   1       0.605   0.026  -0.977  0.00  0.00    -0.077 A 
ATOM      3  C2  UNL d   1      -0.393  -0.835  -1.449  0.00  0.00    -0.001 A 
ATOM      4  C3  UNL d   1      -0.367  -1.289  -2.769  0.00  0.00     0.003 A 
ATOM      5  C4  UNL d   1       0.656  -0.889  -3.626  0.00  0.00    -0.005 A 
ATOM      6  C5  UNL d   1       1.655  -0.034  -3.165  0.00  0.00     0.003 A 
ATOM      7  C6  UNL d   1       1.630   0.421  -1.846  0.00  0.00    -0.001 A 
ENDROOT
TORSDOF 0
ENDMDL
