MODEL 1
REMARK minimizedAffinity -4.31264782
REMARK minimizedRMSD -1
REMARK  0 active torsions:
REMARK  status: ('A' for Active; 'I' for Inactive)
ROOT
ATOM      1  C   UNL d   1       0.285   0.606  -1.731  0.00  0.00     0.078 C 
ATOM      2  C1  UNL d   1       0.294   0.264  -0.271  0.00  0.00    -0.077 A 
ATOM      3  C2  UNL d   1      -0.870  -0.173   0.375  0.00  0.00    -0.001 A 
ATOM      4  C3  UNL d   1      -0.849  -0.479   1.736  0.00  0.00     0.003 A 
ATOM      5  C4  UNL d   1       0.332  -0.350   2.465  0.00  0.00    -0.005 A 
ATOM      6  C5  UNL d   1       1.494   0.086   1.832  0.00  0.00     0.003 A 
ATOM      7  C6  UNL d   1       1.475   0.392   0.470  0.00  0.00    -0.001 A 
ENDROOT
TORSDOF 0
ENDMDL
