MODEL 1
REMARK minimizedAffinity -4.72554541
REMARK minimizedRMSD -1
REMARK  0 active torsions:
REMARK  status: ('A' for Active; 'I' for Inactive)
ROOT
ATOM      1  C   UNL d   1       0.536   0.586  -1.481  0.00  0.00     0.078 C 
ATOM      2  C1  UNL d   1      -0.251   0.682  -0.208  0.00  0.00    -0.077 A 
ATOM      3  C2  UNL d   1       0.370   0.520   1.037  0.00  0.00    -0.001 A 
ATOM      4  C3  UNL d   1      -0.377   0.602   2.214  0.00  0.00     0.003 A 
ATOM      5  C4  UNL d   1      -1.748   0.844   2.157  0.00  0.00    -0.005 A 
ATOM      6  C5  UNL d   1      -2.374   1.004   0.923  0.00  0.00     0.003 A 
ATOM      7  C6  UNL d   1      -1.629   0.923  -0.255  0.00  0.00    -0.001 A 
ENDROOT
TORSDOF 0
ENDMDL
