MODEL 1
REMARK minimizedAffinity -2.6348424
REMARK minimizedRMSD -1
REMARK  0 active torsions:
REMARK  status: ('A' for Active; 'I' for Inactive)
ROOT
ATOM      1  C   UNL d   1      -3.075   0.468   1.167  0.00  0.00     0.078 C 
ATOM      2  C1  UNL d   1      -1.598   0.443   0.905  0.00  0.00    -0.077 A 
ATOM      3  C2  UNL d   1      -1.098   0.396  -0.402  0.00  0.00    -0.001 A 
ATOM      4  C3  UNL d   1       0.278   0.364  -0.630  0.00  0.00     0.003 A 
ATOM      5  C4  UNL d   1       1.166   0.378   0.443  0.00  0.00    -0.005 A 
ATOM      6  C5  UNL d   1       0.678   0.422   1.748  0.00  0.00     0.003 A 
ATOM      7  C6  UNL d   1      -0.698   0.454   1.978  0.00  0.00    -0.001 A 
ENDROOT
TORSDOF 0
ENDMDL
