MODEL 1
REMARK minimizedAffinity -1.82347286
REMARK minimizedRMSD -1
REMARK  0 active torsions:
REMARK  status: ('A' for Active; 'I' for Inactive)
ROOT
ATOM      1  C   UNL d   1      -3.270   0.416   2.519  0.00  0.00     0.078 C 
ATOM      2  C1  UNL d   1      -2.351   1.485   3.030  0.00  0.00    -0.077 A 
ATOM      3  C2  UNL d   1      -2.841   2.748   3.385  0.00  0.00    -0.001 A 
ATOM      4  C3  UNL d   1      -1.972   3.737   3.849  0.00  0.00     0.003 A 
ATOM      5  C4  UNL d   1      -0.608   3.473   3.963  0.00  0.00    -0.005 A 
ATOM      6  C5  UNL d   1      -0.112   2.220   3.611  0.00  0.00     0.003 A 
ATOM      7  C6  UNL d   1      -0.979   1.230   3.145  0.00  0.00    -0.001 A 
ENDROOT
TORSDOF 0
ENDMDL
