MODEL 1
REMARK minimizedAffinity -1.03863657
REMARK minimizedRMSD -1
REMARK  0 active torsions:
REMARK  status: ('A' for Active; 'I' for Inactive)
ROOT
ATOM      1  C   UNL d   1       0.204   0.145  -0.113  0.00  0.00     0.078 C 
ATOM      2  C1  UNL d   1       0.606  -0.319  -1.481  0.00  0.00    -0.077 A 
ATOM      3  C2  UNL d   1      -0.259  -1.094  -2.262  0.00  0.00    -0.001 A 
ATOM      4  C3  UNL d   1       0.133  -1.528  -3.530  0.00  0.00     0.003 A 
ATOM      5  C4  UNL d   1       1.391  -1.192  -4.027  0.00  0.00    -0.005 A 
ATOM      6  C5  UNL d   1       2.260  -0.423  -3.255  0.00  0.00     0.003 A 
ATOM      7  C6  UNL d   1       1.870   0.011  -1.987  0.00  0.00    -0.001 A 
ENDROOT
TORSDOF 0
ENDMDL
