MODEL 1
REMARK minimizedAffinity -1.7220062
REMARK minimizedRMSD -1
REMARK  0 active torsions:
REMARK  status: ('A' for Active; 'I' for Inactive)
ROOT
ATOM      1  C   UNL d   1      -0.026   0.506  -0.371  0.00  0.00     0.078 C 
ATOM      2  C1  UNL d   1       0.376  -0.177  -1.644  0.00  0.00    -0.077 A 
ATOM      3  C2  UNL d   1      -0.456  -1.129  -2.245  0.00  0.00    -0.001 A 
ATOM      4  C3  UNL d   1      -0.065  -1.764  -3.425  0.00  0.00     0.003 A 
ATOM      5  C4  UNL d   1       1.160  -1.454  -4.014  0.00  0.00    -0.005 A 
ATOM      6  C5  UNL d   1       1.995  -0.509  -3.421  0.00  0.00     0.003 A 
ATOM      7  C6  UNL d   1       1.606   0.126  -2.241  0.00  0.00    -0.001 A 
ENDROOT
TORSDOF 0
ENDMDL
