MODEL 1
REMARK minimizedAffinity -2.46547437
REMARK minimizedRMSD -1
REMARK  0 active torsions:
REMARK  status: ('A' for Active; 'I' for Inactive)
ROOT
ATOM      1  C   UNL d   1      -2.828   0.738   1.148  0.00  0.00     0.078 C 
ATOM      2  C1  UNL d   1      -1.363   0.423   1.109  0.00  0.00    -0.077 A 
ATOM      3  C2  UNL d   1      -0.685   0.291  -0.109  0.00  0.00    -0.001 A 
ATOM      4  C3  UNL d   1       0.677  -0.012  -0.129  0.00  0.00     0.003 A 
ATOM      5  C4  UNL d   1       1.373  -0.188   1.065  0.00  0.00    -0.005 A 
ATOM      6  C5  UNL d   1       0.706  -0.061   2.282  0.00  0.00     0.003 A 
ATOM      7  C6  UNL d   1      -0.656   0.242   2.305  0.00  0.00    -0.001 A 
ENDROOT
TORSDOF 0
ENDMDL
