MODEL 1
REMARK minimizedAffinity -4.00908661
REMARK minimizedRMSD -1
REMARK  0 active torsions:
REMARK  status: ('A' for Active; 'I' for Inactive)
ROOT
ATOM      1  C   UNL d   1      -3.076   0.897   2.272  0.00  0.00     0.078 C 
ATOM      2  C1  UNL d   1      -1.681   0.503   1.886  0.00  0.00    -0.077 A 
ATOM      3  C2  UNL d   1      -1.324   0.337   0.543  0.00  0.00    -0.001 A 
ATOM      4  C3  UNL d   1      -0.025  -0.039   0.199  0.00  0.00     0.003 A 
ATOM      5  C4  UNL d   1       0.928  -0.253   1.193  0.00  0.00    -0.005 A 
ATOM      6  C5  UNL d   1       0.582  -0.091   2.533  0.00  0.00     0.003 A 
ATOM      7  C6  UNL d   1      -0.717   0.284   2.879  0.00  0.00    -0.001 A 
ENDROOT
TORSDOF 0
ENDMDL
