MODEL 1
REMARK minimizedAffinity -1.40590537
REMARK minimizedRMSD -1
REMARK  0 active torsions:
REMARK  status: ('A' for Active; 'I' for Inactive)
ROOT
ATOM      1  C   UNL d   1       4.682  -1.268  -4.555  0.00  0.00    -0.002 A 
ATOM      2  C1  UNL d   1       5.541  -1.425  -5.633  0.00  0.00     0.010 A 
ATOM      3  C2  UNL d   1       5.998  -2.692  -5.999  0.00  0.00     0.041 A 
ATOM      4  C3  UNL d   1       5.571  -3.811  -5.258  0.00  0.00    -0.075 A 
ATOM      5  S   UNL d   1       6.000  -5.460  -5.523  0.00  0.00     0.015 SA
ATOM      6  C4  UNL d   1       5.051  -5.996  -4.212  0.00  0.00     0.022 A 
ATOM      7  C5  UNL d   1       4.417  -4.955  -3.576  0.00  0.00     0.026 A 
ATOM      8  C6  UNL d   1       4.705  -3.679  -4.168  0.00  0.00    -0.082 A 
ATOM      9  C7  UNL d   1       4.260  -2.381  -3.822  0.00  0.00     0.045 A 
ENDROOT
TORSDOF 0
ENDMDL
