MODEL 1
REMARK minimizedAffinity 9.81356144
REMARK minimizedRMSD -1
REMARK  1 active torsions:
REMARK  status: ('A' for Active; 'I' for Inactive)
REMARK    1  A    between atoms: C1_2  and  C2_3 
ROOT
ATOM      1  C2  UNL d   1      -2.656   1.704   0.909  0.00  0.00    -0.076 A 
ATOM      2  C3  UNL d   1      -3.250   0.844  -0.030  0.00  0.00     0.004 A 
ATOM      3  C4  UNL d   1      -4.595   0.490   0.070  0.00  0.00    -0.003 A 
ATOM      4  C5  UNL d   1      -5.368   0.992   1.111  0.00  0.00     0.000 A 
ATOM      5  C6  UNL d   1      -4.799   1.861   2.043  0.00  0.00     0.000 A 
ATOM      6  C7  UNL d   1      -3.449   2.240   1.947  0.00  0.00    -0.073 A 
ATOM      7  C8  UNL d   1      -2.886   3.174   2.982  0.00  0.00     0.078 C 
ENDROOT
BRANCH   1   8
ATOM      8  C1  UNL d   1      -1.187   2.030   0.765  0.00  0.00     0.053 C 
ATOM      9  C   UNL d   1      -0.708   1.937  -0.675  0.00  0.00     0.018 C 
ENDBRANCH   1   8
TORSDOF 1
ENDMDL
