MODEL 1
REMARK minimizedAffinity 4.48453999
REMARK minimizedRMSD -1
REMARK  1 active torsions:
REMARK  status: ('A' for Active; 'I' for Inactive)
REMARK    1  A    between atoms: N_2  and  C1_3 
ROOT
ATOM      1  C1  UNL d   1       2.194   0.397  -1.784  0.00  0.00     0.143 A 
ATOM      2  C2  UNL d   1       1.182   1.167  -1.200  0.00  0.00    -0.057 A 
ATOM      3  C3  UNL d   1       0.802   2.400  -1.743  0.00  0.00     0.033 A 
ATOM      4  C4  UNL d   1       1.450   2.900  -2.867  0.00  0.00    -0.042 A 
ATOM      5  C5  UNL d   1       2.476   2.164  -3.450  0.00  0.00     0.033 A 
ATOM      6  C6  UNL d   1       2.846   0.930  -2.907  0.00  0.00    -0.057 A 
ENDROOT
BRANCH   1   7
ATOM      7  N   UNL d   1       2.683  -0.790  -1.234  0.00  0.00    -0.732 N 
ATOM      8  C   UNL d   1       3.587  -0.762  -0.104  0.00  0.00     0.284 C 
ATOM      9  H3  UNL d   1       1.972  -1.515  -1.179  0.00  0.00     0.395 HD
ENDBRANCH   1   7
TORSDOF 1
ENDMDL
