MODEL 1
REMARK minimizedAffinity -1.24525905
REMARK minimizedRMSD -1
REMARK  1 active torsions:
REMARK  status: ('A' for Active; 'I' for Inactive)
REMARK    1  A    between atoms: N_2  and  C1_3 
ROOT
ATOM      1  C1  UNL d   1      -0.601  -1.589  -1.273  0.00  0.00     0.143 A 
ATOM      2  C2  UNL d   1       0.732  -1.932  -1.526  0.00  0.00    -0.057 A 
ATOM      3  C3  UNL d   1       1.742  -0.963  -1.532  0.00  0.00     0.033 A 
ATOM      4  C4  UNL d   1       1.433   0.375  -1.312  0.00  0.00    -0.042 A 
ATOM      5  C5  UNL d   1       0.112   0.743  -1.083  0.00  0.00     0.033 A 
ATOM      6  C6  UNL d   1      -0.892  -0.231  -1.072  0.00  0.00    -0.057 A 
ENDROOT
BRANCH   1   7
ATOM      7  N   UNL d   1      -1.665  -2.491  -1.351  0.00  0.00    -0.732 N 
ATOM      8  C   UNL d   1      -3.032  -2.017  -1.391  0.00  0.00     0.284 C 
ATOM      9  H3  UNL d   1      -1.474  -3.263  -1.986  0.00  0.00     0.395 HD
ENDBRANCH   1   7
TORSDOF 1
ENDMDL
