MODEL 1
REMARK minimizedAffinity 4.98178148
REMARK minimizedRMSD -1
REMARK  1 active torsions:
REMARK  status: ('A' for Active; 'I' for Inactive)
REMARK    1  A    between atoms: N_2  and  C1_3 
ROOT
ATOM      1  C1  UNL d   1      -4.238  -3.305  -1.285  0.00  0.00     0.143 A 
ATOM      2  C2  UNL d   1      -2.982  -3.706  -0.818  0.00  0.00    -0.057 A 
ATOM      3  C3  UNL d   1      -1.961  -2.776  -0.588  0.00  0.00     0.033 A 
ATOM      4  C4  UNL d   1      -2.170  -1.426  -0.850  0.00  0.00    -0.042 A 
ATOM      5  C5  UNL d   1      -3.403  -1.007  -1.339  0.00  0.00     0.033 A 
ATOM      6  C6  UNL d   1      -4.421  -1.941  -1.559  0.00  0.00    -0.057 A 
ENDROOT
BRANCH   1   7
ATOM      7  N   UNL d   1      -5.261  -4.193  -1.626  0.00  0.00    -0.732 N 
ATOM      8  C   UNL d   1      -5.708  -5.199  -0.686  0.00  0.00     0.284 C 
ATOM      9  H3  UNL d   1      -6.014  -3.739  -2.139  0.00  0.00     0.395 HD
ENDBRANCH   1   7
TORSDOF 1
ENDMDL
