MODEL 1
REMARK minimizedAffinity 3.76798129
REMARK minimizedRMSD -1
REMARK  1 active torsions:
REMARK  status: ('A' for Active; 'I' for Inactive)
REMARK    1  A    between atoms: N_2  and  C1_3 
ROOT
ATOM      1  C1  UNL d   1      -1.942  -1.413  -0.461  0.00  0.00     0.143 A 
ATOM      2  C2  UNL d   1      -2.528  -0.381   0.279  0.00  0.00    -0.057 A 
ATOM      3  C3  UNL d   1      -1.834   0.806   0.544  0.00  0.00     0.033 A 
ATOM      4  C4  UNL d   1      -0.527   0.970   0.097  0.00  0.00    -0.042 A 
ATOM      5  C5  UNL d   1       0.084  -0.053  -0.619  0.00  0.00     0.033 A 
ATOM      6  C6  UNL d   1      -0.616  -1.233  -0.886  0.00  0.00    -0.057 A 
ENDROOT
BRANCH   1   7
ATOM      7  N   UNL d   1      -2.543  -2.656  -0.674  0.00  0.00    -0.732 N 
ATOM      8  C   UNL d   1      -2.205  -3.791   0.158  0.00  0.00     0.284 C 
ATOM      9  H3  UNL d   1      -3.535  -2.576  -0.885  0.00  0.00     0.395 HD
ENDBRANCH   1   7
TORSDOF 1
ENDMDL
