MODEL 1
REMARK minimizedAffinity 1.16532516
REMARK minimizedRMSD -1
REMARK  1 active torsions:
REMARK  status: ('A' for Active; 'I' for Inactive)
REMARK    1  A    between atoms: N_2  and  C1_3 
ROOT
ATOM      1  C1  UNL d   1       0.572   0.986  -0.778  0.00  0.00     0.143 A 
ATOM      2  C2  UNL d   1       1.478  -0.080  -0.733  0.00  0.00    -0.057 A 
ATOM      3  C3  UNL d   1       2.551  -0.159  -1.629  0.00  0.00     0.033 A 
ATOM      4  C4  UNL d   1       2.721   0.814  -2.608  0.00  0.00    -0.042 A 
ATOM      5  C5  UNL d   1       1.819   1.869  -2.687  0.00  0.00     0.033 A 
ATOM      6  C6  UNL d   1       0.753   1.947  -1.786  0.00  0.00    -0.057 A 
ENDROOT
BRANCH   1   7
ATOM      7  N   UNL d   1      -0.570   1.070   0.021  0.00  0.00    -0.732 N 
ATOM      8  C   UNL d   1      -0.549   1.813   1.262  0.00  0.00     0.284 C 
ATOM      9  H3  UNL d   1      -1.418   1.199  -0.526  0.00  0.00     0.395 HD
ENDBRANCH   1   7
TORSDOF 1
ENDMDL
