MODEL 1
REMARK minimizedAffinity 3.11326885
REMARK minimizedRMSD -1
REMARK  1 active torsions:
REMARK  status: ('A' for Active; 'I' for Inactive)
REMARK    1  A    between atoms: N_2  and  C1_3 
ROOT
ATOM      1  C1  UNL d   1       0.617   1.698  -1.720  0.00  0.00     0.143 A 
ATOM      2  C2  UNL d   1       1.300   0.515  -1.416  0.00  0.00    -0.057 A 
ATOM      3  C3  UNL d   1       2.488   0.173  -2.074  0.00  0.00     0.033 A 
ATOM      4  C4  UNL d   1       2.999   0.996  -3.072  0.00  0.00    -0.042 A 
ATOM      5  C5  UNL d   1       2.324   2.164  -3.408  0.00  0.00     0.033 A 
ATOM      6  C6  UNL d   1       1.142   2.504  -2.742  0.00  0.00    -0.057 A 
ENDROOT
BRANCH   1   7
ATOM      7  N   UNL d   1      -0.619   2.045  -1.170  0.00  0.00    -0.732 N 
ATOM      8  C   UNL d   1      -1.125   1.360  -0.000  0.00  0.00     0.284 C 
ATOM      9  H3  UNL d   1      -0.771   3.051  -1.161  0.00  0.00     0.395 HD
ENDBRANCH   1   7
TORSDOF 1
ENDMDL
