MODEL 1
REMARK minimizedAffinity 9.33342838
REMARK minimizedRMSD -1
REMARK  1 active torsions:
REMARK  status: ('A' for Active; 'I' for Inactive)
REMARK    1  A    between atoms: N_2  and  C1_3 
ROOT
ATOM      1  C1  UNL d   1       0.388   1.377  -1.233  0.00  0.00     0.143 A 
ATOM      2  C2  UNL d   1       0.526   2.374  -2.204  0.00  0.00    -0.057 A 
ATOM      3  C3  UNL d   1       1.657   2.433  -3.028  0.00  0.00     0.033 A 
ATOM      4  C4  UNL d   1       2.686   1.509  -2.874  0.00  0.00    -0.042 A 
ATOM      5  C5  UNL d   1       2.581   0.524  -1.898  0.00  0.00     0.033 A 
ATOM      6  C6  UNL d   1       1.446   0.467  -1.083  0.00  0.00    -0.057 A 
ENDROOT
BRANCH   1   7
ATOM      7  N   UNL d   1      -0.666   1.324  -0.317  0.00  0.00    -0.732 N 
ATOM      8  C   UNL d   1      -1.589   0.209  -0.319  0.00  0.00     0.284 C 
ATOM      9  H3  UNL d   1      -0.390   1.633   0.612  0.00  0.00     0.395 HD
ENDBRANCH   1   7
TORSDOF 1
ENDMDL
