MODEL 1
REMARK minimizedAffinity 9.2573843
REMARK minimizedRMSD -1
REMARK  1 active torsions:
REMARK  status: ('A' for Active; 'I' for Inactive)
REMARK    1  A    between atoms: N_2  and  C1_3 
ROOT
ATOM      1  C1  UNL d   1      -1.016   0.654  -0.117  0.00  0.00     0.143 A 
ATOM      2  C2  UNL d   1      -0.699   1.396   1.025  0.00  0.00    -0.057 A 
ATOM      3  C3  UNL d   1       0.561   1.986   1.182  0.00  0.00     0.033 A 
ATOM      4  C4  UNL d   1       1.540   1.818   0.208  0.00  0.00    -0.042 A 
ATOM      5  C5  UNL d   1       1.255   1.064  -0.924  0.00  0.00     0.033 A 
ATOM      6  C6  UNL d   1      -0.007   0.483  -1.078  0.00  0.00    -0.057 A 
ENDROOT
BRANCH   1   7
ATOM      7  N   UNL d   1      -2.217  -0.039  -0.287  0.00  0.00    -0.732 N 
ATOM      8  C   UNL d   1      -2.215  -1.444  -0.636  0.00  0.00     0.284 C 
ATOM      9  H3  UNL d   1      -2.914   0.215   0.410  0.00  0.00     0.395 HD
ENDBRANCH   1   7
TORSDOF 1
ENDMDL
