MODEL 1
REMARK minimizedAffinity 2.88216019
REMARK minimizedRMSD -1
REMARK  1 active torsions:
REMARK  status: ('A' for Active; 'I' for Inactive)
REMARK    1  A    between atoms: N_2  and  C1_3 
ROOT
ATOM      1  C1  UNL d   1       0.131  -1.863  -1.021  0.00  0.00     0.143 A 
ATOM      2  C2  UNL d   1       1.344  -2.544  -1.169  0.00  0.00    -0.057 A 
ATOM      3  C3  UNL d   1       2.561  -1.854  -1.233  0.00  0.00     0.033 A 
ATOM      4  C4  UNL d   1       2.583  -0.464  -1.179  0.00  0.00    -0.042 A 
ATOM      5  C5  UNL d   1       1.387   0.235  -1.057  0.00  0.00     0.033 A 
ATOM      6  C6  UNL d   1       0.176  -0.460  -0.987  0.00  0.00    -0.057 A 
ENDROOT
BRANCH   1   7
ATOM      7  N   UNL d   1      -1.119  -2.486  -1.050  0.00  0.00    -0.732 N 
ATOM      8  C   UNL d   1      -2.333  -1.709  -0.924  0.00  0.00     0.284 C 
ATOM      9  H3  UNL d   1      -1.168  -3.225  -1.747  0.00  0.00     0.395 HD
ENDBRANCH   1   7
TORSDOF 1
ENDMDL
