MODEL 1
REMARK minimizedAffinity 9.25593472
REMARK minimizedRMSD -1
REMARK  1 active torsions:
REMARK  status: ('A' for Active; 'I' for Inactive)
REMARK    1  A    between atoms: N_2  and  C1_3 
ROOT
ATOM      1  C1  UNL d   1       1.744   2.548  -2.864  0.00  0.00     0.143 A 
ATOM      2  C2  UNL d   1       2.873   1.814  -3.244  0.00  0.00    -0.057 A 
ATOM      3  C3  UNL d   1       3.221   0.627  -2.589  0.00  0.00     0.033 A 
ATOM      4  C4  UNL d   1       2.460   0.166  -1.520  0.00  0.00    -0.042 A 
ATOM      5  C5  UNL d   1       1.348   0.893  -1.109  0.00  0.00     0.033 A 
ATOM      6  C6  UNL d   1       1.002   2.074  -1.771  0.00  0.00    -0.057 A 
ENDROOT
BRANCH   1   7
ATOM      7  N   UNL d   1       1.402   3.787  -3.412  0.00  0.00    -0.732 N 
ATOM      8  C   UNL d   1       2.237   4.948  -3.189  0.00  0.00     0.284 C 
ATOM      9  H3  UNL d   1       1.046   3.707  -4.361  0.00  0.00     0.395 HD
ENDBRANCH   1   7
TORSDOF 1
ENDMDL
