MODEL 1
REMARK minimizedAffinity 3.55738211
REMARK minimizedRMSD -1
REMARK  1 active torsions:
REMARK  status: ('A' for Active; 'I' for Inactive)
REMARK    1  A    between atoms: N_2  and  C1_3 
ROOT
ATOM      1  C1  UNL d   1      -0.131  -0.962  -0.949  0.00  0.00     0.143 A 
ATOM      2  C2  UNL d   1      -0.283  -2.349  -1.042  0.00  0.00    -0.057 A 
ATOM      3  C3  UNL d   1      -1.539  -2.953  -0.903  0.00  0.00     0.033 A 
ATOM      4  C4  UNL d   1      -2.664  -2.178  -0.639  0.00  0.00    -0.042 A 
ATOM      5  C5  UNL d   1      -2.532  -0.800  -0.517  0.00  0.00     0.033 A 
ATOM      6  C6  UNL d   1      -1.276  -0.202  -0.664  0.00  0.00    -0.057 A 
ENDROOT
BRANCH   1   7
ATOM      7  N   UNL d   1       1.105  -0.311  -0.980  0.00  0.00    -0.732 N 
ATOM      8  C   UNL d   1       2.209  -0.861  -1.737  0.00  0.00     0.284 C 
ATOM      9  H3  UNL d   1       1.011   0.699  -1.056  0.00  0.00     0.395 HD
ENDBRANCH   1   7
TORSDOF 1
ENDMDL
