MODEL 1
REMARK minimizedAffinity -3.71778822
REMARK minimizedRMSD -1
REMARK  1 active torsions:
REMARK  status: ('A' for Active; 'I' for Inactive)
REMARK    1  A    between atoms: N_2  and  C1_3 
ROOT
ATOM      1  C1  UNL d   1      -0.192  -0.003  -0.075  0.00  0.00     0.143 A 
ATOM      2  C2  UNL d   1       0.181  -1.201  -0.694  0.00  0.00    -0.057 A 
ATOM      3  C3  UNL d   1       1.513  -1.453  -1.044  0.00  0.00     0.033 A 
ATOM      4  C4  UNL d   1       2.494  -0.496  -0.807  0.00  0.00    -0.042 A 
ATOM      5  C5  UNL d   1       2.142   0.712  -0.215  0.00  0.00     0.033 A 
ATOM      6  C6  UNL d   1       0.811   0.955   0.138  0.00  0.00    -0.057 A 
ENDROOT
BRANCH   1   7
ATOM      7  N   UNL d   1      -1.514   0.347   0.207  0.00  0.00    -0.732 N 
ATOM      8  C   UNL d   1      -1.875   0.879   1.504  0.00  0.00     0.284 C 
ATOM      9  H3  UNL d   1      -1.968   0.815  -0.575  0.00  0.00     0.395 HD
ENDBRANCH   1   7
TORSDOF 1
ENDMDL
