MODEL 1
REMARK minimizedAffinity 2.92341495
REMARK minimizedRMSD -1
REMARK  1 active torsions:
REMARK  status: ('A' for Active; 'I' for Inactive)
REMARK    1  A    between atoms: N_2  and  C1_3 
ROOT
ATOM      1  C1  UNL d   1       1.756  -2.608   0.017  0.00  0.00     0.143 A 
ATOM      2  C2  UNL d   1       0.508  -2.193  -0.460  0.00  0.00    -0.057 A 
ATOM      3  C3  UNL d   1       0.386  -1.082  -1.303  0.00  0.00     0.033 A 
ATOM      4  C4  UNL d   1       1.511  -0.345  -1.660  0.00  0.00    -0.042 A 
ATOM      5  C5  UNL d   1       2.758  -0.724  -1.177  0.00  0.00     0.033 A 
ATOM      6  C6  UNL d   1       2.874  -1.839  -0.341  0.00  0.00    -0.057 A 
ENDROOT
BRANCH   1   7
ATOM      7  N   UNL d   1       1.931  -3.645   0.937  0.00  0.00    -0.732 N 
ATOM      8  C   UNL d   1       0.791  -4.357   1.472  0.00  0.00     0.284 C 
ATOM      9  H3  UNL d   1       2.721  -4.242   0.703  0.00  0.00     0.395 HD
ENDBRANCH   1   7
TORSDOF 1
ENDMDL
