MODEL 1
REMARK minimizedAffinity 2.73881459
REMARK minimizedRMSD -1
REMARK  1 active torsions:
REMARK  status: ('A' for Active; 'I' for Inactive)
REMARK    1  A    between atoms: N_2  and  C1_3 
ROOT
ATOM      1  C1  UNL d   1       0.590   1.559  -1.624  0.00  0.00     0.143 A 
ATOM      2  C2  UNL d   1       1.224   0.367  -1.257  0.00  0.00    -0.057 A 
ATOM      3  C3  UNL d   1       2.406  -0.049  -1.883  0.00  0.00     0.033 A 
ATOM      4  C4  UNL d   1       2.960   0.708  -2.910  0.00  0.00    -0.042 A 
ATOM      5  C5  UNL d   1       2.333   1.884  -3.308  0.00  0.00     0.033 A 
ATOM      6  C6  UNL d   1       1.157   2.297  -2.675  0.00  0.00    -0.057 A 
ENDROOT
BRANCH   1   7
ATOM      7  N   UNL d   1      -0.640   1.977  -1.108  0.00  0.00    -0.732 N 
ATOM      8  C   UNL d   1      -1.483   1.056  -0.377  0.00  0.00     0.284 C 
ATOM      9  H3  UNL d   1      -0.595   2.909  -0.704  0.00  0.00     0.395 HD
ENDBRANCH   1   7
TORSDOF 1
ENDMDL
