MODEL 1
REMARK minimizedAffinity 2.25354099
REMARK minimizedRMSD -1
REMARK  1 active torsions:
REMARK  status: ('A' for Active; 'I' for Inactive)
REMARK    1  A    between atoms: N_2  and  C1_3 
ROOT
ATOM      1  C1  UNL d   1       2.635  -0.548   0.119  0.00  0.00     0.143 A 
ATOM      2  C2  UNL d   1       3.797   0.225   0.220  0.00  0.00    -0.057 A 
ATOM      3  C3  UNL d   1       3.736   1.621   0.311  0.00  0.00     0.033 A 
ATOM      4  C4  UNL d   1       2.507   2.273   0.274  0.00  0.00    -0.042 A 
ATOM      5  C5  UNL d   1       1.341   1.527   0.150  0.00  0.00     0.033 A 
ATOM      6  C6  UNL d   1       1.408   0.133   0.066  0.00  0.00    -0.057 A 
ENDROOT
BRANCH   1   7
ATOM      7  N   UNL d   1       2.635  -1.931  -0.074  0.00  0.00    -0.732 N 
ATOM      8  C   UNL d   1       2.826  -2.491  -1.395  0.00  0.00     0.284 C 
ATOM      9  H3  UNL d   1       3.132  -2.426   0.663  0.00  0.00     0.395 HD
ENDBRANCH   1   7
TORSDOF 1
ENDMDL
