MODEL 1
REMARK minimizedAffinity 8.7563467
REMARK minimizedRMSD -1
REMARK  1 active torsions:
REMARK  status: ('A' for Active; 'I' for Inactive)
REMARK    1  A    between atoms: N_2  and  C1_3 
ROOT
ATOM      1  C1  UNL d   1       1.400   0.512   1.154  0.00  0.00     0.143 A 
ATOM      2  C2  UNL d   1       0.631   0.280   2.300  0.00  0.00    -0.057 A 
ATOM      3  C3  UNL d   1      -0.616   0.892   2.473  0.00  0.00     0.033 A 
ATOM      4  C4  UNL d   1      -1.105   1.773   1.514  0.00  0.00    -0.042 A 
ATOM      5  C5  UNL d   1      -0.346   2.038   0.379  0.00  0.00     0.033 A 
ATOM      6  C6  UNL d   1       0.895   1.418   0.208  0.00  0.00    -0.057 A 
ENDROOT
BRANCH   1   7
ATOM      7  N   UNL d   1       2.691   0.010   0.969  0.00  0.00    -0.732 N 
ATOM      8  C   UNL d   1       2.895  -1.331   0.464  0.00  0.00     0.284 C 
ATOM      9  H3  UNL d   1       3.324   0.703   0.576  0.00  0.00     0.395 HD
ENDBRANCH   1   7
TORSDOF 1
ENDMDL
