MODEL 1
REMARK minimizedAffinity 4.92896843
REMARK minimizedRMSD -1
REMARK  1 active torsions:
REMARK  status: ('A' for Active; 'I' for Inactive)
REMARK    1  A    between atoms: N_2  and  C1_3 
ROOT
ATOM      1  C1  UNL d   1       1.509  -1.079  -0.406  0.00  0.00     0.143 A 
ATOM      2  C2  UNL d   1       2.018  -2.075   0.434  0.00  0.00    -0.057 A 
ATOM      3  C3  UNL d   1       1.391  -3.322   0.545  0.00  0.00     0.033 A 
ATOM      4  C4  UNL d   1       0.224  -3.586  -0.163  0.00  0.00    -0.042 A 
ATOM      5  C5  UNL d   1      -0.314  -2.602  -0.986  0.00  0.00     0.033 A 
ATOM      6  C6  UNL d   1       0.320  -1.361  -1.097  0.00  0.00    -0.057 A 
ENDROOT
BRANCH   1   7
ATOM      7  N   UNL d   1       2.031   0.215  -0.484  0.00  0.00    -0.732 N 
ATOM      8  C   UNL d   1       1.286   1.342   0.035  0.00  0.00     0.284 C 
ATOM      9  H3  UNL d   1       3.027   0.245  -0.280  0.00  0.00     0.395 HD
ENDBRANCH   1   7
TORSDOF 1
ENDMDL
