MODEL 1
REMARK minimizedAffinity 5.89675283
REMARK minimizedRMSD -1
REMARK  1 active torsions:
REMARK  status: ('A' for Active; 'I' for Inactive)
REMARK    1  A    between atoms: N_2  and  C1_3 
ROOT
ATOM      1  C1  UNL d   1      -3.597   0.428  -5.349  0.00  0.00     0.143 A 
ATOM      2  C2  UNL d   1      -4.913  -0.046  -5.330  0.00  0.00    -0.057 A 
ATOM      3  C3  UNL d   1      -6.000   0.823  -5.491  0.00  0.00     0.033 A 
ATOM      4  C4  UNL d   1      -5.789   2.189  -5.646  0.00  0.00    -0.042 A 
ATOM      5  C5  UNL d   1      -4.490   2.685  -5.643  0.00  0.00     0.033 A 
ATOM      6  C6  UNL d   1      -3.409   1.812  -5.488  0.00  0.00    -0.057 A 
ENDROOT
BRANCH   1   7
ATOM      7  N   UNL d   1      -2.479  -0.371  -5.095  0.00  0.00    -0.732 N 
ATOM      8  C   UNL d   1      -2.038  -0.612  -3.738  0.00  0.00     0.284 C 
ATOM      9  H3  UNL d   1      -2.444  -1.191  -5.696  0.00  0.00     0.395 HD
ENDBRANCH   1   7
TORSDOF 1
ENDMDL
