MODEL 1
REMARK minimizedAffinity 1.34727108
REMARK minimizedRMSD -1
REMARK  1 active torsions:
REMARK  status: ('A' for Active; 'I' for Inactive)
REMARK    1  A    between atoms: N_2  and  C1_3 
ROOT
ATOM      1  C1  UNL d   1       2.797   0.041   0.739  0.00  0.00     0.143 A 
ATOM      2  C2  UNL d   1       1.599   0.752   0.867  0.00  0.00    -0.057 A 
ATOM      3  C3  UNL d   1       1.588   2.150   0.939  0.00  0.00     0.033 A 
ATOM      4  C4  UNL d   1       2.783   2.863   0.913  0.00  0.00    -0.042 A 
ATOM      5  C5  UNL d   1       3.987   2.176   0.812  0.00  0.00     0.033 A 
ATOM      6  C6  UNL d   1       3.991   0.780   0.734  0.00  0.00    -0.057 A 
ENDROOT
BRANCH   1   7
ATOM      7  N   UNL d   1       2.880  -1.353   0.762  0.00  0.00    -0.732 N 
ATOM      8  C   UNL d   1       2.078  -2.155  -0.137  0.00  0.00     0.284 C 
ATOM      9  H3  UNL d   1       3.836  -1.684   0.873  0.00  0.00     0.395 HD
ENDBRANCH   1   7
TORSDOF 1
ENDMDL
