MODEL 1
REMARK minimizedAffinity -3.33463931
REMARK minimizedRMSD -1
REMARK  0 active torsions:
REMARK  status: ('A' for Active; 'I' for Inactive)
ROOT
ATOM      1  C   UNL d   1      -1.484   2.851   0.549  0.00  0.00     0.023 A 
ATOM      2  C1  UNL d   1      -0.242   3.135  -0.019  0.00  0.00     0.003 A 
ATOM      3  C2  UNL d   1       0.774   2.177   0.005  0.00  0.00     0.048 A 
ATOM      4  C3  UNL d   1       0.541   0.937   0.598  0.00  0.00     0.023 A 
ATOM      5  C4  UNL d   1      -0.701   0.648   1.167  0.00  0.00     0.048 A 
ATOM      6  C5  UNL d   1      -1.713   1.609   1.141  0.00  0.00     0.003 A 
ATOM      7  I   UNL d   1       2.051  -0.490   0.635  0.00  0.00    -0.146 I 
ENDROOT
TORSDOF 0
ENDMDL
