MODEL 1
REMARK minimizedAffinity -2.3815124
REMARK minimizedRMSD -1
REMARK  0 active torsions:
REMARK  status: ('A' for Active; 'I' for Inactive)
ROOT
ATOM      1  C   UNL d   1       0.022   2.606   0.665  0.00  0.00     0.023 A 
ATOM      2  C1  UNL d   1      -0.938   1.839   1.326  0.00  0.00     0.003 A 
ATOM      3  C2  UNL d   1      -1.141   0.507   0.960  0.00  0.00     0.048 A 
ATOM      4  C3  UNL d   1      -0.380  -0.052  -0.066  0.00  0.00     0.023 A 
ATOM      5  C4  UNL d   1       0.582   0.711  -0.729  0.00  0.00     0.048 A 
ATOM      6  C5  UNL d   1       0.781   2.043  -0.361  0.00  0.00     0.003 A 
ATOM      7  I   UNL d   1      -0.681  -2.035  -0.612  0.00  0.00    -0.146 I 
ENDROOT
TORSDOF 0
ENDMDL
