MODEL 1
REMARK minimizedAffinity -2.43267059
REMARK minimizedRMSD -1
REMARK  0 active torsions:
REMARK  status: ('A' for Active; 'I' for Inactive)
ROOT
ATOM      1  C   UNL d   1       0.136   1.268   0.828  0.00  0.00     0.023 A 
ATOM      2  C1  UNL d   1      -1.118   0.680   0.995  0.00  0.00     0.003 A 
ATOM      3  C2  UNL d   1      -1.368  -0.592   0.476  0.00  0.00     0.048 A 
ATOM      4  C3  UNL d   1      -0.360  -1.271  -0.208  0.00  0.00     0.023 A 
ATOM      5  C4  UNL d   1       0.897  -0.686  -0.376  0.00  0.00     0.048 A 
ATOM      6  C5  UNL d   1       1.142   0.586   0.144  0.00  0.00     0.003 A 
ATOM      7  I   UNL d   1      -0.730  -3.164  -0.981  0.00  0.00    -0.146 I 
ENDROOT
TORSDOF 0
ENDMDL
