MODEL 1
REMARK minimizedAffinity -3.21716571
REMARK minimizedRMSD -1
REMARK  0 active torsions:
REMARK  status: ('A' for Active; 'I' for Inactive)
ROOT
ATOM      1  C   UNL d   1      -0.682   2.242   1.222  0.00  0.00     0.023 A 
ATOM      2  C1  UNL d   1      -1.728   1.345   1.439  0.00  0.00     0.003 A 
ATOM      3  C2  UNL d   1      -1.664   0.054   0.912  0.00  0.00     0.048 A 
ATOM      4  C3  UNL d   1      -0.551  -0.335   0.168  0.00  0.00     0.023 A 
ATOM      5  C4  UNL d   1       0.499   0.559  -0.052  0.00  0.00     0.048 A 
ATOM      6  C5  UNL d   1       0.430   1.849   0.477  0.00  0.00     0.003 A 
ATOM      7  I   UNL d   1      -0.453  -2.256  -0.618  0.00  0.00    -0.146 I 
ENDROOT
TORSDOF 0
ENDMDL
