MODEL 1
REMARK minimizedAffinity -2.88426638
REMARK minimizedRMSD -1
REMARK  0 active torsions:
REMARK  status: ('A' for Active; 'I' for Inactive)
ROOT
ATOM      1  C   UNL d   1       0.012   3.833   0.008  0.00  0.00     0.023 A 
ATOM      2  C1  UNL d   1       0.606   3.150  -1.053  0.00  0.00     0.003 A 
ATOM      3  C2  UNL d   1       0.682   1.756  -1.032  0.00  0.00     0.048 A 
ATOM      4  C3  UNL d   1       0.161   1.051   0.053  0.00  0.00     0.023 A 
ATOM      5  C4  UNL d   1      -0.436   1.730   1.116  0.00  0.00     0.048 A 
ATOM      6  C5  UNL d   1      -0.509   3.124   1.091  0.00  0.00     0.003 A 
ATOM      7  I   UNL d   1       0.272  -1.024   0.086  0.00  0.00    -0.146 I 
ENDROOT
TORSDOF 0
ENDMDL
