MODEL 1
REMARK minimizedAffinity -3.27749848
REMARK minimizedRMSD -1
REMARK  0 active torsions:
REMARK  status: ('A' for Active; 'I' for Inactive)
ROOT
ATOM      1  C   UNL d   1      -0.680   3.009   0.122  0.00  0.00     0.023 A 
ATOM      2  C1  UNL d   1       0.366   2.433  -0.599  0.00  0.00     0.003 A 
ATOM      3  C2  UNL d   1       0.506   1.044  -0.640  0.00  0.00     0.048 A 
ATOM      4  C3  UNL d   1      -0.404   0.237   0.041  0.00  0.00     0.023 A 
ATOM      5  C4  UNL d   1      -1.453   0.809   0.763  0.00  0.00     0.048 A 
ATOM      6  C5  UNL d   1      -1.589   2.198   0.802  0.00  0.00     0.003 A 
ATOM      7  I   UNL d   1      -0.198  -1.830  -0.018  0.00  0.00    -0.146 I 
ENDROOT
TORSDOF 0
ENDMDL
