MODEL 1
REMARK minimizedAffinity -3.80546236
REMARK minimizedRMSD -1
REMARK  0 active torsions:
REMARK  status: ('A' for Active; 'I' for Inactive)
ROOT
ATOM      1  C   UNL d   1      -1.205   1.742   0.821  0.00  0.00     0.023 A 
ATOM      2  C1  UNL d   1      -0.368   2.846   0.988  0.00  0.00     0.003 A 
ATOM      3  C2  UNL d   1       1.017   2.676   1.014  0.00  0.00     0.048 A 
ATOM      4  C3  UNL d   1       1.560   1.399   0.871  0.00  0.00     0.023 A 
ATOM      5  C4  UNL d   1       0.727   0.292   0.703  0.00  0.00     0.048 A 
ATOM      6  C5  UNL d   1      -0.658   0.467   0.678  0.00  0.00     0.003 A 
ATOM      7  I   UNL d   1       3.622   1.143   0.909  0.00  0.00    -0.146 I 
ENDROOT
TORSDOF 0
ENDMDL
