MODEL 1
REMARK minimizedAffinity -3.77806687
REMARK minimizedRMSD -1
REMARK  0 active torsions:
REMARK  status: ('A' for Active; 'I' for Inactive)
ROOT
ATOM      1  C   UNL d   1      -1.210   2.742   0.784  0.00  0.00     0.023 A 
ATOM      2  C1  UNL d   1      -0.105   2.418  -0.004  0.00  0.00     0.003 A 
ATOM      3  C2  UNL d   1       0.183   1.082  -0.288  0.00  0.00     0.048 A 
ATOM      4  C3  UNL d   1      -0.638   0.074   0.217  0.00  0.00     0.023 A 
ATOM      5  C4  UNL d   1      -1.745   0.394   1.005  0.00  0.00     0.048 A 
ATOM      6  C5  UNL d   1      -2.029   1.731   1.288  0.00  0.00     0.003 A 
ATOM      7  I   UNL d   1      -0.211  -1.915  -0.205  0.00  0.00    -0.146 I 
ENDROOT
TORSDOF 0
ENDMDL
