MODEL 1
REMARK minimizedAffinity -3.88806224
REMARK minimizedRMSD -1
REMARK  0 active torsions:
REMARK  status: ('A' for Active; 'I' for Inactive)
ROOT
ATOM      1  C   UNL d   1      -1.079   2.362   0.668  0.00  0.00     0.023 A 
ATOM      2  C1  UNL d   1      -1.904   1.310   1.067  0.00  0.00     0.003 A 
ATOM      3  C2  UNL d   1      -1.697   0.027   0.555  0.00  0.00     0.048 A 
ATOM      4  C3  UNL d   1      -0.663  -0.197  -0.354  0.00  0.00     0.023 A 
ATOM      5  C4  UNL d   1       0.164   0.853  -0.755  0.00  0.00     0.048 A 
ATOM      6  C5  UNL d   1      -0.047   2.134  -0.242  0.00  0.00     0.003 A 
ATOM      7  I   UNL d   1      -0.354  -2.105  -1.117  0.00  0.00    -0.146 I 
ENDROOT
TORSDOF 0
ENDMDL
