MODEL 1
REMARK minimizedAffinity -1.52563477
REMARK minimizedRMSD -1
REMARK  0 active torsions:
REMARK  status: ('A' for Active; 'I' for Inactive)
ROOT
ATOM      1  C   UNL d   1      -0.793   3.057   1.414  0.00  0.00     0.023 A 
ATOM      2  C1  UNL d   1      -1.560   2.013   1.930  0.00  0.00     0.003 A 
ATOM      3  C2  UNL d   1      -1.425   0.723   1.411  0.00  0.00     0.048 A 
ATOM      4  C3  UNL d   1      -0.520   0.485   0.378  0.00  0.00     0.023 A 
ATOM      5  C4  UNL d   1       0.251   1.527  -0.141  0.00  0.00     0.048 A 
ATOM      6  C5  UNL d   1       0.112   2.815   0.380  0.00  0.00     0.003 A 
ATOM      7  I   UNL d   1      -0.316  -1.434  -0.395  0.00  0.00    -0.146 I 
ENDROOT
TORSDOF 0
ENDMDL
