MODEL 1
REMARK minimizedAffinity -2.4457016
REMARK minimizedRMSD -1
REMARK  0 active torsions:
REMARK  status: ('A' for Active; 'I' for Inactive)
ROOT
ATOM      1  C   UNL d   1      -0.448   3.185   0.205  0.00  0.00     0.023 A 
ATOM      2  C1  UNL d   1       0.339   2.604  -0.789  0.00  0.00     0.003 A 
ATOM      3  C2  UNL d   1       0.331   1.219  -0.967  0.00  0.00     0.048 A 
ATOM      4  C3  UNL d   1      -0.468   0.421  -0.149  0.00  0.00     0.023 A 
ATOM      5  C4  UNL d   1      -1.258   0.998   0.847  0.00  0.00     0.048 A 
ATOM      6  C5  UNL d   1      -1.245   2.383   1.022  0.00  0.00     0.003 A 
ATOM      7  I   UNL d   1      -0.482  -1.640  -0.413  0.00  0.00    -0.146 I 
ENDROOT
TORSDOF 0
ENDMDL
