MODEL 1
REMARK minimizedAffinity -3.3791225
REMARK minimizedRMSD -1
REMARK  0 active torsions:
REMARK  status: ('A' for Active; 'I' for Inactive)
ROOT
ATOM      1  C   UNL d   1      -0.675   3.069   0.645  0.00  0.00     0.023 A 
ATOM      2  C1  UNL d   1      -1.441   2.064   1.236  0.00  0.00     0.003 A 
ATOM      3  C2  UNL d   1      -1.155   0.722   0.976  0.00  0.00     0.048 A 
ATOM      4  C3  UNL d   1      -0.101   0.392   0.125  0.00  0.00     0.023 A 
ATOM      5  C4  UNL d   1       0.669   1.394  -0.468  0.00  0.00     0.048 A 
ATOM      6  C5  UNL d   1       0.379   2.734  -0.206  0.00  0.00     0.003 A 
ATOM      7  I   UNL d   1       0.327  -1.605  -0.263  0.00  0.00    -0.146 I 
ENDROOT
TORSDOF 0
ENDMDL
