MODEL 1
REMARK minimizedAffinity -3.84984946
REMARK minimizedRMSD -1
REMARK  0 active torsions:
REMARK  status: ('A' for Active; 'I' for Inactive)
ROOT
ATOM      1  C   UNL d   1      -0.163   2.633   0.720  0.00  0.00     0.023 A 
ATOM      2  C1  UNL d   1      -1.262   1.849   1.070  0.00  0.00     0.003 A 
ATOM      3  C2  UNL d   1      -1.303   0.501   0.708  0.00  0.00     0.048 A 
ATOM      4  C3  UNL d   1      -0.242  -0.057  -0.004  0.00  0.00     0.023 A 
ATOM      5  C4  UNL d   1       0.861   0.724  -0.356  0.00  0.00     0.048 A 
ATOM      6  C5  UNL d   1       0.897   2.071   0.008  0.00  0.00     0.003 A 
ATOM      7  I   UNL d   1      -0.301  -2.062  -0.545  0.00  0.00    -0.146 I 
ENDROOT
TORSDOF 0
ENDMDL
