MODEL 1
REMARK minimizedAffinity -2.88179183
REMARK minimizedRMSD -1
REMARK  0 active torsions:
REMARK  status: ('A' for Active; 'I' for Inactive)
ROOT
ATOM      1  C   UNL d   1      -0.364   2.969   0.503  0.00  0.00     0.023 A 
ATOM      2  C1  UNL d   1      -1.300   2.130   1.109  0.00  0.00     0.003 A 
ATOM      3  C2  UNL d   1      -1.212   0.747   0.941  0.00  0.00     0.048 A 
ATOM      4  C3  UNL d   1      -0.185   0.208   0.167  0.00  0.00     0.023 A 
ATOM      5  C4  UNL d   1       0.754   1.043  -0.441  0.00  0.00     0.048 A 
ATOM      6  C5  UNL d   1       0.661   2.426  -0.271  0.00  0.00     0.003 A 
ATOM      7  I   UNL d   1      -0.052  -1.850  -0.084  0.00  0.00    -0.146 I 
ENDROOT
TORSDOF 0
ENDMDL
