MODEL 1
REMARK minimizedAffinity 1.00297201
REMARK minimizedRMSD -1
REMARK  3 active torsions:
REMARK  status: ('A' for Active; 'I' for Inactive)
REMARK    1  A    between atoms: C3'_2  and  C2'_3 
REMARK    2  A    between atoms: C2'_3  and  C1'_4 
REMARK    3  A    between atoms: C1'_4  and  C1_5 
ROOT
ATOM      1  C1  N4B d   1      -2.160   2.139  -3.748  0.00  0.00    -0.075 A 
ATOM      2  C2  N4B d   1      -1.835   1.599  -5.012  0.00  0.00     0.002 A 
ATOM      3  C3  N4B d   1      -2.583   0.572  -5.533  0.00  0.00     0.002 A 
ATOM      4  C4  N4B d   1      -3.644   0.058  -4.803  0.00  0.00    -0.004 A 
ATOM      5  C5  N4B d   1      -3.967   0.602  -3.594  0.00  0.00     0.002 A 
ATOM      6  C6  N4B d   1      -3.227   1.637  -3.061  0.00  0.00     0.002 A 
ENDROOT
BRANCH   1   7
ATOM      7  C1' N4B d   1      -1.319   3.205  -3.100  0.00  0.00     0.057 C 
BRANCH   7   8
ATOM      8  C2' N4B d   1       0.156   2.856  -3.276  0.00  0.00     0.009 C 
BRANCH   8   9
ATOM      9  C3' N4B d   1       0.835   2.570  -1.948  0.00  0.00     0.004 C 
ATOM     10  C4' N4B d   1       2.267   2.155  -2.105  0.00  0.00     0.003 C 
ENDBRANCH   8   9
ENDBRANCH   7   8
ENDBRANCH   1   7
TORSDOF 3
ENDMDL
