MODEL 1
REMARK minimizedAffinity 1.09033573
REMARK minimizedRMSD -1
REMARK  3 active torsions:
REMARK  status: ('A' for Active; 'I' for Inactive)
REMARK    1  A    between atoms: C3'_2  and  C2'_3 
REMARK    2  A    between atoms: C2'_3  and  C1'_4 
REMARK    3  A    between atoms: C1'_4  and  C1_5 
ROOT
ATOM      1  C1  N4B d   1       0.901  -0.760   1.153  0.00  0.00    -0.075 A 
ATOM      2  C2  N4B d   1       1.654  -1.007  -0.016  0.00  0.00     0.002 A 
ATOM      3  C3  N4B d   1       1.056  -0.919  -1.249  0.00  0.00     0.002 A 
ATOM      4  C4  N4B d   1      -0.292  -0.605  -1.337  0.00  0.00    -0.004 A 
ATOM      5  C5  N4B d   1      -1.006  -0.343  -0.204  0.00  0.00     0.002 A 
ATOM      6  C6  N4B d   1      -0.417  -0.424   1.041  0.00  0.00     0.002 A 
ENDROOT
BRANCH   1   7
ATOM      7  C1' N4B d   1       1.489  -0.928   2.527  0.00  0.00     0.057 C 
BRANCH   7   8
ATOM      8  C2' N4B d   1       1.229  -2.351   3.013  0.00  0.00     0.009 C 
BRANCH   8   9
ATOM      9  C3' N4B d   1      -0.242  -2.722   2.923  0.00  0.00     0.004 C 
ATOM     10  C4' N4B d   1      -0.477  -4.198   3.044  0.00  0.00     0.003 C 
ENDBRANCH   8   9
ENDBRANCH   7   8
ENDBRANCH   1   7
TORSDOF 3
ENDMDL
