MODEL 1
REMARK minimizedAffinity -2.08480597
REMARK minimizedRMSD -1
REMARK  3 active torsions:
REMARK  status: ('A' for Active; 'I' for Inactive)
REMARK    1  A    between atoms: C3'_2  and  C2'_3 
REMARK    2  A    between atoms: C2'_3  and  C1'_4 
REMARK    3  A    between atoms: C1'_4  and  C1_5 
ROOT
ATOM      1  C1  N4B d   1       4.268   5.031   3.387  0.00  0.00    -0.075 A 
ATOM      2  C2  N4B d   1       3.475   3.984   2.869  0.00  0.00     0.002 A 
ATOM      3  C3  N4B d   1       3.962   3.188   1.860  0.00  0.00     0.002 A 
ATOM      4  C4  N4B d   1       5.226   3.432   1.345  0.00  0.00    -0.004 A 
ATOM      5  C5  N4B d   1       5.996   4.429   1.869  0.00  0.00     0.002 A 
ATOM      6  C6  N4B d   1       5.521   5.233   2.885  0.00  0.00     0.002 A 
ENDROOT
BRANCH   1   7
ATOM      7  C1' N4B d   1       3.746   5.980   4.431  0.00  0.00     0.057 C 
BRANCH   7   8
ATOM      8  C2' N4B d   1       2.221   5.999   4.373  0.00  0.00     0.009 C 
BRANCH   8   9
ATOM      9  C3' N4B d   1       1.599   5.911   5.755  0.00  0.00     0.004 C 
ATOM     10  C4' N4B d   1       0.102   6.000   5.725  0.00  0.00     0.003 C 
ENDBRANCH   8   9
ENDBRANCH   7   8
ENDBRANCH   1   7
TORSDOF 3
ENDMDL
