MODEL 1
REMARK minimizedAffinity 5.41120386
REMARK minimizedRMSD -1
REMARK  3 active torsions:
REMARK  status: ('A' for Active; 'I' for Inactive)
REMARK    1  A    between atoms: C3'_2  and  C2'_3 
REMARK    2  A    between atoms: C2'_3  and  C1'_4 
REMARK    3  A    between atoms: C1'_4  and  C1_5 
ROOT
ATOM      1  C1  N4B d   1       0.290  -2.785   2.615  0.00  0.00    -0.075 A 
ATOM      2  C2  N4B d   1      -1.019  -3.225   2.912  0.00  0.00     0.002 A 
ATOM      3  C3  N4B d   1      -2.006  -2.309   3.184  0.00  0.00     0.002 A 
ATOM      4  C4  N4B d   1      -1.704  -0.956   3.184  0.00  0.00    -0.004 A 
ATOM      5  C5  N4B d   1      -0.444  -0.538   2.872  0.00  0.00     0.002 A 
ATOM      6  C6  N4B d   1       0.557  -1.447   2.592  0.00  0.00     0.002 A 
ENDROOT
BRANCH   1   7
ATOM      7  C1' N4B d   1       1.422  -3.751   2.395  0.00  0.00     0.057 C 
BRANCH   7   8
ATOM      8  C2' N4B d   1       2.557  -3.421   3.360  0.00  0.00     0.009 C 
BRANCH   8   9
ATOM      9  C3' N4B d   1       3.329  -4.662   3.775  0.00  0.00     0.004 C 
ATOM     10  C4' N4B d   1       4.116  -4.461   5.036  0.00  0.00     0.003 C 
ENDBRANCH   8   9
ENDBRANCH   7   8
ENDBRANCH   1   7
TORSDOF 3
ENDMDL
