MODEL 1
REMARK minimizedAffinity -2.49952745
REMARK minimizedRMSD -1
REMARK  3 active torsions:
REMARK  status: ('A' for Active; 'I' for Inactive)
REMARK    1  A    between atoms: C3'_2  and  C2'_3 
REMARK    2  A    between atoms: C2'_3  and  C1'_4 
REMARK    3  A    between atoms: C1'_4  and  C1_5 
ROOT
ATOM      1  C1  N4B d   1      -0.075  -1.600   2.545  0.00  0.00    -0.075 A 
ATOM      2  C2  N4B d   1      -0.044  -0.774   1.400  0.00  0.00     0.002 A 
ATOM      3  C3  N4B d   1      -1.179  -0.111   1.001  0.00  0.00     0.002 A 
ATOM      4  C4  N4B d   1      -2.355  -0.272   1.718  0.00  0.00    -0.004 A 
ATOM      5  C5  N4B d   1      -2.370  -1.052   2.837  0.00  0.00     0.002 A 
ATOM      6  C6  N4B d   1      -1.236  -1.721   3.252  0.00  0.00     0.002 A 
ENDROOT
BRANCH   1   7
ATOM      7  C1' N4B d   1       1.117  -2.413   2.970  0.00  0.00     0.057 C 
BRANCH   7   8
ATOM      8  C2' N4B d   1       1.918  -2.813   1.734  0.00  0.00     0.009 C 
BRANCH   8   9
ATOM      9  C3' N4B d   1       1.764  -4.289   1.410  0.00  0.00     0.004 C 
ATOM     10  C4' N4B d   1       0.416  -4.828   1.784  0.00  0.00     0.003 C 
ENDBRANCH   8   9
ENDBRANCH   7   8
ENDBRANCH   1   7
TORSDOF 3
ENDMDL
