MODEL 1
REMARK minimizedAffinity -2.32671857
REMARK minimizedRMSD -1
REMARK  3 active torsions:
REMARK  status: ('A' for Active; 'I' for Inactive)
REMARK    1  A    between atoms: C3'_2  and  C2'_3 
REMARK    2  A    between atoms: C2'_3  and  C1'_4 
REMARK    3  A    between atoms: C1'_4  and  C1_5 
ROOT
ATOM      1  C1  N4B d   1       3.667   5.407   2.851  0.00  0.00    -0.075 A 
ATOM      2  C2  N4B d   1       4.859   5.928   3.400  0.00  0.00     0.002 A 
ATOM      3  C3  N4B d   1       5.997   5.994   2.634  0.00  0.00     0.002 A 
ATOM      4  C4  N4B d   1       5.972   5.529   1.327  0.00  0.00    -0.004 A 
ATOM      5  C5  N4B d   1       4.810   5.051   0.796  0.00  0.00     0.002 A 
ATOM      6  C6  N4B d   1       3.658   4.982   1.553  0.00  0.00     0.002 A 
ENDROOT
BRANCH   1   7
ATOM      7  C1' N4B d   1       2.421   5.235   3.676  0.00  0.00     0.057 C 
BRANCH   7   8
ATOM      8  C2' N4B d   1       2.616   5.920   5.025  0.00  0.00     0.009 C 
BRANCH   8   9
ATOM      9  C3' N4B d   1       3.469   5.087   5.967  0.00  0.00     0.004 C 
ATOM     10  C4' N4B d   1       3.357   3.615   5.704  0.00  0.00     0.003 C 
ENDBRANCH   8   9
ENDBRANCH   7   8
ENDBRANCH   1   7
TORSDOF 3
ENDMDL
