MODEL 1
REMARK minimizedAffinity -0.605237365
REMARK minimizedRMSD -1
REMARK  3 active torsions:
REMARK  status: ('A' for Active; 'I' for Inactive)
REMARK    1  A    between atoms: C3'_2  and  C2'_3 
REMARK    2  A    between atoms: C2'_3  and  C1'_4 
REMARK    3  A    between atoms: C1'_4  and  C1_5 
ROOT
ATOM      1  C1  N4B d   1       0.660  -2.884   2.365  0.00  0.00    -0.075 A 
ATOM      2  C2  N4B d   1       0.691  -2.286   1.086  0.00  0.00     0.002 A 
ATOM      3  C3  N4B d   1      -0.004  -1.125   0.854  0.00  0.00     0.002 A 
ATOM      4  C4  N4B d   1      -0.749  -0.556   1.876  0.00  0.00    -0.004 A 
ATOM      5  C5  N4B d   1      -0.754  -1.126   3.115  0.00  0.00     0.002 A 
ATOM      6  C6  N4B d   1      -0.057  -2.291   3.364  0.00  0.00     0.002 A 
ENDROOT
BRANCH   1   7
ATOM      7  C1' N4B d   1       1.334  -4.200   2.643  0.00  0.00     0.057 C 
BRANCH   7   8
ATOM      8  C2' N4B d   1       2.310  -4.512   1.513  0.00  0.00     0.009 C 
BRANCH   8   9
ATOM      9  C3' N4B d   1       3.256  -5.643   1.875  0.00  0.00     0.004 C 
ATOM     10  C4' N4B d   1       4.553  -5.578   1.125  0.00  0.00     0.003 C 
ENDBRANCH   8   9
ENDBRANCH   7   8
ENDBRANCH   1   7
TORSDOF 3
ENDMDL
