MODEL 1
REMARK minimizedAffinity -1.89608502
REMARK minimizedRMSD -1
REMARK  3 active torsions:
REMARK  status: ('A' for Active; 'I' for Inactive)
REMARK    1  A    between atoms: C3'_2  and  C2'_3 
REMARK    2  A    between atoms: C2'_3  and  C1'_4 
REMARK    3  A    between atoms: C1'_4  and  C1_5 
ROOT
ATOM      1  C1  N4B d   1       0.345  -1.168   1.224  0.00  0.00    -0.075 A 
ATOM      2  C2  N4B d   1       0.310  -1.466   2.604  0.00  0.00     0.002 A 
ATOM      3  C3  N4B d   1       0.916  -2.605   3.076  0.00  0.00     0.002 A 
ATOM      4  C4  N4B d   1       1.543  -3.467   2.189  0.00  0.00    -0.004 A 
ATOM      5  C5  N4B d   1       1.595  -3.158   0.861  0.00  0.00     0.002 A 
ATOM      6  C6  N4B d   1       0.994  -2.015   0.373  0.00  0.00     0.002 A 
ENDROOT
BRANCH   1   7
ATOM      7  C1' N4B d   1      -0.376   0.020   0.650  0.00  0.00     0.057 C 
BRANCH   7   8
ATOM      8  C2' N4B d   1      -1.540  -0.466  -0.208  0.00  0.00     0.009 C 
BRANCH   8   9
ATOM      9  C3' N4B d   1      -2.760  -0.808   0.630  0.00  0.00     0.004 C 
ATOM     10  C4' N4B d   1      -2.988   0.165   1.747  0.00  0.00     0.003 C 
ENDBRANCH   8   9
ENDBRANCH   7   8
ENDBRANCH   1   7
TORSDOF 3
ENDMDL
