MODEL 1
REMARK minimizedAffinity -2.1479404
REMARK minimizedRMSD -1
REMARK  3 active torsions:
REMARK  status: ('A' for Active; 'I' for Inactive)
REMARK    1  A    between atoms: C3'_2  and  C2'_3 
REMARK    2  A    between atoms: C2'_3  and  C1'_4 
REMARK    3  A    between atoms: C1'_4  and  C1_5 
ROOT
ATOM      1  C1  N4B d   1       0.143  -1.708   2.035  0.00  0.00    -0.075 A 
ATOM      2  C2  N4B d   1       0.030  -1.564   0.635  0.00  0.00     0.002 A 
ATOM      3  C3  N4B d   1      -0.980  -0.800   0.102  0.00  0.00     0.002 A 
ATOM      4  C4  N4B d   1      -1.895  -0.188   0.946  0.00  0.00    -0.004 A 
ATOM      5  C5  N4B d   1      -1.763  -0.311   2.298  0.00  0.00     0.002 A 
ATOM      6  C6  N4B d   1      -0.752  -1.073   2.847  0.00  0.00     0.002 A 
ENDROOT
BRANCH   1   7
ATOM      7  C1' N4B d   1       1.178  -2.603   2.661  0.00  0.00     0.057 C 
BRANCH   7   8
ATOM      8  C2' N4B d   1       2.066  -3.183   1.564  0.00  0.00     0.009 C 
BRANCH   8   9
ATOM      9  C3' N4B d   1       1.799  -4.662   1.340  0.00  0.00     0.004 C 
ATOM     10  C4' N4B d   1       2.928  -5.356   0.638  0.00  0.00     0.003 C 
ENDBRANCH   8   9
ENDBRANCH   7   8
ENDBRANCH   1   7
TORSDOF 3
ENDMDL
