MODEL 1
REMARK minimizedAffinity 2.52197194
REMARK minimizedRMSD -1
REMARK  3 active torsions:
REMARK  status: ('A' for Active; 'I' for Inactive)
REMARK    1  A    between atoms: C3'_2  and  C2'_3 
REMARK    2  A    between atoms: C2'_3  and  C1'_4 
REMARK    3  A    between atoms: C1'_4  and  C1_5 
ROOT
ATOM      1  C1  N4B d   1      -2.256  -0.426   0.704  0.00  0.00    -0.075 A 
ATOM      2  C2  N4B d   1      -1.810  -0.376   2.043  0.00  0.00     0.002 A 
ATOM      3  C3  N4B d   1      -0.472  -0.495   2.325  0.00  0.00     0.002 A 
ATOM      4  C4  N4B d   1       0.433  -0.684   1.292  0.00  0.00    -0.004 A 
ATOM      5  C5  N4B d   1      -0.003  -0.705  -0.001  0.00  0.00     0.002 A 
ATOM      6  C6  N4B d   1      -1.345  -0.582  -0.300  0.00  0.00     0.002 A 
ENDROOT
BRANCH   1   7
ATOM      7  C1' N4B d   1      -3.718  -0.386   0.352  0.00  0.00     0.057 C 
BRANCH   7   8
ATOM      8  C2' N4B d   1      -4.538  -0.250   1.632  0.00  0.00     0.009 C 
BRANCH   8   9
ATOM      9  C3' N4B d   1      -5.948  -0.788   1.463  0.00  0.00     0.004 C 
ATOM     10  C4' N4B d   1      -5.998  -2.286   1.431  0.00  0.00     0.003 C 
ENDBRANCH   8   9
ENDBRANCH   7   8
ENDBRANCH   1   7
TORSDOF 3
ENDMDL
