MODEL 1
REMARK minimizedAffinity 6.60264111
REMARK minimizedRMSD -1
REMARK  3 active torsions:
REMARK  status: ('A' for Active; 'I' for Inactive)
REMARK    1  A    between atoms: C3'_2  and  C2'_3 
REMARK    2  A    between atoms: C2'_3  and  C1'_4 
REMARK    3  A    between atoms: C1'_4  and  C1_5 
ROOT
ATOM      1  C1  N4B d   1       4.658   1.116  -1.032  0.00  0.00    -0.075 A 
ATOM      2  C2  N4B d   1       4.847   2.431  -1.511  0.00  0.00     0.002 A 
ATOM      3  C3  N4B d   1       5.492   3.360  -0.732  0.00  0.00     0.002 A 
ATOM      4  C4  N4B d   1       5.938   3.004   0.532  0.00  0.00    -0.004 A 
ATOM      5  C5  N4B d   1       5.775   1.725   0.977  0.00  0.00     0.002 A 
ATOM      6  C6  N4B d   1       5.132   0.780   0.203  0.00  0.00     0.002 A 
ENDROOT
BRANCH   1   7
ATOM      7  C1' N4B d   1       3.883   0.090  -1.813  0.00  0.00     0.057 C 
BRANCH   7   8
ATOM      8  C2' N4B d   1       2.663  -0.337  -1.004  0.00  0.00     0.009 C 
BRANCH   8   9
ATOM      9  C3' N4B d   1       2.709  -1.812  -0.640  0.00  0.00     0.004 C 
ATOM     10  C4' N4B d   1       2.348  -2.705  -1.789  0.00  0.00     0.003 C 
ENDBRANCH   8   9
ENDBRANCH   7   8
ENDBRANCH   1   7
TORSDOF 3
ENDMDL
