MODEL 1
REMARK minimizedAffinity 5.55233955
REMARK minimizedRMSD -1
REMARK  3 active torsions:
REMARK  status: ('A' for Active; 'I' for Inactive)
REMARK    1  A    between atoms: C3'_2  and  C2'_3 
REMARK    2  A    between atoms: C2'_3  and  C1'_4 
REMARK    3  A    between atoms: C1'_4  and  C1_5 
ROOT
ATOM      1  C1  N4B d   1      -5.048   1.809  -4.480  0.00  0.00    -0.075 A 
ATOM      2  C2  N4B d   1      -5.530   1.410  -3.214  0.00  0.00     0.002 A 
ATOM      3  C3  N4B d   1      -5.999   2.350  -2.329  0.00  0.00     0.002 A 
ATOM      4  C4  N4B d   1      -5.980   3.691  -2.680  0.00  0.00    -0.004 A 
ATOM      5  C5  N4B d   1      -5.537   4.067  -3.915  0.00  0.00     0.002 A 
ATOM      6  C6  N4B d   1      -5.066   3.132  -4.815  0.00  0.00     0.002 A 
ENDROOT
BRANCH   1   7
ATOM      7  C1' N4B d   1      -4.446   0.827  -5.447  0.00  0.00     0.057 C 
BRANCH   7   8
ATOM      8  C2' N4B d   1      -2.979   1.183  -5.673  0.00  0.00     0.009 C 
BRANCH   8   9
ATOM      9  C3' N4B d   1      -2.216   1.307  -4.366  0.00  0.00     0.004 C 
ATOM     10  C4' N4B d   1      -1.881  -0.023  -3.760  0.00  0.00     0.003 C 
ENDBRANCH   8   9
ENDBRANCH   7   8
ENDBRANCH   1   7
TORSDOF 3
ENDMDL
