MODEL 1
REMARK minimizedAffinity 3.63157439
REMARK minimizedRMSD -1
REMARK  3 active torsions:
REMARK  status: ('A' for Active; 'I' for Inactive)
REMARK    1  A    between atoms: C3'_2  and  C2'_3 
REMARK    2  A    between atoms: C2'_3  and  C1'_4 
REMARK    3  A    between atoms: C1'_4  and  C1_5 
ROOT
ATOM      1  C1  N4B d   1       3.892   0.469  -0.587  0.00  0.00    -0.075 A 
ATOM      2  C2  N4B d   1       4.235   1.177  -1.760  0.00  0.00     0.002 A 
ATOM      3  C3  N4B d   1       5.275   2.073  -1.741  0.00  0.00     0.002 A 
ATOM      4  C4  N4B d   1       5.972   2.292  -0.562  0.00  0.00    -0.004 A 
ATOM      5  C5  N4B d   1       5.651   1.585   0.560  0.00  0.00     0.002 A 
ATOM      6  C6  N4B d   1       4.610   0.678   0.555  0.00  0.00     0.002 A 
ENDROOT
BRANCH   1   7
ATOM      7  C1' N4B d   1       2.708  -0.457  -0.536  0.00  0.00     0.057 C 
BRANCH   7   8
ATOM      8  C2' N4B d   1       3.116  -1.753   0.160  0.00  0.00     0.009 C 
BRANCH   8   9
ATOM      9  C3' N4B d   1       1.957  -2.729   0.267  0.00  0.00     0.004 C 
ATOM     10  C4' N4B d   1       1.626  -3.382  -1.042  0.00  0.00     0.003 C 
ENDBRANCH   8   9
ENDBRANCH   7   8
ENDBRANCH   1   7
TORSDOF 3
ENDMDL
