MODEL 1
REMARK minimizedAffinity 9.92167377
REMARK minimizedRMSD -1
REMARK  3 active torsions:
REMARK  status: ('A' for Active; 'I' for Inactive)
REMARK    1  A    between atoms: C3'_2  and  C2'_3 
REMARK    2  A    between atoms: C2'_3  and  C1'_4 
REMARK    3  A    between atoms: C1'_4  and  C1_5 
ROOT
ATOM      1  C1  N4B d   1       0.726   4.105   2.429  0.00  0.00    -0.075 A 
ATOM      2  C2  N4B d   1       1.917   3.375   2.634  0.00  0.00     0.002 A 
ATOM      3  C3  N4B d   1       2.951   3.934   3.345  0.00  0.00     0.002 A 
ATOM      4  C4  N4B d   1       2.824   5.222   3.842  0.00  0.00    -0.004 A 
ATOM      5  C5  N4B d   1       1.660   5.911   3.661  0.00  0.00     0.002 A 
ATOM      6  C6  N4B d   1       0.612   5.360   2.952  0.00  0.00     0.002 A 
ENDROOT
BRANCH   1   7
ATOM      7  C1' N4B d   1      -0.399   3.569   1.586  0.00  0.00     0.057 C 
BRANCH   7   8
ATOM      8  C2' N4B d   1      -0.261   2.053   1.472  0.00  0.00     0.009 C 
BRANCH   8   9
ATOM      9  C3' N4B d   1      -0.798   1.532   0.150  0.00  0.00     0.004 C 
ATOM     10  C4' N4B d   1       0.290   1.102  -0.788  0.00  0.00     0.003 C 
ENDBRANCH   8   9
ENDBRANCH   7   8
ENDBRANCH   1   7
TORSDOF 3
ENDMDL
