MODEL 1
REMARK minimizedAffinity 5.9286747
REMARK minimizedRMSD -1
REMARK  3 active torsions:
REMARK  status: ('A' for Active; 'I' for Inactive)
REMARK    1  A    between atoms: C3'_2  and  C2'_3 
REMARK    2  A    between atoms: C2'_3  and  C1'_4 
REMARK    3  A    between atoms: C1'_4  and  C1_5 
ROOT
ATOM      1  C1  N4B d   1      -2.366   1.182   0.209  0.00  0.00    -0.075 A 
ATOM      2  C2  N4B d   1      -1.954   0.808  -1.089  0.00  0.00     0.002 A 
ATOM      3  C3  N4B d   1      -0.618   0.778  -1.403  0.00  0.00     0.002 A 
ATOM      4  C4  N4B d   1       0.320   1.134  -0.446  0.00  0.00    -0.004 A 
ATOM      5  C5  N4B d   1      -0.084   1.470   0.813  0.00  0.00     0.002 A 
ATOM      6  C6  N4B d   1      -1.424   1.500   1.144  0.00  0.00     0.002 A 
ENDROOT
BRANCH   1   7
ATOM      7  C1' N4B d   1      -3.819   1.312   0.575  0.00  0.00     0.057 C 
BRANCH   7   8
ATOM      8  C2' N4B d   1      -4.645   0.391  -0.319  0.00  0.00     0.009 C 
BRANCH   8   9
ATOM      9  C3' N4B d   1      -6.000   0.990  -0.654  0.00  0.00     0.004 C 
ATOM     10  C4' N4B d   1      -5.999   2.489  -0.611  0.00  0.00     0.003 C 
ENDBRANCH   8   9
ENDBRANCH   7   8
ENDBRANCH   1   7
TORSDOF 3
ENDMDL
