MODEL 1
REMARK minimizedAffinity 4.07670832
REMARK minimizedRMSD -1
REMARK  3 active torsions:
REMARK  status: ('A' for Active; 'I' for Inactive)
REMARK    1  A    between atoms: C3'_2  and  C2'_3 
REMARK    2  A    between atoms: C2'_3  and  C1'_4 
REMARK    3  A    between atoms: C1'_4  and  C1_5 
ROOT
ATOM      1  C1  N4B d   1       3.229  -1.941  -1.474  0.00  0.00    -0.075 A 
ATOM      2  C2  N4B d   1       2.963  -2.175  -0.107  0.00  0.00     0.002 A 
ATOM      3  C3  N4B d   1       2.027  -3.111   0.259  0.00  0.00     0.002 A 
ATOM      4  C4  N4B d   1       1.334  -3.808  -0.720  0.00  0.00    -0.004 A 
ATOM      5  C5  N4B d   1       1.616  -3.593  -2.038  0.00  0.00     0.002 A 
ATOM      6  C6  N4B d   1       2.557  -2.659  -2.420  0.00  0.00     0.002 A 
ENDROOT
BRANCH   1   7
ATOM      7  C1' N4B d   1       4.182  -0.867  -1.925  0.00  0.00     0.057 C 
BRANCH   7   8
ATOM      8  C2' N4B d   1       4.086   0.320  -0.971  0.00  0.00     0.009 C 
BRANCH   8   9
ATOM      9  C3' N4B d   1       5.445   0.718  -0.421  0.00  0.00     0.004 C 
ATOM     10  C4' N4B d   1       5.564   2.193  -0.180  0.00  0.00     0.003 C 
ENDBRANCH   8   9
ENDBRANCH   7   8
ENDBRANCH   1   7
TORSDOF 3
ENDMDL
