MODEL 1
REMARK minimizedAffinity -3.08710432
REMARK minimizedRMSD -1
REMARK  0 active torsions:
REMARK  status: ('A' for Active; 'I' for Inactive)
ROOT
ATOM      1  N1  IND d   1       0.253   2.778  -0.791  0.00  0.00    -0.196 N 
ATOM      2  C2  IND d   1      -0.085   3.945  -0.164  0.00  0.00     0.054 A 
ATOM      3  C3  IND d   1      -0.634   3.688   1.045  0.00  0.00    -0.031 A 
ATOM      4  C4  IND d   1      -0.979   1.433   2.238  0.00  0.00     0.051 A 
ATOM      5  C5  IND d   1      -0.860   0.085   2.049  0.00  0.00    -0.031 A 
ATOM      6  C6  IND d   1      -0.352  -0.446   0.881  0.00  0.00     0.015 A 
ATOM      7  C7  IND d   1       0.070   0.357  -0.142  0.00  0.00    -0.016 A 
ATOM      8  C8  IND d   1      -0.056   1.726   0.044  0.00  0.00    -0.047 A 
ATOM      9  C9  IND d   1      -0.611   2.269   1.211  0.00  0.00    -0.096 A 
ATOM     10  HN1 IND d   1       0.600   2.711  -1.575  0.00  0.00     0.298 HD
ENDROOT
TORSDOF 0
ENDMDL
