MODEL 1
REMARK minimizedAffinity -3.18494296
REMARK minimizedRMSD -1
REMARK  0 active torsions:
REMARK  status: ('A' for Active; 'I' for Inactive)
ROOT
ATOM      1  N1  IND d   1       0.539   2.616  -0.848  0.00  0.00    -0.196 N 
ATOM      2  C2  IND d   1       0.307   3.837  -0.278  0.00  0.00     0.054 A 
ATOM      3  C3  IND d   1      -0.339   3.691   0.901  0.00  0.00    -0.031 A 
ATOM      4  C4  IND d   1      -1.024   1.538   2.134  0.00  0.00     0.051 A 
ATOM      5  C5  IND d   1      -1.057   0.179   1.992  0.00  0.00    -0.031 A 
ATOM      6  C6  IND d   1      -0.547  -0.450   0.875  0.00  0.00     0.015 A 
ATOM      7  C7  IND d   1       0.028   0.259  -0.142  0.00  0.00    -0.016 A 
ATOM      8  C8  IND d   1       0.057   1.640  -0.004  0.00  0.00    -0.047 A 
ATOM      9  C9  IND d   1      -0.497   2.286   1.109  0.00  0.00    -0.096 A 
ATOM     10  HN1 IND d   1       0.921   2.481  -1.606  0.00  0.00     0.298 HD
ENDROOT
TORSDOF 0
ENDMDL
