MODEL 1
REMARK minimizedAffinity -2.34408522
REMARK minimizedRMSD -1
REMARK  0 active torsions:
REMARK  status: ('A' for Active; 'I' for Inactive)
ROOT
ATOM      1  N1  IND d   1       0.779   2.590  -0.882  0.00  0.00    -0.196 N 
ATOM      2  C2  IND d   1       0.328   3.764  -0.346  0.00  0.00     0.054 A 
ATOM      3  C3  IND d   1      -0.413   3.523   0.759  0.00  0.00    -0.031 A 
ATOM      4  C4  IND d   1      -0.929   1.288   1.926  0.00  0.00     0.051 A 
ATOM      5  C5  IND d   1      -0.765  -0.062   1.789  0.00  0.00    -0.031 A 
ATOM      6  C6  IND d   1      -0.062  -0.608   0.734  0.00  0.00     0.015 A 
ATOM      7  C7  IND d   1       0.517   0.180  -0.220  0.00  0.00    -0.016 A 
ATOM      8  C8  IND d   1       0.346   1.551  -0.088  0.00  0.00    -0.047 A 
ATOM      9  C9  IND d   1      -0.403   2.109   0.957  0.00  0.00    -0.096 A 
ATOM     10  HN1 IND d   1       1.253   2.514  -1.595  0.00  0.00     0.298 HD
ENDROOT
TORSDOF 0
ENDMDL
