MODEL 1
REMARK minimizedAffinity -3.93200541
REMARK minimizedRMSD -1
REMARK  0 active torsions:
REMARK  status: ('A' for Active; 'I' for Inactive)
ROOT
ATOM      1  N1  IND d   1      -0.775  -3.076  -1.561  0.00  0.00    -0.196 N 
ATOM      2  C2  IND d   1       0.280  -3.399  -2.368  0.00  0.00     0.054 A 
ATOM      3  C3  IND d   1       1.283  -2.507  -2.212  0.00  0.00    -0.031 A 
ATOM      4  C4  IND d   1       1.450  -0.498  -0.611  0.00  0.00     0.051 A 
ATOM      5  C5  IND d   1       0.722   0.220   0.297  0.00  0.00    -0.031 A 
ATOM      6  C6  IND d   1      -0.566  -0.133   0.641  0.00  0.00     0.015 A 
ATOM      7  C7  IND d   1      -1.174  -1.229   0.096  0.00  0.00    -0.016 A 
ATOM      8  C8  IND d   1      -0.441  -1.956  -0.832  0.00  0.00    -0.047 A 
ATOM      9  C9  IND d   1       0.852  -1.577  -1.217  0.00  0.00    -0.096 A 
ATOM     10  HN1 IND d   1      -1.521  -3.501  -1.516  0.00  0.00     0.298 HD
ENDROOT
TORSDOF 0
ENDMDL
