MODEL 1
REMARK minimizedAffinity -4.17738342
REMARK minimizedRMSD -1
REMARK  0 active torsions:
REMARK  status: ('A' for Active; 'I' for Inactive)
ROOT
ATOM      1  N1  IND d   1       1.028  -0.369   0.343  0.00  0.00    -0.196 N 
ATOM      2  C2  IND d   1      -0.198  -0.211   0.928  0.00  0.00     0.054 A 
ATOM      3  C3  IND d   1      -1.130  -0.936   0.270  0.00  0.00    -0.031 A 
ATOM      4  C4  IND d   1      -0.849  -2.533  -1.730  0.00  0.00     0.051 A 
ATOM      5  C5  IND d   1       0.077  -2.977  -2.632  0.00  0.00    -0.031 A 
ATOM      6  C6  IND d   1       1.394  -2.568  -2.586  0.00  0.00     0.015 A 
ATOM      7  C7  IND d   1       1.839  -1.705  -1.625  0.00  0.00    -0.016 A 
ATOM      8  C8  IND d   1       0.900  -1.246  -0.712  0.00  0.00    -0.047 A 
ATOM      9  C9  IND d   1      -0.447  -1.625  -0.779  0.00  0.00    -0.096 A 
ATOM     10  HN1 IND d   1       1.756   0.015   0.591  0.00  0.00     0.298 HD
ENDROOT
TORSDOF 0
ENDMDL
