MODEL 1
REMARK minimizedAffinity 0.0259465836
REMARK minimizedRMSD -1
REMARK  0 active torsions:
REMARK  status: ('A' for Active; 'I' for Inactive)
ROOT
ATOM      1  N1  IND d   1      -0.010  -3.198  -2.656  0.00  0.00    -0.196 N 
ATOM      2  C2  IND d   1       0.708  -4.224  -2.108  0.00  0.00     0.054 A 
ATOM      3  C3  IND d   1       1.271  -3.834  -0.943  0.00  0.00    -0.031 A 
ATOM      4  C4  IND d   1       1.061  -1.593   0.306  0.00  0.00     0.051 A 
ATOM      5  C5  IND d   1       0.540  -0.336   0.182  0.00  0.00    -0.031 A 
ATOM      6  C6  IND d   1      -0.209   0.038  -0.915  0.00  0.00     0.015 A 
ATOM      7  C7  IND d   1      -0.475  -0.838  -1.928  0.00  0.00    -0.016 A 
ATOM      8  C8  IND d   1       0.059  -2.114  -1.809  0.00  0.00    -0.047 A 
ATOM      9  C9  IND d   1       0.855  -2.486  -0.719  0.00  0.00    -0.096 A 
ATOM     10  HN1 IND d   1      -0.434  -3.226  -3.403  0.00  0.00     0.298 HD
ENDROOT
TORSDOF 0
ENDMDL
