MODEL 1
REMARK minimizedAffinity -3.78236485
REMARK minimizedRMSD -1
REMARK  0 active torsions:
REMARK  status: ('A' for Active; 'I' for Inactive)
ROOT
ATOM      1  N1  IND d   1       0.500   2.470  -0.754  0.00  0.00    -0.196 N 
ATOM      2  C2  IND d   1       0.130   3.596  -0.074  0.00  0.00     0.054 A 
ATOM      3  C3  IND d   1      -0.520   3.266   1.065  0.00  0.00    -0.031 A 
ATOM      4  C4  IND d   1      -0.998   0.940   2.059  0.00  0.00     0.051 A 
ATOM      5  C5  IND d   1      -0.885  -0.394   1.782  0.00  0.00    -0.031 A 
ATOM      6  C6  IND d   1      -0.291  -0.850   0.623  0.00  0.00     0.015 A 
ATOM      7  C7  IND d   1       0.226   0.014  -0.300  0.00  0.00    -0.016 A 
ATOM      8  C8  IND d   1       0.107   1.369  -0.026  0.00  0.00    -0.047 A 
ATOM      9  C9  IND d   1      -0.533   1.839   1.128  0.00  0.00    -0.096 A 
ATOM     10  HN1 IND d   1       0.909   2.452  -1.510  0.00  0.00     0.298 HD
ENDROOT
TORSDOF 0
ENDMDL
