MODEL 1
REMARK minimizedAffinity -3.30235147
REMARK minimizedRMSD -1
REMARK  0 active torsions:
REMARK  status: ('A' for Active; 'I' for Inactive)
ROOT
ATOM      1  N1  IND d   1       1.757  -2.690  -2.358  0.00  0.00    -0.196 N 
ATOM      2  C2  IND d   1       0.787  -3.594  -2.691  0.00  0.00     0.054 A 
ATOM      3  C3  IND d   1      -0.379  -3.278  -2.085  0.00  0.00    -0.031 A 
ATOM      4  C4  IND d   1      -0.949  -1.264  -0.585  0.00  0.00     0.051 A 
ATOM      5  C5  IND d   1      -0.380  -0.186   0.032  0.00  0.00    -0.031 A 
ATOM      6  C6  IND d   1       0.956   0.121  -0.121  0.00  0.00     0.015 A 
ATOM      7  C7  IND d   1       1.775  -0.637  -0.910  0.00  0.00    -0.016 A 
ATOM      8  C8  IND d   1       1.203  -1.737  -1.533  0.00  0.00    -0.047 A 
ATOM      9  C9  IND d   1      -0.143  -2.077  -1.347  0.00  0.00    -0.096 A 
ATOM     10  HN1 IND d   1       2.576  -2.714  -2.620  0.00  0.00     0.298 HD
ENDROOT
TORSDOF 0
ENDMDL
