MODEL 1
REMARK minimizedAffinity -3.64689016
REMARK minimizedRMSD -1
REMARK  0 active torsions:
REMARK  status: ('A' for Active; 'I' for Inactive)
ROOT
ATOM      1  N1  IND d   1       0.382   2.761  -0.981  0.00  0.00    -0.196 N 
ATOM      2  C2  IND d   1       0.078   3.910  -0.307  0.00  0.00     0.054 A 
ATOM      3  C3  IND d   1      -0.522   3.621   0.870  0.00  0.00    -0.031 A 
ATOM      4  C4  IND d   1      -1.011   1.329   1.936  0.00  0.00     0.051 A 
ATOM      5  C5  IND d   1      -0.947  -0.012   1.683  0.00  0.00    -0.031 A 
ATOM      6  C6  IND d   1      -0.424  -0.508   0.506  0.00  0.00     0.015 A 
ATOM      7  C7  IND d   1       0.067   0.323  -0.461  0.00  0.00    -0.016 A 
ATOM      8  C8  IND d   1      -0.002   1.686  -0.210  0.00  0.00    -0.047 A 
ATOM      9  C9  IND d   1      -0.570   2.196   0.964  0.00  0.00    -0.096 A 
ATOM     10  HN1 IND d   1       0.752   2.717  -1.756  0.00  0.00     0.298 HD
ENDROOT
TORSDOF 0
ENDMDL
