MODEL 1
REMARK minimizedAffinity -2.81255078
REMARK minimizedRMSD -1
REMARK  0 active torsions:
REMARK  status: ('A' for Active; 'I' for Inactive)
ROOT
ATOM      1  N1  IND d   1       1.186  -1.801  -1.768  0.00  0.00    -0.196 N 
ATOM      2  C2  IND d   1       0.323  -2.768  -2.204  0.00  0.00     0.054 A 
ATOM      3  C3  IND d   1      -0.821  -2.736  -1.486  0.00  0.00    -0.031 A 
ATOM      4  C4  IND d   1      -1.534  -1.117   0.385  0.00  0.00     0.051 A 
ATOM      5  C5  IND d   1      -1.068  -0.089   1.155  0.00  0.00    -0.031 A 
ATOM      6  C6  IND d   1       0.198   0.434   0.984  0.00  0.00     0.015 A 
ATOM      7  C7  IND d   1       1.044  -0.047   0.026  0.00  0.00    -0.016 A 
ATOM      8  C8  IND d   1       0.577  -1.097  -0.753  0.00  0.00    -0.047 A 
ATOM      9  C9  IND d   1      -0.691  -1.659  -0.556  0.00  0.00    -0.096 A 
ATOM     10  HN1 IND d   1       1.976  -1.658  -2.075  0.00  0.00     0.298 HD
ENDROOT
TORSDOF 0
ENDMDL
