MODEL 1
REMARK minimizedAffinity -4.84899616
REMARK minimizedRMSD -1
REMARK  0 active torsions:
REMARK  status: ('A' for Active; 'I' for Inactive)
ROOT
ATOM      1  N1  IND d   1       0.370   2.474  -0.879  0.00  0.00    -0.196 N 
ATOM      2  C2  IND d   1      -0.113   3.642  -0.359  0.00  0.00     0.054 A 
ATOM      3  C3  IND d   1      -0.753   3.407   0.809  0.00  0.00    -0.031 A 
ATOM      4  C4  IND d   1      -1.038   1.200   2.103  0.00  0.00     0.051 A 
ATOM      5  C5  IND d   1      -0.799  -0.142   2.009  0.00  0.00    -0.031 A 
ATOM      6  C6  IND d   1      -0.144  -0.692   0.927  0.00  0.00     0.015 A 
ATOM      7  C7  IND d   1       0.311   0.085  -0.101  0.00  0.00    -0.016 A 
ATOM      8  C8  IND d   1       0.064   1.448  -0.012  0.00  0.00    -0.047 A 
ATOM      9  C9  IND d   1      -0.638   2.006   1.063  0.00  0.00    -0.096 A 
ATOM     10  HN1 IND d   1       0.794   2.393  -1.623  0.00  0.00     0.298 HD
ENDROOT
TORSDOF 0
ENDMDL
