MODEL 1
REMARK minimizedAffinity -1.88264155
REMARK minimizedRMSD -1
REMARK  0 active torsions:
REMARK  status: ('A' for Active; 'I' for Inactive)
ROOT
ATOM      1  N1  IND d   1       1.040   1.659  -1.498  0.00  0.00    -0.196 N 
ATOM      2  C2  IND d   1       0.657   2.971  -1.542  0.00  0.00     0.054 A 
ATOM      3  C3  IND d   1      -0.106   3.274  -0.468  0.00  0.00    -0.031 A 
ATOM      4  C4  IND d   1      -0.769   1.800   1.536  0.00  0.00     0.051 A 
ATOM      5  C5  IND d   1      -0.687   0.519   2.005  0.00  0.00    -0.031 A 
ATOM      6  C6  IND d   1      -0.008  -0.467   1.317  0.00  0.00     0.015 A 
ATOM      7  C7  IND d   1       0.625  -0.204   0.135  0.00  0.00    -0.016 A 
ATOM      8  C8  IND d   1       0.538   1.094  -0.347  0.00  0.00    -0.047 A 
ATOM      9  C9  IND d   1      -0.185   2.088   0.325  0.00  0.00    -0.096 A 
ATOM     10  HN1 IND d   1       1.516   1.255  -2.090  0.00  0.00     0.298 HD
ENDROOT
TORSDOF 0
ENDMDL
