MODEL 1
REMARK minimizedAffinity -0.397572517
REMARK minimizedRMSD -1
REMARK  0 active torsions:
REMARK  status: ('A' for Active; 'I' for Inactive)
ROOT
ATOM      1  N1  IND d   1       0.981  -0.339  -1.379  0.00  0.00    -0.196 N 
ATOM      2  C2  IND d   1       0.556  -1.593  -1.720  0.00  0.00     0.054 A 
ATOM      3  C3  IND d   1      -0.348  -2.043  -0.822  0.00  0.00    -0.031 A 
ATOM      4  C4  IND d   1      -1.352  -0.851   1.228  0.00  0.00     0.051 A 
ATOM      5  C5  IND d   1      -1.247   0.295   1.966  0.00  0.00    -0.031 A 
ATOM      6  C6  IND d   1      -0.379   1.309   1.618  0.00  0.00     0.015 A 
ATOM      7  C7  IND d   1       0.413   1.220   0.508  0.00  0.00    -0.016 A 
ATOM      8  C8  IND d   1       0.314   0.055  -0.240  0.00  0.00    -0.047 A 
ATOM      9  C9  IND d   1      -0.534  -0.995   0.132  0.00  0.00    -0.096 A 
ATOM     10  HN1 IND d   1       1.567   0.125  -1.804  0.00  0.00     0.298 HD
ENDROOT
TORSDOF 0
ENDMDL
