MODEL 1
REMARK minimizedAffinity -4.36780453
REMARK minimizedRMSD -1
REMARK  0 active torsions:
REMARK  status: ('A' for Active; 'I' for Inactive)
ROOT
ATOM      1  N1  IND d   1       0.335   0.393  -0.648  0.00  0.00    -0.196 N 
ATOM      2  C2  IND d   1      -0.145  -0.550   0.217  0.00  0.00     0.054 A 
ATOM      3  C3  IND d   1      -0.706   0.042   1.295  0.00  0.00    -0.031 A 
ATOM      4  C4  IND d   1      -1.035   2.545   1.800  0.00  0.00     0.051 A 
ATOM      5  C5  IND d   1      -0.729   3.789   1.325  0.00  0.00    -0.031 A 
ATOM      6  C6  IND d   1      -0.041   3.968   0.142  0.00  0.00     0.015 A 
ATOM      7  C7  IND d   1       0.358   2.906  -0.618  0.00  0.00    -0.016 A 
ATOM      8  C8  IND d   1       0.056   1.641  -0.135  0.00  0.00    -0.047 A 
ATOM      9  C9  IND d   1      -0.605   1.451   1.086  0.00  0.00    -0.096 A 
ATOM     10  HN1 IND d   1       0.744   0.234  -1.387  0.00  0.00     0.298 HD
ENDROOT
TORSDOF 0
ENDMDL
