MODEL 1
REMARK minimizedAffinity -3.36229897
REMARK minimizedRMSD -1
REMARK  0 active torsions:
REMARK  status: ('A' for Active; 'I' for Inactive)
ROOT
ATOM      1  N1  IND d   1       0.836   3.083  -0.837  0.00  0.00    -0.196 N 
ATOM      2  C2  IND d   1       0.542   4.329  -0.359  0.00  0.00     0.054 A 
ATOM      3  C3  IND d   1      -0.276   4.240   0.714  0.00  0.00    -0.031 A 
ATOM      4  C4  IND d   1      -1.175   2.149   1.916  0.00  0.00     0.051 A 
ATOM      5  C5  IND d   1      -1.209   0.786   1.826  0.00  0.00    -0.031 A 
ATOM      6  C6  IND d   1      -0.548   0.105   0.824  0.00  0.00     0.015 A 
ATOM      7  C7  IND d   1       0.185   0.764  -0.121  0.00  0.00    -0.016 A 
ATOM      8  C8  IND d   1       0.216   2.149  -0.037  0.00  0.00    -0.047 A 
ATOM      9  C9  IND d   1      -0.488   2.848   0.952  0.00  0.00    -0.096 A 
ATOM     10  HN1 IND d   1       1.326   2.912  -1.523  0.00  0.00     0.298 HD
ENDROOT
TORSDOF 0
ENDMDL
