MODEL 1
REMARK minimizedAffinity 4.42314625
REMARK minimizedRMSD -1
REMARK  0 active torsions:
REMARK  status: ('A' for Active; 'I' for Inactive)
ROOT
ATOM      1  C1  BNZ d   1       1.852  -1.187  -2.966  0.00  0.00     0.000 A 
ATOM      2  C2  BNZ d   1       0.694  -1.917  -2.909  0.00  0.00     0.000 A 
ATOM      3  C3  BNZ d   1       0.322  -2.721  -3.950  0.00  0.00     0.000 A 
ATOM      4  C4  BNZ d   1       1.086  -2.762  -5.061  0.00  0.00     0.000 A 
ATOM      5  C5  BNZ d   1       2.250  -2.025  -5.137  0.00  0.00     0.000 A 
ATOM      6  C6  BNZ d   1       2.642  -1.247  -4.072  0.00  0.00     0.000 A 
ENDROOT
TORSDOF 0
ENDMDL
