MODEL 1
REMARK minimizedAffinity -2.20947051
REMARK minimizedRMSD -1
REMARK  0 active torsions:
REMARK  status: ('A' for Active; 'I' for Inactive)
ROOT
ATOM      1  C1  BNZ d   1       2.206  -5.993   4.339  0.00  0.00     0.000 A 
ATOM      2  C2  BNZ d   1       2.604  -5.996   3.028  0.00  0.00     0.000 A 
ATOM      3  C3  BNZ d   1       1.684  -5.976   2.017  0.00  0.00     0.000 A 
ATOM      4  C4  BNZ d   1       0.369  -5.993   2.317  0.00  0.00     0.000 A 
ATOM      5  C5  BNZ d   1      -0.048  -6.000   3.633  0.00  0.00     0.000 A 
ATOM      6  C6  BNZ d   1       0.881  -5.980   4.648  0.00  0.00     0.000 A 
ENDROOT
TORSDOF 0
ENDMDL
