MODEL 1
REMARK minimizedAffinity -1.72618389
REMARK minimizedRMSD -1
REMARK  0 active torsions:
REMARK  status: ('A' for Active; 'I' for Inactive)
ROOT
ATOM      1  C1  BNZ d   1       1.985  -5.985   3.870  0.00  0.00     0.000 A 
ATOM      2  C2  BNZ d   1       2.273  -5.995   2.531  0.00  0.00     0.000 A 
ATOM      3  C3  BNZ d   1       1.272  -5.983   1.601  0.00  0.00     0.000 A 
ATOM      4  C4  BNZ d   1      -0.014  -6.000   2.009  0.00  0.00     0.000 A 
ATOM      5  C5  BNZ d   1      -0.320  -5.999   3.355  0.00  0.00     0.000 A 
ATOM      6  C6  BNZ d   1       0.690  -5.972   4.289  0.00  0.00     0.000 A 
ENDROOT
TORSDOF 0
ENDMDL
