MODEL 1
REMARK minimizedAffinity -1.78291309
REMARK minimizedRMSD -1
REMARK  0 active torsions:
REMARK  status: ('A' for Active; 'I' for Inactive)
ROOT
ATOM      1  C1  BNZ d   1      -0.406  -5.944   3.275  0.00  0.00     0.000 A 
ATOM      2  C2  BNZ d   1       0.421  -5.857   4.363  0.00  0.00     0.000 A 
ATOM      3  C3  BNZ d   1       1.778  -5.814   4.208  0.00  0.00     0.000 A 
ATOM      4  C4  BNZ d   1       2.308  -5.900   2.971  0.00  0.00     0.000 A 
ATOM      5  C5  BNZ d   1       1.487  -5.997   1.865  0.00  0.00     0.000 A 
ATOM      6  C6  BNZ d   1       0.120  -6.000   2.021  0.00  0.00     0.000 A 
ENDROOT
TORSDOF 0
ENDMDL
