MODEL 1
REMARK minimizedAffinity 2.28540802
REMARK minimizedRMSD -1
REMARK  0 active torsions:
REMARK  status: ('A' for Active; 'I' for Inactive)
ROOT
ATOM      1  C1  BNZ d   1       0.385  -5.999   4.078  0.00  0.00     0.000 A 
ATOM      2  C2  BNZ d   1       1.499  -5.997   4.875  0.00  0.00     0.000 A 
ATOM      3  C3  BNZ d   1       2.751  -5.971   4.328  0.00  0.00     0.000 A 
ATOM      4  C4  BNZ d   1       2.889  -5.987   2.986  0.00  0.00     0.000 A 
ATOM      5  C5  BNZ d   1       1.776  -5.998   2.169  0.00  0.00     0.000 A 
ATOM      6  C6  BNZ d   1       0.517  -5.985   2.723  0.00  0.00     0.000 A 
ENDROOT
TORSDOF 0
ENDMDL
