MODEL 1
REMARK minimizedAffinity 3.44025588
REMARK minimizedRMSD -1
REMARK  0 active torsions:
REMARK  status: ('A' for Active; 'I' for Inactive)
ROOT
ATOM      1  C1  BNZ d   1       0.941  -5.996   1.650  0.00  0.00     0.000 A 
ATOM      2  C2  BNZ d   1       1.418  -5.991   2.934  0.00  0.00     0.000 A 
ATOM      3  C3  BNZ d   1       0.561  -6.000   3.999  0.00  0.00     0.000 A 
ATOM      4  C4  BNZ d   1      -0.769  -5.973   3.779  0.00  0.00     0.000 A 
ATOM      5  C5  BNZ d   1      -1.265  -5.969   2.491  0.00  0.00     0.000 A 
ATOM      6  C6  BNZ d   1      -0.400  -5.999   1.421  0.00  0.00     0.000 A 
ENDROOT
TORSDOF 0
ENDMDL
