MODEL 1
REMARK minimizedAffinity 1.98100662
REMARK minimizedRMSD -1
REMARK  0 active torsions:
REMARK  status: ('A' for Active; 'I' for Inactive)
ROOT
ATOM      1  C1  BNZ d   1       1.102  -1.344   1.496  0.00  0.00     0.000 A 
ATOM      2  C2  BNZ d   1      -0.078  -0.650   1.471  0.00  0.00     0.000 A 
ATOM      3  C3  BNZ d   1      -0.094   0.708   1.618  0.00  0.00     0.000 A 
ATOM      4  C4  BNZ d   1       1.064   1.366   1.830  0.00  0.00     0.000 A 
ATOM      5  C5  BNZ d   1       2.261   0.680   1.867  0.00  0.00     0.000 A 
ATOM      6  C6  BNZ d   1       2.277  -0.683   1.680  0.00  0.00     0.000 A 
ENDROOT
TORSDOF 0
ENDMDL
