MODEL 1
REMARK minimizedAffinity 1.99813676
REMARK minimizedRMSD -1
REMARK  0 active torsions:
REMARK  status: ('A' for Active; 'I' for Inactive)
ROOT
ATOM      1  C1  BNZ d   1       0.917  -5.991   3.347  0.00  0.00     0.000 A 
ATOM      2  C2  BNZ d   1      -0.444  -5.987   3.502  0.00  0.00     0.000 A 
ATOM      3  C3  BNZ d   1      -1.272  -5.998   2.415  0.00  0.00     0.000 A 
ATOM      4  C4  BNZ d   1      -0.740  -5.971   1.176  0.00  0.00     0.000 A 
ATOM      5  C5  BNZ d   1       0.630  -5.965   1.003  0.00  0.00     0.000 A 
ATOM      6  C6  BNZ d   1       1.461  -5.993   2.100  0.00  0.00     0.000 A 
ENDROOT
TORSDOF 0
ENDMDL
