MODEL 1
REMARK minimizedAffinity 2.03464341
REMARK minimizedRMSD -1
REMARK  0 active torsions:
REMARK  status: ('A' for Active; 'I' for Inactive)
ROOT
ATOM      1  C1  BNZ d   1      -1.127  -5.971   1.767  0.00  0.00     0.000 A 
ATOM      2  C2  BNZ d   1       0.075  -5.966   1.110  0.00  0.00     0.000 A 
ATOM      3  C3  BNZ d   1       1.252  -6.000   1.805  0.00  0.00     0.000 A 
ATOM      4  C4  BNZ d   1       1.226  -5.998   3.153  0.00  0.00     0.000 A 
ATOM      5  C5  BNZ d   1       0.023  -5.994   3.829  0.00  0.00     0.000 A 
ATOM      6  C6  BNZ d   1      -1.160  -5.999   3.127  0.00  0.00     0.000 A 
ENDROOT
TORSDOF 0
ENDMDL
