MODEL 1
REMARK minimizedAffinity -1.9354409
REMARK minimizedRMSD -1
REMARK  0 active torsions:
REMARK  status: ('A' for Active; 'I' for Inactive)
ROOT
ATOM      1  C1  BNZ d   1      -0.732  -1.493   1.863  0.00  0.00     0.000 A 
ATOM      2  C2  BNZ d   1      -1.731  -1.055   2.691  0.00  0.00     0.000 A 
ATOM      3  C3  BNZ d   1      -1.853   0.271   3.001  0.00  0.00     0.000 A 
ATOM      4  C4  BNZ d   1      -0.953   1.150   2.515  0.00  0.00     0.000 A 
ATOM      5  C5  BNZ d   1       0.065   0.723   1.686  0.00  0.00     0.000 A 
ATOM      6  C6  BNZ d   1       0.161  -0.606   1.345  0.00  0.00     0.000 A 
ENDROOT
TORSDOF 0
ENDMDL
