MODEL 1
REMARK minimizedAffinity 2.23899007
REMARK minimizedRMSD -1
REMARK  0 active torsions:
REMARK  status: ('A' for Active; 'I' for Inactive)
ROOT
ATOM      1  C1  BNZ d   1      -4.894  -1.113   4.839  0.00  0.00     0.000 A 
ATOM      2  C2  BNZ d   1      -5.260  -0.483   3.680  0.00  0.00     0.000 A 
ATOM      3  C3  BNZ d   1      -5.529   0.857   3.666  0.00  0.00     0.000 A 
ATOM      4  C4  BNZ d   1      -5.471   1.557   4.818  0.00  0.00     0.000 A 
ATOM      5  C5  BNZ d   1      -5.112   0.934   5.997  0.00  0.00     0.000 A 
ATOM      6  C6  BNZ d   1      -4.805  -0.408   5.999  0.00  0.00     0.000 A 
ENDROOT
TORSDOF 0
ENDMDL
