MODEL 1
REMARK minimizedAffinity -1.66248322
REMARK minimizedRMSD -1
REMARK  0 active torsions:
REMARK  status: ('A' for Active; 'I' for Inactive)
ROOT
ATOM      1  C1  BNZ d   1      -2.028  -2.403   2.502  0.00  0.00     0.000 A 
ATOM      2  C2  BNZ d   1      -2.106  -1.440   3.473  0.00  0.00     0.000 A 
ATOM      3  C3  BNZ d   1      -3.317  -0.966   3.893  0.00  0.00     0.000 A 
ATOM      4  C4  BNZ d   1      -4.446  -1.426   3.315  0.00  0.00     0.000 A 
ATOM      5  C5  BNZ d   1      -4.383  -2.390   2.329  0.00  0.00     0.000 A 
ATOM      6  C6  BNZ d   1      -3.164  -2.893   1.936  0.00  0.00     0.000 A 
ENDROOT
TORSDOF 0
ENDMDL
