MODEL 1
REMARK minimizedAffinity -1.41612864
REMARK minimizedRMSD -1
REMARK  0 active torsions:
REMARK  status: ('A' for Active; 'I' for Inactive)
ROOT
ATOM      1  C1  BNZ d   1      -3.621  -6.000   2.913  0.00  0.00     0.000 A 
ATOM      2  C2  BNZ d   1      -4.814  -5.970   3.585  0.00  0.00     0.000 A 
ATOM      3  C3  BNZ d   1      -6.000  -5.944   2.905  0.00  0.00     0.000 A 
ATOM      4  C4  BNZ d   1      -5.990  -5.907   1.557  0.00  0.00     0.000 A 
ATOM      5  C5  BNZ d   1      -4.795  -5.926   0.865  0.00  0.00     0.000 A 
ATOM      6  C6  BNZ d   1      -3.605  -5.992   1.552  0.00  0.00     0.000 A 
ENDROOT
TORSDOF 0
ENDMDL
