MODEL 1
REMARK minimizedAffinity 0.62656033
REMARK minimizedRMSD -1
REMARK  0 active torsions:
REMARK  status: ('A' for Active; 'I' for Inactive)
ROOT
ATOM      1  C1  BNZ d   1      -3.649   1.683   3.403  0.00  0.00     0.000 A 
ATOM      2  C2  BNZ d   1      -2.331   1.715   3.033  0.00  0.00     0.000 A 
ATOM      3  C3  BNZ d   1      -1.496   0.674   3.325  0.00  0.00     0.000 A 
ATOM      4  C4  BNZ d   1      -1.969  -0.380   4.021  0.00  0.00     0.000 A 
ATOM      5  C5  BNZ d   1      -3.293  -0.423   4.410  0.00  0.00     0.000 A 
ATOM      6  C6  BNZ d   1      -4.140   0.609   4.080  0.00  0.00     0.000 A 
ENDROOT
TORSDOF 0
ENDMDL
