MODEL 1
REMARK minimizedAffinity 3.10709715
REMARK minimizedRMSD -1
REMARK  0 active torsions:
REMARK  status: ('A' for Active; 'I' for Inactive)
ROOT
ATOM      1  C1  BNZ d   1      -1.831  -3.141  -4.042  0.00  0.00     0.000 A 
ATOM      2  C2  BNZ d   1      -2.895  -2.730  -3.283  0.00  0.00     0.000 A 
ATOM      3  C3  BNZ d   1      -2.899  -1.496  -2.696  0.00  0.00     0.000 A 
ATOM      4  C4  BNZ d   1      -1.826  -0.691  -2.834  0.00  0.00     0.000 A 
ATOM      5  C5  BNZ d   1      -0.743  -1.095  -3.589  0.00  0.00     0.000 A 
ATOM      6  C6  BNZ d   1      -0.758  -2.322  -4.211  0.00  0.00     0.000 A 
ENDROOT
TORSDOF 0
ENDMDL
