MODEL 1
REMARK minimizedAffinity -1.49140716
REMARK minimizedRMSD -1
REMARK  0 active torsions:
REMARK  status: ('A' for Active; 'I' for Inactive)
ROOT
ATOM      1  C4' PXY d   1      -1.946  -2.951   0.129  0.00  0.00     0.077 C 
ATOM      2  C1' PXY d   1      -0.220   2.565   0.180  0.00  0.00     0.077 C 
ATOM      3  C1  PXY d   1      -0.661   1.115   0.162  0.00  0.00    -0.082 A 
ATOM      4  C2  PXY d   1      -1.950   0.824   0.105  0.00  0.00     0.003 A 
ATOM      5  C3  PXY d   1      -2.368  -0.481   0.120  0.00  0.00     0.003 A 
ATOM      6  C4  PXY d   1      -1.454  -1.501   0.140  0.00  0.00    -0.082 A 
ATOM      7  C5  PXY d   1      -0.137  -1.213   0.187  0.00  0.00     0.003 A 
ATOM      8  C6  PXY d   1       0.265   0.120   0.213  0.00  0.00     0.003 A 
ENDROOT
TORSDOF 0
ENDMDL
