MODEL 1
REMARK minimizedAffinity -0.364518464
REMARK minimizedRMSD -1
REMARK  0 active torsions:
REMARK  status: ('A' for Active; 'I' for Inactive)
ROOT
ATOM      1  C4' PXY d   1      -0.093  -0.002   0.203  0.00  0.00     0.077 C 
ATOM      2  C1' PXY d   1       5.391  -0.220   2.018  0.00  0.00     0.077 C 
ATOM      3  C1  PXY d   1       3.954  -0.174   1.537  0.00  0.00    -0.082 A 
ATOM      4  C2  PXY d   1       3.369   0.995   1.332  0.00  0.00     0.003 A 
ATOM      5  C3  PXY d   1       2.060   1.054   0.928  0.00  0.00     0.003 A 
ATOM      6  C4  PXY d   1       1.359  -0.095   0.679  0.00  0.00    -0.082 A 
ATOM      7  C5  PXY d   1       1.952  -1.292   0.875  0.00  0.00     0.003 A 
ATOM      8  C6  PXY d   1       3.268  -1.331   1.326  0.00  0.00     0.003 A 
ENDROOT
TORSDOF 0
ENDMDL
