MODEL 1
REMARK minimizedAffinity -3.07099414
REMARK minimizedRMSD -1
REMARK  0 active torsions:
REMARK  status: ('A' for Active; 'I' for Inactive)
ROOT
ATOM      1  C4' PXY d   1       0.982   1.385  -1.624  0.00  0.00     0.077 C 
ATOM      2  C1' PXY d   1      -2.319  -2.419   1.211  0.00  0.00     0.077 C 
ATOM      3  C1  PXY d   1      -1.459  -1.412   0.474  0.00  0.00    -0.082 A 
ATOM      4  C2  PXY d   1      -0.911  -1.743  -0.684  0.00  0.00     0.003 A 
ATOM      5  C3  PXY d   1      -0.105  -0.855  -1.349  0.00  0.00     0.003 A 
ATOM      6  C4  PXY d   1       0.100   0.403  -0.849  0.00  0.00    -0.082 A 
ATOM      7  C5  PXY d   1      -0.465   0.752   0.326  0.00  0.00     0.003 A 
ATOM      8  C6  PXY d   1      -1.247  -0.177   1.006  0.00  0.00     0.003 A 
ENDROOT
TORSDOF 0
ENDMDL
