MODEL 1
REMARK minimizedAffinity -3.87912631
REMARK minimizedRMSD -1
REMARK  0 active torsions:
REMARK  status: ('A' for Active; 'I' for Inactive)
ROOT
ATOM      1  C4' PXY d   1      -2.582  -3.299   1.529  0.00  0.00     0.077 C 
ATOM      2  C1' PXY d   1       0.580   1.179  -0.305  0.00  0.00     0.077 C 
ATOM      3  C1  PXY d   1      -0.240  -0.004   0.172  0.00  0.00    -0.082 A 
ATOM      4  C2  PXY d   1      -1.553   0.114   0.285  0.00  0.00     0.003 A 
ATOM      5  C3  PXY d   1      -2.306  -0.935   0.745  0.00  0.00     0.003 A 
ATOM      6  C4  PXY d   1      -1.716  -2.134   1.042  0.00  0.00    -0.082 A 
ATOM      7  C5  PXY d   1      -0.378  -2.266   0.919  0.00  0.00     0.003 A 
ATOM      8  C6  PXY d   1       0.374  -1.176   0.490  0.00  0.00     0.003 A 
ENDROOT
TORSDOF 0
ENDMDL
