MODEL 1
REMARK minimizedAffinity -5.46736574
REMARK minimizedRMSD -1
REMARK  0 active torsions:
REMARK  status: ('A' for Active; 'I' for Inactive)
ROOT
ATOM      1  C4' PXY d   1      -2.619   0.537   1.209  0.00  0.00     0.077 C 
ATOM      2  C1' PXY d   1       2.351  -2.277   0.316  0.00  0.00     0.077 C 
ATOM      3  C1  PXY d   1       1.042  -1.550   0.550  0.00  0.00    -0.082 A 
ATOM      4  C2  PXY d   1       0.935  -0.273   0.222  0.00  0.00     0.003 A 
ATOM      5  C3  PXY d   1      -0.232   0.408   0.456  0.00  0.00     0.003 A 
ATOM      6  C4  PXY d   1      -1.318  -0.239   0.982  0.00  0.00    -0.082 A 
ATOM      7  C5  PXY d   1      -1.220  -1.545   1.309  0.00  0.00     0.003 A 
ATOM      8  C6  PXY d   1      -0.014  -2.208   1.102  0.00  0.00     0.003 A 
ENDROOT
TORSDOF 0
ENDMDL
