MODEL 1
REMARK minimizedAffinity -4.74523211
REMARK minimizedRMSD -1
REMARK  0 active torsions:
REMARK  status: ('A' for Active; 'I' for Inactive)
ROOT
ATOM      1  C4' PXY d   1      -2.643   0.513   1.054  0.00  0.00     0.077 C 
ATOM      2  C1' PXY d   1       1.954  -2.848   0.062  0.00  0.00     0.077 C 
ATOM      3  C1  PXY d   1       0.740  -1.977   0.319  0.00  0.00    -0.082 A 
ATOM      4  C2  PXY d   1       0.848  -0.661   0.226  0.00  0.00     0.003 A 
ATOM      5  C3  PXY d   1      -0.231   0.143   0.486  0.00  0.00     0.003 A 
ATOM      6  C4  PXY d   1      -1.447  -0.406   0.794  0.00  0.00    -0.082 A 
ATOM      7  C5  PXY d   1      -1.567  -1.748   0.881  0.00  0.00     0.003 A 
ATOM      8  C6  PXY d   1      -0.450  -2.546   0.653  0.00  0.00     0.003 A 
ENDROOT
TORSDOF 0
ENDMDL
