MODEL 1
REMARK minimizedAffinity -2.87403774
REMARK minimizedRMSD -1
REMARK  0 active torsions:
REMARK  status: ('A' for Active; 'I' for Inactive)
ROOT
ATOM      1  C4' PXY d   1       1.051   1.556  -1.730  0.00  0.00     0.077 C 
ATOM      2  C1' PXY d   1      -1.116  -2.365   1.924  0.00  0.00     0.077 C 
ATOM      3  C1  PXY d   1      -0.559  -1.331   0.965  0.00  0.00    -0.082 A 
ATOM      4  C2  PXY d   1       0.525  -1.610   0.260  0.00  0.00     0.003 A 
ATOM      5  C3  PXY d   1       1.060  -0.675  -0.589  0.00  0.00     0.003 A 
ATOM      6  C4  PXY d   1       0.449   0.539  -0.757  0.00  0.00    -0.082 A 
ATOM      7  C5  PXY d   1      -0.664   0.827  -0.049  0.00  0.00     0.003 A 
ATOM      8  C6  PXY d   1      -1.168  -0.121   0.837  0.00  0.00     0.003 A 
ENDROOT
TORSDOF 0
ENDMDL
