MODEL 1
REMARK minimizedAffinity -4.94268894
REMARK minimizedRMSD -1
REMARK  0 active torsions:
REMARK  status: ('A' for Active; 'I' for Inactive)
ROOT
ATOM      1  C4' PXY d   1       2.413   1.708   0.820  0.00  0.00     0.077 C 
ATOM      2  C1' PXY d   1      -1.814  -2.193   0.241  0.00  0.00     0.077 C 
ATOM      3  C1  PXY d   1      -0.713  -1.161   0.387  0.00  0.00    -0.082 A 
ATOM      4  C2  PXY d   1       0.543  -1.558   0.511  0.00  0.00     0.003 A 
ATOM      5  C3  PXY d   1       1.548  -0.639   0.676  0.00  0.00     0.003 A 
ATOM      6  C4  PXY d   1       1.270   0.701   0.660  0.00  0.00    -0.082 A 
ATOM      7  C5  PXY d   1      -0.008   1.115   0.523  0.00  0.00     0.003 A 
ATOM      8  C6  PXY d   1      -1.018   0.165   0.398  0.00  0.00     0.003 A 
ENDROOT
TORSDOF 0
ENDMDL
