MODEL 1
REMARK minimizedAffinity -0.507081807
REMARK minimizedRMSD -1
REMARK  0 active torsions:
REMARK  status: ('A' for Active; 'I' for Inactive)
ROOT
ATOM      1  C4' PXY d   1      -2.498  -0.332   3.602  0.00  0.00     0.077 C 
ATOM      2  C1' PXY d   1       0.205  -2.161  -1.170  0.00  0.00     0.077 C 
ATOM      3  C1  PXY d   1      -0.501  -1.669   0.078  0.00  0.00    -0.082 A 
ATOM      4  C2  PXY d   1      -0.625  -2.475   1.121  0.00  0.00     0.003 A 
ATOM      5  C3  PXY d   1      -1.289  -2.057   2.245  0.00  0.00     0.003 A 
ATOM      6  C4  PXY d   1      -1.785  -0.783   2.324  0.00  0.00    -0.082 A 
ATOM      7  C5  PXY d   1      -1.653   0.049   1.269  0.00  0.00     0.003 A 
ATOM      8  C6  PXY d   1      -1.012  -0.408   0.121  0.00  0.00     0.003 A 
ENDROOT
TORSDOF 0
ENDMDL
