MODEL 1
REMARK minimizedAffinity -2.01623344
REMARK minimizedRMSD -1
REMARK  0 active torsions:
REMARK  status: ('A' for Active; 'I' for Inactive)
ROOT
ATOM      1  C4' PXY d   1       1.794  -1.625   0.374  0.00  0.00     0.077 C 
ATOM      2  C1' PXY d   1      -2.197  -2.350   4.492  0.00  0.00     0.077 C 
ATOM      3  C1  PXY d   1      -1.142  -2.167   3.419  0.00  0.00    -0.082 A 
ATOM      4  C2  PXY d   1      -1.220  -1.135   2.594  0.00  0.00     0.003 A 
ATOM      5  C3  PXY d   1      -0.292  -0.972   1.598  0.00  0.00     0.003 A 
ATOM      6  C4  PXY d   1       0.757  -1.844   1.478  0.00  0.00    -0.082 A 
ATOM      7  C5  PXY d   1       0.849  -2.893   2.323  0.00  0.00     0.003 A 
ATOM      8  C6  PXY d   1      -0.126  -3.064   3.301  0.00  0.00     0.003 A 
ENDROOT
TORSDOF 0
ENDMDL
