MODEL 1
REMARK minimizedAffinity -0.611078918
REMARK minimizedRMSD -1
REMARK  0 active torsions:
REMARK  status: ('A' for Active; 'I' for Inactive)
ROOT
ATOM      1  C4' PXY d   1      -1.802   1.574  -1.928  0.00  0.00     0.077 C 
ATOM      2  C1' PXY d   1       0.154  -2.451   1.730  0.00  0.00     0.077 C 
ATOM      3  C1  PXY d   1      -0.369  -1.403   0.769  0.00  0.00    -0.082 A 
ATOM      4  C2  PXY d   1       0.477  -0.571   0.183  0.00  0.00     0.003 A 
ATOM      5  C3  PXY d   1       0.017   0.403  -0.665  0.00  0.00     0.003 A 
ATOM      6  C4  PXY d   1      -1.317   0.494  -0.957  0.00  0.00    -0.082 A 
ATOM      7  C5  PXY d   1      -2.186  -0.358  -0.372  0.00  0.00     0.003 A 
ATOM      8  C6  PXY d   1      -1.704  -1.314   0.517  0.00  0.00     0.003 A 
ENDROOT
TORSDOF 0
ENDMDL
