MODEL 1
REMARK minimizedAffinity 3.96061563
REMARK minimizedRMSD -1
REMARK  0 active torsions:
REMARK  status: ('A' for Active; 'I' for Inactive)
ROOT
ATOM      1  C4' PXY d   1      -3.222   1.336  -1.759  0.00  0.00     0.077 C 
ATOM      2  C1' PXY d   1      -0.073   5.391  -4.415  0.00  0.00     0.077 C 
ATOM      3  C1  PXY d   1      -0.908   4.337  -3.715  0.00  0.00    -0.082 A 
ATOM      4  C2  PXY d   1      -0.337   3.214  -3.310  0.00  0.00     0.003 A 
ATOM      5  C3  PXY d   1      -1.083   2.236  -2.703  0.00  0.00     0.003 A 
ATOM      6  C4  PXY d   1      -2.416   2.432  -2.461  0.00  0.00    -0.082 A 
ATOM      7  C5  PXY d   1      -3.004   3.580  -2.862  0.00  0.00     0.003 A 
ATOM      8  C6  PXY d   1      -2.237   4.543  -3.512  0.00  0.00     0.003 A 
ENDROOT
TORSDOF 0
ENDMDL
