MODEL 1
REMARK minimizedAffinity -3.52869463
REMARK minimizedRMSD -1
REMARK  0 active torsions:
REMARK  status: ('A' for Active; 'I' for Inactive)
ROOT
ATOM      1  C4' PXY d   1       1.107  -1.221   0.028  0.00  0.00     0.077 C 
ATOM      2  C1' PXY d   1      -1.909  -3.011   4.624  0.00  0.00     0.077 C 
ATOM      3  C1  PXY d   1      -1.126  -2.531   3.417  0.00  0.00    -0.082 A 
ATOM      4  C2  PXY d   1      -0.390  -3.391   2.731  0.00  0.00     0.003 A 
ATOM      5  C3  PXY d   1       0.349  -2.968   1.657  0.00  0.00     0.003 A 
ATOM      6  C4  PXY d   1       0.293  -1.663   1.248  0.00  0.00    -0.082 A 
ATOM      7  C5  PXY d   1      -0.464  -0.782   1.936  0.00  0.00     0.003 A 
ATOM      8  C6  PXY d   1      -1.174  -1.222   3.049  0.00  0.00     0.003 A 
ENDROOT
TORSDOF 0
ENDMDL
