MODEL 1
REMARK minimizedAffinity -3.0003221
REMARK minimizedRMSD -1
REMARK  0 active torsions:
REMARK  status: ('A' for Active; 'I' for Inactive)
ROOT
ATOM      1  C4' PXY d   1       0.999  -1.192   0.188  0.00  0.00     0.077 C 
ATOM      2  C1' PXY d   1      -2.450  -2.273   4.699  0.00  0.00     0.077 C 
ATOM      3  C1  PXY d   1      -1.541  -2.002   3.517  0.00  0.00    -0.082 A 
ATOM      4  C2  PXY d   1      -1.180  -0.759   3.241  0.00  0.00     0.003 A 
ATOM      5  C3  PXY d   1      -0.384  -0.493   2.156  0.00  0.00     0.003 A 
ATOM      6  C4  PXY d   1       0.090  -1.514   1.378  0.00  0.00    -0.082 A 
ATOM      7  C5  PXY d   1      -0.265  -2.786   1.659  0.00  0.00     0.003 A 
ATOM      8  C6  PXY d   1      -1.107  -3.031   2.740  0.00  0.00     0.003 A 
ENDROOT
TORSDOF 0
ENDMDL
