MODEL 1
REMARK minimizedAffinity 5.66581535
REMARK minimizedRMSD -1
REMARK  0 active torsions:
REMARK  status: ('A' for Active; 'I' for Inactive)
ROOT
ATOM      1  C4' PXY d   1       0.376  -1.076   0.751  0.00  0.00     0.077 C 
ATOM      2  C1' PXY d   1       0.177  -4.099   5.675  0.00  0.00     0.077 C 
ATOM      3  C1  PXY d   1       0.216  -3.306   4.383  0.00  0.00    -0.082 A 
ATOM      4  C2  PXY d   1       1.304  -3.336   3.630  0.00  0.00     0.003 A 
ATOM      5  C3  PXY d   1       1.368  -2.600   2.475  0.00  0.00     0.003 A 
ATOM      6  C4  PXY d   1       0.288  -1.868   2.059  0.00  0.00    -0.082 A 
ATOM      7  C5  PXY d   1      -0.829  -1.841   2.816  0.00  0.00     0.003 A 
ATOM      8  C6  PXY d   1      -0.859  -2.563   4.006  0.00  0.00     0.003 A 
ENDROOT
TORSDOF 0
ENDMDL
