MODEL 1
REMARK minimizedAffinity 4.4791894
REMARK minimizedRMSD -1
REMARK  0 active torsions:
REMARK  status: ('A' for Active; 'I' for Inactive)
ROOT
ATOM      1  C4' PXY d   1      -0.172  -6.000  -5.626  0.00  0.00     0.077 C 
ATOM      2  C1' PXY d   1      -4.749  -2.471  -5.504  0.00  0.00     0.077 C 
ATOM      3  C1  PXY d   1      -3.554  -3.404  -5.527  0.00  0.00    -0.082 A 
ATOM      4  C2  PXY d   1      -2.380  -2.953  -5.939  0.00  0.00     0.003 A 
ATOM      5  C3  PXY d   1      -1.297  -3.792  -5.997  0.00  0.00     0.003 A 
ATOM      6  C4  PXY d   1      -1.404  -5.091  -5.578  0.00  0.00    -0.082 A 
ATOM      7  C5  PXY d   1      -2.595  -5.555  -5.146  0.00  0.00     0.003 A 
ATOM      8  C6  PXY d   1      -3.693  -4.699  -5.134  0.00  0.00     0.003 A 
ENDROOT
TORSDOF 0
ENDMDL
