MODEL 1
REMARK minimizedAffinity 6.91167164
REMARK minimizedRMSD -1
REMARK  0 active torsions:
REMARK  status: ('A' for Active; 'I' for Inactive)
ROOT
ATOM      1  C4' PXY d   1       1.145  -3.500   1.919  0.00  0.00     0.077 C 
ATOM      2  C1' PXY d   1      -0.465   1.740   0.084  0.00  0.00     0.077 C 
ATOM      3  C1  PXY d   1      -0.036   0.364   0.554  0.00  0.00    -0.082 A 
ATOM      4  C2  PXY d   1      -0.768  -0.279   1.449  0.00  0.00     0.003 A 
ATOM      5  C3  PXY d   1      -0.378  -1.510   1.909  0.00  0.00     0.003 A 
ATOM      6  C4  PXY d   1       0.746  -2.113   1.409  0.00  0.00    -0.082 A 
ATOM      7  C5  PXY d   1       1.492  -1.467   0.488  0.00  0.00     0.003 A 
ATOM      8  C6  PXY d   1       1.101  -0.201   0.064  0.00  0.00     0.003 A 
ENDROOT
TORSDOF 0
ENDMDL
