MODEL 1
REMARK minimizedAffinity 2.07382417
REMARK minimizedRMSD -1
REMARK  0 active torsions:
REMARK  status: ('A' for Active; 'I' for Inactive)
ROOT
ATOM      1  C4' PXY d   1       0.007  -1.125  -0.720  0.00  0.00     0.077 C 
ATOM      2  C1' PXY d   1       0.563  -3.079   4.692  0.00  0.00     0.077 C 
ATOM      3  C1  PXY d   1       0.405  -2.562   3.275  0.00  0.00    -0.082 A 
ATOM      4  C2  PXY d   1       1.132  -3.088   2.303  0.00  0.00     0.003 A 
ATOM      5  C3  PXY d   1       1.025  -2.611   1.022  0.00  0.00     0.003 A 
ATOM      6  C4  PXY d   1       0.126  -1.622   0.723  0.00  0.00    -0.082 A 
ATOM      7  C5  PXY d   1      -0.627  -1.088   1.708  0.00  0.00     0.003 A 
ATOM      8  C6  PXY d   1      -0.474  -1.558   3.010  0.00  0.00     0.003 A 
ENDROOT
TORSDOF 0
ENDMDL
