MODEL 1
REMARK minimizedAffinity -2.37071037
REMARK minimizedRMSD -1
REMARK  0 active torsions:
REMARK  status: ('A' for Active; 'I' for Inactive)
ROOT
ATOM      1  C4' PXY d   1      -0.758  -4.886  -5.967  0.00  0.00     0.077 C 
ATOM      2  C1' PXY d   1      -5.917  -2.278  -5.999  0.00  0.00     0.077 C 
ATOM      3  C1  PXY d   1      -4.569  -2.972  -5.986  0.00  0.00    -0.082 A 
ATOM      4  C2  PXY d   1      -3.461  -2.250  -5.976  0.00  0.00     0.003 A 
ATOM      5  C3  PXY d   1      -2.234  -2.861  -5.996  0.00  0.00     0.003 A 
ATOM      6  C4  PXY d   1      -2.140  -4.227  -5.971  0.00  0.00    -0.082 A 
ATOM      7  C5  PXY d   1      -3.267  -4.971  -5.970  0.00  0.00     0.003 A 
ATOM      8  C6  PXY d   1      -4.502  -4.331  -5.992  0.00  0.00     0.003 A 
ENDROOT
TORSDOF 0
ENDMDL
