MODEL 1
REMARK minimizedAffinity 2.15245247
REMARK minimizedRMSD -1
REMARK  0 active torsions:
REMARK  status: ('A' for Active; 'I' for Inactive)
ROOT
ATOM      1  C4' PXY d   1       1.923  -1.720  -0.436  0.00  0.00     0.077 C 
ATOM      2  C1' PXY d   1      -1.352  -2.206   4.302  0.00  0.00     0.077 C 
ATOM      3  C1  PXY d   1      -0.503  -2.072   3.054  0.00  0.00    -0.082 A 
ATOM      4  C2  PXY d   1       0.416  -2.985   2.786  0.00  0.00     0.003 A 
ATOM      5  C3  PXY d   1       1.215  -2.862   1.678  0.00  0.00     0.003 A 
ATOM      6  C4  PXY d   1       1.036  -1.821   0.807  0.00  0.00    -0.082 A 
ATOM      7  C5  PXY d   1       0.093  -0.890   1.068  0.00  0.00     0.003 A 
ATOM      8  C6  PXY d   1      -0.680  -1.011   2.219  0.00  0.00     0.003 A 
ENDROOT
TORSDOF 0
ENDMDL
