MODEL 1
REMARK minimizedAffinity -3.84856009
REMARK minimizedRMSD -1
REMARK  2 active torsions:
REMARK  status: ('A' for Active; 'I' for Inactive)
REMARK    1  A    between atoms: C1_2  and  C2_3 
REMARK    2  A    between atoms: C2_3  and  C3_4 
ROOT
ATOM      1  C3  UNL d   1       0.781  -0.173  -1.467  0.00  0.00    -0.075 A 
ATOM      2  C4  UNL d   1       2.073   0.341  -1.650  0.00  0.00     0.002 A 
ATOM      3  C5  UNL d   1       2.582   0.539  -2.934  0.00  0.00     0.002 A 
ATOM      4  C6  UNL d   1       1.811   0.217  -4.049  0.00  0.00    -0.004 A 
ATOM      5  C7  UNL d   1       0.532  -0.309  -3.879  0.00  0.00     0.002 A 
ATOM      6  C8  UNL d   1       0.019  -0.504  -2.595  0.00  0.00     0.002 A 
ENDROOT
BRANCH   1   7
ATOM      7  C2  UNL d   1       0.214  -0.362  -0.080  0.00  0.00     0.056 C 
BRANCH   7   8
ATOM      8  C1  UNL d   1      -1.265   0.016   0.046  0.00  0.00     0.007 C 
ATOM      9  C   UNL d   1      -1.669   0.397   1.464  0.00  0.00     0.009 C 
ENDBRANCH   7   8
ENDBRANCH   1   7
TORSDOF 2
ENDMDL
