MODEL 1
REMARK minimizedAffinity -4.79673815
REMARK minimizedRMSD -1
REMARK  2 active torsions:
REMARK  status: ('A' for Active; 'I' for Inactive)
REMARK    1  A    between atoms: C1_2  and  C2_3 
REMARK    2  A    between atoms: C2_3  and  C3_4 
ROOT
ATOM      1  C3  UNL d   1      -0.860  -0.049   0.468  0.00  0.00    -0.075 A 
ATOM      2  C4  UNL d   1       0.240   0.596   1.053  0.00  0.00     0.002 A 
ATOM      3  C5  UNL d   1       0.153   1.111   2.346  0.00  0.00     0.002 A 
ATOM      4  C6  UNL d   1      -1.035   0.998   3.066  0.00  0.00    -0.004 A 
ATOM      5  C7  UNL d   1      -2.139   0.374   2.488  0.00  0.00     0.002 A 
ATOM      6  C8  UNL d   1      -2.053  -0.146   1.196  0.00  0.00     0.002 A 
ENDROOT
BRANCH   1   7
ATOM      7  C2  UNL d   1      -0.763  -0.634  -0.921  0.00  0.00     0.056 C 
BRANCH   7   8
ATOM      8  C1  UNL d   1       0.638  -1.131  -1.292  0.00  0.00     0.007 C 
ATOM      9  C   UNL d   1       1.086  -0.687  -2.678  0.00  0.00     0.009 C 
ENDBRANCH   7   8
ENDBRANCH   1   7
TORSDOF 2
ENDMDL
