MODEL 1
REMARK minimizedAffinity -1.11072874
REMARK minimizedRMSD -1
REMARK  2 active torsions:
REMARK  status: ('A' for Active; 'I' for Inactive)
REMARK    1  A    between atoms: C1_2  and  C2_3 
REMARK    2  A    between atoms: C2_3  and  C3_4 
ROOT
ATOM      1  C3  UNL d   1       0.186  -0.242  -1.176  0.00  0.00    -0.075 A 
ATOM      2  C4  UNL d   1       0.919  -0.757  -0.097  0.00  0.00     0.002 A 
ATOM      3  C5  UNL d   1       0.372  -0.778   1.186  0.00  0.00     0.002 A 
ATOM      4  C6  UNL d   1      -0.908  -0.275   1.409  0.00  0.00    -0.004 A 
ATOM      5  C7  UNL d   1      -1.639   0.254   0.348  0.00  0.00     0.002 A 
ATOM      6  C8  UNL d   1      -1.096   0.271  -0.938  0.00  0.00     0.002 A 
ENDROOT
BRANCH   1   7
ATOM      7  C2  UNL d   1       0.760  -0.245  -2.572  0.00  0.00     0.056 C 
BRANCH   7   8
ATOM      8  C1  UNL d   1       0.574   1.077  -3.326  0.00  0.00     0.007 C 
ATOM      9  C   UNL d   1       1.876   1.643  -3.875  0.00  0.00     0.009 C 
ENDBRANCH   7   8
ENDBRANCH   1   7
TORSDOF 2
ENDMDL
