MODEL 1
REMARK minimizedAffinity 14.397337
REMARK minimizedRMSD -1
REMARK  0 active torsions:
REMARK  status: ('A' for Active; 'I' for Inactive)
ROOT
ATOM      1  C   UNL d   1       1.668  -5.906  -2.065  0.00  0.00     0.077 C 
ATOM      2  C1  UNL d   1       1.078  -5.798  -3.440  0.00  0.00    -0.074 A 
ATOM      3  C2  UNL d   1       1.892  -5.574  -4.556  0.00  0.00    -0.005 A 
ATOM      4  C3  UNL d   1       1.330  -5.486  -5.829  0.00  0.00     0.006 A 
ATOM      5  C4  UNL d   1      -0.049  -5.619  -6.000  0.00  0.00    -0.005 A 
ATOM      6  C5  UNL d   1      -0.878  -5.844  -4.896  0.00  0.00    -0.074 A 
ATOM      7  C6  UNL d   1      -2.360  -6.000  -5.063  0.00  0.00     0.077 C 
ATOM      8  C7  UNL d   1      -0.305  -5.939  -3.621  0.00  0.00    -0.001 A 
ENDROOT
TORSDOF 0
ENDMDL
