MODEL 1
REMARK minimizedAffinity 14.7672405
REMARK minimizedRMSD -1
REMARK  0 active torsions:
REMARK  status: ('A' for Active; 'I' for Inactive)
ROOT
ATOM      1  C   UNL d   1       6.000  -1.558  -2.657  0.00  0.00     0.077 C 
ATOM      2  C1  UNL d   1       5.334  -2.188  -1.470  0.00  0.00    -0.074 A 
ATOM      3  C2  UNL d   1       4.250  -1.567  -0.840  0.00  0.00    -0.005 A 
ATOM      4  C3  UNL d   1       3.635  -2.169   0.257  0.00  0.00     0.006 A 
ATOM      5  C4  UNL d   1       4.096  -3.396   0.735  0.00  0.00    -0.005 A 
ATOM      6  C5  UNL d   1       5.177  -4.032   0.118  0.00  0.00    -0.074 A 
ATOM      7  C6  UNL d   1       5.679  -5.356   0.613  0.00  0.00     0.077 C 
ATOM      8  C7  UNL d   1       5.786  -3.424  -0.988  0.00  0.00    -0.001 A 
ENDROOT
TORSDOF 0
ENDMDL
