MODEL 1
REMARK minimizedAffinity 16.1504917
REMARK minimizedRMSD -1
REMARK  0 active torsions:
REMARK  status: ('A' for Active; 'I' for Inactive)
ROOT
ATOM      1  C   UNL d   1       1.737   4.865   0.355  0.00  0.00     0.077 C 
ATOM      2  C1  UNL d   1       0.367   4.260   0.261  0.00  0.00    -0.074 A 
ATOM      3  C2  UNL d   1       0.138   2.935   0.644  0.00  0.00    -0.005 A 
ATOM      4  C3  UNL d   1      -1.143   2.390   0.559  0.00  0.00     0.006 A 
ATOM      5  C4  UNL d   1      -2.206   3.163   0.091  0.00  0.00    -0.005 A 
ATOM      6  C5  UNL d   1      -1.996   4.490  -0.296  0.00  0.00    -0.074 A 
ATOM      7  C6  UNL d   1      -3.130   5.338  -0.791  0.00  0.00     0.077 C 
ATOM      8  C7  UNL d   1      -0.708   5.033  -0.201  0.00  0.00    -0.001 A 
ENDROOT
TORSDOF 0
ENDMDL
