MODEL 1
REMARK minimizedAffinity 9.44040203
REMARK minimizedRMSD -1
REMARK  0 active torsions:
REMARK  status: ('A' for Active; 'I' for Inactive)
ROOT
ATOM      1  C   UNL d   1      -3.022   1.512  -5.146  0.00  0.00     0.077 C 
ATOM      2  C1  UNL d   1      -2.798   1.176  -3.702  0.00  0.00    -0.074 A 
ATOM      3  C2  UNL d   1      -3.481   1.859  -2.690  0.00  0.00    -0.005 A 
ATOM      4  C3  UNL d   1      -3.269   1.528  -1.352  0.00  0.00     0.006 A 
ATOM      5  C4  UNL d   1      -2.373   0.514  -1.012  0.00  0.00    -0.005 A 
ATOM      6  C5  UNL d   1      -1.682  -0.180  -2.009  0.00  0.00    -0.074 A 
ATOM      7  C6  UNL d   1      -0.723  -1.280  -1.662  0.00  0.00     0.077 C 
ATOM      8  C7  UNL d   1      -1.906   0.153  -3.352  0.00  0.00    -0.001 A 
ENDROOT
TORSDOF 0
ENDMDL
