MODEL 1
REMARK minimizedAffinity 7.40494967
REMARK minimizedRMSD -1
REMARK  0 active torsions:
REMARK  status: ('A' for Active; 'I' for Inactive)
ROOT
ATOM      1  C   UNL d   1       0.271   1.905   2.364  0.00  0.00     0.077 C 
ATOM      2  C1  UNL d   1       0.582   3.077   1.482  0.00  0.00    -0.074 A 
ATOM      3  C2  UNL d   1      -0.154   3.315   0.316  0.00  0.00    -0.005 A 
ATOM      4  C3  UNL d   1       0.141   4.415  -0.489  0.00  0.00     0.006 A 
ATOM      5  C4  UNL d   1       1.172   5.287  -0.138  0.00  0.00    -0.005 A 
ATOM      6  C5  UNL d   1       1.918   5.066   1.024  0.00  0.00    -0.074 A 
ATOM      7  C6  UNL d   1       3.023   5.998   1.422  0.00  0.00     0.077 C 
ATOM      8  C7  UNL d   1       1.611   3.962   1.832  0.00  0.00    -0.001 A 
ENDROOT
TORSDOF 0
ENDMDL
