MODEL 1
REMARK minimizedAffinity 15.0838537
REMARK minimizedRMSD -1
REMARK  0 active torsions:
REMARK  status: ('A' for Active; 'I' for Inactive)
ROOT
ATOM      1  C   UNL d   1       3.517  -6.000  -2.182  0.00  0.00     0.077 C 
ATOM      2  C1  UNL d   1       4.377  -4.773  -2.241  0.00  0.00    -0.074 A 
ATOM      3  C2  UNL d   1       4.823  -4.150  -1.070  0.00  0.00    -0.005 A 
ATOM      4  C3  UNL d   1       5.630  -3.015  -1.140  0.00  0.00     0.006 A 
ATOM      5  C4  UNL d   1       6.000  -2.492  -2.380  0.00  0.00    -0.005 A 
ATOM      6  C5  UNL d   1       5.565  -3.101  -3.561  0.00  0.00    -0.074 A 
ATOM      7  C6  UNL d   1       5.961  -2.556  -4.901  0.00  0.00     0.077 C 
ATOM      8  C7  UNL d   1       4.760  -4.245  -3.482  0.00  0.00    -0.001 A 
ENDROOT
TORSDOF 0
ENDMDL
