MODEL 1
REMARK minimizedAffinity 16.8356724
REMARK minimizedRMSD -1
REMARK  0 active torsions:
REMARK  status: ('A' for Active; 'I' for Inactive)
ROOT
ATOM      1  C   UNL d   1       0.265  -5.418  -1.790  0.00  0.00     0.077 C 
ATOM      2  C1  UNL d   1      -0.002  -5.552  -3.260  0.00  0.00    -0.074 A 
ATOM      3  C2  UNL d   1       1.047  -5.544  -4.185  0.00  0.00    -0.005 A 
ATOM      4  C3  UNL d   1       0.784  -5.680  -5.548  0.00  0.00     0.006 A 
ATOM      5  C4  UNL d   1      -0.529  -5.824  -5.999  0.00  0.00    -0.005 A 
ATOM      6  C5  UNL d   1      -1.591  -5.835  -5.089  0.00  0.00    -0.074 A 
ATOM      7  C6  UNL d   1      -3.006  -6.000  -5.557  0.00  0.00     0.077 C 
ATOM      8  C7  UNL d   1      -1.317  -5.706  -3.721  0.00  0.00    -0.001 A 
ENDROOT
TORSDOF 0
ENDMDL
