MODEL 1
REMARK minimizedAffinity 9.31001759
REMARK minimizedRMSD -1
REMARK  0 active torsions:
REMARK  status: ('A' for Active; 'I' for Inactive)
ROOT
ATOM      1  C   UNL d   1       5.979  -3.415  -4.849  0.00  0.00     0.077 C 
ATOM      2  C1  UNL d   1       5.948  -2.971  -3.417  0.00  0.00    -0.074 A 
ATOM      3  C2  UNL d   1       6.000  -1.614  -3.084  0.00  0.00    -0.005 A 
ATOM      4  C3  UNL d   1       5.961  -1.215  -1.748  0.00  0.00     0.006 A 
ATOM      5  C4  UNL d   1       5.871  -2.169  -0.733  0.00  0.00    -0.005 A 
ATOM      6  C5  UNL d   1       5.817  -3.530  -1.047  0.00  0.00    -0.074 A 
ATOM      7  C6  UNL d   1       5.710  -4.568   0.031  0.00  0.00     0.077 C 
ATOM      8  C7  UNL d   1       5.849  -3.922  -2.392  0.00  0.00    -0.001 A 
ENDROOT
TORSDOF 0
ENDMDL
