MODEL 1
REMARK minimizedAffinity 16.2313175
REMARK minimizedRMSD -1
REMARK  0 active torsions:
REMARK  status: ('A' for Active; 'I' for Inactive)
ROOT
ATOM      1  C   UNL d   1       4.157  -5.970  -2.003  0.00  0.00     0.077 C 
ATOM      2  C1  UNL d   1       4.805  -4.653  -2.313  0.00  0.00    -0.074 A 
ATOM      3  C2  UNL d   1       5.112  -4.295  -3.630  0.00  0.00    -0.005 A 
ATOM      4  C3  UNL d   1       5.707  -3.063  -3.903  0.00  0.00     0.006 A 
ATOM      5  C4  UNL d   1       5.999  -2.178  -2.865  0.00  0.00    -0.005 A 
ATOM      6  C5  UNL d   1       5.698  -2.519  -1.542  0.00  0.00    -0.074 A 
ATOM      7  C6  UNL d   1       5.997  -1.575  -0.415  0.00  0.00     0.077 C 
ATOM      8  C7  UNL d   1       5.095  -3.755  -1.276  0.00  0.00    -0.001 A 
ENDROOT
TORSDOF 0
ENDMDL
