MODEL 1
REMARK minimizedAffinity -5.73349524
REMARK minimizedRMSD -1
REMARK  0 active torsions:
REMARK  status: ('A' for Active; 'I' for Inactive)
ROOT
ATOM      1  C2' OXE d   1      -0.109   1.163   3.426  0.00  0.00     0.078 C 
ATOM      2  C1' OXE d   1       2.156  -0.101   2.352  0.00  0.00     0.078 C 
ATOM      3  C1  OXE d   1       0.920  -0.019   1.490  0.00  0.00    -0.078 A 
ATOM      4  C2  OXE d   1      -0.198   0.559   2.041  0.00  0.00    -0.078 A 
ATOM      5  C3  OXE d   1      -1.347   0.709   1.271  0.00  0.00     0.003 A 
ATOM      6  C4  OXE d   1      -1.424   0.139  -0.006  0.00  0.00    -0.002 A 
ATOM      7  C5  OXE d   1      -0.309  -0.490  -0.571  0.00  0.00    -0.002 A 
ATOM      8  C6  OXE d   1       0.881  -0.540   0.146  0.00  0.00     0.003 A 
ENDROOT
TORSDOF 0
ENDMDL
