MODEL 1
REMARK minimizedAffinity -3.4480288
REMARK minimizedRMSD -1
REMARK  0 active torsions:
REMARK  status: ('A' for Active; 'I' for Inactive)
ROOT
ATOM      1  C2' OXE d   1       0.794  -0.394  -0.860  0.00  0.00     0.078 C 
ATOM      2  C1' OXE d   1      -1.753   0.097   0.213  0.00  0.00     0.078 C 
ATOM      3  C1  OXE d   1      -0.629  -0.192   1.175  0.00  0.00    -0.078 A 
ATOM      4  C2  OXE d   1       0.604  -0.477   0.639  0.00  0.00    -0.078 A 
ATOM      5  C3  OXE d   1       1.689  -0.698   1.484  0.00  0.00     0.003 A 
ATOM      6  C4  OXE d   1       1.503  -0.783   2.869  0.00  0.00    -0.002 A 
ATOM      7  C5  OXE d   1       0.247  -0.534   3.433  0.00  0.00    -0.002 A 
ATOM      8  C6  OXE d   1      -0.818  -0.196   2.605  0.00  0.00     0.003 A 
ENDROOT
TORSDOF 0
ENDMDL
