MODEL 1
REMARK minimizedAffinity -3.84380889
REMARK minimizedRMSD -1
REMARK  0 active torsions:
REMARK  status: ('A' for Active; 'I' for Inactive)
ROOT
ATOM      1  C2' OXE d   1       1.626  -0.706   3.174  0.00  0.00     0.078 C 
ATOM      2  C1' OXE d   1      -0.971   0.348   3.017  0.00  0.00     0.078 C 
ATOM      3  C1  OXE d   1      -0.350  -0.184   1.750  0.00  0.00    -0.078 A 
ATOM      4  C2  OXE d   1       0.938  -0.655   1.826  0.00  0.00    -0.078 A 
ATOM      5  C3  OXE d   1       1.539  -1.208   0.699  0.00  0.00     0.003 A 
ATOM      6  C4  OXE d   1       0.900  -1.148  -0.546  0.00  0.00    -0.002 A 
ATOM      7  C5  OXE d   1      -0.398  -0.636  -0.654  0.00  0.00    -0.002 A 
ATOM      8  C6  OXE d   1      -1.052  -0.190   0.490  0.00  0.00     0.003 A 
ENDROOT
TORSDOF 0
ENDMDL
