MODEL 1
REMARK minimizedAffinity -1.9006753
REMARK minimizedRMSD -1
REMARK  0 active torsions:
REMARK  status: ('A' for Active; 'I' for Inactive)
ROOT
ATOM      1  C2' OXE d   1       1.199  -1.795  -0.394  0.00  0.00     0.078 C 
ATOM      2  C1' OXE d   1       1.908  -1.091   2.229  0.00  0.00     0.078 C 
ATOM      3  C1  OXE d   1       0.542  -0.683   1.736  0.00  0.00    -0.078 A 
ATOM      4  C2  OXE d   1       0.222  -0.991   0.435  0.00  0.00    -0.078 A 
ATOM      5  C3  OXE d   1      -1.045  -0.686  -0.053  0.00  0.00     0.003 A 
ATOM      6  C4  OXE d   1      -1.940   0.067   0.717  0.00  0.00    -0.002 A 
ATOM      7  C5  OXE d   1      -1.618   0.426   2.031  0.00  0.00    -0.002 A 
ATOM      8  C6  OXE d   1      -0.401   0.022   2.568  0.00  0.00     0.003 A 
ENDROOT
TORSDOF 0
ENDMDL
