MODEL 1
REMARK minimizedAffinity -4.53849649
REMARK minimizedRMSD -1
REMARK  0 active torsions:
REMARK  status: ('A' for Active; 'I' for Inactive)
ROOT
ATOM      1  C2' OXE d   1      -1.738   0.373   0.995  0.00  0.00     0.078 C 
ATOM      2  C1' OXE d   1       0.254  -0.893  -0.525  0.00  0.00     0.078 C 
ATOM      3  C1  OXE d   1       0.524  -0.669   0.942  0.00  0.00    -0.078 A 
ATOM      4  C2  OXE d   1      -0.437  -0.007   1.668  0.00  0.00    -0.078 A 
ATOM      5  C3  OXE d   1      -0.262   0.176   3.037  0.00  0.00     0.003 A 
ATOM      6  C4  OXE d   1       0.948  -0.169   3.649  0.00  0.00    -0.002 A 
ATOM      7  C5  OXE d   1       1.956  -0.809   2.920  0.00  0.00    -0.002 A 
ATOM      8  C6  OXE d   1       1.743  -1.104   1.578  0.00  0.00     0.003 A 
ENDROOT
TORSDOF 0
ENDMDL
