MODEL 1
REMARK minimizedAffinity 1.32018268
REMARK minimizedRMSD -1
REMARK  0 active torsions:
REMARK  status: ('A' for Active; 'I' for Inactive)
ROOT
ATOM      1  C2' OXE d   1       0.370  -0.344  -0.945  0.00  0.00     0.078 C 
ATOM      2  C1' OXE d   1      -1.801  -1.510   0.398  0.00  0.00     0.078 C 
ATOM      3  C1  OXE d   1      -1.033  -0.425   1.111  0.00  0.00    -0.078 A 
ATOM      4  C2  OXE d   1       0.056   0.107   0.465  0.00  0.00    -0.078 A 
ATOM      5  C3  OXE d   1       0.767   1.148   1.055  0.00  0.00     0.003 A 
ATOM      6  C4  OXE d   1       0.476   1.553   2.363  0.00  0.00    -0.002 A 
ATOM      7  C5  OXE d   1      -0.605   0.996   3.055  0.00  0.00    -0.002 A 
ATOM      8  C6  OXE d   1      -1.394   0.038   2.428  0.00  0.00     0.003 A 
ENDROOT
TORSDOF 0
ENDMDL
