MODEL 1
REMARK minimizedAffinity -5.0961647
REMARK minimizedRMSD -1
REMARK  0 active torsions:
REMARK  status: ('A' for Active; 'I' for Inactive)
ROOT
ATOM      1  C2' OXE d   1       2.029   0.456   2.443  0.00  0.00     0.078 C 
ATOM      2  C1' OXE d   1      -0.584   1.325   2.990  0.00  0.00     0.078 C 
ATOM      3  C1  OXE d   1      -0.355   0.540   1.723  0.00  0.00    -0.078 A 
ATOM      4  C2  OXE d   1       0.935   0.159   1.440  0.00  0.00    -0.078 A 
ATOM      5  C3  OXE d   1       1.193  -0.614   0.312  0.00  0.00     0.003 A 
ATOM      6  C4  OXE d   1       0.178  -0.876  -0.616  0.00  0.00    -0.002 A 
ATOM      7  C5  OXE d   1      -1.135  -0.463  -0.367  0.00  0.00    -0.002 A 
ATOM      8  C6  OXE d   1      -1.426   0.208   0.816  0.00  0.00     0.003 A 
ENDROOT
TORSDOF 0
ENDMDL
