MODEL 1
REMARK minimizedAffinity -6.04177141
REMARK minimizedRMSD -1
REMARK  0 active torsions:
REMARK  status: ('A' for Active; 'I' for Inactive)
ROOT
ATOM      1  C2' OXE d   1       1.826   0.455   3.392  0.00  0.00     0.078 C 
ATOM      2  C1' OXE d   1      -0.703   1.604   2.985  0.00  0.00     0.078 C 
ATOM      3  C1  OXE d   1      -0.191   0.642   1.942  0.00  0.00    -0.078 A 
ATOM      4  C2  OXE d   1       1.067   0.121   2.126  0.00  0.00    -0.078 A 
ATOM      5  C3  OXE d   1       1.565  -0.813   1.222  0.00  0.00     0.003 A 
ATOM      6  C4  OXE d   1       0.860  -1.110   0.049  0.00  0.00    -0.002 A 
ATOM      7  C5  OXE d   1      -0.406  -0.559  -0.178  0.00  0.00    -0.002 A 
ATOM      8  C6  OXE d   1      -0.963   0.283   0.778  0.00  0.00     0.003 A 
ENDROOT
TORSDOF 0
ENDMDL
