MODEL 1
REMARK minimizedAffinity -3.97359467
REMARK minimizedRMSD -1
REMARK  0 active torsions:
REMARK  status: ('A' for Active; 'I' for Inactive)
ROOT
ATOM      1  C2' OXE d   1       5.431   1.838   3.845  0.00  0.00     0.078 C 
ATOM      2  C1' OXE d   1       6.000   3.753   5.817  0.00  0.00     0.078 C 
ATOM      3  C1  OXE d   1       5.367   4.231   4.534  0.00  0.00    -0.078 A 
ATOM      4  C2  OXE d   1       5.135   3.294   3.556  0.00  0.00    -0.078 A 
ATOM      5  C3  OXE d   1       4.503   3.672   2.375  0.00  0.00     0.003 A 
ATOM      6  C4  OXE d   1       4.241   5.022   2.111  0.00  0.00    -0.002 A 
ATOM      7  C5  OXE d   1       4.506   5.998   3.078  0.00  0.00    -0.002 A 
ATOM      8  C6  OXE d   1       5.028   5.615   4.308  0.00  0.00     0.003 A 
ENDROOT
TORSDOF 0
ENDMDL
