MODEL 1
REMARK minimizedAffinity -4.63915348
REMARK minimizedRMSD -1
REMARK  0 active torsions:
REMARK  status: ('A' for Active; 'I' for Inactive)
ROOT
ATOM      1  C2' OXE d   1      -0.205   0.352  -0.639  0.00  0.00     0.078 C 
ATOM      2  C1' OXE d   1       2.272   0.540   0.669  0.00  0.00     0.078 C 
ATOM      3  C1  OXE d   1       1.028   0.501   1.521  0.00  0.00    -0.078 A 
ATOM      4  C2  OXE d   1      -0.182   0.456   0.871  0.00  0.00    -0.078 A 
ATOM      5  C3  OXE d   1      -1.358   0.364   1.610  0.00  0.00     0.003 A 
ATOM      6  C4  OXE d   1      -1.329   0.471   3.006  0.00  0.00    -0.002 A 
ATOM      7  C5  OXE d   1      -0.109   0.558   3.685  0.00  0.00    -0.002 A 
ATOM      8  C6  OXE d   1       1.078   0.531   2.962  0.00  0.00     0.003 A 
ENDROOT
TORSDOF 0
ENDMDL
