MODEL 1
REMARK minimizedAffinity 12.0954542
REMARK minimizedRMSD -1
REMARK  0 active torsions:
REMARK  status: ('A' for Active; 'I' for Inactive)
ROOT
ATOM      1  C   UNL d   1      -6.000   0.212  -0.246  0.00  0.00    -0.002 A 
ATOM      2  C1  UNL d   1      -4.925   0.631   0.526  0.00  0.00     0.010 A 
ATOM      3  C2  UNL d   1      -3.643   0.701  -0.021  0.00  0.00     0.041 A 
ATOM      4  C3  UNL d   1      -3.457   0.342  -1.371  0.00  0.00    -0.075 A 
ATOM      5  S   UNL d   1      -1.976   0.351  -2.255  0.00  0.00     0.015 SA
ATOM      6  C4  UNL d   1      -2.736  -0.200  -3.678  0.00  0.00     0.022 A 
ATOM      7  C5  UNL d   1      -4.086  -0.391  -3.501  0.00  0.00     0.026 A 
ATOM      8  C6  UNL d   1      -4.524  -0.082  -2.169  0.00  0.00    -0.082 A 
ATOM      9  C7  UNL d   1      -5.812  -0.143  -1.584  0.00  0.00     0.045 A 
ENDROOT
TORSDOF 0
ENDMDL
