MODEL 1
REMARK minimizedAffinity 11.9566069
REMARK minimizedRMSD -1
REMARK  0 active torsions:
REMARK  status: ('A' for Active; 'I' for Inactive)
ROOT
ATOM      1  C   UNL d   1       3.539   1.699  -0.221  0.00  0.00    -0.002 A 
ATOM      2  C1  UNL d   1       3.863   1.770  -1.569  0.00  0.00     0.010 A 
ATOM      3  C2  UNL d   1       3.669   0.668  -2.404  0.00  0.00     0.041 A 
ATOM      4  C3  UNL d   1       3.138  -0.517  -1.858  0.00  0.00    -0.075 A 
ATOM      5  S   UNL d   1       2.814  -1.991  -2.691  0.00  0.00     0.015 SA
ATOM      6  C4  UNL d   1       2.238  -2.750  -1.278  0.00  0.00     0.022 A 
ATOM      7  C5  UNL d   1       2.285  -1.913  -0.188  0.00  0.00     0.026 A 
ATOM      8  C6  UNL d   1       2.804  -0.612  -0.504  0.00  0.00    -0.082 A 
ATOM      9  C7  UNL d   1       3.013   0.522   0.317  0.00  0.00     0.045 A 
ENDROOT
TORSDOF 0
ENDMDL
