MODEL 1
REMARK minimizedAffinity 14.9045563
REMARK minimizedRMSD -1
REMARK  0 active torsions:
REMARK  status: ('A' for Active; 'I' for Inactive)
ROOT
ATOM      1  C   UNL d   1       3.328   1.609  -0.704  0.00  0.00    -0.002 A 
ATOM      2  C1  UNL d   1       2.619   1.022   0.334  0.00  0.00     0.010 A 
ATOM      3  C2  UNL d   1       2.102  -0.268   0.201  0.00  0.00     0.041 A 
ATOM      4  C3  UNL d   1       2.311  -0.965  -1.006  0.00  0.00    -0.075 A 
ATOM      5  S   UNL d   1       1.770  -2.555  -1.395  0.00  0.00     0.015 SA
ATOM      6  C4  UNL d   1       2.468  -2.492  -2.949  0.00  0.00     0.022 A 
ATOM      7  C5  UNL d   1       3.101  -1.295  -3.182  0.00  0.00     0.026 A 
ATOM      8  C6  UNL d   1       3.022  -0.395  -2.065  0.00  0.00    -0.082 A 
ATOM      9  C7  UNL d   1       3.533   0.915  -1.899  0.00  0.00     0.045 A 
ENDROOT
TORSDOF 0
ENDMDL
