MODEL 1
REMARK minimizedAffinity 18.6307678
REMARK minimizedRMSD -1
REMARK  0 active torsions:
REMARK  status: ('A' for Active; 'I' for Inactive)
ROOT
ATOM      1  C   UNL d   1       1.815   1.720  -1.056  0.00  0.00    -0.002 A 
ATOM      2  C1  UNL d   1       2.382   1.830   0.206  0.00  0.00     0.010 A 
ATOM      3  C2  UNL d   1       2.594   0.694   0.990  0.00  0.00     0.041 A 
ATOM      4  C3  UNL d   1       2.224  -0.566   0.479  0.00  0.00    -0.075 A 
ATOM      5  S   UNL d   1       2.390  -2.094   1.260  0.00  0.00     0.015 SA
ATOM      6  C4  UNL d   1       1.713  -2.928  -0.063  0.00  0.00     0.022 A 
ATOM      7  C5  UNL d   1       1.363  -2.077  -1.084  0.00  0.00     0.026 A 
ATOM      8  C6  UNL d   1       1.652  -0.701  -0.789  0.00  0.00    -0.082 A 
ATOM      9  C7  UNL d   1       1.450   0.469  -1.560  0.00  0.00     0.045 A 
ENDROOT
TORSDOF 0
ENDMDL
