MODEL 1
REMARK minimizedAffinity 24.036335
REMARK minimizedRMSD -1
REMARK  0 active torsions:
REMARK  status: ('A' for Active; 'I' for Inactive)
ROOT
ATOM      1  C   UNL d   1       0.609   4.463   3.324  0.00  0.00    -0.002 A 
ATOM      2  C1  UNL d   1       1.103   5.758   3.389  0.00  0.00     0.010 A 
ATOM      3  C2  UNL d   1       2.479   5.992   3.454  0.00  0.00     0.041 A 
ATOM      4  C3  UNL d   1       3.357   4.890   3.450  0.00  0.00    -0.075 A 
ATOM      5  S   UNL d   1       5.079   4.935   3.521  0.00  0.00     0.015 SA
ATOM      6  C4  UNL d   1       5.200   3.236   3.466  0.00  0.00     0.022 A 
ATOM      7  C5  UNL d   1       3.966   2.633   3.395  0.00  0.00     0.026 A 
ATOM      8  C6  UNL d   1       2.884   3.577   3.384  0.00  0.00    -0.082 A 
ATOM      9  C7  UNL d   1       1.484   3.374   3.321  0.00  0.00     0.045 A 
ENDROOT
TORSDOF 0
ENDMDL
