MODEL 1
REMARK minimizedAffinity 31.8508224
REMARK minimizedRMSD -1
REMARK  0 active torsions:
REMARK  status: ('A' for Active; 'I' for Inactive)
ROOT
ATOM      1  C   UNL d   1       0.768   1.595   4.473  0.00  0.00    -0.002 A 
ATOM      2  C1  UNL d   1       1.273   1.130   5.680  0.00  0.00     0.010 A 
ATOM      3  C2  UNL d   1       2.621   1.304   5.999  0.00  0.00     0.041 A 
ATOM      4  C3  UNL d   1       3.460   1.961   5.078  0.00  0.00    -0.075 A 
ATOM      5  S   UNL d   1       5.144   2.287   5.255  0.00  0.00     0.015 SA
ATOM      6  C4  UNL d   1       5.232   3.052   3.734  0.00  0.00     0.022 A 
ATOM      7  C5  UNL d   1       4.016   3.066   3.093  0.00  0.00     0.026 A 
ATOM      8  C6  UNL d   1       2.975   2.438   3.857  0.00  0.00    -0.082 A 
ATOM      9  C7  UNL d   1       1.604   2.245   3.562  0.00  0.00     0.045 A 
ENDROOT
TORSDOF 0
ENDMDL
