MODEL 1
REMARK minimizedAffinity 25.2410641
REMARK minimizedRMSD -1
REMARK  0 active torsions:
REMARK  status: ('A' for Active; 'I' for Inactive)
ROOT
ATOM      1  C   UNL d   1      -5.210   0.839  -1.650  0.00  0.00    -0.002 A 
ATOM      2  C1  UNL d   1      -4.899   0.468  -0.349  0.00  0.00     0.010 A 
ATOM      3  C2  UNL d   1      -4.407   1.408   0.559  0.00  0.00     0.041 A 
ATOM      4  C3  UNL d   1      -4.234   2.740   0.135  0.00  0.00    -0.075 A 
ATOM      5  S   UNL d   1      -3.647   4.062   1.073  0.00  0.00     0.015 SA
ATOM      6  C4  UNL d   1      -3.797   5.150  -0.230  0.00  0.00     0.022 A 
ATOM      7  C5  UNL d   1      -4.281   4.537  -1.361  0.00  0.00     0.026 A 
ATOM      8  C6  UNL d   1      -4.542   3.138  -1.169  0.00  0.00    -0.082 A 
ATOM      9  C7  UNL d   1      -5.037   2.161  -2.067  0.00  0.00     0.045 A 
ENDROOT
TORSDOF 0
ENDMDL
