MODEL 1
REMARK minimizedAffinity 18.0538139
REMARK minimizedRMSD -1
REMARK  0 active torsions:
REMARK  status: ('A' for Active; 'I' for Inactive)
ROOT
ATOM      1  C   UNL d   1      -4.065   3.582   1.433  0.00  0.00    -0.002 A 
ATOM      2  C1  UNL d   1      -5.300   3.038   1.755  0.00  0.00     0.010 A 
ATOM      3  C2  UNL d   1      -5.962   3.420   2.923  0.00  0.00     0.041 A 
ATOM      4  C3  UNL d   1      -5.358   4.370   3.769  0.00  0.00    -0.075 A 
ATOM      5  S   UNL d   1      -5.985   4.990   5.251  0.00  0.00     0.015 SA
ATOM      6  C4  UNL d   1      -4.628   5.993   5.492  0.00  0.00     0.022 A 
ATOM      7  C5  UNL d   1      -3.709   5.871   4.477  0.00  0.00     0.026 A 
ATOM      8  C6  UNL d   1      -4.115   4.934   3.467  0.00  0.00    -0.082 A 
ATOM      9  C7  UNL d   1      -3.468   4.525   2.276  0.00  0.00     0.045 A 
ENDROOT
TORSDOF 0
ENDMDL
