MODEL 1
REMARK minimizedAffinity -3.30268836
REMARK minimizedRMSD -1
REMARK  0 active torsions:
REMARK  status: ('A' for Active; 'I' for Inactive)
ROOT
ATOM      1  C   UNL d   1      -2.080   0.009   1.221  0.00  0.00     0.172 C 
ATOM      2  N   UNL d   1      -1.061   0.945   0.809  0.00  0.00    -0.070 N 
ATOM      3  C1  UNL d   1      -1.048   2.286   1.090  0.00  0.00    -0.004 A 
ATOM      4  C2  UNL d   1       0.086   2.825   0.523  0.00  0.00    -0.047 A 
ATOM      5  C3  UNL d   1       0.779   1.772  -0.122  0.00  0.00    -0.047 A 
ATOM      6  C4  UNL d   1       0.046   0.620   0.071  0.00  0.00    -0.004 A 
ENDROOT
TORSDOF 0
ENDMDL
