MODEL 1
REMARK minimizedAffinity -3.12982059
REMARK minimizedRMSD -1
REMARK  0 active torsions:
REMARK  status: ('A' for Active; 'I' for Inactive)
ROOT
ATOM      1  C   UNL d   1      -0.260   2.885   0.778  0.00  0.00     0.172 C 
ATOM      2  N   UNL d   1      -0.224   1.467   0.508  0.00  0.00    -0.070 N 
ATOM      3  C1  UNL d   1      -1.308   0.679   0.230  0.00  0.00    -0.004 A 
ATOM      4  C2  UNL d   1      -0.856  -0.608   0.033  0.00  0.00    -0.047 A 
ATOM      5  C3  UNL d   1       0.550  -0.593   0.199  0.00  0.00    -0.047 A 
ATOM      6  C4  UNL d   1       0.914   0.704   0.493  0.00  0.00    -0.004 A 
ENDROOT
TORSDOF 0
ENDMDL
