MODEL 1
REMARK minimizedAffinity -1.36439991
REMARK minimizedRMSD -1
REMARK  0 active torsions:
REMARK  status: ('A' for Active; 'I' for Inactive)
ROOT
ATOM      1  C   UNL d   1       0.320   3.305   0.176  0.00  0.00     0.172 C 
ATOM      2  N   UNL d   1       0.560   1.885   0.069  0.00  0.00    -0.070 N 
ATOM      3  C1  UNL d   1      -0.404   0.914   0.014  0.00  0.00    -0.004 A 
ATOM      4  C2  UNL d   1       0.231  -0.305  -0.086  0.00  0.00    -0.047 A 
ATOM      5  C3  UNL d   1       1.624  -0.058  -0.089  0.00  0.00    -0.047 A 
ATOM      6  C4  UNL d   1       1.800   1.306   0.007  0.00  0.00    -0.004 A 
ENDROOT
TORSDOF 0
ENDMDL
