MODEL 1
REMARK minimizedAffinity -3.84424829
REMARK minimizedRMSD -1
REMARK  0 active torsions:
REMARK  status: ('A' for Active; 'I' for Inactive)
ROOT
ATOM      1  C   UNL d   1       0.258  -0.543   0.285  0.00  0.00     0.172 C 
ATOM      2  N   UNL d   1       0.759   0.804   0.421  0.00  0.00    -0.070 N 
ATOM      3  C1  UNL d   1      -0.001   1.944   0.411  0.00  0.00    -0.004 A 
ATOM      4  C2  UNL d   1       0.848   3.018   0.567  0.00  0.00    -0.047 A 
ATOM      5  C3  UNL d   1       2.163   2.507   0.675  0.00  0.00    -0.047 A 
ATOM      6  C4  UNL d   1       2.079   1.134   0.581  0.00  0.00    -0.004 A 
ENDROOT
TORSDOF 0
ENDMDL
