MODEL 1
REMARK minimizedAffinity -3.72899222
REMARK minimizedRMSD -1
REMARK  0 active torsions:
REMARK  status: ('A' for Active; 'I' for Inactive)
ROOT
ATOM      1  C   UNL d   1       0.031  -1.147   0.137  0.00  0.00     0.172 C 
ATOM      2  N   UNL d   1      -0.172   0.281   0.208  0.00  0.00    -0.070 N 
ATOM      3  C1  UNL d   1      -1.318   0.905   0.622  0.00  0.00    -0.004 A 
ATOM      4  C2  UNL d   1      -1.110   2.265   0.544  0.00  0.00    -0.047 A 
ATOM      5  C3  UNL d   1       0.206   2.465   0.065  0.00  0.00    -0.047 A 
ATOM      6  C4  UNL d   1       0.764   1.220  -0.135  0.00  0.00    -0.004 A 
ENDROOT
TORSDOF 0
ENDMDL
