MODEL 1
REMARK minimizedAffinity -1.94781196
REMARK minimizedRMSD -1
REMARK  0 active torsions:
REMARK  status: ('A' for Active; 'I' for Inactive)
ROOT
ATOM      1  C   UNL d   1      -0.511   2.707   1.262  0.00  0.00     0.172 C 
ATOM      2  N   UNL d   1       0.652   2.914   2.092  0.00  0.00    -0.070 N 
ATOM      3  C1  UNL d   1       1.951   2.926   1.657  0.00  0.00    -0.004 A 
ATOM      4  C2  UNL d   1       2.759   3.153   2.750  0.00  0.00    -0.047 A 
ATOM      5  C3  UNL d   1       1.918   3.281   3.880  0.00  0.00    -0.047 A 
ATOM      6  C4  UNL d   1       0.618   3.129   3.444  0.00  0.00    -0.004 A 
ENDROOT
TORSDOF 0
ENDMDL
