MODEL 1
REMARK minimizedAffinity -3.34210968
REMARK minimizedRMSD -1
REMARK  0 active torsions:
REMARK  status: ('A' for Active; 'I' for Inactive)
ROOT
ATOM      1  C   UNL d   1      -0.470   1.518  -0.211  0.00  0.00     0.172 C 
ATOM      2  N   UNL d   1       0.410   0.436   0.163  0.00  0.00    -0.070 N 
ATOM      3  C1  UNL d   1       1.777   0.502   0.218  0.00  0.00    -0.004 A 
ATOM      4  C2  UNL d   1       2.243  -0.733   0.616  0.00  0.00    -0.047 A 
ATOM      5  C3  UNL d   1       1.117  -1.569   0.806  0.00  0.00    -0.047 A 
ATOM      6  C4  UNL d   1      -0.004  -0.820   0.519  0.00  0.00    -0.004 A 
ENDROOT
TORSDOF 0
ENDMDL
