MODEL 1
REMARK minimizedAffinity -3.47792959
REMARK minimizedRMSD -1
REMARK  0 active torsions:
REMARK  status: ('A' for Active; 'I' for Inactive)
ROOT
ATOM      1  C   UNL d   1       0.026  -1.471  -0.301  0.00  0.00     0.172 C 
ATOM      2  N   UNL d   1      -0.226  -0.052  -0.211  0.00  0.00    -0.070 N 
ATOM      3  C1  UNL d   1      -1.431   0.527   0.085  0.00  0.00    -0.004 A 
ATOM      4  C2  UNL d   1      -1.256   1.894   0.073  0.00  0.00    -0.047 A 
ATOM      5  C3  UNL d   1       0.101   2.145  -0.242  0.00  0.00    -0.047 A 
ATOM      6  C4  UNL d   1       0.715   0.922  -0.413  0.00  0.00    -0.004 A 
ENDROOT
TORSDOF 0
ENDMDL
