MODEL 1
REMARK minimizedAffinity -3.8178792
REMARK minimizedRMSD -1
REMARK  0 active torsions:
REMARK  status: ('A' for Active; 'I' for Inactive)
ROOT
ATOM      1  C   UNL d   1       0.375  -1.103  -0.407  0.00  0.00     0.172 C 
ATOM      2  N   UNL d   1      -0.056   0.262  -0.224  0.00  0.00    -0.070 N 
ATOM      3  C1  UNL d   1      -1.290   0.657   0.220  0.00  0.00    -0.004 A 
ATOM      4  C2  UNL d   1      -1.304   2.035   0.257  0.00  0.00    -0.047 A 
ATOM      5  C3  UNL d   1      -0.035   2.483  -0.180  0.00  0.00    -0.047 A 
ATOM      6  C4  UNL d   1       0.718   1.365  -0.471  0.00  0.00    -0.004 A 
ENDROOT
TORSDOF 0
ENDMDL
