MODEL 1
REMARK minimizedAffinity -3.23552227
REMARK minimizedRMSD -1
REMARK  0 active torsions:
REMARK  status: ('A' for Active; 'I' for Inactive)
ROOT
ATOM      1  C   UNL d   1       0.092  -1.113  -0.061  0.00  0.00     0.172 C 
ATOM      2  N   UNL d   1       0.005   0.313   0.150  0.00  0.00    -0.070 N 
ATOM      3  C1  UNL d   1       1.066   1.158   0.340  0.00  0.00    -0.004 A 
ATOM      4  C2  UNL d   1       0.567   2.432   0.503  0.00  0.00    -0.047 A 
ATOM      5  C3  UNL d   1      -0.843   2.350   0.407  0.00  0.00    -0.047 A 
ATOM      6  C4  UNL d   1      -1.163   1.027   0.189  0.00  0.00    -0.004 A 
ENDROOT
TORSDOF 0
ENDMDL
