MODEL 1
REMARK minimizedAffinity -2.705971
REMARK minimizedRMSD -1
REMARK  0 active torsions:
REMARK  status: ('A' for Active; 'I' for Inactive)
ROOT
ATOM      1  C   UNL d   1       0.042  -0.681  -0.020  0.00  0.00     0.172 C 
ATOM      2  N   UNL d   1       0.418   0.713  -0.007  0.00  0.00    -0.070 N 
ATOM      3  C1  UNL d   1      -0.031   1.653   0.881  0.00  0.00    -0.004 A 
ATOM      4  C2  UNL d   1       0.560   2.855   0.559  0.00  0.00    -0.047 A 
ATOM      5  C3  UNL d   1       1.393   2.630  -0.563  0.00  0.00    -0.047 A 
ATOM      6  C4  UNL d   1       1.286   1.295  -0.893  0.00  0.00    -0.004 A 
ENDROOT
TORSDOF 0
ENDMDL
