MODEL 1
REMARK minimizedAffinity -2.74665332
REMARK minimizedRMSD -1
REMARK  0 active torsions:
REMARK  status: ('A' for Active; 'I' for Inactive)
ROOT
ATOM      1  C   UNL d   1      -0.056   3.015  -0.875  0.00  0.00     0.172 C 
ATOM      2  N   UNL d   1      -0.142   1.707  -0.268  0.00  0.00    -0.070 N 
ATOM      3  C1  UNL d   1      -1.211   1.223   0.437  0.00  0.00    -0.004 A 
ATOM      4  C2  UNL d   1      -0.901  -0.056   0.848  0.00  0.00    -0.047 A 
ATOM      5  C3  UNL d   1       0.400  -0.349   0.375  0.00  0.00    -0.047 A 
ATOM      6  C4  UNL d   1       0.846   0.759  -0.313  0.00  0.00    -0.004 A 
ENDROOT
TORSDOF 0
ENDMDL
