MODEL 1
REMARK minimizedAffinity -4.00850677
REMARK minimizedRMSD -1
REMARK  0 active torsions:
REMARK  status: ('A' for Active; 'I' for Inactive)
ROOT
ATOM      1  C   UNL d   1       0.260  -1.085   0.018  0.00  0.00     0.172 C 
ATOM      2  N   UNL d   1       0.094   0.349   0.080  0.00  0.00    -0.070 N 
ATOM      3  C1  UNL d   1      -1.027   1.004   0.514  0.00  0.00    -0.004 A 
ATOM      4  C2  UNL d   1      -0.787   2.358   0.419  0.00  0.00    -0.047 A 
ATOM      5  C3  UNL d   1       0.522   2.522  -0.093  0.00  0.00    -0.047 A 
ATOM      6  C4  UNL d   1       1.045   1.262  -0.293  0.00  0.00    -0.004 A 
ENDROOT
TORSDOF 0
ENDMDL
