MODEL 1
REMARK minimizedAffinity -3.48137856
REMARK minimizedRMSD -1
REMARK  0 active torsions:
REMARK  status: ('A' for Active; 'I' for Inactive)
ROOT
ATOM      1  C   UNL d   1      -0.043  -1.099   0.148  0.00  0.00     0.172 C 
ATOM      2  N   UNL d   1      -0.238   0.314   0.371  0.00  0.00    -0.070 N 
ATOM      3  C1  UNL d   1      -1.446   0.935   0.545  0.00  0.00    -0.004 A 
ATOM      4  C2  UNL d   1      -1.207   2.279   0.729  0.00  0.00    -0.047 A 
ATOM      5  C3  UNL d   1       0.193   2.473   0.662  0.00  0.00    -0.047 A 
ATOM      6  C4  UNL d   1       0.768   1.240   0.440  0.00  0.00    -0.004 A 
ENDROOT
TORSDOF 0
ENDMDL
