MODEL 1
REMARK minimizedAffinity -2.68001294
REMARK minimizedRMSD -1
REMARK  0 active torsions:
REMARK  status: ('A' for Active; 'I' for Inactive)
ROOT
ATOM      1  C   UNL d   1       2.599   2.287   1.616  0.00  0.00     0.172 C 
ATOM      2  N   UNL d   1       1.406   1.649   1.112  0.00  0.00    -0.070 N 
ATOM      3  C1  UNL d   1       0.167   2.226   1.024  0.00  0.00    -0.004 A 
ATOM      4  C2  UNL d   1      -0.697   1.294   0.492  0.00  0.00    -0.047 A 
ATOM      5  C3  UNL d   1       0.048   0.115   0.253  0.00  0.00    -0.047 A 
ATOM      6  C4  UNL d   1       1.346   0.362   0.645  0.00  0.00    -0.004 A 
ENDROOT
TORSDOF 0
ENDMDL
