MODEL 1
REMARK minimizedAffinity 9.467906
REMARK minimizedRMSD -1
REMARK  0 active torsions:
REMARK  status: ('A' for Active; 'I' for Inactive)
ROOT
ATOM      1  C   UNL d   1      -2.124   3.390   4.816  0.00  0.00    -0.002 A 
ATOM      2  C1  UNL d   1      -3.202   4.195   4.477  0.00  0.00     0.010 A 
ATOM      3  C2  UNL d   1      -4.088   3.808   3.469  0.00  0.00     0.041 A 
ATOM      4  C3  UNL d   1      -3.869   2.587   2.801  0.00  0.00    -0.075 A 
ATOM      5  S   UNL d   1      -4.823   1.910   1.535  0.00  0.00     0.015 SA
ATOM      6  C4  UNL d   1      -3.821   0.536   1.414  0.00  0.00     0.022 A 
ATOM      7  C5  UNL d   1      -2.780   0.577   2.310  0.00  0.00     0.026 A 
ATOM      8  C6  UNL d   1      -2.791   1.759   3.125  0.00  0.00    -0.082 A 
ATOM      9  C7  UNL d   1      -1.910   2.179   4.151  0.00  0.00     0.045 A 
ENDROOT
TORSDOF 0
ENDMDL
