MODEL 1
REMARK minimizedAffinity -0.435836047
REMARK minimizedRMSD -1
REMARK  0 active torsions:
REMARK  status: ('A' for Active; 'I' for Inactive)
ROOT
ATOM      1  C   UNL d   1      -4.101   0.821   1.272  0.00  0.00    -0.002 A 
ATOM      2  C1  UNL d   1      -3.445   1.508   2.284  0.00  0.00     0.010 A 
ATOM      3  C2  UNL d   1      -2.051   1.490   2.366  0.00  0.00     0.041 A 
ATOM      4  C3  UNL d   1      -1.321   0.765   1.404  0.00  0.00    -0.075 A 
ATOM      5  S   UNL d   1       0.392   0.602   1.306  0.00  0.00     0.015 SA
ATOM      6  C4  UNL d   1       0.294  -0.382  -0.083  0.00  0.00     0.022 A 
ATOM      7  C5  UNL d   1      -1.007  -0.592  -0.475  0.00  0.00     0.026 A 
ATOM      8  C6  UNL d   1      -1.959   0.066   0.375  0.00  0.00    -0.082 A 
ATOM      9  C7  UNL d   1      -3.373   0.103   0.319  0.00  0.00     0.045 A 
ENDROOT
TORSDOF 0
ENDMDL
