MODEL 1
REMARK minimizedAffinity -2.07982469
REMARK minimizedRMSD -1
REMARK  0 active torsions:
REMARK  status: ('A' for Active; 'I' for Inactive)
ROOT
ATOM      1  C   UNL d   1      -2.038   0.372   2.164  0.00  0.00    -0.002 A 
ATOM      2  C1  UNL d   1      -1.456  -0.876   2.341  0.00  0.00     0.010 A 
ATOM      3  C2  UNL d   1      -0.459  -1.324   1.472  0.00  0.00     0.041 A 
ATOM      4  C3  UNL d   1      -0.051  -0.489   0.414  0.00  0.00    -0.075 A 
ATOM      5  S   UNL d   1       1.152  -0.827  -0.773  0.00  0.00     0.015 SA
ATOM      6  C4  UNL d   1       0.923   0.676  -1.542  0.00  0.00     0.022 A 
ATOM      7  C5  UNL d   1      -0.044   1.431  -0.922  0.00  0.00     0.026 A 
ATOM      8  C6  UNL d   1      -0.622   0.772   0.216  0.00  0.00    -0.082 A 
ATOM      9  C7  UNL d   1      -1.631   1.197   1.113  0.00  0.00     0.045 A 
ENDROOT
TORSDOF 0
ENDMDL
