MODEL 1
REMARK minimizedAffinity -3.53693557
REMARK minimizedRMSD -1
REMARK  0 active torsions:
REMARK  status: ('A' for Active; 'I' for Inactive)
ROOT
ATOM      1  C   UNL d   1       2.612  -1.370  -2.058  0.00  0.00    -0.002 A 
ATOM      2  C1  UNL d   1       2.089  -2.477  -1.405  0.00  0.00     0.010 A 
ATOM      3  C2  UNL d   1       1.098  -2.325  -0.433  0.00  0.00     0.041 A 
ATOM      4  C3  UNL d   1       0.635  -1.030  -0.128  0.00  0.00    -0.075 A 
ATOM      5  S   UNL d   1      -0.573  -0.603   1.026  0.00  0.00     0.015 SA
ATOM      6  C4  UNL d   1      -0.424   1.059   0.677  0.00  0.00     0.022 A 
ATOM      7  C5  UNL d   1       0.520   1.300  -0.293  0.00  0.00     0.026 A 
ATOM      8  C6  UNL d   1       1.146   0.100  -0.773  0.00  0.00    -0.082 A 
ATOM      9  C7  UNL d   1       2.151  -0.087  -1.753  0.00  0.00     0.045 A 
ENDROOT
TORSDOF 0
ENDMDL
