MODEL 1
REMARK minimizedAffinity 0.782645524
REMARK minimizedRMSD -1
REMARK  0 active torsions:
REMARK  status: ('A' for Active; 'I' for Inactive)
ROOT
ATOM      1  C   UNL d   1       1.925   0.652  -1.866  0.00  0.00    -0.002 A 
ATOM      2  C1  UNL d   1       1.882  -0.735  -1.878  0.00  0.00     0.010 A 
ATOM      3  C2  UNL d   1       1.028  -1.427  -1.018  0.00  0.00     0.041 A 
ATOM      4  C3  UNL d   1       0.207  -0.695  -0.138  0.00  0.00    -0.075 A 
ATOM      5  S   UNL d   1      -0.919  -1.329   1.003  0.00  0.00     0.015 SA
ATOM      6  C4  UNL d   1      -1.371   0.226   1.534  0.00  0.00     0.022 A 
ATOM      7  C5  UNL d   1      -0.689   1.216   0.867  0.00  0.00     0.026 A 
ATOM      8  C6  UNL d   1       0.231   0.702  -0.108  0.00  0.00    -0.082 A 
ATOM      9  C7  UNL d   1       1.109   1.375  -0.991  0.00  0.00     0.045 A 
ENDROOT
TORSDOF 0
ENDMDL
