MODEL 1
REMARK minimizedAffinity -2.69971609
REMARK minimizedRMSD -1
REMARK  0 active torsions:
REMARK  status: ('A' for Active; 'I' for Inactive)
ROOT
ATOM      1  C   UNL d   1       2.906  -2.186  -2.280  0.00  0.00    -0.002 A 
ATOM      2  C1  UNL d   1       2.046  -3.011  -1.568  0.00  0.00     0.010 A 
ATOM      3  C2  UNL d   1       1.008  -2.468  -0.808  0.00  0.00     0.041 A 
ATOM      4  C3  UNL d   1       0.846  -1.069  -0.777  0.00  0.00    -0.075 A 
ATOM      5  S   UNL d   1      -0.355  -0.181   0.084  0.00  0.00     0.015 SA
ATOM      6  C4  UNL d   1       0.244   1.314  -0.474  0.00  0.00     0.022 A 
ATOM      7  C5  UNL d   1       1.334   1.158  -1.297  0.00  0.00     0.026 A 
ATOM      8  C6  UNL d   1       1.698  -0.218  -1.486  0.00  0.00    -0.082 A 
ATOM      9  C7  UNL d   1       2.742  -0.799  -2.246  0.00  0.00     0.045 A 
ENDROOT
TORSDOF 0
ENDMDL
