MODEL 1
REMARK minimizedAffinity 10.5323591
REMARK minimizedRMSD -1
REMARK  0 active torsions:
REMARK  status: ('A' for Active; 'I' for Inactive)
ROOT
ATOM      1  C   UNL d   1      -1.721   2.253   4.902  0.00  0.00    -0.002 A 
ATOM      2  C1  UNL d   1      -2.058   1.472   5.999  0.00  0.00     0.010 A 
ATOM      3  C2  UNL d   1      -3.073   0.518   5.907  0.00  0.00     0.041 A 
ATOM      4  C3  UNL d   1      -3.751   0.360   4.682  0.00  0.00    -0.075 A 
ATOM      5  S   UNL d   1      -5.028  -0.746   4.336  0.00  0.00     0.015 SA
ATOM      6  C4  UNL d   1      -5.157  -0.208   2.724  0.00  0.00     0.022 A 
ATOM      7  C5  UNL d   1      -4.255   0.790   2.440  0.00  0.00     0.026 A 
ATOM      8  C6  UNL d   1      -3.430   1.134   3.564  0.00  0.00    -0.082 A 
ATOM      9  C7  UNL d   1      -2.396   2.093   3.689  0.00  0.00     0.045 A 
ENDROOT
TORSDOF 0
ENDMDL
