MODEL 1
REMARK minimizedAffinity -0.0648735985
REMARK minimizedRMSD -1
REMARK  0 active torsions:
REMARK  status: ('A' for Active; 'I' for Inactive)
ROOT
ATOM      1  C   UNL d   1       1.751   0.856  -1.736  0.00  0.00    -0.002 A 
ATOM      2  C1  UNL d   1       2.164  -0.437  -2.027  0.00  0.00     0.010 A 
ATOM      3  C2  UNL d   1       1.664  -1.522  -1.305  0.00  0.00     0.041 A 
ATOM      4  C3  UNL d   1       0.732  -1.284  -0.276  0.00  0.00    -0.075 A 
ATOM      5  S   UNL d   1      -0.017  -2.458   0.741  0.00  0.00     0.015 SA
ATOM      6  C4  UNL d   1      -0.903  -1.272   1.585  0.00  0.00     0.022 A 
ATOM      7  C5  UNL d   1      -0.646  -0.005   1.116  0.00  0.00     0.026 A 
ATOM      8  C6  UNL d   1       0.300   0.009   0.036  0.00  0.00    -0.082 A 
ATOM      9  C7  UNL d   1       0.826   1.088  -0.715  0.00  0.00     0.045 A 
ENDROOT
TORSDOF 0
ENDMDL
