MODEL 1
REMARK minimizedAffinity 7.71431971
REMARK minimizedRMSD -1
REMARK  0 active torsions:
REMARK  status: ('A' for Active; 'I' for Inactive)
ROOT
ATOM      1  C   UNL d   1      -2.032   1.418   2.787  0.00  0.00     0.023 A 
ATOM      2  C1  UNL d   1      -0.928   2.250   2.597  0.00  0.00     0.003 A 
ATOM      3  C2  UNL d   1       0.360   1.711   2.587  0.00  0.00     0.048 A 
ATOM      4  C3  UNL d   1       0.538   0.340   2.767  0.00  0.00     0.023 A 
ATOM      5  C4  UNL d   1      -0.564  -0.496   2.957  0.00  0.00     0.048 A 
ATOM      6  C5  UNL d   1      -1.850   0.047   2.966  0.00  0.00     0.003 A 
ATOM      7  I   UNL d   1       2.454  -0.464   2.753  0.00  0.00    -0.146 I 
ENDROOT
TORSDOF 0
ENDMDL
