MODEL 1
REMARK minimizedAffinity 4.76785707
REMARK minimizedRMSD -1
REMARK  0 active torsions:
REMARK  status: ('A' for Active; 'I' for Inactive)
ROOT
ATOM      1  C   UNL d   1      -0.373  -0.151  -5.383  0.00  0.00     0.023 A 
ATOM      2  C1  UNL d   1      -1.385  -0.545  -4.507  0.00  0.00     0.003 A 
ATOM      3  C2  UNL d   1      -1.596  -1.901  -4.247  0.00  0.00     0.048 A 
ATOM      4  C3  UNL d   1      -0.792  -2.857  -4.866  0.00  0.00     0.023 A 
ATOM      5  C4  UNL d   1       0.222  -2.467  -5.743  0.00  0.00     0.048 A 
ATOM      6  C5  UNL d   1       0.429  -1.111  -6.000  0.00  0.00     0.003 A 
ATOM      7  I   UNL d   1      -1.105  -4.875  -4.481  0.00  0.00    -0.146 I 
ENDROOT
TORSDOF 0
ENDMDL
