MODEL 1
REMARK minimizedAffinity -0.342216849
REMARK minimizedRMSD -1
REMARK  0 active torsions:
REMARK  status: ('A' for Active; 'I' for Inactive)
ROOT
ATOM      1  C   UNL d   1       0.064   2.455   3.743  0.00  0.00     0.023 A 
ATOM      2  C1  UNL d   1      -0.623   1.282   3.432  0.00  0.00     0.003 A 
ATOM      3  C2  UNL d   1      -0.218   0.500   2.348  0.00  0.00     0.048 A 
ATOM      4  C3  UNL d   1       0.876   0.897   1.580  0.00  0.00     0.023 A 
ATOM      5  C4  UNL d   1       1.567   2.070   1.888  0.00  0.00     0.048 A 
ATOM      6  C5  UNL d   1       1.157   2.849   2.971  0.00  0.00     0.003 A 
ATOM      7  I   UNL d   1       1.481  -0.265  -0.033  0.00  0.00    -0.146 I 
ENDROOT
TORSDOF 0
ENDMDL
