MODEL 1
REMARK minimizedAffinity 3.8380692
REMARK minimizedRMSD -1
REMARK  0 active torsions:
REMARK  status: ('A' for Active; 'I' for Inactive)
ROOT
ATOM      1  C   UNL d   1       3.499  -0.775   1.195  0.00  0.00     0.023 A 
ATOM      2  C1  UNL d   1       2.524  -0.380   0.279  0.00  0.00     0.003 A 
ATOM      3  C2  UNL d   1       1.326   0.178   0.731  0.00  0.00     0.048 A 
ATOM      4  C3  UNL d   1       1.110   0.338   2.099  0.00  0.00     0.023 A 
ATOM      5  C4  UNL d   1       2.083  -0.056   3.019  0.00  0.00     0.048 A 
ATOM      6  C5  UNL d   1       3.279  -0.613   2.563  0.00  0.00     0.003 A 
ATOM      7  I   UNL d   1      -0.672   1.168   2.773  0.00  0.00    -0.146 I 
ENDROOT
TORSDOF 0
ENDMDL
