MODEL 1
REMARK minimizedAffinity 3.58804989
REMARK minimizedRMSD -1
REMARK  0 active torsions:
REMARK  status: ('A' for Active; 'I' for Inactive)
ROOT
ATOM      1  C   UNL d   1       0.299  -0.059   2.011  0.00  0.00     0.023 A 
ATOM      2  C1  UNL d   1       1.418  -0.613   1.389  0.00  0.00     0.003 A 
ATOM      3  C2  UNL d   1       1.259  -1.481   0.307  0.00  0.00     0.048 A 
ATOM      4  C3  UNL d   1      -0.022  -1.791  -0.149  0.00  0.00     0.023 A 
ATOM      5  C4  UNL d   1      -1.145  -1.238   0.470  0.00  0.00     0.048 A 
ATOM      6  C5  UNL d   1      -0.981  -0.371   1.552  0.00  0.00     0.003 A 
ATOM      7  I   UNL d   1      -0.262  -3.082  -1.760  0.00  0.00    -0.146 I 
ENDROOT
TORSDOF 0
ENDMDL
