MODEL 1
REMARK minimizedAffinity 10.6346407
REMARK minimizedRMSD -1
REMARK  0 active torsions:
REMARK  status: ('A' for Active; 'I' for Inactive)
ROOT
ATOM      1  C   UNL d   1      -0.949   0.060   2.472  0.00  0.00     0.023 A 
ATOM      2  C1  UNL d   1      -1.449   1.360   2.555  0.00  0.00     0.003 A 
ATOM      3  C2  UNL d   1      -2.492   1.764   1.720  0.00  0.00     0.048 A 
ATOM      4  C3  UNL d   1      -3.033   0.862   0.804  0.00  0.00     0.023 A 
ATOM      5  C4  UNL d   1      -2.538  -0.440   0.718  0.00  0.00     0.048 A 
ATOM      6  C5  UNL d   1      -1.493  -0.839   1.555  0.00  0.00     0.003 A 
ATOM      7  I   UNL d   1      -4.587   1.460  -0.440  0.00  0.00    -0.146 I 
ENDROOT
TORSDOF 0
ENDMDL
