MODEL 1
REMARK minimizedAffinity 6.38044739
REMARK minimizedRMSD -1
REMARK  0 active torsions:
REMARK  status: ('A' for Active; 'I' for Inactive)
ROOT
ATOM      1  C   UNL d   1       2.818  -0.853   1.319  0.00  0.00     0.023 A 
ATOM      2  C1  UNL d   1       2.483  -0.405   2.596  0.00  0.00     0.003 A 
ATOM      3  C2  UNL d   1       1.181   0.019   2.870  0.00  0.00     0.048 A 
ATOM      4  C3  UNL d   1       0.219  -0.009   1.862  0.00  0.00     0.023 A 
ATOM      5  C4  UNL d   1       0.549  -0.458   0.582  0.00  0.00     0.048 A 
ATOM      6  C5  UNL d   1       1.852  -0.880   0.313  0.00  0.00     0.003 A 
ATOM      7  I   UNL d   1      -1.720   0.622   2.267  0.00  0.00    -0.146 I 
ENDROOT
TORSDOF 0
ENDMDL
