MODEL 1
REMARK minimizedAffinity -0.734167993
REMARK minimizedRMSD -1
REMARK  0 active torsions:
REMARK  status: ('A' for Active; 'I' for Inactive)
ROOT
ATOM      1  C   UNL d   1       0.311  -0.251   0.389  0.00  0.00    -0.002 A 
ATOM      2  C1  UNL d   1      -0.200   0.133  -0.843  0.00  0.00     0.010 A 
ATOM      3  C2  UNL d   1      -1.551   0.456  -0.982  0.00  0.00     0.041 A 
ATOM      4  C3  UNL d   1      -2.388   0.388   0.149  0.00  0.00    -0.075 A 
ATOM      5  S   UNL d   1      -4.075   0.739   0.217  0.00  0.00     0.015 SA
ATOM      6  C4  UNL d   1      -4.157   0.388   1.883  0.00  0.00     0.022 A 
ATOM      7  C5  UNL d   1      -2.937   0.011   2.391  0.00  0.00     0.026 A 
ATOM      8  C6  UNL d   1      -1.897   0.005   1.401  0.00  0.00    -0.082 A 
ATOM      9  C7  UNL d   1      -0.523  -0.317   1.509  0.00  0.00     0.045 A 
ENDROOT
TORSDOF 0
ENDMDL
