MODEL 1
REMARK minimizedAffinity -2.15135121
REMARK minimizedRMSD -1
REMARK  0 active torsions:
REMARK  status: ('A' for Active; 'I' for Inactive)
ROOT
ATOM      1  C   UNL d   1      -3.882   5.082  -5.921  0.00  0.00    -0.002 A 
ATOM      2  C1  UNL d   1      -5.267   5.104  -5.999  0.00  0.00     0.010 A 
ATOM      3  C2  UNL d   1      -6.000   3.916  -5.946  0.00  0.00     0.041 A 
ATOM      4  C3  UNL d   1      -5.311   2.695  -5.810  0.00  0.00    -0.075 A 
ATOM      5  S   UNL d   1      -5.999   1.117  -5.722  0.00  0.00     0.015 SA
ATOM      6  C4  UNL d   1      -4.471   0.377  -5.578  0.00  0.00     0.022 A 
ATOM      7  C5  UNL d   1      -3.449   1.297  -5.595  0.00  0.00     0.026 A 
ATOM      8  C6  UNL d   1      -3.916   2.648  -5.728  0.00  0.00    -0.082 A 
ATOM      9  C7  UNL d   1      -3.201   3.869  -5.786  0.00  0.00     0.045 A 
ENDROOT
TORSDOF 0
ENDMDL
