MODEL 1
REMARK minimizedAffinity -4.14227009
REMARK minimizedRMSD -1
REMARK  0 active torsions:
REMARK  status: ('A' for Active; 'I' for Inactive)
ROOT
ATOM      1  C   UNL d   1       1.848   0.758  -2.457  0.00  0.00    -0.002 A 
ATOM      2  C1  UNL d   1       1.874  -0.623  -2.585  0.00  0.00     0.010 A 
ATOM      3  C2  UNL d   1       1.239  -1.435  -1.643  0.00  0.00     0.041 A 
ATOM      4  C3  UNL d   1       0.570  -0.830  -0.561  0.00  0.00    -0.075 A 
ATOM      5  S   UNL d   1      -0.277  -1.624   0.713  0.00  0.00     0.015 SA
ATOM      6  C4  UNL d   1      -0.694  -0.147   1.456  0.00  0.00     0.022 A 
ATOM      7  C5  UNL d   1      -0.207   0.935   0.763  0.00  0.00     0.026 A 
ATOM      8  C6  UNL d   1       0.530   0.560  -0.412  0.00  0.00    -0.082 A 
ATOM      9  C7  UNL d   1       1.183   1.356  -1.383  0.00  0.00     0.045 A 
ENDROOT
TORSDOF 0
ENDMDL
