MODEL 1
REMARK minimizedAffinity -3.86838126
REMARK minimizedRMSD -1
REMARK  0 active torsions:
REMARK  status: ('A' for Active; 'I' for Inactive)
ROOT
ATOM      1  C   UNL d   1       1.875   0.754  -2.334  0.00  0.00    -0.002 A 
ATOM      2  C1  UNL d   1       1.682   1.822  -1.470  0.00  0.00     0.010 A 
ATOM      3  C2  UNL d   1       0.946   1.661  -0.295  0.00  0.00     0.041 A 
ATOM      4  C3  UNL d   1       0.403   0.395   0.002  0.00  0.00    -0.075 A 
ATOM      5  S   UNL d   1      -0.532  -0.037   1.384  0.00  0.00     0.015 SA
ATOM      6  C4  UNL d   1      -0.697  -1.651   0.860  0.00  0.00     0.022 A 
ATOM      7  C5  UNL d   1      -0.061  -1.871  -0.338  0.00  0.00     0.026 A 
ATOM      8  C6  UNL d   1       0.584  -0.696  -0.853  0.00  0.00    -0.082 A 
ATOM      9  C7  UNL d   1       1.335  -0.500  -2.037  0.00  0.00     0.045 A 
ENDROOT
TORSDOF 0
ENDMDL
