MODEL 1
REMARK minimizedAffinity -2.7220602
REMARK minimizedRMSD -1
REMARK  0 active torsions:
REMARK  status: ('A' for Active; 'I' for Inactive)
ROOT
ATOM      1  C   UNL d   1       1.482  -0.130  -2.917  0.00  0.00    -0.002 A 
ATOM      2  C1  UNL d   1       0.595  -1.190  -3.040  0.00  0.00     0.010 A 
ATOM      3  C2  UNL d   1      -0.233  -1.551  -1.975  0.00  0.00     0.041 A 
ATOM      4  C3  UNL d   1      -0.155  -0.821  -0.774  0.00  0.00    -0.075 A 
ATOM      5  S   UNL d   1      -1.072  -1.082   0.663  0.00  0.00     0.015 SA
ATOM      6  C4  UNL d   1      -0.309   0.209   1.474  0.00  0.00     0.022 A 
ATOM      7  C5  UNL d   1       0.625   0.834   0.683  0.00  0.00     0.026 A 
ATOM      8  C6  UNL d   1       0.729   0.252  -0.626  0.00  0.00    -0.082 A 
ATOM      9  C7  UNL d   1       1.556   0.593  -1.723  0.00  0.00     0.045 A 
ENDROOT
TORSDOF 0
ENDMDL
