MODEL 1
REMARK minimizedAffinity -3.56422901
REMARK minimizedRMSD -1
REMARK  0 active torsions:
REMARK  status: ('A' for Active; 'I' for Inactive)
ROOT
ATOM      1  C   UNL d   1      -1.251  -0.123   0.578  0.00  0.00    -0.002 A 
ATOM      2  C1  UNL d   1      -0.494   0.860   1.200  0.00  0.00     0.010 A 
ATOM      3  C2  UNL d   1       0.701   1.303   0.629  0.00  0.00     0.041 A 
ATOM      4  C3  UNL d   1       1.125   0.738  -0.590  0.00  0.00    -0.075 A 
ATOM      5  S   UNL d   1       2.553   1.126  -1.474  0.00  0.00     0.015 SA
ATOM      6  C4  UNL d   1       2.191  -0.002  -2.699  0.00  0.00     0.022 A 
ATOM      7  C5  UNL d   1       1.013  -0.668  -2.455  0.00  0.00     0.026 A 
ATOM      8  C6  UNL d   1       0.379  -0.251  -1.236  0.00  0.00    -0.082 A 
ATOM      9  C7  UNL d   1      -0.828  -0.680  -0.632  0.00  0.00     0.045 A 
ENDROOT
TORSDOF 0
ENDMDL
