MODEL 1
REMARK minimizedAffinity 0.64673382
REMARK minimizedRMSD -1
REMARK  0 active torsions:
REMARK  status: ('A' for Active; 'I' for Inactive)
ROOT
ATOM      1  C   UNL d   1      -3.926  -0.400   1.647  0.00  0.00    -0.002 A 
ATOM      2  C1  UNL d   1      -3.437   0.803   2.138  0.00  0.00     0.010 A 
ATOM      3  C2  UNL d   1      -2.124   1.197   1.872  0.00  0.00     0.041 A 
ATOM      4  C3  UNL d   1      -1.303   0.354   1.097  0.00  0.00    -0.075 A 
ATOM      5  S   UNL d   1       0.337   0.631   0.644  0.00  0.00     0.015 SA
ATOM      6  C4  UNL d   1       0.428  -0.840  -0.212  0.00  0.00     0.022 A 
ATOM      7  C5  UNL d   1      -0.756  -1.538  -0.163  0.00  0.00     0.026 A 
ATOM      8  C6  UNL d   1      -1.773  -0.861   0.591  0.00  0.00    -0.082 A 
ATOM      9  C7  UNL d   1      -3.108  -1.233   0.878  0.00  0.00     0.045 A 
ENDROOT
TORSDOF 0
ENDMDL
