MODEL 1
REMARK minimizedAffinity -0.938134372
REMARK minimizedRMSD -1
REMARK  0 active torsions:
REMARK  status: ('A' for Active; 'I' for Inactive)
ROOT
ATOM      1  C   UNL d   1       3.134  -2.388  -1.917  0.00  0.00    -0.002 A 
ATOM      2  C1  UNL d   1       2.112  -3.058  -1.258  0.00  0.00     0.010 A 
ATOM      3  C2  UNL d   1       1.114  -2.348  -0.588  0.00  0.00     0.041 A 
ATOM      4  C3  UNL d   1       1.158  -0.940  -0.593  0.00  0.00    -0.075 A 
ATOM      5  S   UNL d   1       0.042   0.138   0.159  0.00  0.00     0.015 SA
ATOM      6  C4  UNL d   1       0.894   1.513  -0.378  0.00  0.00     0.022 A 
ATOM      7  C5  UNL d   1       2.005   1.176  -1.114  0.00  0.00     0.026 A 
ATOM      8  C6  UNL d   1       2.176  -0.243  -1.251  0.00  0.00    -0.082 A 
ATOM      9  C7  UNL d   1       3.174  -0.991  -1.920  0.00  0.00     0.045 A 
ENDROOT
TORSDOF 0
ENDMDL
