MODEL 1
REMARK minimizedAffinity -2.76966977
REMARK minimizedRMSD -1
REMARK  0 active torsions:
REMARK  status: ('A' for Active; 'I' for Inactive)
ROOT
ATOM      1  C   UNL d   1      -0.546  -1.787   0.558  0.00  0.00    -0.002 A 
ATOM      2  C1  UNL d   1      -0.481  -0.590   1.255  0.00  0.00     0.010 A 
ATOM      3  C2  UNL d   1       0.095   0.542   0.673  0.00  0.00     0.041 A 
ATOM      4  C3  UNL d   1       0.606   0.448  -0.636  0.00  0.00    -0.075 A 
ATOM      5  S   UNL d   1       1.354   1.703  -1.552  0.00  0.00     0.015 SA
ATOM      6  C4  UNL d   1       1.604   0.679  -2.891  0.00  0.00     0.022 A 
ATOM      7  C5  UNL d   1       1.135  -0.592  -2.663  0.00  0.00     0.026 A 
ATOM      8  C6  UNL d   1       0.551  -0.746  -1.360  0.00  0.00    -0.082 A 
ATOM      9  C7  UNL d   1      -0.037  -1.876  -0.741  0.00  0.00     0.045 A 
ENDROOT
TORSDOF 0
ENDMDL
