MODEL 1
REMARK minimizedAffinity 14.9683247
REMARK minimizedRMSD -1
REMARK  0 active torsions:
REMARK  status: ('A' for Active; 'I' for Inactive)
ROOT
ATOM      1  C   UNL d   1       0.895  -2.340  -1.794  0.00  0.00    -0.002 A 
ATOM      2  C1  UNL d   1       1.930  -2.816  -1.001  0.00  0.00     0.010 A 
ATOM      3  C2  UNL d   1       2.653  -3.948  -1.382  0.00  0.00     0.041 A 
ATOM      4  C3  UNL d   1       2.318  -4.598  -2.587  0.00  0.00    -0.075 A 
ATOM      5  S   UNL d   1       3.066  -6.000  -3.255  0.00  0.00     0.015 SA
ATOM      6  C4  UNL d   1       2.031  -5.998  -4.609  0.00  0.00     0.022 A 
ATOM      7  C5  UNL d   1       1.130  -4.961  -4.568  0.00  0.00     0.026 A 
ATOM      8  C6  UNL d   1       1.281  -4.136  -3.402  0.00  0.00    -0.082 A 
ATOM      9  C7  UNL d   1       0.565  -2.987  -2.988  0.00  0.00     0.045 A 
ENDROOT
TORSDOF 0
ENDMDL
