MODEL 1
REMARK minimizedAffinity 12.2513132
REMARK minimizedRMSD -1
REMARK  0 active torsions:
REMARK  status: ('A' for Active; 'I' for Inactive)
ROOT
ATOM      1  C   UNL d   1       2.124   4.084  -3.733  0.00  0.00    -0.002 A 
ATOM      2  C1  UNL d   1       1.300   3.205  -3.044  0.00  0.00     0.010 A 
ATOM      3  C2  UNL d   1      -0.065   3.140  -3.329  0.00  0.00     0.041 A 
ATOM      4  C3  UNL d   1      -0.593   3.980  -4.330  0.00  0.00    -0.075 A 
ATOM      5  S   UNL d   1      -2.234   4.072  -4.850  0.00  0.00     0.015 SA
ATOM      6  C4  UNL d   1      -1.880   5.279  -6.000  0.00  0.00     0.022 A 
ATOM      7  C5  UNL d   1      -0.547   5.616  -6.000  0.00  0.00     0.026 A 
ATOM      8  C6  UNL d   1       0.217   4.872  -5.038  0.00  0.00    -0.082 A 
ATOM      9  C7  UNL d   1       1.597   4.915  -4.725  0.00  0.00     0.045 A 
ENDROOT
TORSDOF 0
ENDMDL
