MODEL 1
REMARK minimizedAffinity 16.9201546
REMARK minimizedRMSD -1
REMARK  0 active torsions:
REMARK  status: ('A' for Active; 'I' for Inactive)
ROOT
ATOM      1  C   UNL d   1       0.709  -4.890  -2.222  0.00  0.00    -0.002 A 
ATOM      2  C1  UNL d   1      -0.347  -4.027  -1.968  0.00  0.00     0.010 A 
ATOM      3  C2  UNL d   1      -0.195  -2.959  -1.082  0.00  0.00     0.041 A 
ATOM      4  C3  UNL d   1       1.051  -2.768  -0.452  0.00  0.00    -0.075 A 
ATOM      5  S   UNL d   1       1.470  -1.527   0.669  0.00  0.00     0.015 SA
ATOM      6  C4  UNL d   1       3.062  -2.112   0.835  0.00  0.00     0.022 A 
ATOM      7  C5  UNL d   1       3.286  -3.227   0.062  0.00  0.00     0.026 A 
ATOM      8  C6  UNL d   1       2.130  -3.623  -0.693  0.00  0.00    -0.082 A 
ATOM      9  C7  UNL d   1       1.943  -4.698  -1.596  0.00  0.00     0.045 A 
ENDROOT
TORSDOF 0
ENDMDL
