MODEL 1
REMARK minimizedAffinity 2.53908014
REMARK minimizedRMSD -1
REMARK  0 active torsions:
REMARK  status: ('A' for Active; 'I' for Inactive)
ROOT
ATOM      1  C   UNL d   1      -4.122  -1.359   2.921  0.00  0.00    -0.002 A 
ATOM      2  C1  UNL d   1      -4.352  -0.042   2.546  0.00  0.00     0.010 A 
ATOM      3  C2  UNL d   1      -3.320   0.735   2.016  0.00  0.00     0.041 A 
ATOM      4  C3  UNL d   1      -2.042   0.161   1.866  0.00  0.00    -0.075 A 
ATOM      5  S   UNL d   1      -0.628   0.922   1.238  0.00  0.00     0.015 SA
ATOM      6  C4  UNL d   1       0.313  -0.482   1.452  0.00  0.00     0.022 A 
ATOM      7  C5  UNL d   1      -0.417  -1.516   1.989  0.00  0.00     0.026 A 
ATOM      8  C6  UNL d   1      -1.787  -1.163   2.235  0.00  0.00    -0.082 A 
ATOM      9  C7  UNL d   1      -2.853  -1.925   2.771  0.00  0.00     0.045 A 
ENDROOT
TORSDOF 0
ENDMDL
