MODEL 1
REMARK minimizedAffinity 6.60213423
REMARK minimizedRMSD -1
REMARK  0 active torsions:
REMARK  status: ('A' for Active; 'I' for Inactive)
ROOT
ATOM      1  C   UNL d   1      -4.557  -0.388   3.415  0.00  0.00    -0.002 A 
ATOM      2  C1  UNL d   1      -3.808  -1.544   3.585  0.00  0.00     0.010 A 
ATOM      3  C2  UNL d   1      -2.515  -1.635   3.066  0.00  0.00     0.041 A 
ATOM      4  C3  UNL d   1      -1.981  -0.533   2.368  0.00  0.00    -0.075 A 
ATOM      5  S   UNL d   1      -0.420  -0.417   1.646  0.00  0.00     0.015 SA
ATOM      6  C4  UNL d   1      -0.710   1.170   1.096  0.00  0.00     0.022 A 
ATOM      7  C5  UNL d   1      -1.963   1.616   1.446  0.00  0.00     0.026 A 
ATOM      8  C6  UNL d   1      -2.716   0.642   2.185  0.00  0.00    -0.082 A 
ATOM      9  C7  UNL d   1      -4.024   0.703   2.723  0.00  0.00     0.045 A 
ENDROOT
TORSDOF 0
ENDMDL
