MODEL 1
REMARK minimizedAffinity 8.39931488
REMARK minimizedRMSD -1
REMARK  0 active torsions:
REMARK  status: ('A' for Active; 'I' for Inactive)
ROOT
ATOM      1  C   UNL d   1      -4.293  -1.261   3.209  0.00  0.00    -0.002 A 
ATOM      2  C1  UNL d   1      -3.674  -2.471   3.486  0.00  0.00     0.010 A 
ATOM      3  C2  UNL d   1      -2.366  -2.714   3.061  0.00  0.00     0.041 A 
ATOM      4  C3  UNL d   1      -1.684  -1.709   2.348  0.00  0.00    -0.075 A 
ATOM      5  S   UNL d   1      -0.076  -1.783   1.729  0.00  0.00     0.015 SA
ATOM      6  C4  UNL d   1      -0.173  -0.209   1.083  0.00  0.00     0.022 A 
ATOM      7  C5  UNL d   1      -1.395   0.373   1.324  0.00  0.00     0.026 A 
ATOM      8  C6  UNL d   1      -2.285  -0.482   2.057  0.00  0.00    -0.082 A 
ATOM      9  C7  UNL d   1      -3.612  -0.266   2.501  0.00  0.00     0.045 A 
ENDROOT
TORSDOF 0
ENDMDL
