MODEL 1
REMARK minimizedAffinity 16.2426472
REMARK minimizedRMSD -1
REMARK  0 active torsions:
REMARK  status: ('A' for Active; 'I' for Inactive)
ROOT
ATOM      1  C   UNL d   1       1.180   3.006  -0.745  0.00  0.00    -0.002 A 
ATOM      2  C1  UNL d   1       1.837   2.129   0.105  0.00  0.00     0.010 A 
ATOM      3  C2  UNL d   1       1.117   1.230   0.894  0.00  0.00     0.041 A 
ATOM      4  C3  UNL d   1      -0.290   1.226   0.812  0.00  0.00    -0.075 A 
ATOM      5  S   UNL d   1      -1.380   0.213   1.682  0.00  0.00     0.015 SA
ATOM      6  C4  UNL d   1      -2.744   0.921   0.945  0.00  0.00     0.022 A 
ATOM      7  C5  UNL d   1      -2.395   1.908   0.054  0.00  0.00     0.026 A 
ATOM      8  C6  UNL d   1      -0.975   2.100  -0.038  0.00  0.00    -0.082 A 
ATOM      9  C7  UNL d   1      -0.216   3.000  -0.824  0.00  0.00     0.045 A 
ENDROOT
TORSDOF 0
ENDMDL
