MODEL 1
REMARK minimizedAffinity 8.29165459
REMARK minimizedRMSD -1
REMARK  0 active torsions:
REMARK  status: ('A' for Active; 'I' for Inactive)
ROOT
ATOM      1  C   UNL d   1       1.436  -4.082  -3.721  0.00  0.00    -0.002 A 
ATOM      2  C1  UNL d   1       0.554  -3.021  -3.573  0.00  0.00     0.010 A 
ATOM      3  C2  UNL d   1       0.722  -2.097  -2.540  0.00  0.00     0.041 A 
ATOM      4  C3  UNL d   1       1.803  -2.257  -1.651  0.00  0.00    -0.075 A 
ATOM      5  S   UNL d   1       2.207  -1.247  -0.313  0.00  0.00     0.015 SA
ATOM      6  C4  UNL d   1       3.561  -2.200   0.093  0.00  0.00     0.022 A 
ATOM      7  C5  UNL d   1       3.716  -3.266  -0.761  0.00  0.00     0.026 A 
ATOM      8  C6  UNL d   1       2.706  -3.316  -1.781  0.00  0.00    -0.082 A 
ATOM      9  C7  UNL d   1       2.508  -4.237  -2.837  0.00  0.00     0.045 A 
ENDROOT
TORSDOF 0
ENDMDL
