MODEL 1
REMARK minimizedAffinity 10.8617477
REMARK minimizedRMSD -1
REMARK  0 active torsions:
REMARK  status: ('A' for Active; 'I' for Inactive)
ROOT
ATOM      1  C   UNL d   1      -5.079  -1.318   3.909  0.00  0.00    -0.002 A 
ATOM      2  C1  UNL d   1      -4.895   0.017   3.578  0.00  0.00     0.010 A 
ATOM      3  C2  UNL d   1      -3.700   0.446   2.996  0.00  0.00     0.041 A 
ATOM      4  C3  UNL d   1      -2.685  -0.499   2.749  0.00  0.00    -0.075 A 
ATOM      5  S   UNL d   1      -1.139  -0.203   2.044  0.00  0.00     0.015 SA
ATOM      6  C4  UNL d   1      -0.688  -1.842   2.165  0.00  0.00     0.022 A 
ATOM      7  C5  UNL d   1      -1.680  -2.610   2.727  0.00  0.00     0.026 A 
ATOM      8  C6  UNL d   1      -2.848  -1.849   3.072  0.00  0.00    -0.082 A 
ATOM      9  C7  UNL d   1      -4.070  -2.252   3.662  0.00  0.00     0.045 A 
ENDROOT
TORSDOF 0
ENDMDL
