MODEL 1
REMARK minimizedAffinity 3.05110431
REMARK minimizedRMSD -1
REMARK  0 active torsions:
REMARK  status: ('A' for Active; 'I' for Inactive)
ROOT
ATOM      1  C   UNL d   1      -0.450  -0.078   1.361  0.00  0.00     0.124 A 
ATOM      2  C1  UNL d   1      -1.523   0.165   0.514  0.00  0.00     0.062 A 
ATOM      3  C2  UNL d   1      -1.386  -0.020  -0.859  0.00  0.00     0.162 A 
ATOM      4  C3  UNL d   1      -0.172  -0.451  -1.394  0.00  0.00    -0.034 A 
ATOM      5  C4  UNL d   1       0.903  -0.691  -0.536  0.00  0.00     0.162 A 
ATOM      6  C5  UNL d   1       0.761  -0.505   0.835  0.00  0.00     0.062 A 
ATOM      7  F   UNL d   1       1.799  -0.740   1.652  0.00  0.00    -0.097 F 
ATOM      8  F1  UNL d   1       2.084  -1.106  -1.017  0.00  0.00    -0.096 F 
ATOM      9  I   UNL d   1       0.036  -0.728  -3.446  0.00  0.00    -0.060 I 
ATOM     10  F2  UNL d   1      -2.439   0.222  -1.654  0.00  0.00    -0.096 F 
ATOM     11  F3  UNL d   1      -2.694   0.579   1.019  0.00  0.00    -0.097 F 
ATOM     12  F4  UNL d   1      -0.584   0.102   2.681  0.00  0.00    -0.092 F 
ENDROOT
TORSDOF 0
ENDMDL
