MODEL 1
REMARK minimizedAffinity 0.0901513025
REMARK minimizedRMSD -1
REMARK  0 active torsions:
REMARK  status: ('A' for Active; 'I' for Inactive)
ROOT
ATOM      1  C   UNL d   1       1.145   0.637   1.747  0.00  0.00     0.124 A 
ATOM      2  C1  UNL d   1       0.123   1.210   1.003  0.00  0.00     0.062 A 
ATOM      3  C2  UNL d   1      -0.136   0.765  -0.291  0.00  0.00     0.162 A 
ATOM      4  C3  UNL d   1       0.630  -0.259  -0.849  0.00  0.00    -0.034 A 
ATOM      5  C4  UNL d   1       1.657  -0.829  -0.095  0.00  0.00     0.162 A 
ATOM      6  C5  UNL d   1       1.911  -0.381   1.198  0.00  0.00     0.062 A 
ATOM      7  F   UNL d   1       2.900  -0.935   1.915  0.00  0.00    -0.097 F 
ATOM      8  F1  UNL d   1       2.412  -1.816  -0.600  0.00  0.00    -0.096 F 
ATOM      9  I   UNL d   1       0.247  -0.927  -2.782  0.00  0.00    -0.060 I 
ATOM     10  F2  UNL d   1      -1.130   1.336  -0.986  0.00  0.00    -0.096 F 
ATOM     11  F3  UNL d   1      -0.618   2.195   1.531  0.00  0.00    -0.097 F 
ATOM     12  F4  UNL d   1       1.392   1.068   2.990  0.00  0.00    -0.092 F 
ENDROOT
TORSDOF 0
ENDMDL
