MODEL 1
REMARK minimizedAffinity -1.38392389
REMARK minimizedRMSD -1
REMARK  0 active torsions:
REMARK  status: ('A' for Active; 'I' for Inactive)
ROOT
ATOM      1  C   UNL d   1       0.923  -0.351   0.318  0.00  0.00     0.124 A 
ATOM      2  C1  UNL d   1       1.405  -1.219  -0.652  0.00  0.00     0.062 A 
ATOM      3  C2  UNL d   1       1.062  -1.035  -1.988  0.00  0.00     0.162 A 
ATOM      4  C3  UNL d   1       0.234   0.022  -2.364  0.00  0.00    -0.034 A 
ATOM      5  C4  UNL d   1      -0.248   0.890  -1.383  0.00  0.00     0.162 A 
ATOM      6  C5  UNL d   1       0.097   0.703  -0.048  0.00  0.00     0.062 A 
ATOM      7  F   UNL d   1      -0.370   1.542   0.887  0.00  0.00    -0.097 F 
ATOM      8  F1  UNL d   1      -1.047   1.917  -1.709  0.00  0.00    -0.096 F 
ATOM      9  I   UNL d   1      -0.281   0.300  -4.361  0.00  0.00    -0.060 I 
ATOM     10  F2  UNL d   1       1.543  -1.890  -2.904  0.00  0.00    -0.096 F 
ATOM     11  F3  UNL d   1       2.202  -2.238  -0.300  0.00  0.00    -0.097 F 
ATOM     12  F4  UNL d   1       1.253  -0.530   1.603  0.00  0.00    -0.092 F 
ENDROOT
TORSDOF 0
ENDMDL
