MODEL 1
REMARK minimizedAffinity 0.517037392
REMARK minimizedRMSD -1
REMARK  0 active torsions:
REMARK  status: ('A' for Active; 'I' for Inactive)
ROOT
ATOM      1  C   UNL d   1      -0.421   0.252   1.791  0.00  0.00     0.124 A 
ATOM      2  C1  UNL d   1      -1.371   0.760   0.917  0.00  0.00     0.062 A 
ATOM      3  C2  UNL d   1      -1.190   0.646  -0.459  0.00  0.00     0.162 A 
ATOM      4  C3  UNL d   1      -0.053   0.020  -0.969  0.00  0.00    -0.034 A 
ATOM      5  C4  UNL d   1       0.900  -0.488  -0.083  0.00  0.00     0.162 A 
ATOM      6  C5  UNL d   1       0.714  -0.371   1.290  0.00  0.00     0.062 A 
ATOM      7  F   UNL d   1       1.633  -0.863   2.133  0.00  0.00    -0.097 F 
ATOM      8  F1  UNL d   1       2.005  -1.096  -0.540  0.00  0.00    -0.096 F 
ATOM      9  I   UNL d   1       0.223  -0.152  -3.025  0.00  0.00    -0.060 I 
ATOM     10  F2  UNL d   1      -2.125   1.147  -1.280  0.00  0.00    -0.096 F 
ATOM     11  F3  UNL d   1      -2.468   1.364   1.398  0.00  0.00    -0.097 F 
ATOM     12  F4  UNL d   1      -0.597   0.364   3.114  0.00  0.00    -0.092 F 
ENDROOT
TORSDOF 0
ENDMDL
