MODEL 1
REMARK minimizedAffinity -0.964423954
REMARK minimizedRMSD -1
REMARK  0 active torsions:
REMARK  status: ('A' for Active; 'I' for Inactive)
ROOT
ATOM      1  C   UNL d   1      -0.775   0.888   2.487  0.00  0.00     0.124 A 
ATOM      2  C1  UNL d   1      -1.844   0.739   1.614  0.00  0.00     0.062 A 
ATOM      3  C2  UNL d   1      -1.617   0.437   0.274  0.00  0.00     0.162 A 
ATOM      4  C3  UNL d   1      -0.315   0.280  -0.201  0.00  0.00    -0.034 A 
ATOM      5  C4  UNL d   1       0.755   0.432   0.682  0.00  0.00     0.162 A 
ATOM      6  C5  UNL d   1       0.523   0.734   2.020  0.00  0.00     0.062 A 
ATOM      7  F   UNL d   1       1.557   0.877   2.862  0.00  0.00    -0.097 F 
ATOM      8  F1  UNL d   1       2.019   0.288   0.259  0.00  0.00    -0.096 F 
ATOM      9  I   UNL d   1       0.028  -0.172  -2.203  0.00  0.00    -0.060 I 
ATOM     10  F2  UNL d   1      -2.669   0.299  -0.547  0.00  0.00    -0.096 F 
ATOM     11  F3  UNL d   1      -3.099   0.888   2.062  0.00  0.00    -0.097 F 
ATOM     12  F4  UNL d   1      -0.996   1.179   3.775  0.00  0.00    -0.092 F 
ENDROOT
TORSDOF 0
ENDMDL
