MODEL 1
REMARK minimizedAffinity -0.26722008
REMARK minimizedRMSD -1
REMARK  0 active torsions:
REMARK  status: ('A' for Active; 'I' for Inactive)
ROOT
ATOM      1  C   UNL d   1      -0.015   0.718   2.326  0.00  0.00     0.124 A 
ATOM      2  C1  UNL d   1       1.203   0.259   1.844  0.00  0.00     0.062 A 
ATOM      3  C2  UNL d   1       1.300  -0.241   0.549  0.00  0.00     0.162 A 
ATOM      4  C3  UNL d   1       0.175  -0.284  -0.275  0.00  0.00    -0.034 A 
ATOM      5  C4  UNL d   1      -1.047   0.179   0.217  0.00  0.00     0.162 A 
ATOM      6  C5  UNL d   1      -1.139   0.678   1.512  0.00  0.00     0.062 A 
ATOM      7  F   UNL d   1      -2.316   1.121   1.976  0.00  0.00    -0.097 F 
ATOM      8  F1  UNL d   1      -2.148   0.152  -0.548  0.00  0.00    -0.096 F 
ATOM      9  I   UNL d   1       0.315  -1.032  -2.212  0.00  0.00    -0.060 I 
ATOM     10  F2  UNL d   1       2.489  -0.678   0.110  0.00  0.00    -0.096 F 
ATOM     11  F3  UNL d   1       2.290   0.296   2.628  0.00  0.00    -0.097 F 
ATOM     12  F4  UNL d   1      -0.106   1.198   3.573  0.00  0.00    -0.092 F 
ENDROOT
TORSDOF 0
ENDMDL
