MODEL 1
REMARK minimizedAffinity -1.9635365
REMARK minimizedRMSD -1
REMARK  0 active torsions:
REMARK  status: ('A' for Active; 'I' for Inactive)
ROOT
ATOM      1  C   UNL d   1       1.190   0.769   2.537  0.00  0.00     0.124 A 
ATOM      2  C1  UNL d   1       1.815  -0.359   2.024  0.00  0.00     0.062 A 
ATOM      3  C2  UNL d   1       1.606  -0.735   0.700  0.00  0.00     0.162 A 
ATOM      4  C3  UNL d   1       0.768   0.020  -0.122  0.00  0.00    -0.034 A 
ATOM      5  C4  UNL d   1       0.143   1.153   0.401  0.00  0.00     0.162 A 
ATOM      6  C5  UNL d   1       0.355   1.524   1.725  0.00  0.00     0.062 A 
ATOM      7  F   UNL d   1      -0.250   2.615   2.218  0.00  0.00    -0.097 F 
ATOM      8  F1  UNL d   1      -0.668   1.902  -0.361  0.00  0.00    -0.096 F 
ATOM      9  I   UNL d   1       0.453  -0.538  -2.102  0.00  0.00    -0.060 I 
ATOM     10  F2  UNL d   1       2.222  -1.830   0.232  0.00  0.00    -0.096 F 
ATOM     11  F3  UNL d   1       2.621  -1.091   2.807  0.00  0.00    -0.097 F 
ATOM     12  F4  UNL d   1       1.392   1.128   3.811  0.00  0.00    -0.092 F 
ENDROOT
TORSDOF 0
ENDMDL
