MODEL 1
REMARK minimizedAffinity -5.28182173
REMARK minimizedRMSD -1
REMARK  0 active torsions:
REMARK  status: ('A' for Active; 'I' for Inactive)
ROOT
ATOM      1  C   UNL d   1       0.408   0.828   3.136  0.00  0.00     0.124 A 
ATOM      2  C1  UNL d   1      -0.481   1.377   2.223  0.00  0.00     0.062 A 
ATOM      3  C2  UNL d   1      -0.519   0.908   0.913  0.00  0.00     0.162 A 
ATOM      4  C3  UNL d   1       0.335  -0.118   0.508  0.00  0.00    -0.034 A 
ATOM      5  C4  UNL d   1       1.228  -0.664   1.432  0.00  0.00     0.162 A 
ATOM      6  C5  UNL d   1       1.262  -0.191   2.739  0.00  0.00     0.062 A 
ATOM      7  F   UNL d   1       2.123  -0.723   3.620  0.00  0.00    -0.097 F 
ATOM      8  F1  UNL d   1       2.064  -1.651   1.076  0.00  0.00    -0.096 F 
ATOM      9  I   UNL d   1       0.282  -0.823  -1.449  0.00  0.00    -0.060 I 
ATOM     10  F2  UNL d   1      -1.389   1.457   0.052  0.00  0.00    -0.096 F 
ATOM     11  F3  UNL d   1      -1.307   2.363   2.603  0.00  0.00    -0.097 F 
ATOM     12  F4  UNL d   1       0.443   1.283   4.395  0.00  0.00    -0.092 F 
ENDROOT
TORSDOF 0
ENDMDL
