MODEL 1
REMARK minimizedAffinity -2.576401
REMARK minimizedRMSD -1
REMARK  0 active torsions:
REMARK  status: ('A' for Active; 'I' for Inactive)
ROOT
ATOM      1  C   UNL d   1       0.133   0.714   2.893  0.00  0.00     0.124 A 
ATOM      2  C1  UNL d   1       1.342   0.324   2.333  0.00  0.00     0.062 A 
ATOM      3  C2  UNL d   1       1.412  -0.013   0.984  0.00  0.00     0.162 A 
ATOM      4  C3  UNL d   1       0.269   0.039   0.186  0.00  0.00    -0.034 A 
ATOM      5  C4  UNL d   1      -0.943   0.431   0.757  0.00  0.00     0.162 A 
ATOM      6  C5  UNL d   1      -1.008   0.767   2.105  0.00  0.00     0.062 A 
ATOM      7  F   UNL d   1      -2.176   1.143   2.645  0.00  0.00    -0.097 F 
ATOM      8  F1  UNL d   1      -2.061   0.492   0.018  0.00  0.00    -0.096 F 
ATOM      9  I   UNL d   1       0.370  -0.463  -1.831  0.00  0.00    -0.060 I 
ATOM     10  F2  UNL d   1       2.593  -0.385   0.469  0.00  0.00    -0.096 F 
ATOM     11  F3  UNL d   1       2.445   0.271   3.093  0.00  0.00    -0.097 F 
ATOM     12  F4  UNL d   1       0.069   1.036   4.192  0.00  0.00    -0.092 F 
ENDROOT
TORSDOF 0
ENDMDL
