MODEL 1
REMARK minimizedAffinity 5.43772316
REMARK minimizedRMSD -1
REMARK  1 active torsions:
REMARK  status: ('A' for Active; 'I' for Inactive)
REMARK    1  A    between atoms: C1_2  and  C2_3 
ROOT
ATOM      1  C2  UNL d   1       3.134   5.356  -2.342  0.00  0.00    -0.077 A 
ATOM      2  C3  UNL d   1       4.345   5.999  -2.639  0.00  0.00     0.002 A 
ATOM      3  C4  UNL d   1       5.241   5.430  -3.546  0.00  0.00     0.002 A 
ATOM      4  C5  UNL d   1       4.936   4.220  -4.165  0.00  0.00    -0.004 A 
ATOM      5  C6  UNL d   1       3.736   3.573  -3.875  0.00  0.00     0.002 A 
ATOM      6  C7  UNL d   1       2.838   4.139  -2.968  0.00  0.00     0.002 A 
ENDROOT
BRANCH   1   7
ATOM      7  C1  UNL d   1       2.143   5.992  -1.402  0.00  0.00     0.055 C 
ATOM      8  C   UNL d   1       0.742   5.998  -1.996  0.00  0.00     0.019 C 
ENDBRANCH   1   7
TORSDOF 1
ENDMDL
