MODEL 1
REMARK minimizedAffinity 8.59253502
REMARK minimizedRMSD -1
REMARK  1 active torsions:
REMARK  status: ('A' for Active; 'I' for Inactive)
REMARK    1  A    between atoms: C1_2  and  C2_3 
ROOT
ATOM      1  C2  UNL d   1      -3.218  -0.004   0.844  0.00  0.00    -0.077 A 
ATOM      2  C3  UNL d   1      -2.764   0.877   1.836  0.00  0.00     0.002 A 
ATOM      3  C4  UNL d   1      -1.728   0.501   2.694  0.00  0.00     0.002 A 
ATOM      4  C5  UNL d   1      -1.135  -0.753   2.565  0.00  0.00    -0.004 A 
ATOM      5  C6  UNL d   1      -1.581  -1.637   1.584  0.00  0.00     0.002 A 
ATOM      6  C7  UNL d   1      -2.617  -1.264   0.726  0.00  0.00     0.002 A 
ENDROOT
BRANCH   1   7
ATOM      7  C1  UNL d   1      -4.301   0.418  -0.113  0.00  0.00     0.055 C 
ATOM      8  C   UNL d   1      -5.370   1.243   0.589  0.00  0.00     0.019 C 
ENDBRANCH   1   7
TORSDOF 1
ENDMDL
