MODEL 1
REMARK minimizedAffinity 11.2892857
REMARK minimizedRMSD -1
REMARK  1 active torsions:
REMARK  status: ('A' for Active; 'I' for Inactive)
REMARK    1  A    between atoms: C1_2  and  C2_3 
ROOT
ATOM      1  C2  UNL d   1      -0.427  -4.757  -4.502  0.00  0.00    -0.077 A 
ATOM      2  C3  UNL d   1      -1.534  -4.049  -4.013  0.00  0.00     0.002 A 
ATOM      3  C4  UNL d   1      -2.814  -4.315  -4.503  0.00  0.00     0.002 A 
ATOM      4  C5  UNL d   1      -3.000  -5.292  -5.479  0.00  0.00    -0.004 A 
ATOM      5  C6  UNL d   1      -1.904  -6.000  -5.973  0.00  0.00     0.002 A 
ATOM      6  C7  UNL d   1      -0.624  -5.734  -5.485  0.00  0.00     0.002 A 
ENDROOT
BRANCH   1   7
ATOM      7  C1  UNL d   1       0.948  -4.505  -3.940  0.00  0.00     0.055 C 
ATOM      8  C   UNL d   1       1.848  -5.720  -4.114  0.00  0.00     0.019 C 
ENDBRANCH   1   7
TORSDOF 1
ENDMDL
