MODEL 1
REMARK minimizedAffinity 4.0360527
REMARK minimizedRMSD -1
REMARK  1 active torsions:
REMARK  status: ('A' for Active; 'I' for Inactive)
REMARK    1  A    between atoms: C1_2  and  C2_3 
ROOT
ATOM      1  C2  UNL d   1      -5.903  -4.752   3.896  0.00  0.00    -0.077 A 
ATOM      2  C3  UNL d   1      -5.865  -3.550   3.175  0.00  0.00     0.002 A 
ATOM      3  C4  UNL d   1      -5.835  -3.564   1.779  0.00  0.00     0.002 A 
ATOM      4  C5  UNL d   1      -5.847  -4.776   1.093  0.00  0.00    -0.004 A 
ATOM      5  C6  UNL d   1      -5.882  -5.977   1.800  0.00  0.00     0.002 A 
ATOM      6  C7  UNL d   1      -5.912  -5.965   3.195  0.00  0.00     0.002 A 
ENDROOT
BRANCH   1   7
ATOM      7  C1  UNL d   1      -5.986  -4.738   5.400  0.00  0.00     0.055 C 
ATOM      8  C   UNL d   1      -5.369  -5.993   6.000  0.00  0.00     0.019 C 
ENDBRANCH   1   7
TORSDOF 1
ENDMDL
