MODEL 1
REMARK minimizedAffinity 5.43564415
REMARK minimizedRMSD -1
REMARK  1 active torsions:
REMARK  status: ('A' for Active; 'I' for Inactive)
REMARK    1  A    between atoms: C1_2  and  C2_3 
ROOT
ATOM      1  C2  UNL d   1      -3.441   0.183   0.886  0.00  0.00    -0.077 A 
ATOM      2  C3  UNL d   1      -2.666   1.193   1.474  0.00  0.00     0.002 A 
ATOM      3  C4  UNL d   1      -1.357   0.933   1.881  0.00  0.00     0.002 A 
ATOM      4  C5  UNL d   1      -0.809  -0.335   1.701  0.00  0.00    -0.004 A 
ATOM      5  C6  UNL d   1      -1.571  -1.347   1.119  0.00  0.00     0.002 A 
ATOM      6  C7  UNL d   1      -2.881  -1.089   0.713  0.00  0.00     0.002 A 
ENDROOT
BRANCH   1   7
ATOM      7  C1  UNL d   1      -4.837   0.476   0.401  0.00  0.00     0.055 C 
ATOM      8  C   UNL d   1      -4.828   1.496  -0.727  0.00  0.00     0.019 C 
ENDBRANCH   1   7
TORSDOF 1
ENDMDL
