MODEL 1
REMARK minimizedAffinity 9.60307217
REMARK minimizedRMSD -1
REMARK  1 active torsions:
REMARK  status: ('A' for Active; 'I' for Inactive)
REMARK    1  A    between atoms: C1_2  and  C2_3 
ROOT
ATOM      1  C2  UNL d   1       4.839   4.894  -2.922  0.00  0.00    -0.077 A 
ATOM      2  C3  UNL d   1       3.547   4.351  -2.936  0.00  0.00     0.002 A 
ATOM      3  C4  UNL d   1       3.167   3.460  -3.942  0.00  0.00     0.002 A 
ATOM      4  C5  UNL d   1       4.073   3.103  -4.938  0.00  0.00    -0.004 A 
ATOM      5  C6  UNL d   1       5.360   3.640  -4.934  0.00  0.00     0.002 A 
ATOM      6  C7  UNL d   1       5.742   4.531  -3.930  0.00  0.00     0.002 A 
ENDROOT
BRANCH   1   7
ATOM      7  C1  UNL d   1       5.267   5.817  -1.811  0.00  0.00     0.055 C 
ATOM      8  C   UNL d   1       6.000   5.058  -0.713  0.00  0.00     0.019 C 
ENDBRANCH   1   7
TORSDOF 1
ENDMDL
