MODEL 1
REMARK minimizedAffinity 8.5289011
REMARK minimizedRMSD -1
REMARK  1 active torsions:
REMARK  status: ('A' for Active; 'I' for Inactive)
REMARK    1  A    between atoms: C1_2  and  C2_3 
ROOT
ATOM      1  C2  UNL d   1      -4.154   0.807   1.079  0.00  0.00    -0.077 A 
ATOM      2  C3  UNL d   1      -3.517  -0.399   0.755  0.00  0.00     0.002 A 
ATOM      3  C4  UNL d   1      -2.383  -0.811   1.458  0.00  0.00     0.002 A 
ATOM      4  C5  UNL d   1      -1.879  -0.025   2.492  0.00  0.00    -0.004 A 
ATOM      5  C6  UNL d   1      -2.504   1.178   2.820  0.00  0.00     0.002 A 
ATOM      6  C7  UNL d   1      -3.637   1.591   2.118  0.00  0.00     0.002 A 
ENDROOT
BRANCH   1   7
ATOM      7  C1  UNL d   1      -5.406   1.229   0.355  0.00  0.00     0.055 C 
ATOM      8  C   UNL d   1      -5.105   2.277  -0.706  0.00  0.00     0.019 C 
ENDBRANCH   1   7
TORSDOF 1
ENDMDL
