MODEL 1
REMARK minimizedAffinity 9.01691532
REMARK minimizedRMSD -1
REMARK  1 active torsions:
REMARK  status: ('A' for Active; 'I' for Inactive)
REMARK    1  A    between atoms: C1_2  and  C2_3 
ROOT
ATOM      1  C2  UNL d   1       3.724   4.070  -3.299  0.00  0.00    -0.077 A 
ATOM      2  C3  UNL d   1       4.783   4.080  -4.219  0.00  0.00     0.002 A 
ATOM      3  C4  UNL d   1       5.789   5.043  -4.126  0.00  0.00     0.002 A 
ATOM      4  C5  UNL d   1       5.749   6.000  -3.114  0.00  0.00    -0.004 A 
ATOM      5  C6  UNL d   1       4.700   5.999  -2.196  0.00  0.00     0.002 A 
ATOM      6  C7  UNL d   1       3.693   5.038  -2.288  0.00  0.00     0.002 A 
ENDROOT
BRANCH   1   7
ATOM      7  C1  UNL d   1       2.664   3.001  -3.367  0.00  0.00     0.055 C 
ATOM      8  C   UNL d   1       2.950   1.875  -2.385  0.00  0.00     0.019 C 
ENDBRANCH   1   7
TORSDOF 1
ENDMDL
