MODEL 1
REMARK minimizedAffinity 8.67251968
REMARK minimizedRMSD -1
REMARK  1 active torsions:
REMARK  status: ('A' for Active; 'I' for Inactive)
REMARK    1  A    between atoms: C1_2  and  C2_3 
ROOT
ATOM      1  C2  UNL d   1       3.479   3.619  -3.861  0.00  0.00    -0.077 A 
ATOM      2  C3  UNL d   1       3.841   3.389  -5.195  0.00  0.00     0.002 A 
ATOM      3  C4  UNL d   1       4.960   4.020  -5.742  0.00  0.00     0.002 A 
ATOM      4  C5  UNL d   1       5.728   4.880  -4.960  0.00  0.00    -0.004 A 
ATOM      5  C6  UNL d   1       5.375   5.116  -3.632  0.00  0.00     0.002 A 
ATOM      6  C7  UNL d   1       4.256   4.488  -3.084  0.00  0.00     0.002 A 
ENDROOT
BRANCH   1   7
ATOM      7  C1  UNL d   1       2.300   2.901  -3.255  0.00  0.00     0.055 C 
ATOM      8  C   UNL d   1       2.751   1.781  -2.329  0.00  0.00     0.019 C 
ENDBRANCH   1   7
TORSDOF 1
ENDMDL
