MODEL 1
REMARK minimizedAffinity -4.17114592
REMARK minimizedRMSD -1
REMARK  1 active torsions:
REMARK  status: ('A' for Active; 'I' for Inactive)
REMARK    1  A    between atoms: C1_2  and  C2_3 
ROOT
ATOM      1  C2  UNL d   1       0.696   3.825  -1.247  0.00  0.00    -0.077 A 
ATOM      2  C3  UNL d   1       1.268   3.715   0.028  0.00  0.00     0.002 A 
ATOM      3  C4  UNL d   1       2.395   2.916   0.230  0.00  0.00     0.002 A 
ATOM      4  C5  UNL d   1       2.962   2.225  -0.839  0.00  0.00    -0.004 A 
ATOM      5  C6  UNL d   1       2.399   2.326  -2.111  0.00  0.00     0.002 A 
ATOM      6  C7  UNL d   1       1.272   3.123  -2.314  0.00  0.00     0.002 A 
ENDROOT
BRANCH   1   7
ATOM      7  C1  UNL d   1      -0.490   4.725  -1.477  0.00  0.00     0.055 C 
ATOM      8  C   UNL d   1      -0.771   5.593  -0.259  0.00  0.00     0.019 C 
ENDBRANCH   1   7
TORSDOF 1
ENDMDL
