MODEL 1
REMARK minimizedAffinity 2.25753284
REMARK minimizedRMSD -1
REMARK  1 active torsions:
REMARK  status: ('A' for Active; 'I' for Inactive)
REMARK    1  A    between atoms: N_2  and  C1_3 
ROOT
ATOM      1  C1  UNL d   1       1.028  -2.612   1.314  0.00  0.00     0.143 A 
ATOM      2  C2  UNL d   1       1.243  -2.041   2.573  0.00  0.00    -0.057 A 
ATOM      3  C3  UNL d   1       2.048  -2.673   3.529  0.00  0.00     0.033 A 
ATOM      4  C4  UNL d   1       2.629  -3.905   3.252  0.00  0.00    -0.042 A 
ATOM      5  C5  UNL d   1       2.408  -4.504   2.017  0.00  0.00     0.033 A 
ATOM      6  C6  UNL d   1       1.609  -3.864   1.064  0.00  0.00    -0.057 A 
ENDROOT
BRANCH   1   7
ATOM      7  N   UNL d   1       0.159  -2.081   0.358  0.00  0.00    -0.732 N 
ATOM      8  C   UNL d   1      -1.090  -2.742   0.049  0.00  0.00     0.284 C 
ATOM      9  H3  UNL d   1       0.090  -1.067   0.416  0.00  0.00     0.395 HD
ENDBRANCH   1   7
TORSDOF 1
ENDMDL
