MODEL 1
REMARK minimizedAffinity 8.45468712
REMARK minimizedRMSD -1
REMARK  1 active torsions:
REMARK  status: ('A' for Active; 'I' for Inactive)
REMARK    1  A    between atoms: N_2  and  C1_3 
ROOT
ATOM      1  C1  UNL d   1       1.700  -4.647   4.513  0.00  0.00     0.143 A 
ATOM      2  C2  UNL d   1       2.998  -4.486   5.010  0.00  0.00    -0.057 A 
ATOM      3  C3  UNL d   1       3.717  -3.304   4.795  0.00  0.00     0.033 A 
ATOM      4  C4  UNL d   1       3.159  -2.270   4.051  0.00  0.00    -0.042 A 
ATOM      5  C5  UNL d   1       1.880  -2.417   3.526  0.00  0.00     0.033 A 
ATOM      6  C6  UNL d   1       1.165  -3.597   3.750  0.00  0.00    -0.057 A 
ENDROOT
BRANCH   1   7
ATOM      7  N   UNL d   1       0.972  -5.835   4.609  0.00  0.00    -0.732 N 
ATOM      8  C   UNL d   1      -0.039  -6.000   5.632  0.00  0.00     0.284 C 
ATOM      9  H3  UNL d   1       0.706  -6.203   3.698  0.00  0.00     0.395 HD
ENDBRANCH   1   7
TORSDOF 1
ENDMDL
