MODEL 1
REMARK minimizedAffinity 6.36920357
REMARK minimizedRMSD -1
REMARK  1 active torsions:
REMARK  status: ('A' for Active; 'I' for Inactive)
REMARK    1  A    between atoms: N_2  and  C1_3 
ROOT
ATOM      1  C1  UNL d   1       2.625   0.118   2.213  0.00  0.00     0.143 A 
ATOM      2  C2  UNL d   1       1.438  -0.480   1.774  0.00  0.00    -0.057 A 
ATOM      3  C3  UNL d   1       0.913  -1.608   2.415  0.00  0.00     0.033 A 
ATOM      4  C4  UNL d   1       1.583  -2.178   3.493  0.00  0.00    -0.042 A 
ATOM      5  C5  UNL d   1       2.777  -1.615   3.931  0.00  0.00     0.033 A 
ATOM      6  C6  UNL d   1       3.293  -0.485   3.290  0.00  0.00    -0.057 A 
ENDROOT
BRANCH   1   7
ATOM      7  N   UNL d   1       3.249   1.181   1.556  0.00  0.00    -0.732 N 
ATOM      8  C   UNL d   1       2.514   2.387   1.240  0.00  0.00     0.284 C 
ATOM      9  H3  UNL d   1       4.193   1.347   1.897  0.00  0.00     0.395 HD
ENDBRANCH   1   7
TORSDOF 1
ENDMDL
