MODEL 1
REMARK minimizedAffinity -1.05479956
REMARK minimizedRMSD -1
REMARK  0 active torsions:
REMARK  status: ('A' for Active; 'I' for Inactive)
ROOT
ATOM      1  C   UNL d   1       2.049  -1.541   0.463  0.00  0.00     0.023 A 
ATOM      2  C1  UNL d   1       2.016  -1.178  -0.883  0.00  0.00     0.003 A 
ATOM      3  C2  UNL d   1       0.964  -0.402  -1.373  0.00  0.00     0.048 A 
ATOM      4  C3  UNL d   1      -0.052   0.009  -0.510  0.00  0.00     0.023 A 
ATOM      5  C4  UNL d   1      -0.022  -0.351   0.839  0.00  0.00     0.048 A 
ATOM      6  C5  UNL d   1       1.031  -1.128   1.323  0.00  0.00     0.003 A 
ATOM      7  I   UNL d   1      -1.619   1.165  -1.236  0.00  0.00    -0.146 I 
ENDROOT
TORSDOF 0
ENDMDL
