MODEL 1
REMARK minimizedAffinity -4.53558731
REMARK minimizedRMSD -1
REMARK  0 active torsions:
REMARK  status: ('A' for Active; 'I' for Inactive)
ROOT
ATOM      1  C   UNL d   1       1.454  -1.765   1.672  0.00  0.00     0.023 A 
ATOM      2  C1  UNL d   1       0.246  -1.346   2.230  0.00  0.00     0.003 A 
ATOM      3  C2  UNL d   1      -0.579  -0.463   1.530  0.00  0.00     0.048 A 
ATOM      4  C3  UNL d   1      -0.189  -0.002   0.273  0.00  0.00     0.023 A 
ATOM      5  C4  UNL d   1       1.018  -0.419  -0.290  0.00  0.00     0.048 A 
ATOM      6  C5  UNL d   1       1.840  -1.302   0.414  0.00  0.00     0.003 A 
ATOM      7  I   UNL d   1      -1.415   1.313  -0.771  0.00  0.00    -0.146 I 
ENDROOT
TORSDOF 0
ENDMDL
