MODEL 1
REMARK minimizedAffinity -0.259977251
REMARK minimizedRMSD -1
REMARK  0 active torsions:
REMARK  status: ('A' for Active; 'I' for Inactive)
ROOT
ATOM      1  C   UNL d   1       1.037  -0.546   0.281  0.00  0.00     0.023 A 
ATOM      2  C1  UNL d   1       1.281  -0.430  -1.088  0.00  0.00     0.003 A 
ATOM      3  C2  UNL d   1       0.468   0.387  -1.876  0.00  0.00     0.048 A 
ATOM      4  C3  UNL d   1      -0.586   1.087  -1.289  0.00  0.00     0.023 A 
ATOM      5  C4  UNL d   1      -0.832   0.975   0.080  0.00  0.00     0.048 A 
ATOM      6  C5  UNL d   1      -0.018   0.156   0.864  0.00  0.00     0.003 A 
ATOM      7  I   UNL d   1      -1.796   2.304  -2.461  0.00  0.00    -0.146 I 
ENDROOT
TORSDOF 0
ENDMDL
