MODEL 1
REMARK minimizedAffinity -2.9669621
REMARK minimizedRMSD -1
REMARK  0 active torsions:
REMARK  status: ('A' for Active; 'I' for Inactive)
ROOT
ATOM      1  C   UNL d   1       1.556  -1.442   1.284  0.00  0.00     0.023 A 
ATOM      2  C1  UNL d   1       0.359  -1.043   1.879  0.00  0.00     0.003 A 
ATOM      3  C2  UNL d   1      -0.489  -0.154   1.216  0.00  0.00     0.048 A 
ATOM      4  C3  UNL d   1      -0.135   0.332  -0.042  0.00  0.00     0.023 A 
ATOM      5  C4  UNL d   1       1.061  -0.065  -0.642  0.00  0.00     0.048 A 
ATOM      6  C5  UNL d   1       1.907  -0.954   0.026  0.00  0.00     0.003 A 
ATOM      7  I   UNL d   1      -1.396   1.655  -1.032  0.00  0.00    -0.146 I 
ENDROOT
TORSDOF 0
ENDMDL
