MODEL 1
REMARK minimizedAffinity 1.24763131
REMARK minimizedRMSD -1
REMARK  0 active torsions:
REMARK  status: ('A' for Active; 'I' for Inactive)
ROOT
ATOM      1  C   UNL d   1       1.503  -0.545   0.528  0.00  0.00     0.023 A 
ATOM      2  C1  UNL d   1       1.886   0.402  -0.422  0.00  0.00     0.003 A 
ATOM      3  C2  UNL d   1       0.916   1.139  -1.105  0.00  0.00     0.048 A 
ATOM      4  C3  UNL d   1      -0.435   0.925  -0.831  0.00  0.00     0.023 A 
ATOM      5  C4  UNL d   1      -0.822  -0.020   0.120  0.00  0.00     0.048 A 
ATOM      6  C5  UNL d   1       0.151  -0.756   0.799  0.00  0.00     0.003 A 
ATOM      7  I   UNL d   1      -1.880   2.021  -1.845  0.00  0.00    -0.146 I 
ENDROOT
TORSDOF 0
ENDMDL
