MODEL 1
REMARK minimizedAffinity -2.71125484
REMARK minimizedRMSD -1
REMARK  0 active torsions:
REMARK  status: ('A' for Active; 'I' for Inactive)
ROOT
ATOM      1  C   UNL d   1       1.274   0.300  -0.853  0.00  0.00     0.023 A 
ATOM      2  C1  UNL d   1       0.046   0.782  -0.400  0.00  0.00     0.003 A 
ATOM      3  C2  UNL d   1      -0.526   0.258   0.761  0.00  0.00     0.048 A 
ATOM      4  C3  UNL d   1       0.135  -0.747   1.465  0.00  0.00     0.023 A 
ATOM      5  C4  UNL d   1       1.364  -1.233   1.016  0.00  0.00     0.048 A 
ATOM      6  C5  UNL d   1       1.932  -0.707  -0.146  0.00  0.00     0.003 A 
ATOM      7  I   UNL d   1      -0.714  -1.529   3.193  0.00  0.00    -0.146 I 
ENDROOT
TORSDOF 0
ENDMDL
