MODEL 1
REMARK minimizedAffinity -2.59384036
REMARK minimizedRMSD -1
REMARK  0 active torsions:
REMARK  status: ('A' for Active; 'I' for Inactive)
ROOT
ATOM      1  C   UNL d   1       1.149  -1.750   2.667  0.00  0.00     0.023 A 
ATOM      2  C1  UNL d   1      -0.148  -1.246   2.765  0.00  0.00     0.003 A 
ATOM      3  C2  UNL d   1      -0.698  -0.520   1.707  0.00  0.00     0.048 A 
ATOM      4  C3  UNL d   1       0.054  -0.302   0.553  0.00  0.00     0.023 A 
ATOM      5  C4  UNL d   1       1.352  -0.806   0.450  0.00  0.00     0.048 A 
ATOM      6  C5  UNL d   1       1.898  -1.531   1.511  0.00  0.00     0.003 A 
ATOM      7  I   UNL d   1      -0.763   0.778  -1.023  0.00  0.00    -0.146 I 
ENDROOT
TORSDOF 0
ENDMDL
