MODEL 1
REMARK minimizedAffinity -2.74318552
REMARK minimizedRMSD -1
REMARK  0 active torsions:
REMARK  status: ('A' for Active; 'I' for Inactive)
ROOT
ATOM      1  C   UNL d   1       1.511  -0.744  -0.001  0.00  0.00     0.023 A 
ATOM      2  C1  UNL d   1       0.460  -0.117   0.669  0.00  0.00     0.003 A 
ATOM      3  C2  UNL d   1      -0.318   0.838   0.012  0.00  0.00     0.048 A 
ATOM      4  C3  UNL d   1      -0.040   1.162  -1.315  0.00  0.00     0.023 A 
ATOM      5  C4  UNL d   1       1.010   0.537  -1.990  0.00  0.00     0.048 A 
ATOM      6  C5  UNL d   1       1.786  -0.417  -1.329  0.00  0.00     0.003 A 
ATOM      7  I   UNL d   1      -1.197   2.583  -2.296  0.00  0.00    -0.146 I 
ENDROOT
TORSDOF 0
ENDMDL
