MODEL 1
REMARK minimizedAffinity -1.46008217
REMARK minimizedRMSD -1
REMARK  0 active torsions:
REMARK  status: ('A' for Active; 'I' for Inactive)
ROOT
ATOM      1  C   UNL d   1      -2.522   2.183  -2.286  0.00  0.00     0.023 A 
ATOM      2  C1  UNL d   1      -2.049   0.938  -2.702  0.00  0.00     0.003 A 
ATOM      3  C2  UNL d   1      -1.057   0.286  -1.967  0.00  0.00     0.048 A 
ATOM      4  C3  UNL d   1      -0.543   0.883  -0.816  0.00  0.00     0.023 A 
ATOM      5  C4  UNL d   1      -1.014   2.127  -0.395  0.00  0.00     0.048 A 
ATOM      6  C5  UNL d   1      -2.005   2.777  -1.134  0.00  0.00     0.003 A 
ATOM      7  I   UNL d   1       0.933  -0.087   0.279  0.00  0.00    -0.146 I 
ENDROOT
TORSDOF 0
ENDMDL
