MODEL 1
REMARK minimizedAffinity -2.15780759
REMARK minimizedRMSD -1
REMARK  0 active torsions:
REMARK  status: ('A' for Active; 'I' for Inactive)
ROOT
ATOM      1  C   UNL d   1       0.555  -0.302   0.212  0.00  0.00     0.023 A 
ATOM      2  C1  UNL d   1       0.011   0.969   0.399  0.00  0.00     0.003 A 
ATOM      3  C2  UNL d   1      -0.896   1.485  -0.529  0.00  0.00     0.048 A 
ATOM      4  C3  UNL d   1      -1.256   0.724  -1.641  0.00  0.00     0.023 A 
ATOM      5  C4  UNL d   1      -0.715  -0.548  -1.831  0.00  0.00     0.048 A 
ATOM      6  C5  UNL d   1       0.192  -1.060  -0.902  0.00  0.00     0.003 A 
ATOM      7  I   UNL d   1      -2.606   1.490  -3.023  0.00  0.00    -0.146 I 
ENDROOT
TORSDOF 0
ENDMDL
