MODEL 1
REMARK minimizedAffinity -0.863649666
REMARK minimizedRMSD -1
REMARK  0 active torsions:
REMARK  status: ('A' for Active; 'I' for Inactive)
ROOT
ATOM      1  C   UNL d   1       0.885  -0.412   0.558  0.00  0.00     0.023 A 
ATOM      2  C1  UNL d   1      -0.373   0.136   0.810  0.00  0.00     0.003 A 
ATOM      3  C2  UNL d   1      -1.106   0.711  -0.230  0.00  0.00     0.048 A 
ATOM      4  C3  UNL d   1      -0.577   0.734  -1.520  0.00  0.00     0.023 A 
ATOM      5  C4  UNL d   1       0.681   0.185  -1.777  0.00  0.00     0.048 A 
ATOM      6  C5  UNL d   1       1.411  -0.387  -0.734  0.00  0.00     0.003 A 
ATOM      7  I   UNL d   1      -1.667   1.589  -3.069  0.00  0.00    -0.146 I 
ENDROOT
TORSDOF 0
ENDMDL
