MODEL 1
REMARK minimizedAffinity -0.84017545
REMARK minimizedRMSD -1
REMARK  0 active torsions:
REMARK  status: ('A' for Active; 'I' for Inactive)
ROOT
ATOM      1  C   UNL d   1       1.236  -1.889   2.951  0.00  0.00     0.023 A 
ATOM      2  C1  UNL d   1       2.024  -1.683   1.818  0.00  0.00     0.003 A 
ATOM      3  C2  UNL d   1       1.545  -0.899   0.767  0.00  0.00     0.048 A 
ATOM      4  C3  UNL d   1       0.278  -0.324   0.854  0.00  0.00     0.023 A 
ATOM      5  C4  UNL d   1      -0.513  -0.527   1.986  0.00  0.00     0.048 A 
ATOM      6  C5  UNL d   1      -0.031  -1.312   3.034  0.00  0.00     0.003 A 
ATOM      7  I   UNL d   1      -0.436   0.844  -0.710  0.00  0.00    -0.146 I 
ENDROOT
TORSDOF 0
ENDMDL
