MODEL 1
REMARK minimizedAffinity 12.2872562
REMARK minimizedRMSD -1
REMARK  0 active torsions:
REMARK  status: ('A' for Active; 'I' for Inactive)
ROOT
ATOM      1  C   UNL d   1      -3.046   0.828   0.164  0.00  0.00     0.023 A 
ATOM      2  C1  UNL d   1      -3.521   1.001  -1.137  0.00  0.00     0.003 A 
ATOM      3  C2  UNL d   1      -2.734   1.652  -2.088  0.00  0.00     0.048 A 
ATOM      4  C3  UNL d   1      -1.471   2.127  -1.734  0.00  0.00     0.023 A 
ATOM      5  C4  UNL d   1      -0.992   1.956  -0.434  0.00  0.00     0.048 A 
ATOM      6  C5  UNL d   1      -1.783   1.305   0.514  0.00  0.00     0.003 A 
ATOM      7  I   UNL d   1      -0.297   3.096  -3.149  0.00  0.00    -0.146 I 
ENDROOT
TORSDOF 0
ENDMDL
