MODEL 1
REMARK minimizedAffinity -4.02686214
REMARK minimizedRMSD -1
REMARK  2 active torsions:
REMARK  status: ('A' for Active; 'I' for Inactive)
REMARK    1  A    between atoms: C1_2  and  C2_3 
REMARK    2  A    between atoms: C2_3  and  C3_4 
ROOT
ATOM      1  C3  UNL d   1       0.973   0.459  -0.181  0.00  0.00    -0.075 A 
ATOM      2  C4  UNL d   1       0.087   0.917  -1.166  0.00  0.00     0.002 A 
ATOM      3  C5  UNL d   1      -1.132   0.272  -1.377  0.00  0.00     0.002 A 
ATOM      4  C6  UNL d   1      -1.475  -0.843  -0.615  0.00  0.00    -0.004 A 
ATOM      5  C7  UNL d   1      -0.595  -1.316   0.356  0.00  0.00     0.002 A 
ATOM      6  C8  UNL d   1       0.623  -0.669   0.572  0.00  0.00     0.002 A 
ENDROOT
BRANCH   1   7
ATOM      7  C2  UNL d   1       2.281   1.171   0.073  0.00  0.00     0.056 C 
BRANCH   7   8
ATOM      8  C1  UNL d   1       2.277   2.056   1.324  0.00  0.00     0.007 C 
ATOM      9  C   UNL d   1       2.313   3.545   1.006  0.00  0.00     0.009 C 
ENDBRANCH   7   8
ENDBRANCH   1   7
TORSDOF 2
ENDMDL
