MODEL 1
REMARK minimizedAffinity -3.65074587
REMARK minimizedRMSD -1
REMARK  2 active torsions:
REMARK  status: ('A' for Active; 'I' for Inactive)
REMARK    1  A    between atoms: C1_2  and  C2_3 
REMARK    2  A    between atoms: C2_3  and  C3_4 
ROOT
ATOM      1  C3  UNL d   1       1.099   0.843   0.275  0.00  0.00    -0.075 A 
ATOM      2  C4  UNL d   1       0.689   2.077   0.800  0.00  0.00     0.002 A 
ATOM      3  C5  UNL d   1       1.626   2.976   1.311  0.00  0.00     0.002 A 
ATOM      4  C6  UNL d   1       2.980   2.648   1.314  0.00  0.00    -0.004 A 
ATOM      5  C7  UNL d   1       3.397   1.418   0.811  0.00  0.00     0.002 A 
ATOM      6  C8  UNL d   1       2.462   0.519   0.294  0.00  0.00     0.002 A 
ENDROOT
BRANCH   1   7
ATOM      7  C2  UNL d   1       0.093  -0.122  -0.307  0.00  0.00     0.056 C 
BRANCH   7   8
ATOM      8  C1  UNL d   1      -0.760   0.471  -1.432  0.00  0.00     0.007 C 
ATOM      9  C   UNL d   1      -2.116  -0.208  -1.579  0.00  0.00     0.009 C 
ENDBRANCH   7   8
ENDBRANCH   1   7
TORSDOF 2
ENDMDL
