MODEL 1
REMARK minimizedAffinity -3.65614176
REMARK minimizedRMSD -1
REMARK  2 active torsions:
REMARK  status: ('A' for Active; 'I' for Inactive)
REMARK    1  A    between atoms: C1_2  and  C2_3 
REMARK    2  A    between atoms: C2_3  and  C3_4 
ROOT
ATOM      1  C3  UNL d   1       1.760   1.129   0.386  0.00  0.00    -0.075 A 
ATOM      2  C4  UNL d   1       3.021   1.539  -0.069  0.00  0.00     0.002 A 
ATOM      3  C5  UNL d   1       3.603   2.711   0.416  0.00  0.00     0.002 A 
ATOM      4  C6  UNL d   1       2.929   3.490   1.353  0.00  0.00    -0.004 A 
ATOM      5  C7  UNL d   1       1.668   3.101   1.800  0.00  0.00     0.002 A 
ATOM      6  C8  UNL d   1       1.085   1.927   1.320  0.00  0.00     0.002 A 
ENDROOT
BRANCH   1   7
ATOM      7  C2  UNL d   1       1.137  -0.153  -0.113  0.00  0.00     0.056 C 
BRANCH   7   8
ATOM      8  C1  UNL d   1      -0.370  -0.056  -0.369  0.00  0.00     0.007 C 
ATOM      9  C   UNL d   1      -0.734  -0.127  -1.846  0.00  0.00     0.009 C 
ENDBRANCH   7   8
ENDBRANCH   1   7
TORSDOF 2
ENDMDL
