MODEL 1
REMARK minimizedAffinity -2.42386007
REMARK minimizedRMSD -1
REMARK  2 active torsions:
REMARK  status: ('A' for Active; 'I' for Inactive)
REMARK    1  A    between atoms: C1_2  and  C2_3 
REMARK    2  A    between atoms: C2_3  and  C3_4 
ROOT
ATOM      1  C3  UNL d   1       0.298  -0.583  -0.047  0.00  0.00    -0.075 A 
ATOM      2  C4  UNL d   1      -0.427  -1.669   0.464  0.00  0.00     0.002 A 
ATOM      3  C5  UNL d   1      -1.626  -2.063  -0.131  0.00  0.00     0.002 A 
ATOM      4  C6  UNL d   1      -2.120  -1.371  -1.235  0.00  0.00    -0.004 A 
ATOM      5  C7  UNL d   1      -1.416  -0.280  -1.740  0.00  0.00     0.002 A 
ATOM      6  C8  UNL d   1      -0.214   0.113  -1.150  0.00  0.00     0.002 A 
ENDROOT
BRANCH   1   7
ATOM      7  C2  UNL d   1       1.611  -0.170   0.574  0.00  0.00     0.056 C 
BRANCH   7   8
ATOM      8  C1  UNL d   1       2.067   1.241   0.189  0.00  0.00     0.007 C 
ATOM      9  C   UNL d   1       2.201   2.176   1.383  0.00  0.00     0.009 C 
ENDBRANCH   7   8
ENDBRANCH   1   7
TORSDOF 2
ENDMDL
