MODEL 1
REMARK minimizedAffinity -3.19592309
REMARK minimizedRMSD -1
REMARK  2 active torsions:
REMARK  status: ('A' for Active; 'I' for Inactive)
REMARK    1  A    between atoms: C1_2  and  C2_3 
REMARK    2  A    between atoms: C2_3  and  C3_4 
ROOT
ATOM      1  C3  UNL d   1      -0.164   0.082  -0.252  0.00  0.00    -0.075 A 
ATOM      2  C4  UNL d   1      -0.433  -1.213   0.215  0.00  0.00     0.002 A 
ATOM      3  C5  UNL d   1      -1.636  -1.844  -0.101  0.00  0.00     0.002 A 
ATOM      4  C6  UNL d   1      -2.588  -1.188  -0.878  0.00  0.00    -0.004 A 
ATOM      5  C7  UNL d   1      -2.338   0.105  -1.334  0.00  0.00     0.002 A 
ATOM      6  C8  UNL d   1      -1.133   0.737  -1.023  0.00  0.00     0.002 A 
ENDROOT
BRANCH   1   7
ATOM      7  C2  UNL d   1       1.148   0.760   0.062  0.00  0.00     0.056 C 
BRANCH   7   8
ATOM      8  C1  UNL d   1       1.083   1.727   1.248  0.00  0.00     0.007 C 
ATOM      9  C   UNL d   1       2.207   2.754   1.249  0.00  0.00     0.009 C 
ENDBRANCH   7   8
ENDBRANCH   1   7
TORSDOF 2
ENDMDL
