MODEL 1
REMARK minimizedAffinity -4.95927572
REMARK minimizedRMSD -1
REMARK  2 active torsions:
REMARK  status: ('A' for Active; 'I' for Inactive)
REMARK    1  A    between atoms: C1_2  and  C2_3 
REMARK    2  A    between atoms: C2_3  and  C3_4 
ROOT
ATOM      1  C3  UNL d   1      -0.401  -0.519   0.265  0.00  0.00    -0.075 A 
ATOM      2  C4  UNL d   1      -0.398  -1.671   1.064  0.00  0.00     0.002 A 
ATOM      3  C5  UNL d   1      -1.447  -2.588   0.989  0.00  0.00     0.002 A 
ATOM      4  C6  UNL d   1      -2.515  -2.360   0.124  0.00  0.00    -0.004 A 
ATOM      5  C7  UNL d   1      -2.537  -1.210  -0.662  0.00  0.00     0.002 A 
ATOM      6  C8  UNL d   1      -1.486  -0.293  -0.592  0.00  0.00     0.002 A 
ENDROOT
BRANCH   1   7
ATOM      7  C2  UNL d   1       0.745   0.463   0.320  0.00  0.00     0.056 C 
BRANCH   7   8
ATOM      8  C1  UNL d   1       2.129  -0.195   0.348  0.00  0.00     0.007 C 
ATOM      9  C   UNL d   1       3.268   0.794   0.143  0.00  0.00     0.009 C 
ENDBRANCH   7   8
ENDBRANCH   1   7
TORSDOF 2
ENDMDL
