MODEL 1
REMARK minimizedAffinity -4.41368389
REMARK minimizedRMSD -1
REMARK  2 active torsions:
REMARK  status: ('A' for Active; 'I' for Inactive)
REMARK    1  A    between atoms: C1_2  and  C2_3 
REMARK    2  A    between atoms: C2_3  and  C3_4 
ROOT
ATOM      1  C3  UNL d   1       0.549   1.714   0.328  0.00  0.00    -0.075 A 
ATOM      2  C4  UNL d   1       0.674   2.909   1.051  0.00  0.00     0.002 A 
ATOM      3  C5  UNL d   1       1.934   3.435   1.339  0.00  0.00     0.002 A 
ATOM      4  C6  UNL d   1       3.083   2.769   0.917  0.00  0.00    -0.004 A 
ATOM      5  C7  UNL d   1       2.971   1.572   0.212  0.00  0.00     0.002 A 
ATOM      6  C8  UNL d   1       1.711   1.047  -0.081  0.00  0.00     0.002 A 
ENDROOT
BRANCH   1   7
ATOM      7  C2  UNL d   1      -0.812   1.156  -0.012  0.00  0.00     0.056 C 
BRANCH   7   8
ATOM      8  C1  UNL d   1      -0.809   0.181  -1.195  0.00  0.00     0.007 C 
ATOM      9  C   UNL d   1      -2.047  -0.705  -1.246  0.00  0.00     0.009 C 
ENDBRANCH   7   8
ENDBRANCH   1   7
TORSDOF 2
ENDMDL
