MODEL 1
REMARK minimizedAffinity 7.088902
REMARK minimizedRMSD -1
REMARK  0 active torsions:
REMARK  status: ('A' for Active; 'I' for Inactive)
ROOT
ATOM      1  C   UNL d   1       0.042  -0.960  -2.166  0.00  0.00     0.124 A 
ATOM      2  C1  UNL d   1      -0.469  -0.694  -0.903  0.00  0.00     0.062 A 
ATOM      3  C2  UNL d   1       0.124   0.275  -0.099  0.00  0.00     0.162 A 
ATOM      4  C3  UNL d   1       1.234   0.987  -0.555  0.00  0.00    -0.034 A 
ATOM      5  C4  UNL d   1       1.742   0.713  -1.826  0.00  0.00     0.162 A 
ATOM      6  C5  UNL d   1       1.146  -0.257  -2.626  0.00  0.00     0.062 A 
ATOM      7  F   UNL d   1       1.641  -0.513  -3.846  0.00  0.00    -0.097 F 
ATOM      8  F1  UNL d   1       2.808   1.378  -2.296  0.00  0.00    -0.096 F 
ATOM      9  I   UNL d   1       2.122   2.436   0.645  0.00  0.00    -0.060 I 
ATOM     10  F2  UNL d   1      -0.391   0.512   1.117  0.00  0.00    -0.096 F 
ATOM     11  F3  UNL d   1      -1.535  -1.372  -0.456  0.00  0.00    -0.097 F 
ATOM     12  F4  UNL d   1      -0.530  -1.893  -2.938  0.00  0.00    -0.092 F 
ENDROOT
TORSDOF 0
ENDMDL
