MODEL 1
REMARK minimizedAffinity 7.65903282
REMARK minimizedRMSD -1
REMARK  0 active torsions:
REMARK  status: ('A' for Active; 'I' for Inactive)
ROOT
ATOM      1  C   UNL d   1      -2.649   0.423  -5.919  0.00  0.00     0.124 A 
ATOM      2  C1  UNL d   1      -4.034   0.509  -5.897  0.00  0.00     0.062 A 
ATOM      3  C2  UNL d   1      -4.659   1.753  -5.908  0.00  0.00     0.162 A 
ATOM      4  C3  UNL d   1      -3.899   2.922  -5.944  0.00  0.00    -0.034 A 
ATOM      5  C4  UNL d   1      -2.506   2.828  -5.965  0.00  0.00     0.162 A 
ATOM      6  C5  UNL d   1      -1.887   1.582  -5.953  0.00  0.00     0.062 A 
ATOM      7  F   UNL d   1      -0.548   1.502  -5.974  0.00  0.00    -0.097 F 
ATOM      8  F1  UNL d   1      -1.745   3.932  -5.999  0.00  0.00    -0.096 F 
ATOM      9  I   UNL d   1      -4.829   4.783  -5.962  0.00  0.00    -0.060 I 
ATOM     10  F2  UNL d   1      -5.999   1.805  -5.886  0.00  0.00    -0.096 F 
ATOM     11  F3  UNL d   1      -4.773  -0.609  -5.863  0.00  0.00    -0.097 F 
ATOM     12  F4  UNL d   1      -2.050  -0.775  -5.906  0.00  0.00    -0.092 F 
ENDROOT
TORSDOF 0
ENDMDL
