MODEL 1
REMARK minimizedAffinity 4.99623251
REMARK minimizedRMSD -1
REMARK  0 active torsions:
REMARK  status: ('A' for Active; 'I' for Inactive)
ROOT
ATOM      1  C   UNL d   1      -3.063   0.546  -5.929  0.00  0.00     0.124 A 
ATOM      2  C1  UNL d   1      -4.390   0.951  -5.957  0.00  0.00     0.062 A 
ATOM      3  C2  UNL d   1      -4.708   2.305  -5.972  0.00  0.00     0.162 A 
ATOM      4  C3  UNL d   1      -3.697   3.266  -5.959  0.00  0.00    -0.034 A 
ATOM      5  C4  UNL d   1      -2.365   2.852  -5.929  0.00  0.00     0.162 A 
ATOM      6  C5  UNL d   1      -2.052   1.496  -5.915  0.00  0.00     0.062 A 
ATOM      7  F   UNL d   1      -0.769   1.107  -5.887  0.00  0.00    -0.097 F 
ATOM      8  F1  UNL d   1      -1.368   3.749  -5.916  0.00  0.00    -0.096 F 
ATOM      9  I   UNL d   1      -4.170   5.293  -5.981  0.00  0.00    -0.060 I 
ATOM     10  F2  UNL d   1      -6.000   2.668  -6.000  0.00  0.00    -0.096 F 
ATOM     11  F3  UNL d   1      -5.369   0.034  -5.970  0.00  0.00    -0.097 F 
ATOM     12  F4  UNL d   1      -2.759  -0.758  -5.914  0.00  0.00    -0.092 F 
ENDROOT
TORSDOF 0
ENDMDL
