MODEL 1
REMARK minimizedAffinity 6.72410154
REMARK minimizedRMSD -1
REMARK  0 active torsions:
REMARK  status: ('A' for Active; 'I' for Inactive)
ROOT
ATOM      1  C   UNL d   1      -4.814   2.219  -5.976  0.00  0.00     0.124 A 
ATOM      2  C1  UNL d   1      -3.640   1.478  -5.975  0.00  0.00     0.062 A 
ATOM      3  C2  UNL d   1      -2.406   2.121  -5.965  0.00  0.00     0.162 A 
ATOM      4  C3  UNL d   1      -2.339   3.515  -5.954  0.00  0.00    -0.034 A 
ATOM      5  C4  UNL d   1      -3.523   4.253  -5.956  0.00  0.00     0.162 A 
ATOM      6  C5  UNL d   1      -4.754   3.606  -5.966  0.00  0.00     0.062 A 
ATOM      7  F   UNL d   1      -5.887   4.324  -5.967  0.00  0.00    -0.097 F 
ATOM      8  F1  UNL d   1      -3.495   5.594  -5.946  0.00  0.00    -0.096 F 
ATOM      9  I   UNL d   1      -0.495   4.480  -5.939  0.00  0.00    -0.060 I 
ATOM     10  F2  UNL d   1      -1.288   1.380  -5.964  0.00  0.00    -0.096 F 
ATOM     11  F3  UNL d   1      -3.695   0.139  -5.985  0.00  0.00    -0.097 F 
ATOM     12  F4  UNL d   1      -6.000   1.598  -5.986  0.00  0.00    -0.092 F 
ENDROOT
TORSDOF 0
ENDMDL
