MODEL 1
REMARK minimizedAffinity 4.76478529
REMARK minimizedRMSD -1
REMARK  0 active torsions:
REMARK  status: ('A' for Active; 'I' for Inactive)
ROOT
ATOM      1  C   UNL d   1      -4.704   3.238  -5.966  0.00  0.00     0.124 A 
ATOM      2  C1  UNL d   1      -4.335   1.900  -5.942  0.00  0.00     0.062 A 
ATOM      3  C2  UNL d   1      -2.990   1.545  -5.923  0.00  0.00     0.162 A 
ATOM      4  C3  UNL d   1      -2.002   2.529  -5.928  0.00  0.00    -0.034 A 
ATOM      5  C4  UNL d   1      -2.380   3.873  -5.954  0.00  0.00     0.162 A 
ATOM      6  C5  UNL d   1      -3.726   4.223  -5.972  0.00  0.00     0.062 A 
ATOM      7  F   UNL d   1      -4.081   5.516  -5.996  0.00  0.00    -0.097 F 
ATOM      8  F1  UNL d   1      -1.456   4.845  -5.959  0.00  0.00    -0.096 F 
ATOM      9  I   UNL d   1       0.012   2.003  -5.900  0.00  0.00    -0.060 I 
ATOM     10  F2  UNL d   1      -2.662   0.244  -5.899  0.00  0.00    -0.096 F 
ATOM     11  F3  UNL d   1      -5.278   0.946  -5.937  0.00  0.00    -0.097 F 
ATOM     12  F4  UNL d   1      -5.999   3.577  -5.985  0.00  0.00    -0.092 F 
ENDROOT
TORSDOF 0
ENDMDL
