MODEL 1
REMARK minimizedAffinity 15.4198904
REMARK minimizedRMSD -1
REMARK  0 active torsions:
REMARK  status: ('A' for Active; 'I' for Inactive)
ROOT
ATOM      1  C   UNL d   1      -5.114  -0.757   0.899  0.00  0.00     0.124 A 
ATOM      2  C1  UNL d   1      -4.793   0.592   0.849  0.00  0.00     0.062 A 
ATOM      3  C2  UNL d   1      -3.874   1.126   1.747  0.00  0.00     0.162 A 
ATOM      4  C3  UNL d   1      -3.268   0.311   2.703  0.00  0.00    -0.034 A 
ATOM      5  C4  UNL d   1      -3.596  -1.046   2.747  0.00  0.00     0.162 A 
ATOM      6  C5  UNL d   1      -4.516  -1.575   1.847  0.00  0.00     0.062 A 
ATOM      7  F   UNL d   1      -4.825  -2.879   1.896  0.00  0.00    -0.097 F 
ATOM      8  F1  UNL d   1      -3.032  -1.858   3.653  0.00  0.00    -0.096 F 
ATOM      9  I   UNL d   1      -1.893   1.106   4.048  0.00  0.00    -0.060 I 
ATOM     10  F2  UNL d   1      -3.583   2.434   1.677  0.00  0.00    -0.096 F 
ATOM     11  F3  UNL d   1      -5.371   1.384  -0.066  0.00  0.00    -0.097 F 
ATOM     12  F4  UNL d   1      -6.000  -1.269   0.034  0.00  0.00    -0.092 F 
ENDROOT
TORSDOF 0
ENDMDL
