MODEL 1
REMARK minimizedAffinity 11.0427189
REMARK minimizedRMSD -1
REMARK  0 active torsions:
REMARK  status: ('A' for Active; 'I' for Inactive)
ROOT
ATOM      1  C   UNL d   1      -3.613  -0.870  -5.957  0.00  0.00     0.124 A 
ATOM      2  C1  UNL d   1      -4.757  -0.083  -5.973  0.00  0.00     0.062 A 
ATOM      3  C2  UNL d   1      -4.651   1.305  -5.984  0.00  0.00     0.162 A 
ATOM      4  C3  UNL d   1      -3.397   1.915  -5.979  0.00  0.00    -0.034 A 
ATOM      5  C4  UNL d   1      -2.252   1.117  -5.962  0.00  0.00     0.162 A 
ATOM      6  C5  UNL d   1      -2.362  -0.269  -5.951  0.00  0.00     0.062 A 
ATOM      7  F   UNL d   1      -1.257  -1.028  -5.935  0.00  0.00    -0.097 F 
ATOM      8  F1  UNL d   1      -1.030   1.671  -5.956  0.00  0.00    -0.096 F 
ATOM      9  I   UNL d   1      -3.235   3.990  -5.995  0.00  0.00    -0.060 I 
ATOM     10  F2  UNL d   1      -5.773   2.040  -6.000  0.00  0.00    -0.096 F 
ATOM     11  F3  UNL d   1      -5.967  -0.661  -5.978  0.00  0.00    -0.097 F 
ATOM     12  F4  UNL d   1      -3.718  -2.205  -5.946  0.00  0.00    -0.092 F 
ENDROOT
TORSDOF 0
ENDMDL
