MODEL 1
REMARK minimizedAffinity -2.439538
REMARK minimizedRMSD -1
REMARK  0 active torsions:
REMARK  status: ('A' for Active; 'I' for Inactive)
ROOT
ATOM      1  C   UNL d   1      -3.470   4.582  -5.579  0.00  0.00     0.124 A 
ATOM      2  C1  UNL d   1      -2.317   3.811  -5.545  0.00  0.00     0.062 A 
ATOM      3  C2  UNL d   1      -2.397   2.426  -5.664  0.00  0.00     0.162 A 
ATOM      4  C3  UNL d   1      -3.635   1.804  -5.819  0.00  0.00    -0.034 A 
ATOM      5  C4  UNL d   1      -4.791   2.586  -5.851  0.00  0.00     0.162 A 
ATOM      6  C5  UNL d   1      -4.706   3.970  -5.732  0.00  0.00     0.062 A 
ATOM      7  F   UNL d   1      -5.821   4.713  -5.764  0.00  0.00    -0.097 F 
ATOM      8  F1  UNL d   1      -5.998   2.020  -5.999  0.00  0.00    -0.096 F 
ATOM      9  I   UNL d   1      -3.759  -0.266  -5.998  0.00  0.00    -0.060 I 
ATOM     10  F2  UNL d   1      -1.266   1.706  -5.629  0.00  0.00    -0.096 F 
ATOM     11  F3  UNL d   1      -1.122   4.400  -5.397  0.00  0.00    -0.097 F 
ATOM     12  F4  UNL d   1      -3.390   5.914  -5.463  0.00  0.00    -0.092 F 
ENDROOT
TORSDOF 0
ENDMDL
