MODEL 1
REMARK minimizedAffinity 7.0828948
REMARK minimizedRMSD -1
REMARK  0 active torsions:
REMARK  status: ('A' for Active; 'I' for Inactive)
ROOT
ATOM      1  C   UNL d   1       2.306   1.458  -1.361  0.00  0.00     0.124 A 
ATOM      2  C1  UNL d   1       1.962   0.422  -2.218  0.00  0.00     0.062 A 
ATOM      3  C2  UNL d   1       1.069  -0.562  -1.804  0.00  0.00     0.162 A 
ATOM      4  C3  UNL d   1       0.513  -0.514  -0.525  0.00  0.00    -0.034 A 
ATOM      5  C4  UNL d   1       0.865   0.530   0.332  0.00  0.00     0.162 A 
ATOM      6  C5  UNL d   1       1.758   1.511  -0.087  0.00  0.00     0.062 A 
ATOM      7  F   UNL d   1       2.090   2.511   0.742  0.00  0.00    -0.097 F 
ATOM      8  F1  UNL d   1       0.350   0.606   1.568  0.00  0.00    -0.096 F 
ATOM      9  I   UNL d   1      -0.822  -1.984   0.099  0.00  0.00    -0.060 I 
ATOM     10  F2  UNL d   1       0.754  -1.551  -2.653  0.00  0.00    -0.096 F 
ATOM     11  F3  UNL d   1       2.491   0.368  -3.449  0.00  0.00    -0.097 F 
ATOM     12  F4  UNL d   1       3.166   2.403  -1.763  0.00  0.00    -0.092 F 
ENDROOT
TORSDOF 0
ENDMDL
