MODEL 1
REMARK minimizedAffinity 2.23750329
REMARK minimizedRMSD -1
REMARK  0 active torsions:
REMARK  status: ('A' for Active; 'I' for Inactive)
ROOT
ATOM      1  C   UNL d   1      -3.463   2.939  -5.982  0.00  0.00     0.124 A 
ATOM      2  C1  UNL d   1      -2.295   2.190  -5.982  0.00  0.00     0.062 A 
ATOM      3  C2  UNL d   1      -2.355   0.800  -5.987  0.00  0.00     0.162 A 
ATOM      4  C3  UNL d   1      -3.589   0.149  -5.993  0.00  0.00    -0.034 A 
ATOM      5  C4  UNL d   1      -4.759   0.909  -5.992  0.00  0.00     0.162 A 
ATOM      6  C5  UNL d   1      -4.694   2.299  -5.987  0.00  0.00     0.062 A 
ATOM      7  F   UNL d   1      -5.824   3.021  -5.987  0.00  0.00    -0.097 F 
ATOM      8  F1  UNL d   1      -5.962   0.315  -5.998  0.00  0.00    -0.096 F 
ATOM      9  I   UNL d   1      -3.683  -1.930  -6.000  0.00  0.00    -0.060 I 
ATOM     10  F2  UNL d   1      -1.210   0.101  -5.987  0.00  0.00    -0.096 F 
ATOM     11  F3  UNL d   1      -1.104   2.807  -5.977  0.00  0.00    -0.097 F 
ATOM     12  F4  UNL d   1      -3.402   4.277  -5.977  0.00  0.00    -0.092 F 
ENDROOT
TORSDOF 0
ENDMDL
