MODEL 1
REMARK minimizedAffinity 12.0111427
REMARK minimizedRMSD -1
REMARK  0 active torsions:
REMARK  status: ('A' for Active; 'I' for Inactive)
ROOT
ATOM      1  C   UNL d   1       2.195   1.401  -1.392  0.00  0.00     0.124 A 
ATOM      2  C1  UNL d   1       1.777   0.381  -2.235  0.00  0.00     0.062 A 
ATOM      3  C2  UNL d   1       0.872  -0.575  -1.782  0.00  0.00     0.162 A 
ATOM      4  C3  UNL d   1       0.378  -0.515  -0.479  0.00  0.00    -0.034 A 
ATOM      5  C4  UNL d   1       0.804   0.513   0.363  0.00  0.00     0.162 A 
ATOM      6  C5  UNL d   1       1.709   1.466  -0.094  0.00  0.00     0.062 A 
ATOM      7  F   UNL d   1       2.112   2.451   0.722  0.00  0.00    -0.097 F 
ATOM      8  F1  UNL d   1       0.349   0.601   1.622  0.00  0.00    -0.096 F 
ATOM      9  I   UNL d   1      -0.976  -1.942   0.201  0.00  0.00    -0.060 I 
ATOM     10  F2  UNL d   1       0.485  -1.549  -2.619  0.00  0.00    -0.096 F 
ATOM     11  F3  UNL d   1       2.246   0.315  -3.489  0.00  0.00    -0.097 F 
ATOM     12  F4  UNL d   1       3.067   2.318  -1.830  0.00  0.00    -0.092 F 
ENDROOT
TORSDOF 0
ENDMDL
