MODEL 1
REMARK minimizedAffinity 2.64735389
REMARK minimizedRMSD -1
REMARK  0 active torsions:
REMARK  status: ('A' for Active; 'I' for Inactive)
ROOT
ATOM      1  C   UNL d   1       2.204   1.226  -1.055  0.00  0.00     0.124 A 
ATOM      2  C1  UNL d   1       1.786   0.259  -1.959  0.00  0.00     0.062 A 
ATOM      3  C2  UNL d   1       0.864  -0.709  -1.572  0.00  0.00     0.162 A 
ATOM      4  C3  UNL d   1       0.352  -0.715  -0.274  0.00  0.00    -0.034 A 
ATOM      5  C4  UNL d   1       0.778   0.260   0.629  0.00  0.00     0.162 A 
ATOM      6  C5  UNL d   1       1.700   1.226   0.238  0.00  0.00     0.062 A 
ATOM      7  F   UNL d   1       2.102   2.159   1.112  0.00  0.00    -0.097 F 
ATOM      8  F1  UNL d   1       0.306   0.284   1.885  0.00  0.00    -0.096 F 
ATOM      9  I   UNL d   1      -1.027  -2.161   0.309  0.00  0.00    -0.060 I 
ATOM     10  F2  UNL d   1       0.478  -1.632  -2.466  0.00  0.00    -0.096 F 
ATOM     11  F3  UNL d   1       2.272   0.256  -3.208  0.00  0.00    -0.097 F 
ATOM     12  F4  UNL d   1       3.092   2.155  -1.430  0.00  0.00    -0.092 F 
ENDROOT
TORSDOF 0
ENDMDL
