MODEL 1
REMARK minimizedAffinity 6.02173376
REMARK minimizedRMSD -1
REMARK  0 active torsions:
REMARK  status: ('A' for Active; 'I' for Inactive)
ROOT
ATOM      1  C   UNL d   1       2.474   1.648  -0.959  0.00  0.00     0.124 A 
ATOM      2  C1  UNL d   1       2.298   0.646  -1.904  0.00  0.00     0.062 A 
ATOM      3  C2  UNL d   1       1.419  -0.404  -1.655  0.00  0.00     0.162 A 
ATOM      4  C3  UNL d   1       0.708  -0.457  -0.456  0.00  0.00    -0.034 A 
ATOM      5  C4  UNL d   1       0.891   0.554   0.490  0.00  0.00     0.162 A 
ATOM      6  C5  UNL d   1       1.771   1.601   0.236  0.00  0.00     0.062 A 
ATOM      7  F   UNL d   1       1.939   2.568   1.149  0.00  0.00    -0.097 F 
ATOM      8  F1  UNL d   1       0.223   0.533   1.653  0.00  0.00    -0.096 F 
ATOM      9  I   UNL d   1      -0.607  -2.025  -0.080  0.00  0.00    -0.060 I 
ATOM     10  F2  UNL d   1       1.269  -1.358  -2.585  0.00  0.00    -0.096 F 
ATOM     11  F3  UNL d   1       2.977   0.689  -3.059  0.00  0.00    -0.097 F 
ATOM     12  F4  UNL d   1       3.321   2.657  -1.201  0.00  0.00    -0.092 F 
ENDROOT
TORSDOF 0
ENDMDL
