MODEL 1
REMARK minimizedAffinity 2.47737741
REMARK minimizedRMSD -1
REMARK  0 active torsions:
REMARK  status: ('A' for Active; 'I' for Inactive)
ROOT
ATOM      1  C   UNL d   1       0.868  -0.870  -1.673  0.00  0.00     0.124 A 
ATOM      2  C1  UNL d   1       0.590  -0.820  -0.314  0.00  0.00     0.062 A 
ATOM      3  C2  UNL d   1       1.153   0.176   0.479  0.00  0.00     0.162 A 
ATOM      4  C3  UNL d   1       2.000   1.130  -0.085  0.00  0.00    -0.034 A 
ATOM      5  C4  UNL d   1       2.275   1.073  -1.452  0.00  0.00     0.162 A 
ATOM      6  C5  UNL d   1       1.710   0.076  -2.241  0.00  0.00     0.062 A 
ATOM      7  F   UNL d   1       1.979   0.029  -3.554  0.00  0.00    -0.097 F 
ATOM      8  F1  UNL d   1       3.085   1.975  -2.027  0.00  0.00    -0.096 F 
ATOM      9  I   UNL d   1       2.844   2.620   1.098  0.00  0.00    -0.060 I 
ATOM     10  F2  UNL d   1       0.867   0.200   1.789  0.00  0.00    -0.096 F 
ATOM     11  F3  UNL d   1      -0.223  -1.733   0.236  0.00  0.00    -0.097 F 
ATOM     12  F4  UNL d   1       0.325  -1.829  -2.434  0.00  0.00    -0.092 F 
ENDROOT
TORSDOF 0
ENDMDL
