MODEL 1
REMARK minimizedAffinity 0.693764627
REMARK minimizedRMSD -1
REMARK  0 active torsions:
REMARK  status: ('A' for Active; 'I' for Inactive)
ROOT
ATOM      1  C   UNL d   1      -0.069  -1.402  -1.979  0.00  0.00     0.124 A 
ATOM      2  C1  UNL d   1       1.005  -0.750  -2.570  0.00  0.00     0.062 A 
ATOM      3  C2  UNL d   1       1.670   0.265  -1.889  0.00  0.00     0.162 A 
ATOM      4  C3  UNL d   1       1.263   0.635  -0.606  0.00  0.00    -0.034 A 
ATOM      5  C4  UNL d   1       0.182  -0.024  -0.018  0.00  0.00     0.162 A 
ATOM      6  C5  UNL d   1      -0.479  -1.038  -0.704  0.00  0.00     0.062 A 
ATOM      7  F   UNL d   1      -1.516  -1.667  -0.131  0.00  0.00    -0.097 F 
ATOM      8  F1  UNL d   1      -0.234   0.306   1.213  0.00  0.00    -0.096 F 
ATOM      9  I   UNL d   1       2.255   2.152   0.416  0.00  0.00    -0.060 I 
ATOM     10  F2  UNL d   1       2.704   0.877  -2.485  0.00  0.00    -0.096 F 
ATOM     11  F3  UNL d   1       1.402  -1.099  -3.802  0.00  0.00    -0.097 F 
ATOM     12  F4  UNL d   1      -0.707  -2.378  -2.637  0.00  0.00    -0.092 F 
ENDROOT
TORSDOF 0
ENDMDL
