MODEL 1
REMARK minimizedAffinity -3.67129421
REMARK minimizedRMSD -1
REMARK  0 active torsions:
REMARK  status: ('A' for Active; 'I' for Inactive)
ROOT
ATOM      1  C   UNL d   1       0.232  -0.404   0.375  0.00  0.00     0.172 C 
ATOM      2  N   UNL d   1       1.646  -0.251   0.626  0.00  0.00    -0.070 N 
ATOM      3  C1  UNL d   1       2.250   0.867   1.135  0.00  0.00    -0.004 A 
ATOM      4  C2  UNL d   1       3.602   0.614   1.223  0.00  0.00    -0.047 A 
ATOM      5  C3  UNL d   1       3.817  -0.703   0.749  0.00  0.00    -0.047 A 
ATOM      6  C4  UNL d   1       2.590  -1.215   0.386  0.00  0.00    -0.004 A 
ENDROOT
TORSDOF 0
ENDMDL
