MODEL 1
REMARK minimizedAffinity -3.3650682
REMARK minimizedRMSD -1
REMARK  0 active torsions:
REMARK  status: ('A' for Active; 'I' for Inactive)
ROOT
ATOM      1  C   UNL d   1      -0.963   0.379   0.229  0.00  0.00     0.172 C 
ATOM      2  N   UNL d   1       0.398  -0.102   0.219  0.00  0.00    -0.070 N 
ATOM      3  C1  UNL d   1       1.482   0.557   0.735  0.00  0.00    -0.004 A 
ATOM      4  C2  UNL d   1       2.593  -0.232   0.529  0.00  0.00    -0.047 A 
ATOM      5  C3  UNL d   1       2.162  -1.405  -0.135  0.00  0.00    -0.047 A 
ATOM      6  C4  UNL d   1       0.799  -1.299  -0.314  0.00  0.00    -0.004 A 
ENDROOT
TORSDOF 0
ENDMDL
