MODEL 1
REMARK minimizedAffinity -3.63492942
REMARK minimizedRMSD -1
REMARK  0 active torsions:
REMARK  status: ('A' for Active; 'I' for Inactive)
ROOT
ATOM      1  C   UNL d   1      -0.159   0.923  -0.294  0.00  0.00     0.172 C 
ATOM      2  N   UNL d   1       0.985   0.089  -0.010  0.00  0.00    -0.070 N 
ATOM      3  C1  UNL d   1       2.199   0.527   0.447  0.00  0.00    -0.004 A 
ATOM      4  C2  UNL d   1       3.018  -0.572   0.592  0.00  0.00    -0.047 A 
ATOM      5  C3  UNL d   1       2.270  -1.710   0.209  0.00  0.00    -0.047 A 
ATOM      6  C4  UNL d   1       1.015  -1.273  -0.160  0.00  0.00    -0.004 A 
ENDROOT
TORSDOF 0
ENDMDL
