MODEL 1
REMARK minimizedAffinity -4.27034187
REMARK minimizedRMSD -1
REMARK  0 active torsions:
REMARK  status: ('A' for Active; 'I' for Inactive)
ROOT
ATOM      1  C   UNL d   1       0.017   1.085  -0.681  0.00  0.00     0.172 C 
ATOM      2  N   UNL d   1       1.222   0.558  -0.084  0.00  0.00    -0.070 N 
ATOM      3  C1  UNL d   1       2.354   1.277   0.196  0.00  0.00    -0.004 A 
ATOM      4  C2  UNL d   1       3.272   0.416   0.758  0.00  0.00    -0.047 A 
ATOM      5  C3  UNL d   1       2.672  -0.864   0.816  0.00  0.00    -0.047 A 
ATOM      6  C4  UNL d   1       1.403  -0.748   0.289  0.00  0.00    -0.004 A 
ENDROOT
TORSDOF 0
ENDMDL
