MODEL 1
REMARK minimizedAffinity -3.85971856
REMARK minimizedRMSD -1
REMARK  0 active torsions:
REMARK  status: ('A' for Active; 'I' for Inactive)
ROOT
ATOM      1  C   UNL d   1      -1.030   0.467   0.078  0.00  0.00     0.172 C 
ATOM      2  N   UNL d   1       0.288  -0.113   0.189  0.00  0.00    -0.070 N 
ATOM      3  C1  UNL d   1       1.438   0.571   0.483  0.00  0.00    -0.004 A 
ATOM      4  C2  UNL d   1       2.475  -0.336   0.497  0.00  0.00    -0.047 A 
ATOM      5  C3  UNL d   1       1.930  -1.608   0.200  0.00  0.00    -0.047 A 
ATOM      6  C4  UNL d   1       0.574  -1.441   0.014  0.00  0.00    -0.004 A 
ENDROOT
TORSDOF 0
ENDMDL
