MODEL 1
REMARK minimizedAffinity -3.93057466
REMARK minimizedRMSD -1
REMARK  0 active torsions:
REMARK  status: ('A' for Active; 'I' for Inactive)
ROOT
ATOM      1  C   UNL d   1      -0.162   0.354  -0.658  0.00  0.00     0.172 C 
ATOM      2  N   UNL d   1       1.170  -0.054  -0.280  0.00  0.00    -0.070 N 
ATOM      3  C1  UNL d   1       2.192   0.787   0.074  0.00  0.00    -0.004 A 
ATOM      4  C2  UNL d   1       3.294   0.012   0.364  0.00  0.00    -0.047 A 
ATOM      5  C3  UNL d   1       2.923  -1.341   0.176  0.00  0.00    -0.047 A 
ATOM      6  C4  UNL d   1       1.603  -1.352  -0.222  0.00  0.00    -0.004 A 
ENDROOT
TORSDOF 0
ENDMDL
