MODEL 1
REMARK minimizedAffinity -3.47732878
REMARK minimizedRMSD -1
REMARK  0 active torsions:
REMARK  status: ('A' for Active; 'I' for Inactive)
ROOT
ATOM      1  C   UNL d   1       2.552  -1.182   0.170  0.00  0.00     0.172 C 
ATOM      2  N   UNL d   1       1.378  -0.374  -0.059  0.00  0.00    -0.070 N 
ATOM      3  C1  UNL d   1       0.161  -0.837  -0.486  0.00  0.00    -0.004 A 
ATOM      4  C2  UNL d   1      -0.691   0.242  -0.580  0.00  0.00    -0.047 A 
ATOM      5  C3  UNL d   1       0.038   1.393  -0.198  0.00  0.00    -0.047 A 
ATOM      6  C4  UNL d   1       1.316   0.983   0.120  0.00  0.00    -0.004 A 
ENDROOT
TORSDOF 0
ENDMDL
