MODEL 1
REMARK minimizedAffinity -3.91496086
REMARK minimizedRMSD -1
REMARK  0 active torsions:
REMARK  status: ('A' for Active; 'I' for Inactive)
ROOT
ATOM      1  C   UNL d   1       0.173  -0.004   0.009  0.00  0.00     0.172 C 
ATOM      2  N   UNL d   1       1.589   0.075   0.280  0.00  0.00    -0.070 N 
ATOM      3  C1  UNL d   1       2.381   1.174   0.076  0.00  0.00    -0.004 A 
ATOM      4  C2  UNL d   1       3.664   0.846   0.456  0.00  0.00    -0.047 A 
ATOM      5  C3  UNL d   1       3.643  -0.496   0.904  0.00  0.00    -0.047 A 
ATOM      6  C4  UNL d   1       2.346  -0.949   0.784  0.00  0.00    -0.004 A 
ENDROOT
TORSDOF 0
ENDMDL
