MODEL 1
REMARK minimizedAffinity 0.592346609
REMARK minimizedRMSD -1
REMARK  0 active torsions:
REMARK  status: ('A' for Active; 'I' for Inactive)
ROOT
ATOM      1  C   UNL d   1       1.976  -2.028  -0.344  0.00  0.00     0.172 C 
ATOM      2  N   UNL d   1       2.598  -0.730  -0.464  0.00  0.00    -0.070 N 
ATOM      3  C1  UNL d   1       2.025   0.465  -0.119  0.00  0.00    -0.004 A 
ATOM      4  C2  UNL d   1       2.938   1.463  -0.384  0.00  0.00    -0.047 A 
ATOM      5  C3  UNL d   1       4.099   0.846  -0.908  0.00  0.00    -0.047 A 
ATOM      6  C4  UNL d   1       3.861  -0.511  -0.947  0.00  0.00    -0.004 A 
ENDROOT
TORSDOF 0
ENDMDL
