MODEL 1
REMARK minimizedAffinity 3.06294441
REMARK minimizedRMSD -1
REMARK  1 active torsions:
REMARK  status: ('A' for Active; 'I' for Inactive)
REMARK    1  A    between atoms: N_2  and  C1_3 
ROOT
ATOM      1  C1  UNL d   1       1.982  -3.751   1.082  0.00  0.00     0.143 A 
ATOM      2  C2  UNL d   1       1.230  -3.334   2.186  0.00  0.00    -0.057 A 
ATOM      3  C3  UNL d   1       0.544  -2.114   2.177  0.00  0.00     0.033 A 
ATOM      4  C4  UNL d   1       0.621  -1.273   1.071  0.00  0.00    -0.042 A 
ATOM      5  C5  UNL d   1       1.383  -1.656  -0.027  0.00  0.00     0.033 A 
ATOM      6  C6  UNL d   1       2.061  -2.879  -0.015  0.00  0.00    -0.057 A 
ENDROOT
BRANCH   1   7
ATOM      7  N   UNL d   1       2.767  -4.907   1.068  0.00  0.00    -0.732 N 
ATOM      8  C   UNL d   1       3.551  -5.280   2.225  0.00  0.00     0.284 C 
ATOM      9  H3  UNL d   1       2.299  -5.688   0.613  0.00  0.00     0.395 HD
ENDBRANCH   1   7
TORSDOF 1
ENDMDL
