MODEL 1
REMARK minimizedAffinity -2.94059587
REMARK minimizedRMSD -1
REMARK  1 active torsions:
REMARK  status: ('A' for Active; 'I' for Inactive)
REMARK    1  A    between atoms: N_2  and  C1_3 
ROOT
ATOM      1  C1  UNL d   1       1.986  -3.241   0.657  0.00  0.00     0.143 A 
ATOM      2  C2  UNL d   1       1.065  -2.871   1.643  0.00  0.00    -0.057 A 
ATOM      3  C3  UNL d   1       0.448  -1.614   1.626  0.00  0.00     0.033 A 
ATOM      4  C4  UNL d   1       0.766  -0.690   0.635  0.00  0.00    -0.042 A 
ATOM      5  C5  UNL d   1       1.698  -1.027  -0.340  0.00  0.00     0.033 A 
ATOM      6  C6  UNL d   1       2.305  -2.286  -0.322  0.00  0.00    -0.057 A 
ENDROOT
BRANCH   1   7
ATOM      7  N   UNL d   1       2.706  -4.438   0.675  0.00  0.00    -0.732 N 
ATOM      8  C   UNL d   1       3.763  -4.677  -0.284  0.00  0.00     0.284 C 
ATOM      9  H3  UNL d   1       2.925  -4.745   1.620  0.00  0.00     0.395 HD
ENDBRANCH   1   7
TORSDOF 1
ENDMDL
