MODEL 1
REMARK minimizedAffinity -1.34897923
REMARK minimizedRMSD -1
REMARK  1 active torsions:
REMARK  status: ('A' for Active; 'I' for Inactive)
REMARK    1  A    between atoms: N_2  and  C1_3 
ROOT
ATOM      1  C1  UNL d   1      -2.256   3.547  -4.309  0.00  0.00     0.143 A 
ATOM      2  C2  UNL d   1      -3.237   2.560  -4.451  0.00  0.00    -0.057 A 
ATOM      3  C3  UNL d   1      -4.210   2.357  -3.465  0.00  0.00     0.033 A 
ATOM      4  C4  UNL d   1      -4.202   3.121  -2.302  0.00  0.00    -0.042 A 
ATOM      5  C5  UNL d   1      -3.221   4.091  -2.129  0.00  0.00     0.033 A 
ATOM      6  C6  UNL d   1      -2.256   4.294  -3.120  0.00  0.00    -0.057 A 
ENDROOT
BRANCH   1   7
ATOM      7  N   UNL d   1      -1.203   3.732  -5.208  0.00  0.00    -0.732 N 
ATOM      8  C   UNL d   1       0.020   2.969  -5.077  0.00  0.00     0.284 C 
ATOM      9  H3  UNL d   1      -1.525   3.839  -6.167  0.00  0.00     0.395 HD
ENDBRANCH   1   7
TORSDOF 1
ENDMDL
