MODEL 1
REMARK minimizedAffinity 0.0250226818
REMARK minimizedRMSD -1
REMARK  1 active torsions:
REMARK  status: ('A' for Active; 'I' for Inactive)
REMARK    1  A    between atoms: N_2  and  C1_3 
ROOT
ATOM      1  C1  UNL d   1       2.674  -3.790   0.073  0.00  0.00     0.143 A 
ATOM      2  C2  UNL d   1       2.150  -4.234   1.291  0.00  0.00    -0.057 A 
ATOM      3  C3  UNL d   1       1.269  -3.440   2.035  0.00  0.00     0.033 A 
ATOM      4  C4  UNL d   1       0.919  -2.171   1.586  0.00  0.00    -0.042 A 
ATOM      5  C5  UNL d   1       1.447  -1.699   0.390  0.00  0.00     0.033 A 
ATOM      6  C6  UNL d   1       2.321  -2.499  -0.352  0.00  0.00    -0.057 A 
ENDROOT
BRANCH   1   7
ATOM      7  N   UNL d   1       3.630  -4.492  -0.665  0.00  0.00    -0.732 N 
ATOM      8  C   UNL d   1       5.023  -4.474  -0.272  0.00  0.00     0.284 C 
ATOM      9  H3  UNL d   1       3.296  -5.404  -0.967  0.00  0.00     0.395 HD
ENDBRANCH   1   7
TORSDOF 1
ENDMDL
