MODEL 1
REMARK minimizedAffinity -1.08843279
REMARK minimizedRMSD -1
REMARK  1 active torsions:
REMARK  status: ('A' for Active; 'I' for Inactive)
REMARK    1  A    between atoms: N_2  and  C1_3 
ROOT
ATOM      1  C1  UNL d   1      -4.042  -0.105  -4.838  0.00  0.00     0.143 A 
ATOM      2  C2  UNL d   1      -3.331  -0.612  -3.745  0.00  0.00    -0.057 A 
ATOM      3  C3  UNL d   1      -2.881  -1.937  -3.723  0.00  0.00     0.033 A 
ATOM      4  C4  UNL d   1      -3.160  -2.791  -4.786  0.00  0.00    -0.042 A 
ATOM      5  C5  UNL d   1      -3.887  -2.315  -5.872  0.00  0.00     0.033 A 
ATOM      6  C6  UNL d   1      -4.328  -0.989  -5.890  0.00  0.00    -0.057 A 
ENDROOT
BRANCH   1   7
ATOM      7  N   UNL d   1      -4.602   1.175  -4.876  0.00  0.00    -0.732 N 
ATOM      8  C   UNL d   1      -4.359   2.118  -3.805  0.00  0.00     0.284 C 
ATOM      9  H3  UNL d   1      -4.570   1.585  -5.806  0.00  0.00     0.395 HD
ENDBRANCH   1   7
TORSDOF 1
ENDMDL
