MODEL 1
REMARK minimizedAffinity -4.63943243
REMARK minimizedRMSD -1
REMARK  1 active torsions:
REMARK  status: ('A' for Active; 'I' for Inactive)
REMARK    1  A    between atoms: C1_2  and  C2_3 
ROOT
ATOM      1  C2  UNL d   1       1.259   0.879   0.501  0.00  0.00    -0.073 A 
ATOM      2  C3  UNL d   1       1.760   1.496  -0.651  0.00  0.00    -0.002 A 
ATOM      3  C4  UNL d   1       1.890   0.774  -1.838  0.00  0.00     0.004 A 
ATOM      4  C5  UNL d   1       1.514  -0.568  -1.887  0.00  0.00    -0.004 A 
ATOM      5  C6  UNL d   1       1.000  -1.199  -0.750  0.00  0.00    -0.075 A 
ATOM      6  C7  UNL d   1       0.593  -2.643  -0.786  0.00  0.00     0.076 C 
ATOM      7  C8  UNL d   1       0.875  -0.468   0.439  0.00  0.00     0.001 A 
ENDROOT
BRANCH   1   8
ATOM      8  C1  UNL d   1       1.111   1.657   1.783  0.00  0.00     0.053 C 
ATOM      9  C   UNL d   1       2.162   1.267   2.810  0.00  0.00     0.018 C 
ENDBRANCH   1   8
TORSDOF 1
ENDMDL
