MODEL 1
REMARK minimizedAffinity -4.19252586
REMARK minimizedRMSD -1
REMARK  1 active torsions:
REMARK  status: ('A' for Active; 'I' for Inactive)
REMARK    1  A    between atoms: C1_2  and  C2_3 
ROOT
ATOM      1  C2  UNL d   1       0.840   0.653   0.435  0.00  0.00    -0.073 A 
ATOM      2  C3  UNL d   1       1.397   1.269  -0.691  0.00  0.00    -0.002 A 
ATOM      3  C4  UNL d   1       1.667   0.525  -1.841  0.00  0.00     0.004 A 
ATOM      4  C5  UNL d   1       1.377  -0.839  -1.878  0.00  0.00    -0.004 A 
ATOM      5  C6  UNL d   1       0.809  -1.470  -0.767  0.00  0.00    -0.075 A 
ATOM      6  C7  UNL d   1       0.493  -2.937  -0.790  0.00  0.00     0.076 C 
ATOM      7  C8  UNL d   1       0.543  -0.716   0.384  0.00  0.00     0.001 A 
ENDROOT
BRANCH   1   8
ATOM      8  C1  UNL d   1       0.540   1.454   1.676  0.00  0.00     0.053 C 
ATOM      9  C   UNL d   1       1.543   1.182   2.786  0.00  0.00     0.018 C 
ENDBRANCH   1   8
TORSDOF 1
ENDMDL
