MODEL 1
REMARK minimizedAffinity -0.337986439
REMARK minimizedRMSD -1
REMARK  1 active torsions:
REMARK  status: ('A' for Active; 'I' for Inactive)
REMARK    1  A    between atoms: C1_2  and  C2_3 
ROOT
ATOM      1  C2  UNL d   1      -2.089   0.040   1.467  0.00  0.00    -0.073 A 
ATOM      2  C3  UNL d   1      -3.215  -0.641   0.992  0.00  0.00    -0.002 A 
ATOM      3  C4  UNL d   1      -4.493  -0.119   1.196  0.00  0.00     0.004 A 
ATOM      4  C5  UNL d   1      -4.658   1.091   1.869  0.00  0.00    -0.004 A 
ATOM      5  C6  UNL d   1      -3.544   1.793   2.341  0.00  0.00    -0.075 A 
ATOM      6  C7  UNL d   1      -3.704   3.095   3.069  0.00  0.00     0.076 C 
ATOM      7  C8  UNL d   1      -2.264   1.261   2.135  0.00  0.00     0.001 A 
ENDROOT
BRANCH   1   8
ATOM      8  C1  UNL d   1      -0.706  -0.516   1.244  0.00  0.00     0.053 C 
ATOM      9  C   UNL d   1      -0.227  -0.297  -0.182  0.00  0.00     0.018 C 
ENDBRANCH   1   8
TORSDOF 1
ENDMDL
