MODEL 1
REMARK minimizedAffinity -1.19991076
REMARK minimizedRMSD -1
REMARK  1 active torsions:
REMARK  status: ('A' for Active; 'I' for Inactive)
REMARK    1  A    between atoms: C1_2  and  C2_3 
ROOT
ATOM      1  C2  UNL d   1      -0.922  -0.376   0.690  0.00  0.00    -0.073 A 
ATOM      2  C3  UNL d   1      -0.867  -1.774   0.708  0.00  0.00    -0.002 A 
ATOM      3  C4  UNL d   1      -0.118  -2.462  -0.247  0.00  0.00     0.004 A 
ATOM      4  C5  UNL d   1       0.588  -1.761  -1.224  0.00  0.00    -0.004 A 
ATOM      5  C6  UNL d   1       0.555  -0.363  -1.251  0.00  0.00    -0.075 A 
ATOM      6  C7  UNL d   1       1.308   0.406  -2.297  0.00  0.00     0.076 C 
ATOM      7  C8  UNL d   1      -0.201   0.321  -0.290  0.00  0.00     0.001 A 
ENDROOT
BRANCH   1   8
ATOM      8  C1  UNL d   1      -1.725   0.372   1.723  0.00  0.00     0.053 C 
ATOM      9  C   UNL d   1      -3.212   0.074   1.616  0.00  0.00     0.018 C 
ENDBRANCH   1   8
TORSDOF 1
ENDMDL
