MODEL 1
REMARK minimizedAffinity -3.53637457
REMARK minimizedRMSD -1
REMARK  1 active torsions:
REMARK  status: ('A' for Active; 'I' for Inactive)
REMARK    1  A    between atoms: C1_2  and  C2_3 
ROOT
ATOM      1  C2  UNL d   1       1.033   1.133   1.514  0.00  0.00    -0.073 A 
ATOM      2  C3  UNL d   1       1.363   1.965   0.439  0.00  0.00    -0.002 A 
ATOM      3  C4  UNL d   1       1.330   1.475  -0.868  0.00  0.00     0.004 A 
ATOM      4  C5  UNL d   1       0.960   0.153  -1.112  0.00  0.00    -0.004 A 
ATOM      5  C6  UNL d   1       0.614  -0.690  -0.051  0.00  0.00    -0.075 A 
ATOM      6  C7  UNL d   1       0.216  -2.116  -0.297  0.00  0.00     0.076 C 
ATOM      7  C8  UNL d   1       0.653  -0.192   1.258  0.00  0.00     0.001 A 
ENDROOT
BRANCH   1   8
ATOM      8  C1  UNL d   1       1.061   1.660   2.926  0.00  0.00     0.053 C 
ATOM      9  C   UNL d   1       2.480   1.900   3.416  0.00  0.00     0.018 C 
ENDBRANCH   1   8
TORSDOF 1
ENDMDL
