MODEL 1
REMARK minimizedAffinity 1.05729282
REMARK minimizedRMSD -1
REMARK  1 active torsions:
REMARK  status: ('A' for Active; 'I' for Inactive)
REMARK    1  A    between atoms: C1_2  and  C2_3 
ROOT
ATOM      1  C2  UNL d   1      -2.072   0.056   1.055  0.00  0.00    -0.073 A 
ATOM      2  C3  UNL d   1      -3.240  -0.534   0.558  0.00  0.00    -0.002 A 
ATOM      3  C4  UNL d   1      -4.491  -0.061   0.955  0.00  0.00     0.004 A 
ATOM      4  C5  UNL d   1      -4.588   1.008   1.846  0.00  0.00    -0.004 A 
ATOM      5  C6  UNL d   1      -3.432   1.618   2.344  0.00  0.00    -0.075 A 
ATOM      6  C7  UNL d   1      -3.519   2.767   3.304  0.00  0.00     0.076 C 
ATOM      7  C8  UNL d   1      -2.179   1.136   1.943  0.00  0.00     0.001 A 
ENDROOT
BRANCH   1   8
ATOM      8  C1  UNL d   1      -0.718  -0.447   0.624  0.00  0.00     0.053 C 
ATOM      9  C   UNL d   1      -0.347   0.037  -0.769  0.00  0.00     0.018 C 
ENDBRANCH   1   8
TORSDOF 1
ENDMDL
