MODEL 1
REMARK minimizedAffinity -3.22813702
REMARK minimizedRMSD -1
REMARK  1 active torsions:
REMARK  status: ('A' for Active; 'I' for Inactive)
REMARK    1  A    between atoms: C1_2  and  C2_3 
ROOT
ATOM      1  C2  UNL d   1       1.420   1.508   0.939  0.00  0.00    -0.073 A 
ATOM      2  C3  UNL d   1       0.367   0.653   1.283  0.00  0.00    -0.002 A 
ATOM      3  C4  UNL d   1      -0.137  -0.255   0.352  0.00  0.00     0.004 A 
ATOM      4  C5  UNL d   1       0.410  -0.324  -0.929  0.00  0.00    -0.004 A 
ATOM      5  C6  UNL d   1       1.471   0.514  -1.289  0.00  0.00    -0.075 A 
ATOM      6  C7  UNL d   1       2.069   0.454  -2.664  0.00  0.00     0.076 C 
ATOM      7  C8  UNL d   1       1.970   1.425  -0.349  0.00  0.00     0.001 A 
ENDROOT
BRANCH   1   8
ATOM      8  C1  UNL d   1       1.972   2.486   1.943  0.00  0.00     0.053 C 
ATOM      9  C   UNL d   1       2.101   1.870   3.327  0.00  0.00     0.018 C 
ENDBRANCH   1   8
TORSDOF 1
ENDMDL
