MODEL 1
REMARK minimizedAffinity -3.10911226
REMARK minimizedRMSD -1
REMARK  1 active torsions:
REMARK  status: ('A' for Active; 'I' for Inactive)
REMARK    1  A    between atoms: C1_2  and  C2_3 
ROOT
ATOM      1  C2  UNL d   1      -0.819  -0.250   1.220  0.00  0.00    -0.073 A 
ATOM      2  C3  UNL d   1      -2.119   0.013   1.667  0.00  0.00    -0.002 A 
ATOM      3  C4  UNL d   1      -2.328   0.713   2.856  0.00  0.00     0.004 A 
ATOM      4  C5  UNL d   1      -1.242   1.162   3.606  0.00  0.00    -0.004 A 
ATOM      5  C6  UNL d   1       0.065   0.920   3.170  0.00  0.00    -0.075 A 
ATOM      6  C7  UNL d   1       1.245   1.394   3.967  0.00  0.00     0.076 C 
ATOM      7  C8  UNL d   1       0.267   0.214   1.976  0.00  0.00     0.001 A 
ENDROOT
BRANCH   1   8
ATOM      8  C1  UNL d   1      -0.589  -1.000  -0.067  0.00  0.00     0.053 C 
ATOM      9  C   UNL d   1       0.134  -0.150  -1.100  0.00  0.00     0.018 C 
ENDBRANCH   1   8
TORSDOF 1
ENDMDL
