MODEL 1
REMARK minimizedAffinity -4.35590744
REMARK minimizedRMSD -1
REMARK  1 active torsions:
REMARK  status: ('A' for Active; 'I' for Inactive)
REMARK    1  A    between atoms: C1_2  and  C2_3 
ROOT
ATOM      1  C2  UNL d   1       1.115   1.049   0.131  0.00  0.00    -0.073 A 
ATOM      2  C3  UNL d   1      -0.085   0.354   0.314  0.00  0.00    -0.002 A 
ATOM      3  C4  UNL d   1      -0.528  -0.555  -0.648  0.00  0.00     0.004 A 
ATOM      4  C5  UNL d   1       0.227  -0.783  -1.798  0.00  0.00    -0.004 A 
ATOM      5  C6  UNL d   1       1.436  -0.107  -1.994  0.00  0.00    -0.075 A 
ATOM      6  C7  UNL d   1       2.260  -0.340  -3.226  0.00  0.00     0.076 C 
ATOM      7  C8  UNL d   1       1.873   0.806  -1.024  0.00  0.00     0.001 A 
ENDROOT
BRANCH   1   8
ATOM      8  C1  UNL d   1       1.601   2.026   1.170  0.00  0.00     0.053 C 
ATOM      9  C   UNL d   1       1.543   1.442   2.573  0.00  0.00     0.018 C 
ENDBRANCH   1   8
TORSDOF 1
ENDMDL
