MODEL 1
REMARK minimizedAffinity 0.927309036
REMARK minimizedRMSD -1
REMARK  1 active torsions:
REMARK  status: ('A' for Active; 'I' for Inactive)
REMARK    1  A    between atoms: C1_2  and  C2_3 
ROOT
ATOM      1  C2  UNL d   1      -1.476   0.339   0.382  0.00  0.00    -0.073 A 
ATOM      2  C3  UNL d   1      -0.454   1.264   0.142  0.00  0.00    -0.002 A 
ATOM      3  C4  UNL d   1       0.772   0.843  -0.375  0.00  0.00     0.004 A 
ATOM      4  C5  UNL d   1       0.986  -0.505  -0.663  0.00  0.00    -0.004 A 
ATOM      5  C6  UNL d   1      -0.027  -1.443  -0.441  0.00  0.00    -0.075 A 
ATOM      6  C7  UNL d   1       0.188  -2.897  -0.744  0.00  0.00     0.076 C 
ATOM      7  C8  UNL d   1      -1.255  -1.012   0.080  0.00  0.00     0.001 A 
ENDROOT
BRANCH   1   8
ATOM      8  C1  UNL d   1      -2.804   0.791   0.933  0.00  0.00     0.053 C 
ATOM      9  C   UNL d   1      -3.922  -0.182   0.594  0.00  0.00     0.018 C 
ENDBRANCH   1   8
TORSDOF 1
ENDMDL
