MODEL 1
REMARK minimizedAffinity -1.5805757
REMARK minimizedRMSD -1
REMARK  1 active torsions:
REMARK  status: ('A' for Active; 'I' for Inactive)
REMARK    1  A    between atoms: C1_2  and  C2_3 
ROOT
ATOM      1  C2  UNL d   1       0.664   0.734   0.910  0.00  0.00    -0.073 A 
ATOM      2  C3  UNL d   1       0.063  -0.393   1.481  0.00  0.00    -0.002 A 
ATOM      3  C4  UNL d   1      -0.317  -1.471   0.681  0.00  0.00     0.004 A 
ATOM      4  C5  UNL d   1      -0.093  -1.437  -0.696  0.00  0.00    -0.004 A 
ATOM      5  C6  UNL d   1       0.517  -0.324  -1.284  0.00  0.00    -0.075 A 
ATOM      6  C7  UNL d   1       0.762  -0.271  -2.763  0.00  0.00     0.076 C 
ATOM      7  C8  UNL d   1       0.893   0.756  -0.473  0.00  0.00     0.001 A 
ENDROOT
BRANCH   1   8
ATOM      8  C1  UNL d   1       1.082   1.898   1.771  0.00  0.00     0.053 C 
ATOM      9  C   UNL d   1       1.357   1.476   3.206  0.00  0.00     0.018 C 
ENDBRANCH   1   8
TORSDOF 1
ENDMDL
