MODEL 1
REMARK minimizedAffinity -1.7517848
REMARK minimizedRMSD -1
REMARK  1 active torsions:
REMARK  status: ('A' for Active; 'I' for Inactive)
REMARK    1  A    between atoms: C1_2  and  C2_3 
ROOT
ATOM      1  C2  UNL d   1       1.891   2.436   1.904  0.00  0.00    -0.073 A 
ATOM      2  C3  UNL d   1       2.108   3.373   0.888  0.00  0.00    -0.002 A 
ATOM      3  C4  UNL d   1       1.690   3.107  -0.417  0.00  0.00     0.004 A 
ATOM      4  C5  UNL d   1       1.045   1.907  -0.717  0.00  0.00    -0.004 A 
ATOM      5  C6  UNL d   1       0.809   0.963   0.288  0.00  0.00    -0.075 A 
ATOM      6  C7  UNL d   1       0.119  -0.334  -0.019  0.00  0.00     0.076 C 
ATOM      7  C8  UNL d   1       1.234   1.236   1.595  0.00  0.00     0.001 A 
ENDROOT
BRANCH   1   8
ATOM      8  C1  UNL d   1       2.335   2.721   3.316  0.00  0.00     0.053 C 
ATOM      9  C   UNL d   1       3.397   3.808   3.371  0.00  0.00     0.018 C 
ENDBRANCH   1   8
TORSDOF 1
ENDMDL
