MODEL 1
REMARK minimizedAffinity 5.88135147
REMARK minimizedRMSD -1
REMARK  1 active torsions:
REMARK  status: ('A' for Active; 'I' for Inactive)
REMARK    1  A    between atoms: C1_2  and  C2_3 
ROOT
ATOM      1  C2  UNL d   1      -3.441   3.431  -5.630  0.00  0.00    -0.073 A 
ATOM      2  C3  UNL d   1      -4.612   4.103  -5.998  0.00  0.00    -0.002 A 
ATOM      3  C4  UNL d   1      -5.838   3.437  -5.993  0.00  0.00     0.004 A 
ATOM      4  C5  UNL d   1      -5.907   2.096  -5.614  0.00  0.00    -0.004 A 
ATOM      5  C6  UNL d   1      -4.750   1.411  -5.231  0.00  0.00    -0.075 A 
ATOM      6  C7  UNL d   1      -4.807  -0.032  -4.822  0.00  0.00     0.076 C 
ATOM      7  C8  UNL d   1      -3.522   2.086  -5.241  0.00  0.00     0.001 A 
ENDROOT
BRANCH   1   8
ATOM      8  C1  UNL d   1      -2.115   4.147  -5.628  0.00  0.00     0.053 C 
ATOM      9  C   UNL d   1      -2.260   5.615  -6.000  0.00  0.00     0.018 C 
ENDBRANCH   1   8
TORSDOF 1
ENDMDL
