MODEL 1
REMARK minimizedAffinity -5.19143915
REMARK minimizedRMSD -1
REMARK  0 active torsions:
REMARK  status: ('A' for Active; 'I' for Inactive)
ROOT
ATOM      1  C   UNL d   1      -0.057   0.584  -1.030  0.00  0.00     0.078 C 
ATOM      2  C1  UNL d   1       0.589  -0.203   0.071  0.00  0.00    -0.077 A 
ATOM      3  C2  UNL d   1       1.656  -1.071  -0.193  0.00  0.00    -0.001 A 
ATOM      4  C3  UNL d   1       2.241  -1.805   0.840  0.00  0.00     0.003 A 
ATOM      5  C4  UNL d   1       1.766  -1.679   2.144  0.00  0.00    -0.005 A 
ATOM      6  C5  UNL d   1       0.704  -0.819   2.416  0.00  0.00     0.003 A 
ATOM      7  C6  UNL d   1       0.117  -0.085   1.384  0.00  0.00    -0.001 A 
ENDROOT
TORSDOF 0
ENDMDL
