MODEL 1
REMARK minimizedAffinity -3.96138954
REMARK minimizedRMSD -1
REMARK  0 active torsions:
REMARK  status: ('A' for Active; 'I' for Inactive)
ROOT
ATOM      1  C   UNL d   1      -2.298  -0.234   1.389  0.00  0.00     0.078 C 
ATOM      2  C1  UNL d   1      -0.840  -0.415   1.688  0.00  0.00    -0.077 A 
ATOM      3  C2  UNL d   1      -0.409  -0.832   2.953  0.00  0.00    -0.001 A 
ATOM      4  C3  UNL d   1       0.952  -0.987   3.220  0.00  0.00     0.003 A 
ATOM      5  C4  UNL d   1       1.894  -0.726   2.226  0.00  0.00    -0.005 A 
ATOM      6  C5  UNL d   1       1.475  -0.308   0.965  0.00  0.00     0.003 A 
ATOM      7  C6  UNL d   1       0.114  -0.153   0.696  0.00  0.00    -0.001 A 
ENDROOT
TORSDOF 0
ENDMDL
