MODEL 1
REMARK minimizedAffinity -2.95105195
REMARK minimizedRMSD -1
REMARK  0 active torsions:
REMARK  status: ('A' for Active; 'I' for Inactive)
ROOT
ATOM      1  C   UNL d   1       1.551  -0.622   2.651  0.00  0.00     0.078 C 
ATOM      2  C1  UNL d   1       0.980  -0.421   1.280  0.00  0.00    -0.077 A 
ATOM      3  C2  UNL d   1      -0.361  -0.060   1.102  0.00  0.00    -0.001 A 
ATOM      4  C3  UNL d   1      -0.882   0.114  -0.181  0.00  0.00     0.003 A 
ATOM      5  C4  UNL d   1      -0.068  -0.070  -1.297  0.00  0.00    -0.005 A 
ATOM      6  C5  UNL d   1       1.267  -0.431  -1.131  0.00  0.00     0.003 A 
ATOM      7  C6  UNL d   1       1.789  -0.606   0.152  0.00  0.00    -0.001 A 
ENDROOT
TORSDOF 0
ENDMDL
