MODEL 1
REMARK minimizedAffinity -3.66351175
REMARK minimizedRMSD -1
REMARK  0 active torsions:
REMARK  status: ('A' for Active; 'I' for Inactive)
ROOT
ATOM      1  C   UNL d   1       1.463  -1.290   2.896  0.00  0.00     0.078 C 
ATOM      2  C1  UNL d   1       1.030  -0.991   1.491  0.00  0.00    -0.077 A 
ATOM      3  C2  UNL d   1      -0.198  -0.370   1.232  0.00  0.00    -0.001 A 
ATOM      4  C3  UNL d   1      -0.592  -0.107  -0.081  0.00  0.00     0.003 A 
ATOM      5  C4  UNL d   1       0.236  -0.462  -1.145  0.00  0.00    -0.005 A 
ATOM      6  C5  UNL d   1       1.458  -1.083  -0.896  0.00  0.00     0.003 A 
ATOM      7  C6  UNL d   1       1.854  -1.347   0.416  0.00  0.00    -0.001 A 
ENDROOT
TORSDOF 0
ENDMDL
