MODEL 1
REMARK minimizedAffinity -4.00020742
REMARK minimizedRMSD -1
REMARK  0 active torsions:
REMARK  status: ('A' for Active; 'I' for Inactive)
ROOT
ATOM      1  C   UNL d   1      -0.163   0.366  -1.326  0.00  0.00     0.078 C 
ATOM      2  C1  UNL d   1      -0.360  -0.025   0.108  0.00  0.00    -0.077 A 
ATOM      3  C2  UNL d   1      -1.644  -0.218   0.633  0.00  0.00    -0.001 A 
ATOM      4  C3  UNL d   1      -1.813  -0.572   1.972  0.00  0.00     0.003 A 
ATOM      5  C4  UNL d   1      -0.703  -0.735   2.798  0.00  0.00    -0.005 A 
ATOM      6  C5  UNL d   1       0.578  -0.542   2.286  0.00  0.00     0.003 A 
ATOM      7  C6  UNL d   1       0.749  -0.188   0.947  0.00  0.00    -0.001 A 
ENDROOT
TORSDOF 0
ENDMDL
