MODEL 1
REMARK minimizedAffinity 1.40916216
REMARK minimizedRMSD -1
REMARK  0 active torsions:
REMARK  status: ('A' for Active; 'I' for Inactive)
ROOT
ATOM      1  C   UNL d   1       1.780  -0.583   0.366  0.00  0.00     0.020 A 
ATOM      2  C1  UNL d   1       0.982   0.340  -0.309  0.00  0.00     0.020 A 
ATOM      3  C2  UNL d   1      -0.399   0.351  -0.104  0.00  0.00     0.034 A 
ATOM      4  C3  UNL d   1      -0.987  -0.563   0.779  0.00  0.00     0.017 A 
ATOM      5  C4  UNL d   1      -0.185  -1.490   1.455  0.00  0.00     0.017 A 
ATOM      6  C5  UNL d   1       1.197  -1.496   1.246  0.00  0.00     0.034 A 
ATOM      7 Cl   UNL d   1      -0.838  -2.648   2.559  0.00  0.00    -0.070 Cl
ATOM      8 Cl1  UNL d   1      -2.701  -0.493   0.985  0.00  0.00    -0.070 Cl
ENDROOT
TORSDOF 0
ENDMDL
