MODEL 1
REMARK minimizedAffinity -3.17523909
REMARK minimizedRMSD -1
REMARK  0 active torsions:
REMARK  status: ('A' for Active; 'I' for Inactive)
ROOT
ATOM      1  C   UNL d   1       1.248  -0.018  -0.029  0.00  0.00     0.020 A 
ATOM      2  C1  UNL d   1       0.374   0.493  -0.987  0.00  0.00     0.020 A 
ATOM      3  C2  UNL d   1      -0.981   0.156  -0.947  0.00  0.00     0.034 A 
ATOM      4  C3  UNL d   1      -1.465  -0.695   0.053  0.00  0.00     0.017 A 
ATOM      5  C4  UNL d   1      -0.586  -1.208   1.014  0.00  0.00     0.017 A 
ATOM      6  C5  UNL d   1       0.769  -0.867   0.970  0.00  0.00     0.034 A 
ATOM      7 Cl   UNL d   1      -1.110  -2.264   2.279  0.00  0.00    -0.070 Cl
ATOM      8 Cl1  UNL d   1      -3.152  -1.070   0.043  0.00  0.00    -0.070 Cl
ENDROOT
TORSDOF 0
ENDMDL
