MODEL 1
REMARK minimizedAffinity -0.0900702178
REMARK minimizedRMSD -1
REMARK  0 active torsions:
REMARK  status: ('A' for Active; 'I' for Inactive)
ROOT
ATOM      1  C   UNL d   1      -1.353  -0.449  -1.172  0.00  0.00     0.020 A 
ATOM      2  C1  UNL d   1      -1.003   0.884  -1.387  0.00  0.00     0.020 A 
ATOM      3  C2  UNL d   1       0.044   1.456  -0.661  0.00  0.00     0.034 A 
ATOM      4  C3  UNL d   1       0.743   0.697   0.284  0.00  0.00     0.017 A 
ATOM      5  C4  UNL d   1       0.391  -0.641   0.499  0.00  0.00     0.017 A 
ATOM      6  C5  UNL d   1      -0.657  -1.209  -0.231  0.00  0.00     0.034 A 
ATOM      7 Cl   UNL d   1       1.208  -1.642   1.647  0.00  0.00    -0.070 Cl
ATOM      8 Cl1  UNL d   1       2.026   1.469   1.146  0.00  0.00    -0.070 Cl
ENDROOT
TORSDOF 0
ENDMDL
