MODEL 1
REMARK minimizedAffinity -3.74420142
REMARK minimizedRMSD -1
REMARK  0 active torsions:
REMARK  status: ('A' for Active; 'I' for Inactive)
ROOT
ATOM      1  C   UNL d   1       1.218  -0.666   0.295  0.00  0.00     0.020 A 
ATOM      2  C1  UNL d   1       0.440  -1.255   1.291  0.00  0.00     0.020 A 
ATOM      3  C2  UNL d   1      -0.953  -1.223   1.199  0.00  0.00     0.034 A 
ATOM      4  C3  UNL d   1      -1.572  -0.599   0.110  0.00  0.00     0.017 A 
ATOM      5  C4  UNL d   1      -0.790  -0.008  -0.889  0.00  0.00     0.017 A 
ATOM      6  C5  UNL d   1       0.604  -0.043  -0.792  0.00  0.00     0.034 A 
ATOM      7 Cl   UNL d   1      -1.482   0.780  -2.263  0.00  0.00    -0.070 Cl
ATOM      8 Cl1  UNL d   1      -3.299  -0.597   0.061  0.00  0.00    -0.070 Cl
ENDROOT
TORSDOF 0
ENDMDL
