MODEL 1
REMARK minimizedAffinity -3.47751856
REMARK minimizedRMSD -1
REMARK  0 active torsions:
REMARK  status: ('A' for Active; 'I' for Inactive)
ROOT
ATOM      1  C   UNL d   1       1.370   0.206  -0.249  0.00  0.00     0.020 A 
ATOM      2  C1  UNL d   1       0.557   0.590  -1.314  0.00  0.00     0.020 A 
ATOM      3  C2  UNL d   1      -0.787   0.212  -1.339  0.00  0.00     0.034 A 
ATOM      4  C3  UNL d   1      -1.322  -0.553  -0.296  0.00  0.00     0.017 A 
ATOM      5  C4  UNL d   1      -0.505  -0.939   0.773  0.00  0.00     0.017 A 
ATOM      6  C5  UNL d   1       0.840  -0.557   0.793  0.00  0.00     0.034 A 
ATOM      7 Cl   UNL d   1      -1.094  -1.883   2.096  0.00  0.00    -0.070 Cl
ATOM      8 Cl1  UNL d   1      -2.992  -0.985  -0.392  0.00  0.00    -0.070 Cl
ENDROOT
TORSDOF 0
ENDMDL
