MODEL 1
REMARK minimizedAffinity -4.07359266
REMARK minimizedRMSD -1
REMARK  0 active torsions:
REMARK  status: ('A' for Active; 'I' for Inactive)
ROOT
ATOM      1  C   UNL d   1      -2.867  -0.397   0.720  0.00  0.00     0.020 A 
ATOM      2  C1  UNL d   1      -3.016  -1.010  -0.523  0.00  0.00     0.020 A 
ATOM      3  C2  UNL d   1      -2.037  -0.844  -1.505  0.00  0.00     0.034 A 
ATOM      4  C3  UNL d   1      -0.905  -0.063  -1.246  0.00  0.00     0.017 A 
ATOM      5  C4  UNL d   1      -0.756   0.552   0.002  0.00  0.00     0.017 A 
ATOM      6  C5  UNL d   1      -1.739   0.383   0.982  0.00  0.00     0.034 A 
ATOM      7 Cl   UNL d   1       0.613   1.531   0.396  0.00  0.00    -0.070 Cl
ATOM      8 Cl1  UNL d   1       0.266   0.099  -2.506  0.00  0.00    -0.070 Cl
ENDROOT
TORSDOF 0
ENDMDL
