MODEL 1
REMARK minimizedAffinity -3.61874127
REMARK minimizedRMSD -1
REMARK  0 active torsions:
REMARK  status: ('A' for Active; 'I' for Inactive)
ROOT
ATOM      1  C   UNL d   1      -2.961  -0.275  -0.310  0.00  0.00     0.020 A 
ATOM      2  C1  UNL d   1      -2.324  -0.107   0.919  0.00  0.00     0.020 A 
ATOM      3  C2  UNL d   1      -0.956   0.172   0.965  0.00  0.00     0.034 A 
ATOM      4  C3  UNL d   1      -0.221   0.285  -0.221  0.00  0.00     0.017 A 
ATOM      5  C4  UNL d   1      -0.862   0.117  -1.454  0.00  0.00     0.017 A 
ATOM      6  C5  UNL d   1      -2.231  -0.163  -1.494  0.00  0.00     0.034 A 
ATOM      7 Cl   UNL d   1      -0.021   0.241  -2.960  0.00  0.00    -0.070 Cl
ATOM      8 Cl1  UNL d   1       1.466   0.633  -0.091  0.00  0.00    -0.070 Cl
ENDROOT
TORSDOF 0
ENDMDL
