MODEL 1
REMARK minimizedAffinity -2.57251096
REMARK minimizedRMSD -1
REMARK  0 active torsions:
REMARK  status: ('A' for Active; 'I' for Inactive)
ROOT
ATOM      1  C   UNL d   1      -2.690  -0.256  -0.379  0.00  0.00     0.020 A 
ATOM      2  C1  UNL d   1      -2.274   1.016  -0.770  0.00  0.00     0.020 A 
ATOM      3  C2  UNL d   1      -0.976   1.445  -0.483  0.00  0.00     0.034 A 
ATOM      4  C3  UNL d   1      -0.090   0.602   0.198  0.00  0.00     0.017 A 
ATOM      5  C4  UNL d   1      -0.509  -0.674   0.590  0.00  0.00     0.017 A 
ATOM      6  C5  UNL d   1      -1.809  -1.099   0.300  0.00  0.00     0.034 A 
ATOM      7 Cl   UNL d   1       0.528  -1.771   1.433  0.00  0.00    -0.070 Cl
ATOM      8 Cl1  UNL d   1       1.499   1.199   0.519  0.00  0.00    -0.070 Cl
ENDROOT
TORSDOF 0
ENDMDL
