MODEL 1
REMARK minimizedAffinity -0.855586648
REMARK minimizedRMSD -1
REMARK  0 active torsions:
REMARK  status: ('A' for Active; 'I' for Inactive)
ROOT
ATOM      1  C   UNL d   1      -2.434  -0.216   0.987  0.00  0.00     0.020 A 
ATOM      2  C1  UNL d   1      -2.893  -0.478  -0.303  0.00  0.00     0.020 A 
ATOM      3  C2  UNL d   1      -2.009  -0.427  -1.383  0.00  0.00     0.034 A 
ATOM      4  C3  UNL d   1      -0.661  -0.114  -1.175  0.00  0.00     0.017 A 
ATOM      5  C4  UNL d   1      -0.201   0.148   0.121  0.00  0.00     0.017 A 
ATOM      6  C5  UNL d   1      -1.090   0.096   1.198  0.00  0.00     0.034 A 
ATOM      7 Cl   UNL d   1       1.449   0.541   0.456  0.00  0.00    -0.070 Cl
ATOM      8 Cl1  UNL d   1       0.376  -0.070  -2.556  0.00  0.00    -0.070 Cl
ENDROOT
TORSDOF 0
ENDMDL
