MODEL 1
REMARK minimizedAffinity -3.67762446
REMARK minimizedRMSD -1
REMARK  0 active torsions:
REMARK  status: ('A' for Active; 'I' for Inactive)
ROOT
ATOM      1  C   UNL d   1      -2.056  -0.626   0.814  0.00  0.00     0.020 A 
ATOM      2  C1  UNL d   1      -2.539  -0.827  -0.479  0.00  0.00     0.020 A 
ATOM      3  C2  UNL d   1      -1.739  -0.517  -1.580  0.00  0.00     0.034 A 
ATOM      4  C3  UNL d   1      -0.450  -0.003  -1.390  0.00  0.00     0.017 A 
ATOM      5  C4  UNL d   1       0.034   0.199  -0.093  0.00  0.00     0.017 A 
ATOM      6  C5  UNL d   1      -0.772  -0.114   1.006  0.00  0.00     0.034 A 
ATOM      7 Cl   UNL d   1       1.613   0.828   0.220  0.00  0.00    -0.070 Cl
ATOM      8 Cl1  UNL d   1       0.485   0.358  -2.797  0.00  0.00    -0.070 Cl
ENDROOT
TORSDOF 0
ENDMDL
