MODEL 1
REMARK minimizedAffinity -3.93860006
REMARK minimizedRMSD -1
REMARK  0 active torsions:
REMARK  status: ('A' for Active; 'I' for Inactive)
ROOT
ATOM      1  C   UNL d   1      -2.838  -1.472  -0.040  0.00  0.00     0.020 A 
ATOM      2  C1  UNL d   1      -2.146  -1.603   1.163  0.00  0.00     0.020 A 
ATOM      3  C2  UNL d   1      -0.866  -1.060   1.295  0.00  0.00     0.034 A 
ATOM      4  C3  UNL d   1      -0.274  -0.384   0.222  0.00  0.00     0.017 A 
ATOM      5  C4  UNL d   1      -0.969  -0.254  -0.986  0.00  0.00     0.017 A 
ATOM      6  C5  UNL d   1      -2.251  -0.799  -1.112  0.00  0.00     0.034 A 
ATOM      7 Cl   UNL d   1      -0.305   0.566  -2.354  0.00  0.00    -0.070 Cl
ATOM      8 Cl1  UNL d   1       1.311   0.262   0.455  0.00  0.00    -0.070 Cl
ENDROOT
TORSDOF 0
ENDMDL
