MODEL 1
REMARK minimizedAffinity -3.16322064
REMARK minimizedRMSD -1
REMARK  0 active torsions:
REMARK  status: ('A' for Active; 'I' for Inactive)
ROOT
ATOM      1  C   UNL d   1      -1.432   0.822  -0.230  0.00  0.00     0.020 A 
ATOM      2  C1  UNL d   1      -1.669  -0.476   0.218  0.00  0.00     0.020 A 
ATOM      3  C2  UNL d   1      -0.623  -1.234   0.749  0.00  0.00     0.034 A 
ATOM      4  C3  UNL d   1       0.666  -0.693   0.833  0.00  0.00     0.017 A 
ATOM      5  C4  UNL d   1       0.903   0.610   0.382  0.00  0.00     0.017 A 
ATOM      6  C5  UNL d   1      -0.148   1.364  -0.149  0.00  0.00     0.034 A 
ATOM      7 Cl   UNL d   1       2.466   1.345   0.453  0.00  0.00    -0.070 Cl
ATOM      8 Cl1  UNL d   1       1.912  -1.687   1.501  0.00  0.00    -0.070 Cl
ENDROOT
TORSDOF 0
ENDMDL
