MODEL 1
REMARK minimizedAffinity -3.27095723
REMARK minimizedRMSD -1
REMARK  0 active torsions:
REMARK  status: ('A' for Active; 'I' for Inactive)
ROOT
ATOM      1  C   UNL d   1       0.697   0.341  -0.802  0.00  0.00     0.020 A 
ATOM      2  C1  UNL d   1       0.124   0.513   0.457  0.00  0.00     0.020 A 
ATOM      3  C2  UNL d   1      -1.185   0.086   0.693  0.00  0.00     0.034 A 
ATOM      4  C3  UNL d   1      -1.924  -0.517  -0.332  0.00  0.00     0.017 A 
ATOM      5  C4  UNL d   1      -1.347  -0.690  -1.595  0.00  0.00     0.017 A 
ATOM      6  C5  UNL d   1      -0.036  -0.260  -1.826  0.00  0.00     0.034 A 
ATOM      7 Cl   UNL d   1      -2.196  -1.425  -2.909  0.00  0.00    -0.070 Cl
ATOM      8 Cl1  UNL d   1      -3.536  -1.022   0.031  0.00  0.00    -0.070 Cl
ENDROOT
TORSDOF 0
ENDMDL
