MODEL 1
REMARK minimizedAffinity -4.37630749
REMARK minimizedRMSD -1
REMARK  0 active torsions:
REMARK  status: ('A' for Active; 'I' for Inactive)
ROOT
ATOM      1  C   UNL d   1      -3.081  -0.795  -0.474  0.00  0.00     0.020 A 
ATOM      2  C1  UNL d   1      -2.457  -0.936   0.764  0.00  0.00     0.020 A 
ATOM      3  C2  UNL d   1      -1.131  -0.529   0.929  0.00  0.00     0.034 A 
ATOM      4  C3  UNL d   1      -0.424   0.020  -0.148  0.00  0.00     0.017 A 
ATOM      5  C4  UNL d   1      -1.052   0.161  -1.391  0.00  0.00     0.017 A 
ATOM      6  C5  UNL d   1      -2.380  -0.248  -1.550  0.00  0.00     0.034 A 
ATOM      7 Cl   UNL d   1      -0.245   0.829  -2.766  0.00  0.00    -0.070 Cl
ATOM      8 Cl1  UNL d   1       1.212   0.501   0.127  0.00  0.00    -0.070 Cl
ENDROOT
TORSDOF 0
ENDMDL
