MODEL 1
REMARK minimizedAffinity -4.03261948
REMARK minimizedRMSD -1
REMARK  0 active torsions:
REMARK  status: ('A' for Active; 'I' for Inactive)
ROOT
ATOM      1  C   UNL d   1      -1.866  -1.138   1.148  0.00  0.00     0.020 A 
ATOM      2  C1  UNL d   1      -2.471  -1.128  -0.108  0.00  0.00     0.020 A 
ATOM      3  C2  UNL d   1      -1.772  -0.642  -1.215  0.00  0.00     0.034 A 
ATOM      4  C3  UNL d   1      -0.466  -0.163  -1.068  0.00  0.00     0.017 A 
ATOM      5  C4  UNL d   1       0.141  -0.173   0.193  0.00  0.00     0.017 A 
ATOM      6  C5  UNL d   1      -0.563  -0.661   1.298  0.00  0.00     0.034 A 
ATOM      7 Cl   UNL d   1       1.750   0.402   0.453  0.00  0.00    -0.070 Cl
ATOM      8 Cl1  UNL d   1       0.339   0.424  -2.481  0.00  0.00    -0.070 Cl
ENDROOT
TORSDOF 0
ENDMDL
