MODEL 1
REMARK minimizedAffinity -2.5432694
REMARK minimizedRMSD -1
REMARK  0 active torsions:
REMARK  status: ('A' for Active; 'I' for Inactive)
ROOT
ATOM      1  C   UNL d   1       0.988  -0.020  -0.431  0.00  0.00     0.020 A 
ATOM      2  C1  UNL d   1       0.292   0.481   0.668  0.00  0.00     0.020 A 
ATOM      3  C2  UNL d   1      -1.097   0.355   0.732  0.00  0.00     0.034 A 
ATOM      4  C3  UNL d   1      -1.795  -0.274  -0.306  0.00  0.00     0.017 A 
ATOM      5  C4  UNL d   1      -1.095  -0.777  -1.409  0.00  0.00     0.017 A 
ATOM      6  C5  UNL d   1       0.296  -0.647  -1.467  0.00  0.00     0.034 A 
ATOM      7 Cl   UNL d   1      -1.887  -1.565  -2.728  0.00  0.00    -0.070 Cl
ATOM      8 Cl1  UNL d   1      -3.512  -0.396  -0.161  0.00  0.00    -0.070 Cl
ENDROOT
TORSDOF 0
ENDMDL
