MODEL 1
REMARK minimizedAffinity 5.99321556
REMARK minimizedRMSD -1
REMARK  0 active torsions:
REMARK  status: ('A' for Active; 'I' for Inactive)
ROOT
ATOM      1  C2' OXE d   1      -0.392  -2.317   1.781  0.00  0.00     0.078 C 
ATOM      2  C1' OXE d   1      -2.658  -2.274   0.124  0.00  0.00     0.078 C 
ATOM      3  C1  OXE d   1      -2.263  -3.592   0.742  0.00  0.00    -0.078 A 
ATOM      4  C2  OXE d   1      -1.126  -3.613   1.514  0.00  0.00    -0.078 A 
ATOM      5  C3  OXE d   1      -0.748  -4.791   2.151  0.00  0.00     0.003 A 
ATOM      6  C4  OXE d   1      -1.427  -5.988   1.891  0.00  0.00    -0.002 A 
ATOM      7  C5  OXE d   1      -2.564  -5.996   1.076  0.00  0.00    -0.002 A 
ATOM      8  C6  OXE d   1      -3.019  -4.801   0.529  0.00  0.00     0.003 A 
ENDROOT
TORSDOF 0
ENDMDL
