MODEL 1
REMARK minimizedAffinity 6.14809704
REMARK minimizedRMSD -1
REMARK  0 active torsions:
REMARK  status: ('A' for Active; 'I' for Inactive)
ROOT
ATOM      1  C2' OXE d   1      -5.360   3.948   5.694  0.00  0.00     0.078 C 
ATOM      2  C1' OXE d   1      -4.377   3.343   3.135  0.00  0.00     0.078 C 
ATOM      3  C1  OXE d   1      -4.952   2.214   3.953  0.00  0.00    -0.078 A 
ATOM      4  C2  OXE d   1      -5.388   2.510   5.222  0.00  0.00    -0.078 A 
ATOM      5  C3  OXE d   1      -5.977   1.517   5.998  0.00  0.00     0.003 A 
ATOM      6  C4  OXE d   1      -5.990   0.188   5.558  0.00  0.00    -0.002 A 
ATOM      7  C5  OXE d   1      -5.515  -0.143   4.284  0.00  0.00    -0.002 A 
ATOM      8  C6  OXE d   1      -5.033   0.863   3.454  0.00  0.00     0.003 A 
ENDROOT
TORSDOF 0
ENDMDL
