MODEL 1
REMARK minimizedAffinity 19.7134533
REMARK minimizedRMSD -1
REMARK  0 active torsions:
REMARK  status: ('A' for Active; 'I' for Inactive)
ROOT
ATOM      1  C2' OXE d   1      -0.088   2.759   3.656  0.00  0.00     0.078 C 
ATOM      2  C1' OXE d   1      -0.238  -0.042   3.749  0.00  0.00     0.078 C 
ATOM      3  C1  OXE d   1      -1.532   0.730   3.687  0.00  0.00    -0.078 A 
ATOM      4  C2  OXE d   1      -1.451   2.101   3.689  0.00  0.00    -0.078 A 
ATOM      5  C3  OXE d   1      -2.612   2.861   3.578  0.00  0.00     0.003 A 
ATOM      6  C4  OXE d   1      -3.868   2.245   3.619  0.00  0.00    -0.002 A 
ATOM      7  C5  OXE d   1      -3.975   0.851   3.656  0.00  0.00    -0.002 A 
ATOM      8  C6  OXE d   1      -2.818   0.079   3.648  0.00  0.00     0.003 A 
ENDROOT
TORSDOF 0
ENDMDL
