MODEL 1
REMARK minimizedAffinity 15.1024599
REMARK minimizedRMSD -1
REMARK  0 active torsions:
REMARK  status: ('A' for Active; 'I' for Inactive)
ROOT
ATOM      1  C2' OXE d   1      -5.993  -5.361  -2.628  0.00  0.00     0.078 C 
ATOM      2  C1' OXE d   1      -3.633  -6.000  -1.250  0.00  0.00     0.078 C 
ATOM      3  C1  OXE d   1      -3.775  -4.598  -1.788  0.00  0.00    -0.078 A 
ATOM      4  C2  OXE d   1      -4.913  -4.308  -2.502  0.00  0.00    -0.078 A 
ATOM      5  C3  OXE d   1      -5.120  -3.015  -2.973  0.00  0.00     0.003 A 
ATOM      6  C4  OXE d   1      -4.112  -2.050  -2.861  0.00  0.00    -0.002 A 
ATOM      7  C5  OXE d   1      -2.928  -2.336  -2.173  0.00  0.00    -0.002 A 
ATOM      8  C6  OXE d   1      -2.763  -3.590  -1.595  0.00  0.00     0.003 A 
ENDROOT
TORSDOF 0
ENDMDL
