MODEL 1
REMARK minimizedAffinity 13.1951761
REMARK minimizedRMSD -1
REMARK  0 active torsions:
REMARK  status: ('A' for Active; 'I' for Inactive)
ROOT
ATOM      1  C2' OXE d   1      -4.199   0.651   3.125  0.00  0.00     0.078 C 
ATOM      2  C1' OXE d   1      -6.000  -0.025   5.170  0.00  0.00     0.078 C 
ATOM      3  C1  OXE d   1      -5.532   1.407   5.089  0.00  0.00    -0.078 A 
ATOM      4  C2  OXE d   1      -4.615   1.719   4.114  0.00  0.00    -0.078 A 
ATOM      5  C3  OXE d   1      -4.193   3.036   3.961  0.00  0.00     0.003 A 
ATOM      6  C4  OXE d   1      -4.575   4.015   4.886  0.00  0.00    -0.002 A 
ATOM      7  C5  OXE d   1      -5.477   3.710   5.910  0.00  0.00    -0.002 A 
ATOM      8  C6  OXE d   1      -5.997   2.424   6.000  0.00  0.00     0.003 A 
ENDROOT
TORSDOF 0
ENDMDL
