MODEL 1
REMARK minimizedAffinity 14.6595516
REMARK minimizedRMSD -1
REMARK  0 active torsions:
REMARK  status: ('A' for Active; 'I' for Inactive)
ROOT
ATOM      1  C2' OXE d   1      -0.450  -2.397   1.463  0.00  0.00     0.078 C 
ATOM      2  C1' OXE d   1      -2.465  -2.516  -0.488  0.00  0.00     0.078 C 
ATOM      3  C1  OXE d   1      -2.275  -3.719   0.401  0.00  0.00    -0.078 A 
ATOM      4  C2  OXE d   1      -1.256  -3.670   1.322  0.00  0.00    -0.078 A 
ATOM      5  C3  OXE d   1      -1.072  -4.732   2.203  0.00  0.00     0.003 A 
ATOM      6  C4  OXE d   1      -1.815  -5.909   2.060  0.00  0.00    -0.002 A 
ATOM      7  C5  OXE d   1      -2.832  -5.995   1.102  0.00  0.00    -0.002 A 
ATOM      8  C6  OXE d   1      -3.102  -4.896   0.295  0.00  0.00     0.003 A 
ENDROOT
TORSDOF 0
ENDMDL
