MODEL 1
REMARK minimizedAffinity 19.4971485
REMARK minimizedRMSD -1
REMARK  0 active torsions:
REMARK  status: ('A' for Active; 'I' for Inactive)
ROOT
ATOM      1  C2' OXE d   1      -3.742  -6.000  -0.956  0.00  0.00     0.078 C 
ATOM      2  C1' OXE d   1      -5.988  -5.997  -2.640  0.00  0.00     0.078 C 
ATOM      3  C1  OXE d   1      -5.020  -4.847  -2.757  0.00  0.00    -0.078 A 
ATOM      4  C2  OXE d   1      -3.948  -4.832  -1.896  0.00  0.00    -0.078 A 
ATOM      5  C3  OXE d   1      -2.996  -3.822  -1.998  0.00  0.00     0.003 A 
ATOM      6  C4  OXE d   1      -3.199  -2.741  -2.864  0.00  0.00    -0.002 A 
ATOM      7  C5  OXE d   1      -4.304  -2.716  -3.721  0.00  0.00    -0.002 A 
ATOM      8  C6  OXE d   1      -5.199  -3.780  -3.710  0.00  0.00     0.003 A 
ENDROOT
TORSDOF 0
ENDMDL
