MODEL 1
REMARK minimizedAffinity 12.5119028
REMARK minimizedRMSD -1
REMARK  0 active torsions:
REMARK  status: ('A' for Active; 'I' for Inactive)
ROOT
ATOM      1  C2' OXE d   1      -3.786   2.299   3.331  0.00  0.00     0.078 C 
ATOM      2  C1' OXE d   1      -3.838   3.600   5.818  0.00  0.00     0.078 C 
ATOM      3  C1  OXE d   1      -4.604   4.227   4.680  0.00  0.00    -0.078 A 
ATOM      4  C2  OXE d   1      -4.535   3.609   3.455  0.00  0.00    -0.078 A 
ATOM      5  C3  OXE d   1      -5.267   4.115   2.385  0.00  0.00     0.003 A 
ATOM      6  C4  OXE d   1      -5.949   5.332   2.505  0.00  0.00    -0.002 A 
ATOM      7  C5  OXE d   1      -6.000   5.999   3.734  0.00  0.00    -0.002 A 
ATOM      8  C6  OXE d   1      -5.369   5.439   4.840  0.00  0.00     0.003 A 
ENDROOT
TORSDOF 0
ENDMDL
