MODEL 1
REMARK minimizedAffinity 3.25244093
REMARK minimizedRMSD -1
REMARK  0 active torsions:
REMARK  status: ('A' for Active; 'I' for Inactive)
ROOT
ATOM      1  C2' OXE d   1       5.234  -0.648   0.306  0.00  0.00     0.078 C 
ATOM      2  C1' OXE d   1       4.506   1.571  -1.251  0.00  0.00     0.078 C 
ATOM      3  C1  OXE d   1       3.658   1.249  -0.046  0.00  0.00    -0.078 A 
ATOM      4  C2  OXE d   1       3.994   0.133   0.683  0.00  0.00    -0.078 A 
ATOM      5  C3  OXE d   1       3.279  -0.178   1.836  0.00  0.00     0.003 A 
ATOM      6  C4  OXE d   1       2.128   0.545   2.172  0.00  0.00    -0.002 A 
ATOM      7  C5  OXE d   1       1.745   1.660   1.420  0.00  0.00    -0.002 A 
ATOM      8  C6  OXE d   1       2.522   2.050   0.335  0.00  0.00     0.003 A 
ENDROOT
TORSDOF 0
ENDMDL
