MODEL 1
REMARK minimizedAffinity 12.6519642
REMARK minimizedRMSD -1
REMARK  0 active torsions:
REMARK  status: ('A' for Active; 'I' for Inactive)
ROOT
ATOM      1  C2' OXE d   1      -1.949  -2.502  -0.263  0.00  0.00     0.078 C 
ATOM      2  C1' OXE d   1      -2.258  -4.066   2.048  0.00  0.00     0.078 C 
ATOM      3  C1  OXE d   1      -1.544  -2.744   2.183  0.00  0.00    -0.078 A 
ATOM      4  C2  OXE d   1      -1.356  -2.007   1.039  0.00  0.00    -0.078 A 
ATOM      5  C3  OXE d   1      -0.752  -0.755   1.116  0.00  0.00     0.003 A 
ATOM      6  C4  OXE d   1      -0.197  -0.310   2.322  0.00  0.00    -0.002 A 
ATOM      7  C5  OXE d   1      -0.342  -1.063   3.492  0.00  0.00    -0.002 A 
ATOM      8  C6  OXE d   1      -1.048  -2.260   3.448  0.00  0.00     0.003 A 
ENDROOT
TORSDOF 0
ENDMDL
