MODEL 1
REMARK minimizedAffinity 14.2143574
REMARK minimizedRMSD -1
REMARK  0 active torsions:
REMARK  status: ('A' for Active; 'I' for Inactive)
ROOT
ATOM      1  C2' OXE d   1       1.145   0.671   2.854  0.00  0.00     0.078 C 
ATOM      2  C1' OXE d   1       1.080   3.081   1.416  0.00  0.00     0.078 C 
ATOM      3  C1  OXE d   1       1.857   1.931   0.827  0.00  0.00    -0.078 A 
ATOM      4  C2  OXE d   1       1.922   0.770   1.559  0.00  0.00    -0.078 A 
ATOM      5  C3  OXE d   1       2.580  -0.339   1.037  0.00  0.00     0.003 A 
ATOM      6  C4  OXE d   1       3.305  -0.236  -0.157  0.00  0.00    -0.002 A 
ATOM      7  C5  OXE d   1       3.285   0.949  -0.900  0.00  0.00    -0.002 A 
ATOM      8  C6  OXE d   1       2.533   2.026  -0.444  0.00  0.00     0.003 A 
ENDROOT
TORSDOF 0
ENDMDL
