MODEL 1
REMARK minimizedAffinity 13.2126942
REMARK minimizedRMSD -1
REMARK  0 active torsions:
REMARK  status: ('A' for Active; 'I' for Inactive)
ROOT
ATOM      1  C2' OXE d   1      -3.748   2.645   3.378  0.00  0.00     0.078 C 
ATOM      2  C1' OXE d   1      -5.633   4.112   1.903  0.00  0.00     0.078 C 
ATOM      3  C1  OXE d   1      -5.355   4.548   3.320  0.00  0.00    -0.078 A 
ATOM      4  C2  OXE d   1      -4.466   3.796   4.050  0.00  0.00    -0.078 A 
ATOM      5  C3  OXE d   1      -4.132   4.186   5.343  0.00  0.00     0.003 A 
ATOM      6  C4  OXE d   1      -4.808   5.245   5.961  0.00  0.00    -0.002 A 
ATOM      7  C5  OXE d   1      -5.747   6.000   5.249  0.00  0.00    -0.002 A 
ATOM      8  C6  OXE d   1      -6.000   5.691   3.917  0.00  0.00     0.003 A 
ENDROOT
TORSDOF 0
ENDMDL
