MODEL 1
REMARK minimizedAffinity 5.64677048
REMARK minimizedRMSD -1
REMARK  0 active torsions:
REMARK  status: ('A' for Active; 'I' for Inactive)
ROOT
ATOM      1  C2' OXE d   1      -5.995  -3.294  -3.526  0.00  0.00     0.078 C 
ATOM      2  C1' OXE d   1      -5.868  -5.924  -2.553  0.00  0.00     0.078 C 
ATOM      3  C1  OXE d   1      -4.585  -5.133  -2.611  0.00  0.00    -0.078 A 
ATOM      4  C2  OXE d   1      -4.649  -3.863  -3.132  0.00  0.00    -0.078 A 
ATOM      5  C3  OXE d   1      -3.505  -3.070  -3.157  0.00  0.00     0.003 A 
ATOM      6  C4  OXE d   1      -2.262  -3.608  -2.800  0.00  0.00    -0.002 A 
ATOM      7  C5  OXE d   1      -2.169  -4.912  -2.304  0.00  0.00    -0.002 A 
ATOM      8  C6  OXE d   1      -3.325  -5.672  -2.163  0.00  0.00     0.003 A 
ENDROOT
TORSDOF 0
ENDMDL
