MODEL 1
REMARK minimizedAffinity 14.2265635
REMARK minimizedRMSD -1
REMARK  0 active torsions:
REMARK  status: ('A' for Active; 'I' for Inactive)
ROOT
ATOM      1  C2' OXE d   1      -6.000  -3.319  -3.288  0.00  0.00     0.078 C 
ATOM      2  C1' OXE d   1      -5.995  -5.999  -2.455  0.00  0.00     0.078 C 
ATOM      3  C1  OXE d   1      -4.663  -5.313  -2.624  0.00  0.00    -0.078 A 
ATOM      4  C2  OXE d   1      -4.673  -4.016  -3.077  0.00  0.00    -0.078 A 
ATOM      5  C3  OXE d   1      -3.475  -3.318  -3.199  0.00  0.00     0.003 A 
ATOM      6  C4  OXE d   1      -2.251  -3.973  -3.011  0.00  0.00    -0.002 A 
ATOM      7  C5  OXE d   1      -2.217  -5.306  -2.588  0.00  0.00    -0.002 A 
ATOM      8  C6  OXE d   1      -3.412  -5.976  -2.349  0.00  0.00     0.003 A 
ENDROOT
TORSDOF 0
ENDMDL
