MODEL 1
REMARK minimizedAffinity 5.54011011
REMARK minimizedRMSD -1
REMARK  0 active torsions:
REMARK  status: ('A' for Active; 'I' for Inactive)
ROOT
ATOM      1  C2' OXE d   1      -5.537   4.655   4.314  0.00  0.00     0.078 C 
ATOM      2  C1' OXE d   1      -4.416   2.566   2.810  0.00  0.00     0.078 C 
ATOM      3  C1  OXE d   1      -4.948   3.764   2.064  0.00  0.00    -0.078 A 
ATOM      4  C2  OXE d   1      -5.537   4.761   2.804  0.00  0.00    -0.078 A 
ATOM      5  C3  OXE d   1      -5.994   5.912   2.170  0.00  0.00     0.003 A 
ATOM      6  C4  OXE d   1      -5.999   5.997   0.772  0.00  0.00    -0.002 A 
ATOM      7  C5  OXE d   1      -5.441   4.976  -0.003  0.00  0.00    -0.002 A 
ATOM      8  C6  OXE d   1      -4.873   3.874   0.628  0.00  0.00     0.003 A 
ENDROOT
TORSDOF 0
ENDMDL
