MODEL 1
REMARK minimizedAffinity 8.20008278
REMARK minimizedRMSD -1
REMARK  0 active torsions:
REMARK  status: ('A' for Active; 'I' for Inactive)
ROOT
ATOM      1  C2' OXE d   1       0.636   1.238   2.887  0.00  0.00     0.078 C 
ATOM      2  C1' OXE d   1       0.819   3.428   1.140  0.00  0.00     0.078 C 
ATOM      3  C1  OXE d   1       1.565   2.170   0.772  0.00  0.00    -0.078 A 
ATOM      4  C2  OXE d   1       1.508   1.119   1.655  0.00  0.00    -0.078 A 
ATOM      5  C3  OXE d   1       2.132  -0.084   1.338  0.00  0.00     0.003 A 
ATOM      6  C4  OXE d   1       2.945  -0.182   0.202  0.00  0.00    -0.002 A 
ATOM      7  C5  OXE d   1       3.049   0.889  -0.691  0.00  0.00    -0.002 A 
ATOM      8  C6  OXE d   1       2.333   2.055  -0.444  0.00  0.00     0.003 A 
ENDROOT
TORSDOF 0
ENDMDL
