MODEL 1
REMARK minimizedAffinity 10.0549498
REMARK minimizedRMSD -1
REMARK  0 active torsions:
REMARK  status: ('A' for Active; 'I' for Inactive)
ROOT
ATOM      1  C2' OXE d   1       2.070   4.176  -4.951  0.00  0.00     0.078 C 
ATOM      2  C1' OXE d   1       4.768   4.576  -5.615  0.00  0.00     0.078 C 
ATOM      3  C1  OXE d   1       4.448   3.541  -4.565  0.00  0.00    -0.078 A 
ATOM      4  C2  OXE d   1       3.128   3.385  -4.213  0.00  0.00    -0.078 A 
ATOM      5  C3  OXE d   1       2.772   2.406  -3.290  0.00  0.00     0.003 A 
ATOM      6  C4  OXE d   1       3.759   1.685  -2.605  0.00  0.00    -0.002 A 
ATOM      7  C5  OXE d   1       5.111   1.857  -2.920  0.00  0.00    -0.002 A 
ATOM      8  C6  OXE d   1       5.468   2.748  -3.926  0.00  0.00     0.003 A 
ENDROOT
TORSDOF 0
ENDMDL
