MODEL 1
REMARK minimizedAffinity 10.9421434
REMARK minimizedRMSD -1
REMARK  0 active torsions:
REMARK  status: ('A' for Active; 'I' for Inactive)
ROOT
ATOM      1  C2' OXE d   1       2.360   4.223  -5.226  0.00  0.00     0.078 C 
ATOM      2  C1' OXE d   1       5.051   4.424  -5.999  0.00  0.00     0.078 C 
ATOM      3  C1  OXE d   1       4.714   3.492  -4.862  0.00  0.00    -0.078 A 
ATOM      4  C2  OXE d   1       3.401   3.436  -4.460  0.00  0.00    -0.078 A 
ATOM      5  C3  OXE d   1       3.026   2.552  -3.451  0.00  0.00     0.003 A 
ATOM      6  C4  OXE d   1       3.997   1.835  -2.741  0.00  0.00    -0.002 A 
ATOM      7  C5  OXE d   1       5.344   1.908  -3.108  0.00  0.00    -0.002 A 
ATOM      8  C6  OXE d   1       5.713   2.698  -4.192  0.00  0.00     0.003 A 
ENDROOT
TORSDOF 0
ENDMDL
