MODEL 1
REMARK minimizedAffinity 6.29401016
REMARK minimizedRMSD -1
REMARK  0 active torsions:
REMARK  status: ('A' for Active; 'I' for Inactive)
ROOT
ATOM      1  C1  DEN d   1       3.419  -0.394   2.493  0.00  0.00     0.130 A 
ATOM      2  C2  DEN d   1       2.297   0.024   1.658  0.00  0.00    -0.031 A 
ATOM      3  C3  DEN d   1       1.232  -0.992   1.782  0.00  0.00     0.027 A 
ATOM      4  C4  DEN d   1       1.211  -3.158   3.182  0.00  0.00     0.027 A 
ATOM      5  C5  DEN d   1       1.943  -3.944   4.045  0.00  0.00    -0.003 A 
ATOM      6  C6  DEN d   1       3.220  -3.622   4.421  0.00  0.00     0.001 A 
ATOM      7  C7  DEN d   1       3.789  -2.461   3.968  0.00  0.00     0.017 A 
ATOM      8  C8  DEN d   1       3.060  -1.667   3.092  0.00  0.00    -0.094 A 
ATOM      9  C9  DEN d   1       1.766  -2.003   2.734  0.00  0.00    -0.072 A 
ENDROOT
TORSDOF 0
ENDMDL
