MODEL 1
REMARK minimizedAffinity 2.94331264
REMARK minimizedRMSD -1
REMARK  0 active torsions:
REMARK  status: ('A' for Active; 'I' for Inactive)
ROOT
ATOM      1  C1  DEN d   1       1.047  -3.339   3.025  0.00  0.00     0.130 A 
ATOM      2  C2  DEN d   1       0.714  -1.917   3.032  0.00  0.00    -0.031 A 
ATOM      3  C3  DEN d   1       0.357  -1.526   1.653  0.00  0.00     0.027 A 
ATOM      4  C4  DEN d   1       0.283  -2.976  -0.478  0.00  0.00     0.027 A 
ATOM      5  C5  DEN d   1       0.494  -4.239  -0.984  0.00  0.00    -0.003 A 
ATOM      6  C6  DEN d   1       0.934  -5.275  -0.202  0.00  0.00     0.001 A 
ATOM      7  C7  DEN d   1       1.133  -5.076   1.138  0.00  0.00     0.017 A 
ATOM      8  C8  DEN d   1       0.929  -3.803   1.654  0.00  0.00    -0.094 A 
ATOM      9  C9  DEN d   1       0.473  -2.772   0.850  0.00  0.00    -0.072 A 
ENDROOT
TORSDOF 0
ENDMDL
