MODEL 1
REMARK minimizedAffinity -1.60661042
REMARK minimizedRMSD -1
REMARK  0 active torsions:
REMARK  status: ('A' for Active; 'I' for Inactive)
ROOT
ATOM      1  C1  DEN d   1       0.281   0.567   0.001  0.00  0.00     0.130 A 
ATOM      2  C2  DEN d   1       0.968   1.832  -0.244  0.00  0.00    -0.031 A 
ATOM      3  C3  DEN d   1       2.007   1.995   0.793  0.00  0.00     0.027 A 
ATOM      4  C4  DEN d   1       2.619   0.417   2.739  0.00  0.00     0.027 A 
ATOM      5  C5  DEN d   1       2.306  -0.771   3.362  0.00  0.00    -0.003 A 
ATOM      6  C6  DEN d   1       1.283  -1.574   2.931  0.00  0.00     0.001 A 
ATOM      7  C7  DEN d   1       0.564  -1.220   1.820  0.00  0.00     0.017 A 
ATOM      8  C8  DEN d   1       0.868  -0.020   1.192  0.00  0.00    -0.094 A 
ATOM      9  C9  DEN d   1       1.914   0.772   1.635  0.00  0.00    -0.072 A 
ENDROOT
TORSDOF 0
ENDMDL
