MODEL 1
REMARK minimizedAffinity 5.77146721
REMARK minimizedRMSD -1
REMARK  0 active torsions:
REMARK  status: ('A' for Active; 'I' for Inactive)
ROOT
ATOM      1  C1  DEN d   1      -0.407  -1.201   1.093  0.00  0.00     0.130 A 
ATOM      2  C2  DEN d   1       0.349  -1.929   2.109  0.00  0.00    -0.031 A 
ATOM      3  C3  DEN d   1       1.557  -1.142   2.428  0.00  0.00     0.027 A 
ATOM      4  C4  DEN d   1       2.324   1.121   1.459  0.00  0.00     0.027 A 
ATOM      5  C5  DEN d   1       2.017   2.120   0.561  0.00  0.00    -0.003 A 
ATOM      6  C6  DEN d   1       0.907   2.065  -0.240  0.00  0.00     0.001 A 
ATOM      7  C7  DEN d   1       0.039   1.011  -0.127  0.00  0.00     0.017 A 
ATOM      8  C8  DEN d   1       0.346  -0.003   0.770  0.00  0.00    -0.094 A 
ATOM      9  C9  DEN d   1       1.467   0.077   1.580  0.00  0.00    -0.072 A 
ENDROOT
TORSDOF 0
ENDMDL
