MODEL 1
REMARK minimizedAffinity 2.42762232
REMARK minimizedRMSD -1
REMARK  0 active torsions:
REMARK  status: ('A' for Active; 'I' for Inactive)
ROOT
ATOM      1  C1  DEN d   1       2.663   0.775   3.899  0.00  0.00     0.130 A 
ATOM      2  C2  DEN d   1       2.403   1.441   2.626  0.00  0.00    -0.031 A 
ATOM      3  C3  DEN d   1       1.646   0.507   1.769  0.00  0.00     0.027 A 
ATOM      4  C4  DEN d   1       0.851  -1.891   2.288  0.00  0.00     0.027 A 
ATOM      5  C5  DEN d   1       0.844  -2.891   3.236  0.00  0.00    -0.003 A 
ATOM      6  C6  DEN d   1       1.468  -2.753   4.447  0.00  0.00     0.001 A 
ATOM      7  C7  DEN d   1       2.086  -1.572   4.762  0.00  0.00     0.017 A 
ATOM      8  C8  DEN d   1       2.103  -0.561   3.809  0.00  0.00    -0.094 A 
ATOM      9  C9  DEN d   1       1.456  -0.716   2.595  0.00  0.00    -0.072 A 
ENDROOT
TORSDOF 0
ENDMDL
