MODEL 1
REMARK minimizedAffinity 1.81360269
REMARK minimizedRMSD -1
REMARK  0 active torsions:
REMARK  status: ('A' for Active; 'I' for Inactive)
ROOT
ATOM      1  C1  DEN d   1       2.299  -1.352   3.858  0.00  0.00     0.130 A 
ATOM      2  C2  DEN d   1       1.399  -2.497   3.972  0.00  0.00    -0.031 A 
ATOM      3  C3  DEN d   1       0.517  -2.503   2.788  0.00  0.00     0.027 A 
ATOM      4  C4  DEN d   1       0.460  -0.863   0.798  0.00  0.00     0.027 A 
ATOM      5  C5  DEN d   1       1.025   0.274   0.264  0.00  0.00    -0.003 A 
ATOM      6  C6  DEN d   1       2.023   0.962   0.901  0.00  0.00     0.001 A 
ATOM      7  C7  DEN d   1       2.518   0.494   2.090  0.00  0.00     0.017 A 
ATOM      8  C8  DEN d   1       1.948  -0.647   2.638  0.00  0.00    -0.094 A 
ATOM      9  C9  DEN d   1       0.948  -1.336   1.972  0.00  0.00    -0.072 A 
ENDROOT
TORSDOF 0
ENDMDL
