MODEL 1
REMARK minimizedAffinity 1.2641896
REMARK minimizedRMSD -1
REMARK  0 active torsions:
REMARK  status: ('A' for Active; 'I' for Inactive)
ROOT
ATOM      1  C1  BNZ d   1      -4.291  -4.806  -5.995  0.00  0.00     0.000 A 
ATOM      2  C2  BNZ d   1      -3.165  -5.585  -6.000  0.00  0.00     0.000 A 
ATOM      3  C3  BNZ d   1      -1.922  -5.018  -5.979  0.00  0.00     0.000 A 
ATOM      4  C4  BNZ d   1      -1.806  -3.674  -5.995  0.00  0.00     0.000 A 
ATOM      5  C5  BNZ d   1      -2.932  -2.875  -6.000  0.00  0.00     0.000 A 
ATOM      6  C6  BNZ d   1      -4.182  -3.450  -5.981  0.00  0.00     0.000 A 
ENDROOT
TORSDOF 0
ENDMDL
