MODEL 1
REMARK minimizedAffinity -1.03883231
REMARK minimizedRMSD -1
REMARK  0 active torsions:
REMARK  status: ('A' for Active; 'I' for Inactive)
ROOT
ATOM      1  C1  BNZ d   1      -0.468   0.999   3.182  0.00  0.00     0.000 A 
ATOM      2  C2  BNZ d   1      -1.447   0.167   2.709  0.00  0.00     0.000 A 
ATOM      3  C3  BNZ d   1      -2.677   0.655   2.370  0.00  0.00     0.000 A 
ATOM      4  C4  BNZ d   1      -2.940   1.967   2.542  0.00  0.00     0.000 A 
ATOM      5  C5  BNZ d   1      -1.967   2.818   3.026  0.00  0.00     0.000 A 
ATOM      6  C6  BNZ d   1      -0.717   2.329   3.330  0.00  0.00     0.000 A 
ENDROOT
TORSDOF 0
ENDMDL
