MODEL 1
REMARK minimizedAffinity 1.38624668
REMARK minimizedRMSD -1
REMARK  0 active torsions:
REMARK  status: ('A' for Active; 'I' for Inactive)
ROOT
ATOM      1  C1  BNZ d   1      -4.784  -3.716  -5.986  0.00  0.00     0.000 A 
ATOM      2  C2  BNZ d   1      -4.437  -5.041  -5.996  0.00  0.00     0.000 A 
ATOM      3  C3  BNZ d   1      -3.124  -5.421  -5.982  0.00  0.00     0.000 A 
ATOM      4  C4  BNZ d   1      -2.161  -4.477  -6.000  0.00  0.00     0.000 A 
ATOM      5  C5  BNZ d   1      -2.494  -3.138  -6.000  0.00  0.00     0.000 A 
ATOM      6  C6  BNZ d   1      -3.817  -2.759  -5.974  0.00  0.00     0.000 A 
ENDROOT
TORSDOF 0
ENDMDL
