MODEL 1
REMARK minimizedAffinity -3.31880713
REMARK minimizedRMSD -1
REMARK  0 active torsions:
REMARK  status: ('A' for Active; 'I' for Inactive)
ROOT
ATOM      1  C1  BNZ d   1      -1.610   1.666   2.253  0.00  0.00     0.000 A 
ATOM      2  C2  BNZ d   1      -0.386   1.449   2.829  0.00  0.00     0.000 A 
ATOM      3  C3  BNZ d   1       0.175   0.203   2.830  0.00  0.00     0.000 A 
ATOM      4  C4  BNZ d   1      -0.504  -0.831   2.292  0.00  0.00     0.000 A 
ATOM      5  C5  BNZ d   1      -1.742  -0.630   1.717  0.00  0.00     0.000 A 
ATOM      6  C6  BNZ d   1      -2.287   0.633   1.682  0.00  0.00     0.000 A 
ENDROOT
TORSDOF 0
ENDMDL
