MODEL 1
REMARK minimizedAffinity 6.77672195
REMARK minimizedRMSD -1
REMARK  0 active torsions:
REMARK  status: ('A' for Active; 'I' for Inactive)
ROOT
ATOM      1  C1  BNZ d   1      -4.167   0.450   0.020  0.00  0.00     0.000 A 
ATOM      2  C2  BNZ d   1      -3.267   1.208   0.721  0.00  0.00     0.000 A 
ATOM      3  C3  BNZ d   1      -2.277   0.617   1.457  0.00  0.00     0.000 A 
ATOM      4  C4  BNZ d   1      -2.214  -0.728   1.524  0.00  0.00     0.000 A 
ATOM      5  C5  BNZ d   1      -3.120  -1.506   0.831  0.00  0.00     0.000 A 
ATOM      6  C6  BNZ d   1      -4.090  -0.908   0.060  0.00  0.00     0.000 A 
ENDROOT
TORSDOF 0
ENDMDL
