MODEL 1
REMARK minimizedAffinity 2.54602933
REMARK minimizedRMSD -1
REMARK  0 active torsions:
REMARK  status: ('A' for Active; 'I' for Inactive)
ROOT
ATOM      1  C1  BNZ d   1      -4.509   0.613   2.950  0.00  0.00     0.000 A 
ATOM      2  C2  BNZ d   1      -3.226   0.512   3.417  0.00  0.00     0.000 A 
ATOM      3  C3  BNZ d   1      -2.168   0.465   2.553  0.00  0.00     0.000 A 
ATOM      4  C4  BNZ d   1      -2.396   0.477   1.224  0.00  0.00     0.000 A 
ATOM      5  C5  BNZ d   1      -3.685   0.569   0.737  0.00  0.00     0.000 A 
ATOM      6  C6  BNZ d   1      -4.745   0.657   1.610  0.00  0.00     0.000 A 
ENDROOT
TORSDOF 0
ENDMDL
