MODEL 1
REMARK minimizedAffinity -0.0335101113
REMARK minimizedRMSD -1
REMARK  0 active torsions:
REMARK  status: ('A' for Active; 'I' for Inactive)
ROOT
ATOM      1  C1  BNZ d   1      -1.761   0.158   3.352  0.00  0.00     0.000 A 
ATOM      2  C2  BNZ d   1      -3.123   0.113   3.492  0.00  0.00     0.000 A 
ATOM      3  C3  BNZ d   1      -3.942   0.274   2.410  0.00  0.00     0.000 A 
ATOM      4  C4  BNZ d   1      -3.402   0.519   1.199  0.00  0.00     0.000 A 
ATOM      5  C5  BNZ d   1      -2.031   0.576   1.044  0.00  0.00     0.000 A 
ATOM      6  C6  BNZ d   1      -1.208   0.375   2.128  0.00  0.00     0.000 A 
ENDROOT
TORSDOF 0
ENDMDL
