MODEL 1
REMARK minimizedAffinity 0.63638097
REMARK minimizedRMSD -1
REMARK  0 active torsions:
REMARK  status: ('A' for Active; 'I' for Inactive)
ROOT
ATOM      1  C1  BNZ d   1       3.633  -5.995   3.284  0.00  0.00     0.000 A 
ATOM      2  C2  BNZ d   1       4.910  -5.985   3.778  0.00  0.00     0.000 A 
ATOM      3  C3  BNZ d   1       5.986  -5.957   2.936  0.00  0.00     0.000 A 
ATOM      4  C4  BNZ d   1       5.786  -5.979   1.603  0.00  0.00     0.000 A 
ATOM      5  C5  BNZ d   1       4.505  -5.999   1.089  0.00  0.00     0.000 A 
ATOM      6  C6  BNZ d   1       3.423  -5.988   1.939  0.00  0.00     0.000 A 
ENDROOT
TORSDOF 0
ENDMDL
