MODEL 1
REMARK minimizedAffinity -1.01320517
REMARK minimizedRMSD -1
REMARK  0 active torsions:
REMARK  status: ('A' for Active; 'I' for Inactive)
ROOT
ATOM      1  C1  BNZ d   1       4.149  -0.080  -0.038  0.00  0.00     0.000 A 
ATOM      2  C2  BNZ d   1       2.906   0.309  -0.461  0.00  0.00     0.000 A 
ATOM      3  C3  BNZ d   1       1.937   0.657   0.439  0.00  0.00     0.000 A 
ATOM      4  C4  BNZ d   1       2.200   0.576   1.759  0.00  0.00     0.000 A 
ATOM      5  C5  BNZ d   1       3.445   0.177   2.202  0.00  0.00     0.000 A 
ATOM      6  C6  BNZ d   1       4.429  -0.135   1.292  0.00  0.00     0.000 A 
ENDROOT
TORSDOF 0
ENDMDL
