MODEL 1
REMARK minimizedAffinity 2.96635985
REMARK minimizedRMSD -1
REMARK  0 active torsions:
REMARK  status: ('A' for Active; 'I' for Inactive)
ROOT
ATOM      1  C1  BNZ d   1      -3.778   1.095   1.961  0.00  0.00     0.000 A 
ATOM      2  C2  BNZ d   1      -2.514   1.405   2.389  0.00  0.00     0.000 A 
ATOM      3  C3  BNZ d   1      -1.418   0.832   1.807  0.00  0.00     0.000 A 
ATOM      4  C4  BNZ d   1      -1.588  -0.079   0.827  0.00  0.00     0.000 A 
ATOM      5  C5  BNZ d   1      -2.856  -0.410   0.391  0.00  0.00     0.000 A 
ATOM      6  C6  BNZ d   1      -3.955   0.198   0.953  0.00  0.00     0.000 A 
ENDROOT
TORSDOF 0
ENDMDL
