MODEL 1
REMARK minimizedAffinity 2.74133587
REMARK minimizedRMSD -1
REMARK  0 active torsions:
REMARK  status: ('A' for Active; 'I' for Inactive)
ROOT
ATOM      1  C1  BNZ d   1      -1.454   1.751   3.245  0.00  0.00     0.000 A 
ATOM      2  C2  BNZ d   1      -2.726   1.898   2.761  0.00  0.00     0.000 A 
ATOM      3  C3  BNZ d   1      -3.183   1.108   1.743  0.00  0.00     0.000 A 
ATOM      4  C4  BNZ d   1      -2.356   0.201   1.185  0.00  0.00     0.000 A 
ATOM      5  C5  BNZ d   1      -1.067   0.047   1.656  0.00  0.00     0.000 A 
ATOM      6  C6  BNZ d   1      -0.623   0.817   2.707  0.00  0.00     0.000 A 
ENDROOT
TORSDOF 0
ENDMDL
