MODEL 1
REMARK minimizedAffinity -0.881885588
REMARK minimizedRMSD -1
REMARK  0 active torsions:
REMARK  status: ('A' for Active; 'I' for Inactive)
ROOT
ATOM      1  C1  BNZ d   1       3.588  -6.000   3.298  0.00  0.00     0.000 A 
ATOM      2  C2  BNZ d   1       4.760  -5.979   4.006  0.00  0.00     0.000 A 
ATOM      3  C3  BNZ d   1       5.966  -5.943   3.364  0.00  0.00     0.000 A 
ATOM      4  C4  BNZ d   1       6.000  -5.969   2.016  0.00  0.00     0.000 A 
ATOM      5  C5  BNZ d   1       4.827  -6.000   1.287  0.00  0.00     0.000 A 
ATOM      6  C6  BNZ d   1       3.614  -5.996   1.937  0.00  0.00     0.000 A 
ENDROOT
TORSDOF 0
ENDMDL
