MODEL 1
REMARK minimizedAffinity -5.47930717
REMARK minimizedRMSD -1
REMARK  2 active torsions:
REMARK  status: ('A' for Active; 'I' for Inactive)
REMARK    1  A    between atoms: C1_2  and  C2_3 
REMARK    2  A    between atoms: C2_3  and  C3_4 
ROOT
ATOM      1  C3  UNL d   1       0.385  -1.283  -0.693  0.00  0.00    -0.075 A 
ATOM      2  C4  UNL d   1      -0.371  -1.646   0.432  0.00  0.00     0.002 A 
ATOM      3  C5  UNL d   1      -1.060  -0.679   1.165  0.00  0.00     0.002 A 
ATOM      4  C6  UNL d   1      -0.994   0.661   0.790  0.00  0.00    -0.004 A 
ATOM      5  C7  UNL d   1      -0.233   1.035  -0.316  0.00  0.00     0.002 A 
ATOM      6  C8  UNL d   1       0.453   0.069  -1.053  0.00  0.00     0.002 A 
ENDROOT
BRANCH   1   7
ATOM      7  C2  UNL d   1       1.109  -2.328  -1.507  0.00  0.00     0.056 C 
BRANCH   7   8
ATOM      8  C1  UNL d   1       0.589  -2.471  -2.942  0.00  0.00     0.007 C 
ATOM      9  C   UNL d   1      -0.707  -3.266  -3.035  0.00  0.00     0.009 C 
ENDBRANCH   7   8
ENDBRANCH   1   7
TORSDOF 2
ENDMDL
