MODEL 1
REMARK minimizedAffinity -1.3119967
REMARK minimizedRMSD -1
REMARK  2 active torsions:
REMARK  status: ('A' for Active; 'I' for Inactive)
REMARK    1  A    between atoms: C1_2  and  C2_3 
REMARK    2  A    between atoms: C2_3  and  C3_4 
ROOT
ATOM      1  C3  UNL d   1      -0.035  -0.217   0.136  0.00  0.00    -0.075 A 
ATOM      2  C4  UNL d   1       0.378  -1.013   1.214  0.00  0.00     0.002 A 
ATOM      3  C5  UNL d   1      -0.037  -0.716   2.513  0.00  0.00     0.002 A 
ATOM      4  C6  UNL d   1      -0.859   0.384   2.751  0.00  0.00    -0.004 A 
ATOM      5  C7  UNL d   1      -1.262   1.190   1.689  0.00  0.00     0.002 A 
ATOM      6  C8  UNL d   1      -0.852   0.893   0.388  0.00  0.00     0.002 A 
ENDROOT
BRANCH   1   7
ATOM      7  C2  UNL d   1       0.386  -0.550  -1.276  0.00  0.00     0.056 C 
BRANCH   7   8
ATOM      8  C1  UNL d   1       0.825  -2.006  -1.469  0.00  0.00     0.007 C 
ATOM      9  C   UNL d   1       0.449  -2.571  -2.832  0.00  0.00     0.009 C 
ENDBRANCH   7   8
ENDBRANCH   1   7
TORSDOF 2
ENDMDL
