MODEL 1
REMARK minimizedAffinity -4.6576786
REMARK minimizedRMSD -1
REMARK  2 active torsions:
REMARK  status: ('A' for Active; 'I' for Inactive)
REMARK    1  A    between atoms: C1_2  and  C2_3 
REMARK    2  A    between atoms: C2_3  and  C3_4 
ROOT
ATOM      1  C3  UNL d   1      -0.520   0.437   1.007  0.00  0.00    -0.075 A 
ATOM      2  C4  UNL d   1       0.131  -0.774   1.284  0.00  0.00     0.002 A 
ATOM      3  C5  UNL d   1       1.019  -1.329   0.362  0.00  0.00     0.002 A 
ATOM      4  C6  UNL d   1       1.259  -0.688  -0.851  0.00  0.00    -0.004 A 
ATOM      5  C7  UNL d   1       0.606   0.507  -1.144  0.00  0.00     0.002 A 
ATOM      6  C8  UNL d   1      -0.280   1.067  -0.222  0.00  0.00     0.002 A 
ENDROOT
BRANCH   1   7
ATOM      7  C2  UNL d   1      -1.459   1.058   2.013  0.00  0.00     0.056 C 
BRANCH   7   8
ATOM      8  C1  UNL d   1      -2.607   1.855   1.385  0.00  0.00     0.007 C 
ATOM      9  C   UNL d   1      -3.636   0.976   0.685  0.00  0.00     0.009 C 
ENDBRANCH   7   8
ENDBRANCH   1   7
TORSDOF 2
ENDMDL
