MODEL 1
REMARK minimizedAffinity -1.13168633
REMARK minimizedRMSD -1
REMARK  2 active torsions:
REMARK  status: ('A' for Active; 'I' for Inactive)
REMARK    1  A    between atoms: C1_2  and  C2_3 
REMARK    2  A    between atoms: C2_3  and  C3_4 
ROOT
ATOM      1  C3  UNL d   1      -1.348   1.241   0.177  0.00  0.00    -0.075 A 
ATOM      2  C4  UNL d   1      -1.287   1.648   1.518  0.00  0.00     0.002 A 
ATOM      3  C5  UNL d   1      -0.813   0.779   2.501  0.00  0.00     0.002 A 
ATOM      4  C6  UNL d   1      -0.405  -0.508   2.160  0.00  0.00    -0.004 A 
ATOM      5  C7  UNL d   1      -0.477  -0.929   0.834  0.00  0.00     0.002 A 
ATOM      6  C8  UNL d   1      -0.946  -0.061  -0.153  0.00  0.00     0.002 A 
ENDROOT
BRANCH   1   7
ATOM      7  C2  UNL d   1      -1.832   2.186  -0.896  0.00  0.00     0.056 C 
BRANCH   7   8
ATOM      8  C1  UNL d   1      -0.706   2.912  -1.642  0.00  0.00     0.007 C 
ATOM      9  C   UNL d   1       0.659   2.267  -1.443  0.00  0.00     0.009 C 
ENDBRANCH   7   8
ENDBRANCH   1   7
TORSDOF 2
ENDMDL
