MODEL 1
REMARK minimizedAffinity -5.09140491
REMARK minimizedRMSD -1
REMARK  2 active torsions:
REMARK  status: ('A' for Active; 'I' for Inactive)
REMARK    1  A    between atoms: C1_2  and  C2_3 
REMARK    2  A    between atoms: C2_3  and  C3_4 
ROOT
ATOM      1  C3  UNL d   1       0.076  -0.914  -0.037  0.00  0.00    -0.075 A 
ATOM      2  C4  UNL d   1      -0.287  -2.142  -0.608  0.00  0.00     0.002 A 
ATOM      3  C5  UNL d   1       0.468  -2.691  -1.645  0.00  0.00     0.002 A 
ATOM      4  C6  UNL d   1       1.587  -2.017  -2.129  0.00  0.00    -0.004 A 
ATOM      5  C7  UNL d   1       1.947  -0.789  -1.580  0.00  0.00     0.002 A 
ATOM      6  C8  UNL d   1       1.196  -0.238  -0.540  0.00  0.00     0.002 A 
ENDROOT
BRANCH   1   7
ATOM      7  C2  UNL d   1      -0.719  -0.327   1.105  0.00  0.00     0.056 C 
BRANCH   7   8
ATOM      8  C1  UNL d   1      -1.746   0.726   0.674  0.00  0.00     0.007 C 
ATOM      9  C   UNL d   1      -1.766   1.950   1.579  0.00  0.00     0.009 C 
ENDBRANCH   7   8
ENDBRANCH   1   7
TORSDOF 2
ENDMDL
