MODEL 1
REMARK minimizedAffinity -3.24956727
REMARK minimizedRMSD -1
REMARK  2 active torsions:
REMARK  status: ('A' for Active; 'I' for Inactive)
REMARK    1  A    between atoms: C1_2  and  C2_3 
REMARK    2  A    between atoms: C2_3  and  C3_4 
ROOT
ATOM      1  C3  UNL d   1      -1.408   1.333   1.570  0.00  0.00    -0.075 A 
ATOM      2  C4  UNL d   1      -1.082   0.302   2.463  0.00  0.00     0.002 A 
ATOM      3  C5  UNL d   1       0.023  -0.516   2.227  0.00  0.00     0.002 A 
ATOM      4  C6  UNL d   1       0.808  -0.322   1.092  0.00  0.00    -0.004 A 
ATOM      5  C7  UNL d   1       0.483   0.688   0.189  0.00  0.00     0.002 A 
ATOM      6  C8  UNL d   1      -0.620   1.511   0.426  0.00  0.00     0.002 A 
ENDROOT
BRANCH   1   7
ATOM      7  C2  UNL d   1      -2.586   2.241   1.835  0.00  0.00     0.056 C 
BRANCH   7   8
ATOM      8  C1  UNL d   1      -2.464   3.624   1.188  0.00  0.00     0.007 C 
ATOM      9  C   UNL d   1      -3.331   4.680   1.862  0.00  0.00     0.009 C 
ENDBRANCH   7   8
ENDBRANCH   1   7
TORSDOF 2
ENDMDL
