MODEL 1
REMARK minimizedAffinity -5.77100325
REMARK minimizedRMSD -1
REMARK  2 active torsions:
REMARK  status: ('A' for Active; 'I' for Inactive)
REMARK    1  A    between atoms: C1_2  and  C2_3 
REMARK    2  A    between atoms: C2_3  and  C3_4 
ROOT
ATOM      1  C3  UNL d   1      -0.372   0.984   0.449  0.00  0.00    -0.075 A 
ATOM      2  C4  UNL d   1       0.147   1.841  -0.533  0.00  0.00     0.002 A 
ATOM      3  C5  UNL d   1      -0.195   3.194  -0.546  0.00  0.00     0.002 A 
ATOM      4  C6  UNL d   1      -1.067   3.704   0.413  0.00  0.00    -0.004 A 
ATOM      5  C7  UNL d   1      -1.602   2.859   1.383  0.00  0.00     0.002 A 
ATOM      6  C8  UNL d   1      -1.258   1.506   1.401  0.00  0.00     0.002 A 
ENDROOT
BRANCH   1   7
ATOM      7  C2  UNL d   1       0.017  -0.474   0.486  0.00  0.00     0.056 C 
BRANCH   7   8
ATOM      8  C1  UNL d   1       0.634  -0.988  -0.819  0.00  0.00     0.007 C 
ATOM      9  C   UNL d   1       0.495  -2.495  -0.996  0.00  0.00     0.009 C 
ENDBRANCH   7   8
ENDBRANCH   1   7
TORSDOF 2
ENDMDL
