MODEL 1
REMARK minimizedAffinity -5.33506298
REMARK minimizedRMSD -1
REMARK  2 active torsions:
REMARK  status: ('A' for Active; 'I' for Inactive)
REMARK    1  A    between atoms: C1_2  and  C2_3 
REMARK    2  A    between atoms: C2_3  and  C3_4 
ROOT
ATOM      1  C3  UNL d   1      -1.191   2.000   0.824  0.00  0.00    -0.075 A 
ATOM      2  C4  UNL d   1      -1.971   1.493   1.874  0.00  0.00     0.002 A 
ATOM      3  C5  UNL d   1      -1.963   0.129   2.167  0.00  0.00     0.002 A 
ATOM      4  C6  UNL d   1      -1.185  -0.745   1.410  0.00  0.00    -0.004 A 
ATOM      5  C7  UNL d   1      -0.420  -0.254   0.354  0.00  0.00     0.002 A 
ATOM      6  C8  UNL d   1      -0.423   1.111   0.061  0.00  0.00     0.002 A 
ENDROOT
BRANCH   1   7
ATOM      7  C2  UNL d   1      -1.173   3.479   0.521  0.00  0.00     0.056 C 
BRANCH   7   8
ATOM      8  C1  UNL d   1       0.021   3.927  -0.330  0.00  0.00     0.007 C 
ATOM      9  C   UNL d   1      -0.343   4.188  -1.785  0.00  0.00     0.009 C 
ENDBRANCH   7   8
ENDBRANCH   1   7
TORSDOF 2
ENDMDL
