MODEL 1
REMARK minimizedAffinity -5.12864542
REMARK minimizedRMSD -1
REMARK  2 active torsions:
REMARK  status: ('A' for Active; 'I' for Inactive)
REMARK    1  A    between atoms: C1_2  and  C2_3 
REMARK    2  A    between atoms: C2_3  and  C3_4 
ROOT
ATOM      1  C3  UNL d   1      -0.522   0.105   0.496  0.00  0.00    -0.075 A 
ATOM      2  C4  UNL d   1       0.018   1.269   1.061  0.00  0.00     0.002 A 
ATOM      3  C5  UNL d   1      -0.808   2.341   1.399  0.00  0.00     0.002 A 
ATOM      4  C6  UNL d   1      -2.180   2.267   1.169  0.00  0.00    -0.004 A 
ATOM      5  C7  UNL d   1      -2.725   1.122   0.593  0.00  0.00     0.002 A 
ATOM      6  C8  UNL d   1      -1.902   0.046   0.258  0.00  0.00     0.002 A 
ENDROOT
BRANCH   1   7
ATOM      7  C2  UNL d   1       0.363  -1.071   0.155  0.00  0.00     0.056 C 
BRANCH   7   8
ATOM      8  C1  UNL d   1       0.611  -1.249  -1.346  0.00  0.00     0.007 C 
ATOM      9  C   UNL d   1       0.821  -2.702  -1.752  0.00  0.00     0.009 C 
ENDBRANCH   7   8
ENDBRANCH   1   7
TORSDOF 2
ENDMDL
