MODEL 1
REMARK minimizedAffinity -5.38032007
REMARK minimizedRMSD -1
REMARK  2 active torsions:
REMARK  status: ('A' for Active; 'I' for Inactive)
REMARK    1  A    between atoms: C1_2  and  C2_3 
REMARK    2  A    between atoms: C2_3  and  C3_4 
ROOT
ATOM      1  C3  UNL d   1       0.147   0.469   0.122  0.00  0.00    -0.075 A 
ATOM      2  C4  UNL d   1      -0.350   0.325   1.425  0.00  0.00     0.002 A 
ATOM      3  C5  UNL d   1      -0.969   1.396   2.070  0.00  0.00     0.002 A 
ATOM      4  C6  UNL d   1      -1.089   2.626   1.426  0.00  0.00    -0.004 A 
ATOM      5  C7  UNL d   1      -0.583   2.785   0.138  0.00  0.00     0.002 A 
ATOM      6  C8  UNL d   1       0.032   1.714  -0.512  0.00  0.00     0.002 A 
ENDROOT
BRANCH   1   7
ATOM      7  C2  UNL d   1       0.791  -0.694  -0.593  0.00  0.00     0.056 C 
BRANCH   7   8
ATOM      8  C1  UNL d   1      -0.208  -1.700  -1.174  0.00  0.00     0.007 C 
ATOM      9  C   UNL d   1       0.445  -2.751  -2.062  0.00  0.00     0.009 C 
ENDBRANCH   7   8
ENDBRANCH   1   7
TORSDOF 2
ENDMDL
