MODEL 1
REMARK minimizedAffinity -5.33971977
REMARK minimizedRMSD -1
REMARK  2 active torsions:
REMARK  status: ('A' for Active; 'I' for Inactive)
REMARK    1  A    between atoms: C1_2  and  C2_3 
REMARK    2  A    between atoms: C2_3  and  C3_4 
ROOT
ATOM      1  C3  UNL d   1      -0.630   0.692  -0.121  0.00  0.00    -0.075 A 
ATOM      2  C4  UNL d   1       0.184   1.500  -0.928  0.00  0.00     0.002 A 
ATOM      3  C5  UNL d   1       0.091   2.891  -0.861  0.00  0.00     0.002 A 
ATOM      4  C6  UNL d   1      -0.823   3.489   0.004  0.00  0.00    -0.004 A 
ATOM      5  C7  UNL d   1      -1.648   2.696   0.798  0.00  0.00     0.002 A 
ATOM      6  C8  UNL d   1      -1.553   1.305   0.737  0.00  0.00     0.002 A 
ENDROOT
BRANCH   1   7
ATOM      7  C2  UNL d   1      -0.513  -0.813  -0.167  0.00  0.00     0.056 C 
BRANCH   7   8
ATOM      8  C1  UNL d   1       0.913  -1.320  -0.405  0.00  0.00     0.007 C 
ATOM      9  C   UNL d   1       0.979  -2.495  -1.372  0.00  0.00     0.009 C 
ENDBRANCH   7   8
ENDBRANCH   1   7
TORSDOF 2
ENDMDL
