MODEL 1
REMARK minimizedAffinity -5.30193567
REMARK minimizedRMSD -1
REMARK  2 active torsions:
REMARK  status: ('A' for Active; 'I' for Inactive)
REMARK    1  A    between atoms: C1_2  and  C2_3 
REMARK    2  A    between atoms: C2_3  and  C3_4 
ROOT
ATOM      1  C3  UNL d   1      -0.735   1.020   0.883  0.00  0.00    -0.075 A 
ATOM      2  C4  UNL d   1      -1.910   1.170   1.635  0.00  0.00     0.002 A 
ATOM      3  C5  UNL d   1      -2.694   2.316   1.503  0.00  0.00     0.002 A 
ATOM      4  C6  UNL d   1      -2.311   3.329   0.627  0.00  0.00    -0.004 A 
ATOM      5  C7  UNL d   1      -1.137   3.199  -0.112  0.00  0.00     0.002 A 
ATOM      6  C8  UNL d   1      -0.352   2.051   0.015  0.00  0.00     0.002 A 
ENDROOT
BRANCH   1   7
ATOM      7  C2  UNL d   1       0.103  -0.231   1.000  0.00  0.00     0.056 C 
BRANCH   7   8
ATOM      8  C1  UNL d   1       1.104  -0.420  -0.145  0.00  0.00     0.007 C 
ATOM      9  C   UNL d   1       0.623  -1.400  -1.207  0.00  0.00     0.009 C 
ENDBRANCH   7   8
ENDBRANCH   1   7
TORSDOF 2
ENDMDL
