MODEL 1
REMARK minimizedAffinity -4.16664982
REMARK minimizedRMSD -1
REMARK  2 active torsions:
REMARK  status: ('A' for Active; 'I' for Inactive)
REMARK    1  A    between atoms: C1_2  and  C2_3 
REMARK    2  A    between atoms: C2_3  and  C3_4 
ROOT
ATOM      1  C3  UNL d   1      -0.746   1.791   1.017  0.00  0.00    -0.075 A 
ATOM      2  C4  UNL d   1      -1.189   1.386   2.284  0.00  0.00     0.002 A 
ATOM      3  C5  UNL d   1      -1.227   0.033   2.622  0.00  0.00     0.002 A 
ATOM      4  C6  UNL d   1      -0.833  -0.931   1.697  0.00  0.00    -0.004 A 
ATOM      5  C7  UNL d   1      -0.406  -0.541   0.429  0.00  0.00     0.002 A 
ATOM      6  C8  UNL d   1      -0.363   0.813   0.090  0.00  0.00     0.002 A 
ENDROOT
BRANCH   1   7
ATOM      7  C2  UNL d   1      -0.675   3.255   0.655  0.00  0.00     0.056 C 
BRANCH   7   8
ATOM      8  C1  UNL d   1      -0.640   3.524  -0.853  0.00  0.00     0.007 C 
ATOM      9  C   UNL d   1       0.770   3.535  -1.428  0.00  0.00     0.009 C 
ENDBRANCH   7   8
ENDBRANCH   1   7
TORSDOF 2
ENDMDL
