MODEL 1
REMARK minimizedAffinity -3.44071889
REMARK minimizedRMSD -1
REMARK  1 active torsions:
REMARK  status: ('A' for Active; 'I' for Inactive)
REMARK    1  A    between atoms: N_2  and  C1_3 
ROOT
ATOM      1  C1  UNL d   1      -0.920   0.880  -1.112  0.00  0.00     0.143 A 
ATOM      2  C2  UNL d   1       0.381   0.373  -1.020  0.00  0.00    -0.057 A 
ATOM      3  C3  UNL d   1       0.825  -0.281   0.136  0.00  0.00     0.033 A 
ATOM      4  C4  UNL d   1      -0.018  -0.415   1.234  0.00  0.00    -0.042 A 
ATOM      5  C5  UNL d   1      -1.307   0.103   1.174  0.00  0.00     0.033 A 
ATOM      6  C6  UNL d   1      -1.747   0.749   0.015  0.00  0.00    -0.057 A 
ENDROOT
BRANCH   1   7
ATOM      7  N   UNL d   1      -1.389   1.626  -2.196  0.00  0.00    -0.732 N 
ATOM      8  C   UNL d   1      -1.137   3.049  -2.275  0.00  0.00     0.284 C 
ATOM      9  H3  UNL d   1      -1.282   1.136  -3.081  0.00  0.00     0.395 HD
ENDBRANCH   1   7
TORSDOF 1
ENDMDL
