MODEL 1
REMARK minimizedAffinity -3.6148684
REMARK minimizedRMSD -1
REMARK  1 active torsions:
REMARK  status: ('A' for Active; 'I' for Inactive)
REMARK    1  A    between atoms: N_2  and  C1_3 
ROOT
ATOM      1  C1  UNL d   1      -0.149   0.189  -1.284  0.00  0.00     0.143 A 
ATOM      2  C2  UNL d   1       0.916  -0.609  -1.715  0.00  0.00    -0.057 A 
ATOM      3  C3  UNL d   1       1.894  -1.060  -0.820  0.00  0.00     0.033 A 
ATOM      4  C4  UNL d   1       1.839  -0.696   0.521  0.00  0.00    -0.042 A 
ATOM      5  C5  UNL d   1       0.803   0.117   0.967  0.00  0.00     0.033 A 
ATOM      6  C6  UNL d   1      -0.174   0.559   0.070  0.00  0.00    -0.057 A 
ENDROOT
BRANCH   1   7
ATOM      7  N   UNL d   1      -1.098   0.750  -2.142  0.00  0.00    -0.732 N 
ATOM      8  C   UNL d   1      -0.854   2.028  -2.776  0.00  0.00     0.284 C 
ATOM      9  H3  UNL d   1      -1.527   0.058  -2.753  0.00  0.00     0.395 HD
ENDBRANCH   1   7
TORSDOF 1
ENDMDL
