MODEL 1
REMARK minimizedAffinity -2.99564338
REMARK minimizedRMSD -1
REMARK  1 active torsions:
REMARK  status: ('A' for Active; 'I' for Inactive)
REMARK    1  A    between atoms: N_2  and  C1_3 
ROOT
ATOM      1  C1  UNL d   1       3.367   5.883   4.428  0.00  0.00     0.143 A 
ATOM      2  C2  UNL d   1       2.877   5.862   5.738  0.00  0.00    -0.057 A 
ATOM      3  C3  UNL d   1       1.502   5.846   5.999  0.00  0.00     0.033 A 
ATOM      4  C4  UNL d   1       0.588   5.880   4.951  0.00  0.00    -0.042 A 
ATOM      5  C5  UNL d   1       1.052   5.926   3.641  0.00  0.00     0.033 A 
ATOM      6  C6  UNL d   1       2.427   5.936   3.387  0.00  0.00    -0.057 A 
ENDROOT
BRANCH   1   7
ATOM      7  N   UNL d   1       4.721   6.000   4.105  0.00  0.00    -0.732 N 
ATOM      8  C   UNL d   1       5.160   5.919   2.729  0.00  0.00     0.284 C 
ATOM      9  H3  UNL d   1       5.189   6.721   4.649  0.00  0.00     0.395 HD
ENDBRANCH   1   7
TORSDOF 1
ENDMDL
