MODEL 1
REMARK minimizedAffinity -2.1748538
REMARK minimizedRMSD -1
REMARK  1 active torsions:
REMARK  status: ('A' for Active; 'I' for Inactive)
REMARK    1  A    between atoms: N_2  and  C1_3 
ROOT
ATOM      1  C1  UNL d   1       0.027  -1.123   1.723  0.00  0.00     0.143 A 
ATOM      2  C2  UNL d   1       1.188  -0.818   1.006  0.00  0.00    -0.057 A 
ATOM      3  C3  UNL d   1       1.126  -0.170  -0.234  0.00  0.00     0.033 A 
ATOM      4  C4  UNL d   1      -0.104   0.158  -0.794  0.00  0.00    -0.042 A 
ATOM      5  C5  UNL d   1      -1.272  -0.159  -0.110  0.00  0.00     0.033 A 
ATOM      6  C6  UNL d   1      -1.204  -0.799   1.131  0.00  0.00    -0.057 A 
ENDROOT
BRANCH   1   7
ATOM      7  N   UNL d   1       0.018  -1.853   2.914  0.00  0.00    -0.732 N 
ATOM      8  C   UNL d   1      -0.911  -2.947   3.101  0.00  0.00     0.284 C 
ATOM      9  H3  UNL d   1       0.955  -2.040   3.263  0.00  0.00     0.395 HD
ENDBRANCH   1   7
TORSDOF 1
ENDMDL
