MODEL 1
REMARK minimizedAffinity -4.38295555
REMARK minimizedRMSD -1
REMARK  0 active torsions:
REMARK  status: ('A' for Active; 'I' for Inactive)
ROOT
ATOM      1  C   UNL d   1       0.847  -2.472  -0.703  0.00  0.00     0.078 C 
ATOM      2  C1  UNL d   1       1.481  -1.362   0.081  0.00  0.00    -0.077 A 
ATOM      3  C2  UNL d   1       2.806  -1.455   0.522  0.00  0.00    -0.001 A 
ATOM      4  C3  UNL d   1       3.380  -0.418   1.259  0.00  0.00     0.003 A 
ATOM      5  C4  UNL d   1       2.635   0.719   1.563  0.00  0.00    -0.005 A 
ATOM      6  C5  UNL d   1       1.314   0.821   1.131  0.00  0.00     0.003 A 
ATOM      7  C6  UNL d   1       0.739  -0.216   0.393  0.00  0.00    -0.001 A 
ENDROOT
TORSDOF 0
ENDMDL
