MODEL 1
REMARK minimizedAffinity -2.91680574
REMARK minimizedRMSD -1
REMARK  0 active torsions:
REMARK  status: ('A' for Active; 'I' for Inactive)
ROOT
ATOM      1  C   UNL d   1       0.435  -0.037  -0.600  0.00  0.00     0.078 C 
ATOM      2  C1  UNL d   1      -0.793  -0.012  -1.460  0.00  0.00    -0.077 A 
ATOM      3  C2  UNL d   1      -0.750  -0.445  -2.791  0.00  0.00    -0.001 A 
ATOM      4  C3  UNL d   1      -1.898  -0.407  -3.583  0.00  0.00     0.003 A 
ATOM      5  C4  UNL d   1      -3.098   0.065  -3.054  0.00  0.00    -0.005 A 
ATOM      6  C5  UNL d   1      -3.150   0.500  -1.732  0.00  0.00     0.003 A 
ATOM      7  C6  UNL d   1      -2.003   0.463  -0.938  0.00  0.00    -0.001 A 
ENDROOT
TORSDOF 0
ENDMDL
