MODEL 1
REMARK minimizedAffinity -2.57083702
REMARK minimizedRMSD -1
REMARK  0 active torsions:
REMARK  status: ('A' for Active; 'I' for Inactive)
ROOT
ATOM      1  C   UNL d   1      -3.894   3.191  -2.980  0.00  0.00     0.078 C 
ATOM      2  C1  UNL d   1      -3.429   1.784  -2.754  0.00  0.00    -0.077 A 
ATOM      3  C2  UNL d   1      -3.396   0.858  -3.804  0.00  0.00    -0.001 A 
ATOM      4  C3  UNL d   1      -2.970  -0.452  -3.577  0.00  0.00     0.003 A 
ATOM      5  C4  UNL d   1      -2.573  -0.847  -2.301  0.00  0.00    -0.005 A 
ATOM      6  C5  UNL d   1      -2.604   0.067  -1.250  0.00  0.00     0.003 A 
ATOM      7  C6  UNL d   1      -3.030   1.376  -1.475  0.00  0.00    -0.001 A 
ENDROOT
TORSDOF 0
ENDMDL
