MODEL 1
REMARK minimizedAffinity -4.42927217
REMARK minimizedRMSD -1
REMARK  0 active torsions:
REMARK  status: ('A' for Active; 'I' for Inactive)
ROOT
ATOM      1  C   UNL d   1      -1.502   0.126  -0.715  0.00  0.00     0.078 C 
ATOM      2  C1  UNL d   1      -0.134   0.458  -0.198  0.00  0.00    -0.077 A 
ATOM      3  C2  UNL d   1       0.329   1.779  -0.181  0.00  0.00    -0.001 A 
ATOM      4  C3  UNL d   1       1.608   2.072   0.294  0.00  0.00     0.003 A 
ATOM      5  C4  UNL d   1       2.435   1.050   0.756  0.00  0.00    -0.005 A 
ATOM      6  C5  UNL d   1       1.983  -0.268   0.741  0.00  0.00     0.003 A 
ATOM      7  C6  UNL d   1       0.704  -0.564   0.266  0.00  0.00    -0.001 A 
ENDROOT
TORSDOF 0
ENDMDL
