MODEL 1
REMARK minimizedAffinity -3.9857204
REMARK minimizedRMSD -1
REMARK  0 active torsions:
REMARK  status: ('A' for Active; 'I' for Inactive)
ROOT
ATOM      1  C   UNL d   1       3.078   0.012   0.768  0.00  0.00     0.078 C 
ATOM      2  C1  UNL d   1       1.600   0.003   0.517  0.00  0.00    -0.077 A 
ATOM      3  C2  UNL d   1       0.842  -1.157   0.720  0.00  0.00    -0.001 A 
ATOM      4  C3  UNL d   1      -0.532  -1.154   0.473  0.00  0.00     0.003 A 
ATOM      5  C4  UNL d   1      -1.159   0.005   0.019  0.00  0.00    -0.005 A 
ATOM      6  C5  UNL d   1      -0.412   1.162  -0.188  0.00  0.00     0.003 A 
ATOM      7  C6  UNL d   1       0.961   1.162   0.059  0.00  0.00    -0.001 A 
ENDROOT
TORSDOF 0
ENDMDL
