MODEL 1
REMARK minimizedAffinity -5.51399469
REMARK minimizedRMSD -1
REMARK  0 active torsions:
REMARK  status: ('A' for Active; 'I' for Inactive)
ROOT
ATOM      1  C   UNL d   1      -1.355   0.395  -0.247  0.00  0.00     0.078 C 
ATOM      2  C1  UNL d   1      -0.015   0.064   0.341  0.00  0.00    -0.077 A 
ATOM      3  C2  UNL d   1       0.139  -1.012   1.223  0.00  0.00    -0.001 A 
ATOM      4  C3  UNL d   1       1.390  -1.302   1.770  0.00  0.00     0.003 A 
ATOM      5  C4  UNL d   1       2.496  -0.521   1.442  0.00  0.00    -0.005 A 
ATOM      6  C5  UNL d   1       2.352   0.554   0.566  0.00  0.00     0.003 A 
ATOM      7  C6  UNL d   1       1.101   0.846   0.018  0.00  0.00    -0.001 A 
ENDROOT
TORSDOF 0
ENDMDL
