MODEL 1
REMARK minimizedAffinity -5.52578259
REMARK minimizedRMSD -1
REMARK  0 active torsions:
REMARK  status: ('A' for Active; 'I' for Inactive)
ROOT
ATOM      1  C   UNL d   1       3.181  -0.400   0.754  0.00  0.00     0.078 C 
ATOM      2  C1  UNL d   1       1.703  -0.174   0.637  0.00  0.00    -0.077 A 
ATOM      3  C2  UNL d   1       0.793  -1.207   0.892  0.00  0.00    -0.001 A 
ATOM      4  C3  UNL d   1      -0.579  -0.985   0.770  0.00  0.00     0.003 A 
ATOM      5  C4  UNL d   1      -1.054   0.269   0.391  0.00  0.00    -0.005 A 
ATOM      6  C5  UNL d   1      -0.156   1.303   0.134  0.00  0.00     0.003 A 
ATOM      7  C6  UNL d   1       1.217   1.082   0.255  0.00  0.00    -0.001 A 
ENDROOT
TORSDOF 0
ENDMDL
