MODEL 1
REMARK minimizedAffinity -5.11558199
REMARK minimizedRMSD -1
REMARK  0 active torsions:
REMARK  status: ('A' for Active; 'I' for Inactive)
ROOT
ATOM      1  C   UNL d   1       2.986   0.001   0.575  0.00  0.00     0.078 C 
ATOM      2  C1  UNL d   1       1.506   0.202   0.436  0.00  0.00    -0.077 A 
ATOM      3  C2  UNL d   1       0.626  -0.887   0.455  0.00  0.00    -0.001 A 
ATOM      4  C3  UNL d   1      -0.748  -0.686   0.315  0.00  0.00     0.003 A 
ATOM      5  C4  UNL d   1      -1.254   0.603   0.154  0.00  0.00    -0.005 A 
ATOM      6  C5  UNL d   1      -0.385   1.692   0.133  0.00  0.00     0.003 A 
ATOM      7  C6  UNL d   1       0.989   1.493   0.272  0.00  0.00    -0.001 A 
ENDROOT
TORSDOF 0
ENDMDL
