MODEL 1
REMARK minimizedAffinity -4.87334681
REMARK minimizedRMSD -1
REMARK  0 active torsions:
REMARK  status: ('A' for Active; 'I' for Inactive)
ROOT
ATOM      1  C   UNL d   1       3.006   0.038   0.361  0.00  0.00     0.078 C 
ATOM      2  C1  UNL d   1       1.511   0.014   0.471  0.00  0.00    -0.077 A 
ATOM      3  C2  UNL d   1       0.746   1.144   0.154  0.00  0.00    -0.001 A 
ATOM      4  C3  UNL d   1      -0.644   1.111   0.271  0.00  0.00     0.003 A 
ATOM      5  C4  UNL d   1      -1.282  -0.049   0.706  0.00  0.00    -0.005 A 
ATOM      6  C5  UNL d   1      -0.530  -1.177   1.027  0.00  0.00     0.003 A 
ATOM      7  C6  UNL d   1       0.861  -1.146   0.910  0.00  0.00    -0.001 A 
ENDROOT
TORSDOF 0
ENDMDL
