MODEL 1
REMARK minimizedAffinity -4.94438601
REMARK minimizedRMSD -1
REMARK  0 active torsions:
REMARK  status: ('A' for Active; 'I' for Inactive)
ROOT
ATOM      1  C   UNL d   1       2.964  -0.484   0.338  0.00  0.00     0.078 C 
ATOM      2  C1  UNL d   1       1.474  -0.528   0.493  0.00  0.00    -0.077 A 
ATOM      3  C2  UNL d   1       0.667   0.510   0.010  0.00  0.00    -0.001 A 
ATOM      4  C3  UNL d   1      -0.719   0.460   0.169  0.00  0.00     0.003 A 
ATOM      5  C4  UNL d   1      -1.310  -0.625   0.814  0.00  0.00    -0.005 A 
ATOM      6  C5  UNL d   1      -0.515  -1.661   1.300  0.00  0.00     0.003 A 
ATOM      7  C6  UNL d   1       0.870  -1.613   1.141  0.00  0.00    -0.001 A 
ENDROOT
TORSDOF 0
ENDMDL
