MODEL 1
REMARK minimizedAffinity -0.936489165
REMARK minimizedRMSD -1
REMARK  0 active torsions:
REMARK  status: ('A' for Active; 'I' for Inactive)
ROOT
ATOM      1  C   UNL d   1       0.355  -0.553  -1.726  0.00  0.00     0.172 C 
ATOM      2  N   UNL d   1       1.289   0.398  -2.279  0.00  0.00    -0.070 N 
ATOM      3  C1  UNL d   1       2.593   0.555  -1.890  0.00  0.00    -0.004 A 
ATOM      4  C2  UNL d   1       3.144   1.559  -2.656  0.00  0.00    -0.047 A 
ATOM      5  C3  UNL d   1       2.136   2.023  -3.535  0.00  0.00    -0.047 A 
ATOM      6  C4  UNL d   1       0.999   1.287  -3.280  0.00  0.00    -0.004 A 
ENDROOT
TORSDOF 0
ENDMDL
