MODEL 1
REMARK minimizedAffinity -2.75973582
REMARK minimizedRMSD -1
REMARK  0 active torsions:
REMARK  status: ('A' for Active; 'I' for Inactive)
ROOT
ATOM      1  C   UNL d   1       1.878   0.941  -2.178  0.00  0.00     0.172 C 
ATOM      2  N   UNL d   1       1.946   1.373  -3.555  0.00  0.00    -0.070 N 
ATOM      3  C1  UNL d   1       0.879   1.514  -4.401  0.00  0.00    -0.004 A 
ATOM      4  C2  UNL d   1       1.359   1.945  -5.618  0.00  0.00    -0.047 A 
ATOM      5  C3  UNL d   1       2.764   2.066  -5.500  0.00  0.00    -0.047 A 
ATOM      6  C4  UNL d   1       3.101   1.706  -4.212  0.00  0.00    -0.004 A 
ENDROOT
TORSDOF 0
ENDMDL
