MODEL 1
REMARK minimizedAffinity -2.41072416
REMARK minimizedRMSD -1
REMARK  0 active torsions:
REMARK  status: ('A' for Active; 'I' for Inactive)
ROOT
ATOM      1  C   UNL d   1       5.641   4.903   5.008  0.00  0.00     0.172 C 
ATOM      2  N   UNL d   1       5.379   5.112   3.604  0.00  0.00    -0.070 N 
ATOM      3  C1  UNL d   1       5.999   4.462   2.570  0.00  0.00    -0.004 A 
ATOM      4  C2  UNL d   1       5.470   4.942   1.392  0.00  0.00    -0.047 A 
ATOM      5  C3  UNL d   1       4.499   5.914   1.728  0.00  0.00    -0.047 A 
ATOM      6  C4  UNL d   1       4.463   6.000   3.104  0.00  0.00    -0.004 A 
ENDROOT
TORSDOF 0
ENDMDL
