MODEL 1
REMARK minimizedAffinity -2.35388112
REMARK minimizedRMSD -1
REMARK  0 active torsions:
REMARK  status: ('A' for Active; 'I' for Inactive)
ROOT
ATOM      1  C   UNL d   1       4.990   5.644   4.747  0.00  0.00     0.172 C 
ATOM      2  N   UNL d   1       4.931   5.710   3.306  0.00  0.00    -0.070 N 
ATOM      3  C1  UNL d   1       3.811   5.975   2.564  0.00  0.00    -0.004 A 
ATOM      4  C2  UNL d   1       4.170   5.948   1.234  0.00  0.00    -0.047 A 
ATOM      5  C3  UNL d   1       5.553   5.656   1.174  0.00  0.00    -0.047 A 
ATOM      6  C4  UNL d   1       5.999   5.513   2.471  0.00  0.00    -0.004 A 
ENDROOT
TORSDOF 0
ENDMDL
