MODEL 1
REMARK minimizedAffinity -2.04263282
REMARK minimizedRMSD -1
REMARK  0 active torsions:
REMARK  status: ('A' for Active; 'I' for Inactive)
ROOT
ATOM      1  C   UNL d   1       0.691   2.703  -3.560  0.00  0.00     0.172 C 
ATOM      2  N   UNL d   1       1.563   1.656  -3.082  0.00  0.00    -0.070 N 
ATOM      3  C1  UNL d   1       1.187   0.602  -2.293  0.00  0.00    -0.004 A 
ATOM      4  C2  UNL d   1       2.305  -0.169  -2.058  0.00  0.00    -0.047 A 
ATOM      5  C3  UNL d   1       3.390   0.443  -2.729  0.00  0.00    -0.047 A 
ATOM      6  C4  UNL d   1       2.903   1.571  -3.354  0.00  0.00    -0.004 A 
ENDROOT
TORSDOF 0
ENDMDL
