MODEL 1
REMARK minimizedAffinity -3.10132742
REMARK minimizedRMSD -1
REMARK  0 active torsions:
REMARK  status: ('A' for Active; 'I' for Inactive)
ROOT
ATOM      1  C   UNL d   1       0.331   2.475  -3.239  0.00  0.00     0.172 C 
ATOM      2  N   UNL d   1       1.081   1.428  -2.587  0.00  0.00    -0.070 N 
ATOM      3  C1  UNL d   1       2.440   1.409  -2.413  0.00  0.00    -0.004 A 
ATOM      4  C2  UNL d   1       2.764   0.246  -1.749  0.00  0.00    -0.047 A 
ATOM      5  C3  UNL d   1       1.559  -0.459  -1.516  0.00  0.00    -0.047 A 
ATOM      6  C4  UNL d   1       0.533   0.296  -2.045  0.00  0.00    -0.004 A 
ENDROOT
TORSDOF 0
ENDMDL
