MODEL 1
REMARK minimizedAffinity -1.82921791
REMARK minimizedRMSD -1
REMARK  0 active torsions:
REMARK  status: ('A' for Active; 'I' for Inactive)
ROOT
ATOM      1  C   UNL d   1       0.381   1.814  -4.499  0.00  0.00     0.172 C 
ATOM      2  N   UNL d   1       1.409   1.428  -3.562  0.00  0.00    -0.070 N 
ATOM      3  C1  UNL d   1       2.756   1.597  -3.739  0.00  0.00    -0.004 A 
ATOM      4  C2  UNL d   1       3.395   1.101  -2.623  0.00  0.00    -0.047 A 
ATOM      5  C3  UNL d   1       2.397   0.616  -1.745  0.00  0.00    -0.047 A 
ATOM      6  C4  UNL d   1       1.177   0.831  -2.351  0.00  0.00    -0.004 A 
ENDROOT
TORSDOF 0
ENDMDL
