MODEL 1
REMARK minimizedAffinity -1.21668863
REMARK minimizedRMSD -1
REMARK  0 active torsions:
REMARK  status: ('A' for Active; 'I' for Inactive)
ROOT
ATOM      1  C   UNL d   1       0.699   1.534  -2.941  0.00  0.00     0.172 C 
ATOM      2  N   UNL d   1       1.937   1.735  -3.657  0.00  0.00    -0.070 N 
ATOM      3  C1  UNL d   1       2.049   2.171  -4.950  0.00  0.00    -0.004 A 
ATOM      4  C2  UNL d   1       3.391   2.230  -5.260  0.00  0.00    -0.047 A 
ATOM      5  C3  UNL d   1       4.109   1.813  -4.114  0.00  0.00    -0.047 A 
ATOM      6  C4  UNL d   1       3.184   1.512  -3.137  0.00  0.00    -0.004 A 
ENDROOT
TORSDOF 0
ENDMDL
