MODEL 1
REMARK minimizedAffinity -0.413351804
REMARK minimizedRMSD -1
REMARK  0 active torsions:
REMARK  status: ('A' for Active; 'I' for Inactive)
ROOT
ATOM      1  C   UNL d   1       4.977   4.503   1.072  0.00  0.00     0.172 C 
ATOM      2  N   UNL d   1       5.191   4.892   2.446  0.00  0.00    -0.070 N 
ATOM      3  C1  UNL d   1       4.628   5.976   3.066  0.00  0.00    -0.004 A 
ATOM      4  C2  UNL d   1       5.080   5.999   4.368  0.00  0.00    -0.047 A 
ATOM      5  C3  UNL d   1       5.945   4.892   4.536  0.00  0.00    -0.047 A 
ATOM      6  C4  UNL d   1       5.995   4.223   3.331  0.00  0.00    -0.004 A 
ENDROOT
TORSDOF 0
ENDMDL
