MODEL 1
REMARK minimizedAffinity 1.57643664
REMARK minimizedRMSD -1
REMARK  0 active torsions:
REMARK  status: ('A' for Active; 'I' for Inactive)
ROOT
ATOM      1  C   UNL d   1       4.903   5.994   5.617  0.00  0.00     0.172 C 
ATOM      2  N   UNL d   1       4.854   5.995   4.174  0.00  0.00    -0.070 N 
ATOM      3  C1  UNL d   1       5.939   6.000   3.338  0.00  0.00    -0.004 A 
ATOM      4  C2  UNL d   1       5.472   5.998   2.041  0.00  0.00    -0.047 A 
ATOM      5  C3  UNL d   1       4.058   5.993   2.100  0.00  0.00    -0.047 A 
ATOM      6  C4  UNL d   1       3.703   5.991   3.432  0.00  0.00    -0.004 A 
ENDROOT
TORSDOF 0
ENDMDL
