MODEL 1
REMARK minimizedAffinity -3.49163771
REMARK minimizedRMSD -1
REMARK  0 active torsions:
REMARK  status: ('A' for Active; 'I' for Inactive)
ROOT
ATOM      1  C   UNL d   1       0.970   1.871  -6.000  0.00  0.00     0.172 C 
ATOM      2  N   UNL d   1       2.040   1.796  -5.033  0.00  0.00    -0.070 N 
ATOM      3  C1  UNL d   1       3.377   1.896  -5.311  0.00  0.00    -0.004 A 
ATOM      4  C2  UNL d   1       4.066   1.774  -4.124  0.00  0.00    -0.047 A 
ATOM      5  C3  UNL d   1       3.110   1.594  -3.096  0.00  0.00    -0.047 A 
ATOM      6  C4  UNL d   1       1.864   1.611  -3.687  0.00  0.00    -0.004 A 
ENDROOT
TORSDOF 0
ENDMDL
