MODEL 1
REMARK minimizedAffinity -0.233765334
REMARK minimizedRMSD -1
REMARK  0 active torsions:
REMARK  status: ('A' for Active; 'I' for Inactive)
ROOT
ATOM      1  C   UNL d   1       6.000   5.578   3.258  0.00  0.00     0.172 C 
ATOM      2  N   UNL d   1       5.332   5.584   1.978  0.00  0.00    -0.070 N 
ATOM      3  C1  UNL d   1       5.880   6.000   0.794  0.00  0.00    -0.004 A 
ATOM      4  C2  UNL d   1       4.926   5.848  -0.189  0.00  0.00    -0.047 A 
ATOM      5  C3  UNL d   1       3.765   5.324   0.426  0.00  0.00    -0.047 A 
ATOM      6  C4  UNL d   1       4.044   5.169   1.767  0.00  0.00    -0.004 A 
ENDROOT
TORSDOF 0
ENDMDL
