MODEL 1
REMARK minimizedAffinity -1.62602854
REMARK minimizedRMSD -1
REMARK  0 active torsions:
REMARK  status: ('A' for Active; 'I' for Inactive)
ROOT
ATOM      1  C   UNL d   1       2.863   2.094  -5.481  0.00  0.00     0.172 C 
ATOM      2  N   UNL d   1       2.265   1.583  -4.270  0.00  0.00    -0.070 N 
ATOM      3  C1  UNL d   1       0.966   1.174  -4.131  0.00  0.00    -0.004 A 
ATOM      4  C2  UNL d   1       0.791   0.758  -2.830  0.00  0.00    -0.047 A 
ATOM      5  C3  UNL d   1       2.027   0.922  -2.162  0.00  0.00    -0.047 A 
ATOM      6  C4  UNL d   1       2.923   1.435  -3.077  0.00  0.00    -0.004 A 
ENDROOT
TORSDOF 0
ENDMDL
