MODEL 1
REMARK minimizedAffinity -4.01135349
REMARK minimizedRMSD -1
REMARK  0 active torsions:
REMARK  status: ('A' for Active; 'I' for Inactive)
ROOT
ATOM      1  C   UNL d   1       1.579   0.736  -2.337  0.00  0.00     0.172 C 
ATOM      2  N   UNL d   1       1.762   1.359  -3.626  0.00  0.00    -0.070 N 
ATOM      3  C1  UNL d   1       0.795   1.513  -4.583  0.00  0.00    -0.004 A 
ATOM      4  C2  UNL d   1       1.366   2.152  -5.662  0.00  0.00    -0.047 A 
ATOM      5  C3  UNL d   1       2.724   2.390  -5.343  0.00  0.00    -0.047 A 
ATOM      6  C4  UNL d   1       2.942   1.889  -4.077  0.00  0.00    -0.004 A 
ENDROOT
TORSDOF 0
ENDMDL
