MODEL 1
REMARK minimizedAffinity -0.421083093
REMARK minimizedRMSD -1
REMARK  0 active torsions:
REMARK  status: ('A' for Active; 'I' for Inactive)
ROOT
ATOM      1  C   UNL d   1       4.535   5.999   0.441  0.00  0.00     0.172 C 
ATOM      2  N   UNL d   1       4.916   5.611   1.779  0.00  0.00    -0.070 N 
ATOM      3  C1  UNL d   1       5.973   4.803   2.104  0.00  0.00    -0.004 A 
ATOM      4  C2  UNL d   1       5.999   4.675   3.476  0.00  0.00    -0.047 A 
ATOM      5  C3  UNL d   1       4.920   5.431   3.993  0.00  0.00    -0.047 A 
ATOM      6  C4  UNL d   1       4.266   5.999   2.920  0.00  0.00    -0.004 A 
ENDROOT
TORSDOF 0
ENDMDL
