MODEL 1
REMARK minimizedAffinity -2.2101438
REMARK minimizedRMSD -1
REMARK  0 active torsions:
REMARK  status: ('A' for Active; 'I' for Inactive)
ROOT
ATOM      1  C   UNL d   1       5.263   4.897   4.929  0.00  0.00     0.172 C 
ATOM      2  N   UNL d   1       5.036   5.122   3.521  0.00  0.00    -0.070 N 
ATOM      3  C1  UNL d   1       4.130   6.000   2.989  0.00  0.00    -0.004 A 
ATOM      4  C2  UNL d   1       4.219   5.918   1.616  0.00  0.00    -0.047 A 
ATOM      5  C3  UNL d   1       5.213   4.957   1.313  0.00  0.00    -0.047 A 
ATOM      6  C4  UNL d   1       5.702   4.480   2.510  0.00  0.00    -0.004 A 
ENDROOT
TORSDOF 0
ENDMDL
