MODEL 1
REMARK minimizedAffinity -0.753291011
REMARK minimizedRMSD -1
REMARK  0 active torsions:
REMARK  status: ('A' for Active; 'I' for Inactive)
ROOT
ATOM      1  C   UNL d   1       4.878   5.976   4.669  0.00  0.00     0.172 C 
ATOM      2  N   UNL d   1       4.873   5.985   3.225  0.00  0.00    -0.070 N 
ATOM      3  C1  UNL d   1       5.982   5.993   2.423  0.00  0.00    -0.004 A 
ATOM      4  C2  UNL d   1       5.556   6.000   1.113  0.00  0.00    -0.047 A 
ATOM      5  C3  UNL d   1       4.141   5.995   1.128  0.00  0.00    -0.047 A 
ATOM      6  C4  UNL d   1       3.744   5.986   2.449  0.00  0.00    -0.004 A 
ENDROOT
TORSDOF 0
ENDMDL
