MODEL 1
REMARK minimizedAffinity 0.152095258
REMARK minimizedRMSD -1
REMARK  0 active torsions:
REMARK  status: ('A' for Active; 'I' for Inactive)
ROOT
ATOM      1  C   UNL d   1       2.511   2.142  -5.826  0.00  0.00     0.172 C 
ATOM      2  N   UNL d   1       2.233   1.680  -4.486  0.00  0.00    -0.070 N 
ATOM      3  C1  UNL d   1       1.097   1.030  -4.084  0.00  0.00    -0.004 A 
ATOM      4  C2  UNL d   1       1.218   0.760  -2.738  0.00  0.00    -0.047 A 
ATOM      5  C3  UNL d   1       2.471   1.266  -2.316  0.00  0.00    -0.047 A 
ATOM      6  C4  UNL d   1       3.078   1.830  -3.418  0.00  0.00    -0.004 A 
ENDROOT
TORSDOF 0
ENDMDL
