MODEL 1
REMARK minimizedAffinity -3.75921249
REMARK minimizedRMSD -1
REMARK  0 active torsions:
REMARK  status: ('A' for Active; 'I' for Inactive)
ROOT
ATOM      1  C   UNL d   1      -0.231   2.167  -0.338  0.00  0.00     0.172 C 
ATOM      2  N   UNL d   1       0.117   0.768  -0.254  0.00  0.00    -0.070 N 
ATOM      3  C1  UNL d   1      -0.690  -0.228   0.229  0.00  0.00    -0.004 A 
ATOM      4  C2  UNL d   1       0.005  -1.415   0.139  0.00  0.00    -0.047 A 
ATOM      5  C3  UNL d   1       1.273  -1.122  -0.416  0.00  0.00    -0.047 A 
ATOM      6  C4  UNL d   1       1.316   0.236  -0.650  0.00  0.00    -0.004 A 
ENDROOT
TORSDOF 0
ENDMDL
