MODEL 1
REMARK minimizedAffinity -6.02901459
REMARK minimizedRMSD -1
REMARK  0 active torsions:
REMARK  status: ('A' for Active; 'I' for Inactive)
ROOT
ATOM      1  C   UNL d   1      -0.873   3.454  -1.964  0.00  0.00     0.077 C 
ATOM      2  C1  UNL d   1      -0.774   2.981  -0.544  0.00  0.00    -0.074 A 
ATOM      3  C2  UNL d   1      -1.189   3.794   0.515  0.00  0.00    -0.005 A 
ATOM      4  C3  UNL d   1      -1.100   3.337   1.830  0.00  0.00     0.006 A 
ATOM      5  C4  UNL d   1      -0.595   2.063   2.098  0.00  0.00    -0.005 A 
ATOM      6  C5  UNL d   1      -0.177   1.236   1.051  0.00  0.00    -0.074 A 
ATOM      7  C6  UNL d   1       0.358  -0.139   1.321  0.00  0.00     0.077 C 
ATOM      8  C7  UNL d   1      -0.276   1.700  -0.267  0.00  0.00    -0.001 A 
ENDROOT
TORSDOF 0
ENDMDL
