MODEL 1
REMARK minimizedAffinity -2.27919912
REMARK minimizedRMSD -1
REMARK  0 active torsions:
REMARK  status: ('A' for Active; 'I' for Inactive)
ROOT
ATOM      1  C   UNL d   1       0.720   0.510   1.530  0.00  0.00     0.077 C 
ATOM      2  C1  UNL d   1       0.277   0.151   0.143  0.00  0.00    -0.074 A 
ATOM      3  C2  UNL d   1      -0.101   1.142  -0.769  0.00  0.00    -0.005 A 
ATOM      4  C3  UNL d   1      -0.502   0.794  -2.059  0.00  0.00     0.006 A 
ATOM      5  C4  UNL d   1      -0.529  -0.546  -2.449  0.00  0.00    -0.005 A 
ATOM      6  C5  UNL d   1      -0.153  -1.550  -1.551  0.00  0.00    -0.074 A 
ATOM      7  C6  UNL d   1      -0.167  -2.994  -1.957  0.00  0.00     0.077 C 
ATOM      8  C7  UNL d   1       0.255  -1.192  -0.259  0.00  0.00    -0.001 A 
ENDROOT
TORSDOF 0
ENDMDL
