MODEL 1
REMARK minimizedAffinity -2.22278047
REMARK minimizedRMSD -1
REMARK  0 active torsions:
REMARK  status: ('A' for Active; 'I' for Inactive)
ROOT
ATOM      1  C   UNL d   1      -1.263  -2.947  -2.089  0.00  0.00     0.077 C 
ATOM      2  C1  UNL d   1      -0.811  -1.531  -1.889  0.00  0.00    -0.074 A 
ATOM      3  C2  UNL d   1      -0.817  -0.618  -2.949  0.00  0.00    -0.005 A 
ATOM      4  C3  UNL d   1      -0.403   0.698  -2.746  0.00  0.00     0.006 A 
ATOM      5  C4  UNL d   1       0.022   1.114  -1.484  0.00  0.00    -0.005 A 
ATOM      6  C5  UNL d   1       0.034   0.216  -0.412  0.00  0.00    -0.074 A 
ATOM      7  C6  UNL d   1       0.478   0.650   0.953  0.00  0.00     0.077 C 
ATOM      8  C7  UNL d   1      -0.390  -1.103  -0.622  0.00  0.00    -0.001 A 
ENDROOT
TORSDOF 0
ENDMDL
