MODEL 1
REMARK minimizedAffinity -2.86310506
REMARK minimizedRMSD -1
REMARK  0 active torsions:
REMARK  status: ('A' for Active; 'I' for Inactive)
ROOT
ATOM      1  C   UNL d   1      -1.661   2.690   1.962  0.00  0.00     0.077 C 
ATOM      2  C1  UNL d   1      -0.832   1.628   1.303  0.00  0.00    -0.074 A 
ATOM      3  C2  UNL d   1      -1.166   1.137   0.037  0.00  0.00    -0.005 A 
ATOM      4  C3  UNL d   1      -0.380   0.156  -0.567  0.00  0.00     0.006 A 
ATOM      5  C4  UNL d   1       0.747  -0.343   0.088  0.00  0.00    -0.005 A 
ATOM      6  C5  UNL d   1       1.097   0.137   1.354  0.00  0.00    -0.074 A 
ATOM      7  C6  UNL d   1       2.310  -0.382   2.068  0.00  0.00     0.077 C 
ATOM      8  C7  UNL d   1       0.306   1.127   1.952  0.00  0.00    -0.001 A 
ENDROOT
TORSDOF 0
ENDMDL
