MODEL 1
REMARK minimizedAffinity -3.52340174
REMARK minimizedRMSD -1
REMARK  0 active torsions:
REMARK  status: ('A' for Active; 'I' for Inactive)
ROOT
ATOM      1  C   UNL d   1      -1.874   3.376   1.500  0.00  0.00     0.077 C 
ATOM      2  C1  UNL d   1      -1.148   2.177   0.966  0.00  0.00    -0.074 A 
ATOM      3  C2  UNL d   1      -1.411   1.690  -0.319  0.00  0.00    -0.005 A 
ATOM      4  C3  UNL d   1      -0.720   0.581  -0.806  0.00  0.00     0.006 A 
ATOM      5  C4  UNL d   1       0.239  -0.053  -0.014  0.00  0.00    -0.005 A 
ATOM      6  C5  UNL d   1       0.516   0.420   1.272  0.00  0.00    -0.074 A 
ATOM      7  C6  UNL d   1       1.551  -0.243   2.132  0.00  0.00     0.077 C 
ATOM      8  C7  UNL d   1      -0.177   1.540   1.752  0.00  0.00    -0.001 A 
ENDROOT
TORSDOF 0
ENDMDL
