MODEL 1
REMARK minimizedAffinity -4.31232977
REMARK minimizedRMSD -1
REMARK  0 active torsions:
REMARK  status: ('A' for Active; 'I' for Inactive)
ROOT
ATOM      1  C   UNL d   1       0.014   1.115  -2.101  0.00  0.00     0.077 C 
ATOM      2  C1  UNL d   1      -0.515   1.358  -0.719  0.00  0.00    -0.074 A 
ATOM      3  C2  UNL d   1      -1.666   2.125  -0.514  0.00  0.00    -0.005 A 
ATOM      4  C3  UNL d   1      -2.152   2.334   0.776  0.00  0.00     0.006 A 
ATOM      5  C4  UNL d   1      -1.491   1.780   1.874  0.00  0.00    -0.005 A 
ATOM      6  C5  UNL d   1      -0.339   1.010   1.689  0.00  0.00    -0.074 A 
ATOM      7  C6  UNL d   1       0.377   0.399   2.857  0.00  0.00     0.077 C 
ATOM      8  C7  UNL d   1       0.139   0.798   0.388  0.00  0.00    -0.001 A 
ENDROOT
TORSDOF 0
ENDMDL
