MODEL 1
REMARK minimizedAffinity -2.63810182
REMARK minimizedRMSD -1
REMARK  0 active torsions:
REMARK  status: ('A' for Active; 'I' for Inactive)
ROOT
ATOM      1  C   UNL d   1       2.182  -0.689   0.652  0.00  0.00     0.077 C 
ATOM      2  C1  UNL d   1       1.041   0.250   0.396  0.00  0.00    -0.074 A 
ATOM      3  C2  UNL d   1       0.317   0.807   1.454  0.00  0.00    -0.005 A 
ATOM      4  C3  UNL d   1      -0.736   1.687   1.201  0.00  0.00     0.006 A 
ATOM      5  C4  UNL d   1      -1.074   2.017  -0.112  0.00  0.00    -0.005 A 
ATOM      6  C5  UNL d   1      -0.361   1.470  -1.184  0.00  0.00    -0.074 A 
ATOM      7  C6  UNL d   1      -0.705   1.823  -2.600  0.00  0.00     0.077 C 
ATOM      8  C7  UNL d   1       0.700   0.593  -0.920  0.00  0.00    -0.001 A 
ENDROOT
TORSDOF 0
ENDMDL
