MODEL 1
REMARK minimizedAffinity -1.14610362
REMARK minimizedRMSD -1
REMARK  0 active torsions:
REMARK  status: ('A' for Active; 'I' for Inactive)
ROOT
ATOM      1  C   UNL d   1      -1.769   3.504   1.993  0.00  0.00     0.077 C 
ATOM      2  C1  UNL d   1      -0.923   2.430   1.376  0.00  0.00    -0.074 A 
ATOM      3  C2  UNL d   1      -0.176   1.557   2.173  0.00  0.00    -0.005 A 
ATOM      4  C3  UNL d   1       0.598   0.557   1.585  0.00  0.00     0.006 A 
ATOM      5  C4  UNL d   1       0.633   0.420   0.197  0.00  0.00    -0.005 A 
ATOM      6  C5  UNL d   1      -0.108   1.283  -0.616  0.00  0.00    -0.074 A 
ATOM      7  C6  UNL d   1      -0.089   1.143  -2.109  0.00  0.00     0.077 C 
ATOM      8  C7  UNL d   1      -0.889   2.281  -0.018  0.00  0.00    -0.001 A 
ENDROOT
TORSDOF 0
ENDMDL
