MODEL 1
REMARK minimizedAffinity -6.02091932
REMARK minimizedRMSD -1
REMARK  1 active torsions:
REMARK  status: ('A' for Active; 'I' for Inactive)
REMARK    1  A    between atoms: C1_2  and  C2_3 
ROOT
ATOM      1  C2  UNL d   1       1.172   0.446  -0.613  0.00  0.00    -0.073 A 
ATOM      2  C3  UNL d   1       0.781   1.438  -1.520  0.00  0.00    -0.002 A 
ATOM      3  C4  UNL d   1      -0.537   1.895  -1.538  0.00  0.00     0.004 A 
ATOM      4  C5  UNL d   1      -1.475   1.371  -0.648  0.00  0.00    -0.004 A 
ATOM      5  C6  UNL d   1      -1.100   0.388   0.273  0.00  0.00    -0.075 A 
ATOM      6  C7  UNL d   1      -2.097  -0.187   1.236  0.00  0.00     0.076 C 
ATOM      7  C8  UNL d   1       0.225  -0.068   0.284  0.00  0.00     0.001 A 
ENDROOT
BRANCH   1   8
ATOM      8  C1  UNL d   1       2.596  -0.047  -0.585  0.00  0.00     0.053 C 
ATOM      9  C   UNL d   1       2.954  -0.830  -1.838  0.00  0.00     0.018 C 
ENDBRANCH   1   8
TORSDOF 1
ENDMDL
