MODEL 1
REMARK minimizedAffinity -5.16200161
REMARK minimizedRMSD -1
REMARK  1 active torsions:
REMARK  status: ('A' for Active; 'I' for Inactive)
REMARK    1  A    between atoms: C1_2  and  C2_3 
ROOT
ATOM      1  C2  UNL d   1      -0.570   0.402   0.272  0.00  0.00    -0.073 A 
ATOM      2  C3  UNL d   1      -0.798   1.534  -0.518  0.00  0.00    -0.002 A 
ATOM      3  C4  UNL d   1       0.125   1.910  -1.495  0.00  0.00     0.004 A 
ATOM      4  C5  UNL d   1       1.280   1.155  -1.696  0.00  0.00    -0.004 A 
ATOM      5  C6  UNL d   1       1.520   0.013  -0.924  0.00  0.00    -0.075 A 
ATOM      6  C7  UNL d   1       2.759  -0.809  -1.126  0.00  0.00     0.076 C 
ATOM      7  C8  UNL d   1       0.590  -0.356   0.057  0.00  0.00     0.001 A 
ENDROOT
BRANCH   1   8
ATOM      8  C1  UNL d   1      -1.568  -0.010   1.324  0.00  0.00     0.053 C 
ATOM      9  C   UNL d   1      -1.720   1.043   2.410  0.00  0.00     0.018 C 
ENDBRANCH   1   8
TORSDOF 1
ENDMDL
