MODEL 1
REMARK minimizedAffinity -5.02221251
REMARK minimizedRMSD -1
REMARK  1 active torsions:
REMARK  status: ('A' for Active; 'I' for Inactive)
REMARK    1  A    between atoms: C1_2  and  C2_3 
ROOT
ATOM      1  C2  UNL d   1       0.862  -0.235   0.158  0.00  0.00    -0.073 A 
ATOM      2  C3  UNL d   1      -0.167  -0.788  -0.612  0.00  0.00    -0.002 A 
ATOM      3  C4  UNL d   1      -1.500  -0.487  -0.328  0.00  0.00     0.004 A 
ATOM      4  C5  UNL d   1      -1.816   0.375   0.722  0.00  0.00    -0.004 A 
ATOM      5  C6  UNL d   1      -0.801   0.948   1.495  0.00  0.00    -0.075 A 
ATOM      6  C7  UNL d   1      -1.125   1.875   2.630  0.00  0.00     0.076 C 
ATOM      7  C8  UNL d   1       0.534   0.638   1.206  0.00  0.00     0.001 A 
ENDROOT
BRANCH   1   8
ATOM      8  C1  UNL d   1       2.303  -0.552  -0.149  0.00  0.00     0.053 C 
ATOM      9  C   UNL d   1       2.733  -0.000  -1.499  0.00  0.00     0.018 C 
ENDBRANCH   1   8
TORSDOF 1
ENDMDL
