MODEL 1
REMARK minimizedAffinity -3.91603732
REMARK minimizedRMSD -1
REMARK  1 active torsions:
REMARK  status: ('A' for Active; 'I' for Inactive)
REMARK    1  A    between atoms: C1_2  and  C2_3 
ROOT
ATOM      1  C2  UNL d   1       0.201  -0.290   0.009  0.00  0.00    -0.073 A 
ATOM      2  C3  UNL d   1       0.914  -1.452  -0.308  0.00  0.00    -0.002 A 
ATOM      3  C4  UNL d   1       1.960  -1.408  -1.230  0.00  0.00     0.004 A 
ATOM      4  C5  UNL d   1       2.310  -0.203  -1.838  0.00  0.00    -0.004 A 
ATOM      5  C6  UNL d   1       1.618   0.972  -1.526  0.00  0.00    -0.075 A 
ATOM      6  C7  UNL d   1       1.980   2.276  -2.174  0.00  0.00     0.076 C 
ATOM      7  C8  UNL d   1       0.566   0.919  -0.601  0.00  0.00     0.001 A 
ENDROOT
BRANCH   1   8
ATOM      8  C1  UNL d   1      -0.925  -0.331   1.008  0.00  0.00     0.053 C 
ATOM      9  C   UNL d   1      -1.017   0.954   1.817  0.00  0.00     0.018 C 
ENDBRANCH   1   8
TORSDOF 1
ENDMDL
