MODEL 1
REMARK minimizedAffinity -4.09253979
REMARK minimizedRMSD -1
REMARK  1 active torsions:
REMARK  status: ('A' for Active; 'I' for Inactive)
REMARK    1  A    between atoms: C1_2  and  C2_3 
ROOT
ATOM      1  C2  UNL d   1       0.688   1.142  -0.594  0.00  0.00    -0.073 A 
ATOM      2  C3  UNL d   1       0.264   2.265  -1.312  0.00  0.00    -0.002 A 
ATOM      3  C4  UNL d   1       0.884   2.609  -2.514  0.00  0.00     0.004 A 
ATOM      4  C5  UNL d   1       1.928   1.830  -3.013  0.00  0.00    -0.004 A 
ATOM      5  C6  UNL d   1       2.358   0.696  -2.315  0.00  0.00    -0.075 A 
ATOM      6  C7  UNL d   1       3.481  -0.151  -2.837  0.00  0.00     0.076 C 
ATOM      7  C8  UNL d   1       1.732   0.359  -1.108  0.00  0.00     0.001 A 
ENDROOT
BRANCH   1   8
ATOM      8  C1  UNL d   1       0.017   0.763   0.701  0.00  0.00     0.053 C 
ATOM      9  C   UNL d   1      -0.696  -0.576   0.603  0.00  0.00     0.018 C 
ENDBRANCH   1   8
TORSDOF 1
ENDMDL
