MODEL 1
REMARK minimizedAffinity 1.30594099
REMARK minimizedRMSD -1
REMARK  1 active torsions:
REMARK  status: ('A' for Active; 'I' for Inactive)
REMARK    1  A    between atoms: C1_2  and  C2_3 
ROOT
ATOM      1  C2  UNL d   1      -0.658   0.728   1.189  0.00  0.00    -0.073 A 
ATOM      2  C3  UNL d   1      -1.454  -0.216   0.532  0.00  0.00    -0.002 A 
ATOM      3  C4  UNL d   1      -0.925  -0.989  -0.502  0.00  0.00     0.004 A 
ATOM      4  C5  UNL d   1       0.407  -0.829  -0.886  0.00  0.00    -0.004 A 
ATOM      5  C6  UNL d   1       1.222   0.101  -0.234  0.00  0.00    -0.075 A 
ATOM      6  C7  UNL d   1       2.656   0.286  -0.637  0.00  0.00     0.076 C 
ATOM      7  C8  UNL d   1       0.682   0.875   0.802  0.00  0.00     0.001 A 
ENDROOT
BRANCH   1   8
ATOM      8  C1  UNL d   1      -1.224   1.560   2.311  0.00  0.00     0.053 C 
ATOM      9  C   UNL d   1      -1.956   0.710   3.337  0.00  0.00     0.018 C 
ENDBRANCH   1   8
TORSDOF 1
ENDMDL
