MODEL 1
REMARK minimizedAffinity -3.78681231
REMARK minimizedRMSD -1
REMARK  1 active torsions:
REMARK  status: ('A' for Active; 'I' for Inactive)
REMARK    1  A    between atoms: C1_2  and  C2_3 
ROOT
ATOM      1  C2  UNL d   1       0.374  -0.070  -0.841  0.00  0.00    -0.073 A 
ATOM      2  C3  UNL d   1       0.103   1.259  -1.186  0.00  0.00    -0.002 A 
ATOM      3  C4  UNL d   1       1.117   2.079  -1.681  0.00  0.00     0.004 A 
ATOM      4  C5  UNL d   1       2.409   1.580  -1.841  0.00  0.00    -0.004 A 
ATOM      5  C6  UNL d   1       2.697   0.251  -1.512  0.00  0.00    -0.075 A 
ATOM      6  C7  UNL d   1       4.083  -0.301  -1.677  0.00  0.00     0.076 C 
ATOM      7  C8  UNL d   1       1.674  -0.566  -1.014  0.00  0.00     0.001 A 
ENDROOT
BRANCH   1   8
ATOM      8  C1  UNL d   1      -0.720  -0.962  -0.312  0.00  0.00     0.053 C 
ATOM      9  C   UNL d   1      -0.412  -2.434  -0.535  0.00  0.00     0.018 C 
ENDBRANCH   1   8
TORSDOF 1
ENDMDL
