MODEL 1
REMARK minimizedAffinity 4.27106237
REMARK minimizedRMSD -1
REMARK  0 active torsions:
REMARK  status: ('A' for Active; 'I' for Inactive)
ROOT
ATOM      1  C   UNL d   1       1.718  -0.963   2.215  0.00  0.00     0.078 C 
ATOM      2  C1  UNL d   1       2.306  -2.141   2.933  0.00  0.00    -0.077 A 
ATOM      3  C2  UNL d   1       1.525  -3.261   3.242  0.00  0.00    -0.001 A 
ATOM      4  C3  UNL d   1       2.083  -4.346   3.919  0.00  0.00     0.003 A 
ATOM      5  C4  UNL d   1       3.425  -4.322   4.294  0.00  0.00    -0.005 A 
ATOM      6  C5  UNL d   1       4.210  -3.211   3.992  0.00  0.00     0.003 A 
ATOM      7  C6  UNL d   1       3.654  -2.125   3.315  0.00  0.00    -0.001 A 
ENDROOT
TORSDOF 0
ENDMDL
