MODEL 1
REMARK minimizedAffinity 4.20511675
REMARK minimizedRMSD -1
REMARK  0 active torsions:
REMARK  status: ('A' for Active; 'I' for Inactive)
ROOT
ATOM      1  C   UNL d   1       1.336  -5.399   5.618  0.00  0.00     0.078 C 
ATOM      2  C1  UNL d   1       1.601  -4.265   4.673  0.00  0.00    -0.077 A 
ATOM      3  C2  UNL d   1       2.371  -3.163   5.067  0.00  0.00    -0.001 A 
ATOM      4  C3  UNL d   1       2.602  -2.110   4.180  0.00  0.00     0.003 A 
ATOM      5  C4  UNL d   1       2.065  -2.148   2.894  0.00  0.00    -0.005 A 
ATOM      6  C5  UNL d   1       1.296  -3.239   2.494  0.00  0.00     0.003 A 
ATOM      7  C6  UNL d   1       1.064  -4.292   3.380  0.00  0.00    -0.001 A 
ENDROOT
TORSDOF 0
ENDMDL
