MODEL 1
REMARK minimizedAffinity 1.6379323
REMARK minimizedRMSD -1
REMARK  0 active torsions:
REMARK  status: ('A' for Active; 'I' for Inactive)
ROOT
ATOM      1  C   UNL d   1       5.997  -2.815   3.726  0.00  0.00     0.078 C 
ATOM      2  C1  UNL d   1       4.551  -3.210   3.782  0.00  0.00    -0.077 A 
ATOM      3  C2  UNL d   1       4.077  -4.067   4.783  0.00  0.00    -0.001 A 
ATOM      4  C3  UNL d   1       2.730  -4.434   4.818  0.00  0.00     0.003 A 
ATOM      5  C4  UNL d   1       1.848  -3.950   3.854  0.00  0.00    -0.005 A 
ATOM      6  C5  UNL d   1       2.312  -3.099   2.853  0.00  0.00     0.003 A 
ATOM      7  C6  UNL d   1       3.657  -2.731   2.817  0.00  0.00    -0.001 A 
ENDROOT
TORSDOF 0
ENDMDL
