MODEL 1
REMARK minimizedAffinity -1.65915298
REMARK minimizedRMSD -1
REMARK  0 active torsions:
REMARK  status: ('A' for Active; 'I' for Inactive)
ROOT
ATOM      1  C   UNL d   1       4.124  -5.586  -1.716  0.00  0.00     0.078 C 
ATOM      2  C1  UNL d   1       4.119  -5.737  -3.208  0.00  0.00    -0.077 A 
ATOM      3  C2  UNL d   1       5.317  -5.816  -3.929  0.00  0.00    -0.001 A 
ATOM      4  C3  UNL d   1       5.297  -5.947  -5.319  0.00  0.00     0.003 A 
ATOM      5  C4  UNL d   1       4.082  -5.999  -5.999  0.00  0.00    -0.005 A 
ATOM      6  C5  UNL d   1       2.885  -5.919  -5.291  0.00  0.00     0.003 A 
ATOM      7  C6  UNL d   1       2.903  -5.788  -3.901  0.00  0.00    -0.001 A 
ENDROOT
TORSDOF 0
ENDMDL
