MODEL 1
REMARK minimizedAffinity -0.0194041058
REMARK minimizedRMSD -1
REMARK  0 active torsions:
REMARK  status: ('A' for Active; 'I' for Inactive)
ROOT
ATOM      1  C   UNL d   1       4.768  -5.946  -2.114  0.00  0.00     0.078 C 
ATOM      2  C1  UNL d   1       4.127  -5.972  -3.470  0.00  0.00    -0.077 A 
ATOM      3  C2  UNL d   1       4.904  -5.981  -4.635  0.00  0.00    -0.001 A 
ATOM      4  C3  UNL d   1       4.294  -5.995  -5.890  0.00  0.00     0.003 A 
ATOM      5  C4  UNL d   1       2.904  -6.000  -5.992  0.00  0.00    -0.005 A 
ATOM      6  C5  UNL d   1       2.123  -5.989  -4.839  0.00  0.00     0.003 A 
ATOM      7  C6  UNL d   1       2.731  -5.974  -3.583  0.00  0.00    -0.001 A 
ENDROOT
TORSDOF 0
ENDMDL
