MODEL 1
REMARK minimizedAffinity 1.45175052
REMARK minimizedRMSD -1
REMARK  0 active torsions:
REMARK  status: ('A' for Active; 'I' for Inactive)
ROOT
ATOM      1  C   UNL d   1      -3.983   2.522  -4.066  0.00  0.00     0.078 C 
ATOM      2  C1  UNL d   1      -3.310   2.013  -2.827  0.00  0.00    -0.077 A 
ATOM      3  C2  UNL d   1      -2.807   0.708  -2.763  0.00  0.00    -0.001 A 
ATOM      4  C3  UNL d   1      -2.191   0.244  -1.600  0.00  0.00     0.003 A 
ATOM      5  C4  UNL d   1      -2.073   1.079  -0.491  0.00  0.00    -0.005 A 
ATOM      6  C5  UNL d   1      -2.571   2.379  -0.544  0.00  0.00     0.003 A 
ATOM      7  C6  UNL d   1      -3.188   2.844  -1.706  0.00  0.00    -0.001 A 
ENDROOT
TORSDOF 0
ENDMDL
