MODEL 1
REMARK minimizedAffinity 14.6026154
REMARK minimizedRMSD -1
REMARK  0 active torsions:
REMARK  status: ('A' for Active; 'I' for Inactive)
ROOT
ATOM      1  C   UNL d   1       1.735  -1.502   2.909  0.00  0.00     0.078 C 
ATOM      2  C1  UNL d   1       2.231  -0.178   2.410  0.00  0.00    -0.077 A 
ATOM      3  C2  UNL d   1       2.064   0.987   3.168  0.00  0.00    -0.001 A 
ATOM      4  C3  UNL d   1       2.523   2.215   2.687  0.00  0.00     0.003 A 
ATOM      5  C4  UNL d   1       3.150   2.289   1.444  0.00  0.00    -0.005 A 
ATOM      6  C5  UNL d   1       3.318   1.135   0.682  0.00  0.00     0.003 A 
ATOM      7  C6  UNL d   1       2.860  -0.093   1.161  0.00  0.00    -0.001 A 
ENDROOT
TORSDOF 0
ENDMDL
