MODEL 1
REMARK minimizedAffinity 12.1513348
REMARK minimizedRMSD -1
REMARK  0 active torsions:
REMARK  status: ('A' for Active; 'I' for Inactive)
ROOT
ATOM      1  C   UNL d   1       4.948  -2.966   5.247  0.00  0.00     0.078 C 
ATOM      2  C1  UNL d   1       3.679  -3.048   4.452  0.00  0.00    -0.077 A 
ATOM      3  C2  UNL d   1       3.140  -4.285   4.078  0.00  0.00    -0.001 A 
ATOM      4  C3  UNL d   1       1.964  -4.346   3.330  0.00  0.00     0.003 A 
ATOM      5  C4  UNL d   1       1.317  -3.173   2.947  0.00  0.00    -0.005 A 
ATOM      6  C5  UNL d   1       1.847  -1.937   3.312  0.00  0.00     0.003 A 
ATOM      7  C6  UNL d   1       3.023  -1.874   4.060  0.00  0.00    -0.001 A 
ENDROOT
TORSDOF 0
ENDMDL
