MODEL 1
REMARK minimizedAffinity 8.69177818
REMARK minimizedRMSD -1
REMARK  0 active torsions:
REMARK  status: ('A' for Active; 'I' for Inactive)
ROOT
ATOM      1  C   UNL d   1      -3.134   1.582  -2.603  0.00  0.00     0.078 C 
ATOM      2  C1  UNL d   1      -3.106   0.088  -2.470  0.00  0.00    -0.077 A 
ATOM      3  C2  UNL d   1      -3.707  -0.733  -3.431  0.00  0.00    -0.001 A 
ATOM      4  C3  UNL d   1      -3.682  -2.121  -3.289  0.00  0.00     0.003 A 
ATOM      5  C4  UNL d   1      -3.058  -2.701  -2.186  0.00  0.00    -0.005 A 
ATOM      6  C5  UNL d   1      -2.459  -1.891  -1.223  0.00  0.00     0.003 A 
ATOM      7  C6  UNL d   1      -2.483  -0.503  -1.364  0.00  0.00    -0.001 A 
ENDROOT
TORSDOF 0
ENDMDL
