MODEL 1
REMARK minimizedAffinity 1.21607947
REMARK minimizedRMSD -1
REMARK  1 active torsions:
REMARK  status: ('A' for Active; 'I' for Inactive)
REMARK    1  A    between atoms: C1_2  and  C2_3 
ROOT
ATOM      1  C2  UNL d   1       1.290   2.470  -0.637  0.00  0.00    -0.073 A 
ATOM      2  C3  UNL d   1       0.474   1.912   0.354  0.00  0.00    -0.002 A 
ATOM      3  C4  UNL d   1       0.355   0.526   0.472  0.00  0.00     0.004 A 
ATOM      4  C5  UNL d   1       1.055  -0.314  -0.394  0.00  0.00    -0.004 A 
ATOM      5  C6  UNL d   1       1.884   0.224  -1.383  0.00  0.00    -0.075 A 
ATOM      6  C7  UNL d   1       2.642  -0.666  -2.323  0.00  0.00     0.076 C 
ATOM      7  C8  UNL d   1       1.996   1.617  -1.496  0.00  0.00     0.001 A 
ENDROOT
BRANCH   1   8
ATOM      8  C1  UNL d   1       1.426   3.965  -0.763  0.00  0.00     0.053 C 
ATOM      9  C   UNL d   1       1.351   4.661   0.587  0.00  0.00     0.018 C 
ENDBRANCH   1   8
TORSDOF 1
ENDMDL
