MODEL 1
REMARK minimizedAffinity -3.26212692
REMARK minimizedRMSD -1
REMARK  1 active torsions:
REMARK  status: ('A' for Active; 'I' for Inactive)
REMARK    1  A    between atoms: C1_2  and  C2_3 
ROOT
ATOM      1  C2  UNL d   1       1.369   3.576  -0.341  0.00  0.00    -0.073 A 
ATOM      2  C3  UNL d   1       1.029   3.399  -1.687  0.00  0.00    -0.002 A 
ATOM      3  C4  UNL d   1       0.889   2.115  -2.216  0.00  0.00     0.004 A 
ATOM      4  C5  UNL d   1       1.080   0.997  -1.404  0.00  0.00    -0.004 A 
ATOM      5  C6  UNL d   1       1.409   1.153  -0.054  0.00  0.00    -0.075 A 
ATOM      6  C7  UNL d   1       1.620  -0.040   0.832  0.00  0.00     0.076 C 
ATOM      7  C8  UNL d   1       1.550   2.445   0.469  0.00  0.00     0.001 A 
ENDROOT
BRANCH   1   8
ATOM      8  C1  UNL d   1       1.515   4.960   0.236  0.00  0.00     0.053 C 
ATOM      9  C   UNL d   1       1.978   5.966  -0.806  0.00  0.00     0.018 C 
ENDBRANCH   1   8
TORSDOF 1
ENDMDL
