MODEL 1
REMARK minimizedAffinity 1.90727305
REMARK minimizedRMSD -1
REMARK  1 active torsions:
REMARK  status: ('A' for Active; 'I' for Inactive)
REMARK    1  A    between atoms: C1_2  and  C2_3 
ROOT
ATOM      1  C2  UNL d   1       1.201   2.322  -1.266  0.00  0.00    -0.073 A 
ATOM      2  C3  UNL d   1       0.611   1.294  -2.010  0.00  0.00    -0.002 A 
ATOM      3  C4  UNL d   1       0.631  -0.019  -1.538  0.00  0.00     0.004 A 
ATOM      4  C5  UNL d   1       1.235  -0.317  -0.317  0.00  0.00    -0.004 A 
ATOM      5  C6  UNL d   1       1.819   0.699   0.447  0.00  0.00    -0.075 A 
ATOM      6  C7  UNL d   1       2.475   0.395   1.762  0.00  0.00     0.076 C 
ATOM      7  C8  UNL d   1       1.797   2.014  -0.035  0.00  0.00     0.001 A 
ENDROOT
BRANCH   1   8
ATOM      8  C1  UNL d   1       1.176   3.743  -1.768  0.00  0.00     0.053 C 
ATOM      9  C   UNL d   1       1.526   4.740  -0.675  0.00  0.00     0.018 C 
ENDBRANCH   1   8
TORSDOF 1
ENDMDL
