MODEL 1
REMARK minimizedAffinity -1.23880696
REMARK minimizedRMSD -1
REMARK  1 active torsions:
REMARK  status: ('A' for Active; 'I' for Inactive)
REMARK    1  A    between atoms: C1_2  and  C2_3 
ROOT
ATOM      1  C2  UNL d   1       1.217   2.578   0.030  0.00  0.00    -0.073 A 
ATOM      2  C3  UNL d   1       1.189   1.546   0.974  0.00  0.00    -0.002 A 
ATOM      3  C4  UNL d   1       1.171   0.213   0.561  0.00  0.00     0.004 A 
ATOM      4  C5  UNL d   1       1.188  -0.101  -0.797  0.00  0.00    -0.004 A 
ATOM      5  C6  UNL d   1       1.228   0.916  -1.756  0.00  0.00    -0.075 A 
ATOM      6  C7  UNL d   1       1.245   0.594  -3.222  0.00  0.00     0.076 C 
ATOM      7  C8  UNL d   1       1.244   2.252  -1.334  0.00  0.00     0.001 A 
ENDROOT
BRANCH   1   8
ATOM      8  C1  UNL d   1       1.244   4.019   0.470  0.00  0.00     0.053 C 
ATOM      9  C   UNL d   1       1.641   4.954  -0.661  0.00  0.00     0.018 C 
ENDBRANCH   1   8
TORSDOF 1
ENDMDL
