MODEL 1
REMARK minimizedAffinity -0.733018279
REMARK minimizedRMSD -1
REMARK  1 active torsions:
REMARK  status: ('A' for Active; 'I' for Inactive)
REMARK    1  A    between atoms: C1_2  and  C2_3 
ROOT
ATOM      1  C2  UNL d   1       1.497   3.721  -0.359  0.00  0.00    -0.073 A 
ATOM      2  C3  UNL d   1       1.196   3.394  -1.686  0.00  0.00    -0.002 A 
ATOM      3  C4  UNL d   1       1.067   2.059  -2.072  0.00  0.00     0.004 A 
ATOM      4  C5  UNL d   1       1.231   1.039  -1.135  0.00  0.00    -0.004 A 
ATOM      5  C6  UNL d   1       1.520   1.346   0.199  0.00  0.00    -0.075 A 
ATOM      6  C7  UNL d   1       1.702   0.260   1.219  0.00  0.00     0.076 C 
ATOM      7  C8  UNL d   1       1.651   2.689   0.577  0.00  0.00     0.001 A 
ENDROOT
BRANCH   1   8
ATOM      8  C1  UNL d   1       1.631   5.161   0.063  0.00  0.00     0.053 C 
ATOM      9  C   UNL d   1       2.579   5.934  -0.840  0.00  0.00     0.018 C 
ENDBRANCH   1   8
TORSDOF 1
ENDMDL
