MODEL 1
REMARK minimizedAffinity 7.35220337
REMARK minimizedRMSD -1
REMARK  1 active torsions:
REMARK  status: ('A' for Active; 'I' for Inactive)
REMARK    1  A    between atoms: C1_2  and  C2_3 
ROOT
ATOM      1  C2  UNL d   1       0.982   2.079  -1.409  0.00  0.00    -0.073 A 
ATOM      2  C3  UNL d   1      -0.222   2.115  -2.121  0.00  0.00    -0.002 A 
ATOM      3  C4  UNL d   1      -0.800   3.337  -2.468  0.00  0.00     0.004 A 
ATOM      4  C5  UNL d   1      -0.178   4.534  -2.113  0.00  0.00    -0.004 A 
ATOM      5  C6  UNL d   1       1.032   4.519  -1.411  0.00  0.00    -0.075 A 
ATOM      6  C7  UNL d   1       1.712   5.797  -1.020  0.00  0.00     0.076 C 
ATOM      7  C8  UNL d   1       1.604   3.288  -1.065  0.00  0.00     0.001 A 
ENDROOT
BRANCH   1   8
ATOM      8  C1  UNL d   1       1.613   0.762  -1.039  0.00  0.00     0.053 C 
ATOM      9  C   UNL d   1       0.987  -0.402  -1.791  0.00  0.00     0.018 C 
ENDBRANCH   1   8
TORSDOF 1
ENDMDL
