MODEL 1
REMARK minimizedAffinity -1.55372059
REMARK minimizedRMSD -1
REMARK  1 active torsions:
REMARK  status: ('A' for Active; 'I' for Inactive)
REMARK    1  A    between atoms: C1_2  and  C2_3 
ROOT
ATOM      1  C2  UNL d   1       1.213   2.565  -1.131  0.00  0.00    -0.073 A 
ATOM      2  C3  UNL d   1       1.189   2.684   0.263  0.00  0.00    -0.002 A 
ATOM      3  C4  UNL d   1       0.961   1.563   1.063  0.00  0.00     0.004 A 
ATOM      4  C5  UNL d   1       0.761   0.313   0.479  0.00  0.00    -0.004 A 
ATOM      5  C6  UNL d   1       0.792   0.171  -0.912  0.00  0.00    -0.075 A 
ATOM      6  C7  UNL d   1       0.577  -1.167  -1.557  0.00  0.00     0.076 C 
ATOM      7  C8  UNL d   1       1.020   1.302  -1.709  0.00  0.00     0.001 A 
ENDROOT
BRANCH   1   8
ATOM      8  C1  UNL d   1       1.466   3.771  -1.998  0.00  0.00     0.053 C 
ATOM      9  C   UNL d   1       1.680   5.030  -1.174  0.00  0.00     0.018 C 
ENDBRANCH   1   8
TORSDOF 1
ENDMDL
