MODEL 1
REMARK minimizedAffinity 5.67537069
REMARK minimizedRMSD -1
REMARK  1 active torsions:
REMARK  status: ('A' for Active; 'I' for Inactive)
REMARK    1  A    between atoms: C1_2  and  C2_3 
ROOT
ATOM      1  C2  UNL d   1       1.515   3.708  -1.885  0.00  0.00    -0.073 A 
ATOM      2  C3  UNL d   1       0.189   3.993  -2.228  0.00  0.00    -0.002 A 
ATOM      3  C4  UNL d   1      -0.738   2.960  -2.377  0.00  0.00     0.004 A 
ATOM      4  C5  UNL d   1      -0.351   1.635  -2.178  0.00  0.00    -0.004 A 
ATOM      5  C6  UNL d   1       0.967   1.331  -1.823  0.00  0.00    -0.075 A 
ATOM      6  C7  UNL d   1       1.400  -0.089  -1.607  0.00  0.00     0.076 C 
ATOM      7  C8  UNL d   1       1.893   2.373  -1.678  0.00  0.00     0.001 A 
ENDROOT
BRANCH   1   8
ATOM      8  C1  UNL d   1       2.518   4.820  -1.716  0.00  0.00     0.053 C 
ATOM      9  C   UNL d   1       2.028   5.889  -0.754  0.00  0.00     0.018 C 
ENDBRANCH   1   8
TORSDOF 1
ENDMDL
