MODEL 1
REMARK minimizedAffinity -3.06615829
REMARK minimizedRMSD -1
REMARK  1 active torsions:
REMARK  status: ('A' for Active; 'I' for Inactive)
REMARK    1  A    between atoms: C1_2  and  C2_3 
ROOT
ATOM      1  C2  UNL d   1       1.213   2.208  -0.367  0.00  0.00    -0.073 A 
ATOM      2  C3  UNL d   1       1.083   2.005  -1.745  0.00  0.00    -0.002 A 
ATOM      3  C4  UNL d   1       1.180   3.081  -2.628  0.00  0.00     0.004 A 
ATOM      4  C5  UNL d   1       1.415   4.368  -2.144  0.00  0.00    -0.004 A 
ATOM      5  C6  UNL d   1       1.560   4.589  -0.771  0.00  0.00    -0.075 A 
ATOM      6  C7  UNL d   1       1.810   5.967  -0.233  0.00  0.00     0.076 C 
ATOM      7  C8  UNL d   1       1.458   3.503   0.110  0.00  0.00     0.001 A 
ENDROOT
BRANCH   1   8
ATOM      8  C1  UNL d   1       1.115   1.048   0.590  0.00  0.00     0.053 C 
ATOM      9  C   UNL d   1       0.788  -0.254  -0.124  0.00  0.00     0.018 C 
ENDBRANCH   1   8
TORSDOF 1
ENDMDL
