MODEL 1
REMARK minimizedAffinity 2.1744554
REMARK minimizedRMSD -1
REMARK  1 active torsions:
REMARK  status: ('A' for Active; 'I' for Inactive)
REMARK    1  A    between atoms: C1_2  and  C2_3 
ROOT
ATOM      1  C2  UNL d   1       1.025  -0.938  -0.664  0.00  0.00    -0.073 A 
ATOM      2  C3  UNL d   1       0.667  -0.136  -1.754  0.00  0.00    -0.002 A 
ATOM      3  C4  UNL d   1       0.583   1.249  -1.612  0.00  0.00     0.004 A 
ATOM      4  C5  UNL d   1       0.863   1.847  -0.383  0.00  0.00    -0.004 A 
ATOM      5  C6  UNL d   1       1.234   1.064   0.714  0.00  0.00    -0.075 A 
ATOM      6  C7  UNL d   1       1.536   1.691   2.043  0.00  0.00     0.076 C 
ATOM      7  C8  UNL d   1       1.313  -0.327   0.565  0.00  0.00     0.001 A 
ENDROOT
BRANCH   1   8
ATOM      8  C1  UNL d   1       1.122  -2.435  -0.814  0.00  0.00     0.053 C 
ATOM      9  C   UNL d   1      -0.115  -3.024  -1.472  0.00  0.00     0.018 C 
ENDBRANCH   1   8
TORSDOF 1
ENDMDL
