MODEL 1
REMARK minimizedAffinity -1.51141739
REMARK minimizedRMSD -1
REMARK  1 active torsions:
REMARK  status: ('A' for Active; 'I' for Inactive)
REMARK    1  A    between atoms: C1_2  and  C2_3 
ROOT
ATOM      1  C2  UNL d   1       1.499   2.267  -1.063  0.00  0.00    -0.073 A 
ATOM      2  C3  UNL d   1       1.350   2.046   0.311  0.00  0.00    -0.002 A 
ATOM      3  C4  UNL d   1       1.501   3.098   1.215  0.00  0.00     0.004 A 
ATOM      4  C5  UNL d   1       1.795   4.382   0.755  0.00  0.00    -0.004 A 
ATOM      5  C6  UNL d   1       1.935   4.625  -0.614  0.00  0.00    -0.075 A 
ATOM      6  C7  UNL d   1       2.254   6.000  -1.125  0.00  0.00     0.076 C 
ATOM      7  C8  UNL d   1       1.785   3.563  -1.516  0.00  0.00     0.001 A 
ENDROOT
BRANCH   1   8
ATOM      8  C1  UNL d   1       1.330   1.135  -2.043  0.00  0.00     0.053 C 
ATOM      9  C   UNL d   1       1.496  -0.223  -1.380  0.00  0.00     0.018 C 
ENDBRANCH   1   8
TORSDOF 1
ENDMDL
