MODEL 1
REMARK minimizedAffinity -1.95283985
REMARK minimizedRMSD -1
REMARK  1 active torsions:
REMARK  status: ('A' for Active; 'I' for Inactive)
REMARK    1  A    between atoms: C1_2  and  C2_3 
ROOT
ATOM      1  C2  UNL d   1       1.423   2.280  -0.854  0.00  0.00    -0.073 A 
ATOM      2  C3  UNL d   1       0.977   2.307   0.472  0.00  0.00    -0.002 A 
ATOM      3  C4  UNL d   1       0.932   3.510   1.177  0.00  0.00     0.004 A 
ATOM      4  C5  UNL d   1       1.326   4.699   0.562  0.00  0.00    -0.004 A 
ATOM      5  C6  UNL d   1       1.764   4.694  -0.767  0.00  0.00    -0.075 A 
ATOM      6  C7  UNL d   1       2.193   5.964  -1.442  0.00  0.00     0.076 C 
ATOM      7  C8  UNL d   1       1.808   3.481  -1.467  0.00  0.00     0.001 A 
ENDROOT
BRANCH   1   8
ATOM      8  C1  UNL d   1       1.467   0.984  -1.621  0.00  0.00     0.053 C 
ATOM      9  C   UNL d   1       1.374  -0.225  -0.703  0.00  0.00     0.018 C 
ENDBRANCH   1   8
TORSDOF 1
ENDMDL
