MODEL 1
REMARK minimizedAffinity -1.38287354
REMARK minimizedRMSD -1
REMARK  0 active torsions:
REMARK  status: ('A' for Active; 'I' for Inactive)
ROOT
ATOM      1  N1  IND d   1       0.011  -1.166   2.278  0.00  0.00    -0.196 N 
ATOM      2  C2  IND d   1      -0.998  -0.353   2.714  0.00  0.00     0.054 A 
ATOM      3  C3  IND d   1      -1.409   0.463   1.717  0.00  0.00    -0.031 A 
ATOM      4  C4  IND d   1      -0.638   0.563  -0.738  0.00  0.00     0.051 A 
ATOM      5  C5  IND d   1       0.286   0.040  -1.599  0.00  0.00    -0.031 A 
ATOM      6  C6  IND d   1       1.181  -0.933  -1.204  0.00  0.00     0.015 A 
ATOM      7  C7  IND d   1       1.179  -1.430   0.068  0.00  0.00    -0.016 A 
ATOM      8  C8  IND d   1       0.247  -0.897   0.947  0.00  0.00    -0.047 A 
ATOM      9  C9  IND d   1      -0.636   0.121   0.565  0.00  0.00    -0.096 A 
ATOM     10  HN1 IND d   1       0.427  -1.748   2.754  0.00  0.00     0.298 HD
ENDROOT
TORSDOF 0
ENDMDL
