MODEL 1
REMARK minimizedAffinity -2.45557404
REMARK minimizedRMSD -1
REMARK  0 active torsions:
REMARK  status: ('A' for Active; 'I' for Inactive)
ROOT
ATOM      1  N1  IND d   1       0.542  -1.447   0.898  0.00  0.00    -0.196 N 
ATOM      2  C2  IND d   1       0.078  -0.791   2.004  0.00  0.00     0.054 A 
ATOM      3  C3  IND d   1      -0.546   0.353   1.645  0.00  0.00    -0.031 A 
ATOM      4  C4  IND d   1      -1.011   1.294  -0.705  0.00  0.00     0.051 A 
ATOM      5  C5  IND d   1      -0.750   1.068  -2.027  0.00  0.00    -0.031 A 
ATOM      6  C6  IND d   1      -0.032  -0.032  -2.451  0.00  0.00     0.015 A 
ATOM      7  C7  IND d   1       0.443  -0.957  -1.564  0.00  0.00    -0.016 A 
ATOM      8  C8  IND d   1       0.186  -0.726  -0.220  0.00  0.00    -0.047 A 
ATOM      9  C9  IND d   1      -0.506   0.411   0.218  0.00  0.00    -0.096 A 
ATOM     10  HN1 IND d   1       0.983  -2.185   0.901  0.00  0.00     0.298 HD
ENDROOT
TORSDOF 0
ENDMDL
