MODEL 1
REMARK minimizedAffinity 9.91412449
REMARK minimizedRMSD -1
REMARK  0 active torsions:
REMARK  status: ('A' for Active; 'I' for Inactive)
ROOT
ATOM      1  N1  IND d   1       1.052  -1.047  -1.135  0.00  0.00    -0.196 N 
ATOM      2  C2  IND d   1       1.994  -0.079  -1.341  0.00  0.00     0.054 A 
ATOM      3  C3  IND d   1       1.747   0.993  -0.555  0.00  0.00    -0.031 A 
ATOM      4  C4  IND d   1      -0.087   1.332   1.219  0.00  0.00     0.051 A 
ATOM      5  C5  IND d   1      -1.204   0.741   1.741  0.00  0.00    -0.031 A 
ATOM      6  C6  IND d   1      -1.633  -0.503   1.324  0.00  0.00     0.015 A 
ATOM      7  C7  IND d   1      -0.951  -1.210   0.374  0.00  0.00    -0.016 A 
ATOM      8  C8  IND d   1       0.179  -0.610  -0.163  0.00  0.00    -0.047 A 
ATOM      9  C9  IND d   1       0.595   0.671   0.225  0.00  0.00    -0.096 A 
ATOM     10  HN1 IND d   1       1.011  -1.803  -1.543  0.00  0.00     0.298 HD
ENDROOT
TORSDOF 0
ENDMDL
