MODEL 1
REMARK minimizedAffinity -5.96829367
REMARK minimizedRMSD -1
REMARK  0 active torsions:
REMARK  status: ('A' for Active; 'I' for Inactive)
ROOT
ATOM      1  N1  IND d   1       0.254  -0.856  -0.228  0.00  0.00    -0.196 N 
ATOM      2  C2  IND d   1      -0.884  -0.185   0.123  0.00  0.00     0.054 A 
ATOM      3  C3  IND d   1      -0.882   0.085   1.448  0.00  0.00    -0.031 A 
ATOM      4  C4  IND d   1       0.934  -0.391   3.211  0.00  0.00     0.051 A 
ATOM      5  C5  IND d   1       2.138  -1.017   3.375  0.00  0.00    -0.031 A 
ATOM      6  C6  IND d   1       2.790  -1.630   2.325  0.00  0.00     0.015 A 
ATOM      7  C7  IND d   1       2.265  -1.632   1.064  0.00  0.00    -0.016 A 
ATOM      8  C8  IND d   1       1.039  -1.004   0.895  0.00  0.00    -0.047 A 
ATOM      9  C9  IND d   1       0.352  -0.416   1.965  0.00  0.00    -0.096 A 
ATOM     10  HN1 IND d   1       0.447  -1.138  -1.017  0.00  0.00     0.298 HD
ENDROOT
TORSDOF 0
ENDMDL
