MODEL 1
REMARK minimizedAffinity -5.72127581
REMARK minimizedRMSD -1
REMARK  0 active torsions:
REMARK  status: ('A' for Active; 'I' for Inactive)
ROOT
ATOM      1  N1  IND d   1       0.951   0.454  -0.109  0.00  0.00    -0.196 N 
ATOM      2  C2  IND d   1      -0.342   0.832   0.122  0.00  0.00     0.054 A 
ATOM      3  C3  IND d   1      -0.780   0.318   1.294  0.00  0.00    -0.031 A 
ATOM      4  C4  IND d   1       0.489  -1.084   3.041  0.00  0.00     0.051 A 
ATOM      5  C5  IND d   1       1.684  -1.711   3.256  0.00  0.00    -0.031 A 
ATOM      6  C6  IND d   1       2.717  -1.646   2.344  0.00  0.00     0.015 A 
ATOM      7  C7  IND d   1       2.598  -0.937   1.182  0.00  0.00    -0.016 A 
ATOM      8  C8  IND d   1       1.383  -0.304   0.956  0.00  0.00    -0.047 A 
ATOM      9  C9  IND d   1       0.317  -0.403   1.859  0.00  0.00    -0.096 A 
ATOM     10  HN1 IND d   1       1.416   0.656  -0.803  0.00  0.00     0.298 HD
ENDROOT
TORSDOF 0
ENDMDL
