MODEL 1
REMARK minimizedAffinity -3.97066665
REMARK minimizedRMSD -1
REMARK  0 active torsions:
REMARK  status: ('A' for Active; 'I' for Inactive)
ROOT
ATOM      1  N1  IND d   1      -0.845   1.901  -3.516  0.00  0.00    -0.196 N 
ATOM      2  C2  IND d   1      -0.690   3.254  -3.394  0.00  0.00     0.054 A 
ATOM      3  C3  IND d   1      -0.393   3.580  -2.116  0.00  0.00    -0.031 A 
ATOM      4  C4  IND d   1      -0.011   2.046  -0.084  0.00  0.00     0.051 A 
ATOM      5  C5  IND d   1      -0.078   0.738   0.306  0.00  0.00    -0.031 A 
ATOM      6  C6  IND d   1      -0.408  -0.270  -0.577  0.00  0.00     0.015 A 
ATOM      7  C7  IND d   1      -0.674  -0.007  -1.891  0.00  0.00    -0.016 A 
ATOM      8  C8  IND d   1      -0.614   1.321  -2.288  0.00  0.00    -0.047 A 
ATOM      9  C9  IND d   1      -0.321   2.353  -1.387  0.00  0.00    -0.096 A 
ATOM     10  HN1 IND d   1      -1.053   1.484  -4.238  0.00  0.00     0.298 HD
ENDROOT
TORSDOF 0
ENDMDL
