MODEL 1
REMARK minimizedAffinity -4.80285358
REMARK minimizedRMSD -1
REMARK  0 active torsions:
REMARK  status: ('A' for Active; 'I' for Inactive)
ROOT
ATOM      1  N1  IND d   1       1.385  -1.472  -1.360  0.00  0.00    -0.196 N 
ATOM      2  C2  IND d   1       0.249  -0.833  -1.772  0.00  0.00     0.054 A 
ATOM      3  C3  IND d   1      -0.422  -0.337  -0.709  0.00  0.00    -0.031 A 
ATOM      4  C4  IND d   1       0.212  -0.367   1.786  0.00  0.00     0.051 A 
ATOM      5  C5  IND d   1       1.140  -0.866   2.655  0.00  0.00    -0.031 A 
ATOM      6  C6  IND d   1       2.222  -1.606   2.222  0.00  0.00     0.015 A 
ATOM      7  C7  IND d   1       2.421  -1.865   0.895  0.00  0.00    -0.016 A 
ATOM      8  C8  IND d   1       1.476  -1.365   0.010  0.00  0.00    -0.047 A 
ATOM      9  C9  IND d   1       0.354  -0.651   0.448  0.00  0.00    -0.096 A 
ATOM     10  HN1 IND d   1       1.949  -1.873  -1.871  0.00  0.00     0.298 HD
ENDROOT
TORSDOF 0
ENDMDL
