MODEL 1
REMARK minimizedAffinity -3.8426652
REMARK minimizedRMSD -1
REMARK  0 active torsions:
REMARK  status: ('A' for Active; 'I' for Inactive)
ROOT
ATOM      1  N1  IND d   1      -0.332  -0.009  -0.612  0.00  0.00    -0.196 N 
ATOM      2  C2  IND d   1       0.150   0.135   0.659  0.00  0.00     0.054 A 
ATOM      3  C3  IND d   1       0.973  -0.892   0.969  0.00  0.00    -0.031 A 
ATOM      4  C4  IND d   1       1.751  -2.863  -0.492  0.00  0.00     0.051 A 
ATOM      5  C5  IND d   1       1.552  -3.443  -1.714  0.00  0.00    -0.031 A 
ATOM      6  C6  IND d   1       0.700  -2.895  -2.651  0.00  0.00     0.015 A 
ATOM      7  C7  IND d   1       0.021  -1.735  -2.404  0.00  0.00    -0.016 A 
ATOM      8  C8  IND d   1       0.215  -1.148  -1.161  0.00  0.00    -0.047 A 
ATOM      9  C9  IND d   1       1.045  -1.722  -0.191  0.00  0.00    -0.096 A 
ATOM     10  HN1 IND d   1      -0.884   0.522  -1.002  0.00  0.00     0.298 HD
ENDROOT
TORSDOF 0
ENDMDL
