MODEL 1
REMARK minimizedAffinity -2.82739234
REMARK minimizedRMSD -1
REMARK  0 active torsions:
REMARK  status: ('A' for Active; 'I' for Inactive)
ROOT
ATOM      1  N1  IND d   1       0.504  -0.107  -1.108  0.00  0.00    -0.196 N 
ATOM      2  C2  IND d   1       0.219  -1.196  -0.332  0.00  0.00     0.054 A 
ATOM      3  C3  IND d   1      -0.376  -0.811   0.819  0.00  0.00    -0.031 A 
ATOM      4  C4  IND d   1      -1.071   1.544   1.592  0.00  0.00     0.051 A 
ATOM      5  C5  IND d   1      -0.988   2.862   1.239  0.00  0.00    -0.031 A 
ATOM      6  C6  IND d   1      -0.394   3.265   0.061  0.00  0.00     0.015 A 
ATOM      7  C7  IND d   1       0.131   2.361  -0.818  0.00  0.00    -0.016 A 
ATOM      8  C8  IND d   1       0.055   1.022  -0.460  0.00  0.00    -0.047 A 
ATOM      9  C9  IND d   1      -0.508   0.610   0.754  0.00  0.00    -0.096 A 
ATOM     10  HN1 IND d   1       0.897  -0.125  -1.873  0.00  0.00     0.298 HD
ENDROOT
TORSDOF 0
ENDMDL
