MODEL 1
REMARK minimizedAffinity 0.169419646
REMARK minimizedRMSD -1
REMARK  0 active torsions:
REMARK  status: ('A' for Active; 'I' for Inactive)
ROOT
ATOM      1  N1  IND d   1       0.515  -1.329   0.759  0.00  0.00    -0.196 N 
ATOM      2  C2  IND d   1      -0.147  -1.383  -0.436  0.00  0.00     0.054 A 
ATOM      3  C3  IND d   1      -1.035  -0.367  -0.528  0.00  0.00    -0.031 A 
ATOM      4  C4  IND d   1      -1.495   1.557   1.119  0.00  0.00     0.051 A 
ATOM      5  C5  IND d   1      -1.164   2.011   2.365  0.00  0.00    -0.031 A 
ATOM      6  C6  IND d   1      -0.235   1.363   3.154  0.00  0.00     0.015 A 
ATOM      7  C7  IND d   1       0.408   0.239   2.720  0.00  0.00    -0.016 A 
ATOM      8  C8  IND d   1       0.069  -0.229   1.458  0.00  0.00    -0.047 A 
ATOM      9  C9  IND d   1      -0.904   0.400   0.670  0.00  0.00    -0.096 A 
ATOM     10  HN1 IND d   1       1.110  -1.888   1.028  0.00  0.00     0.298 HD
ENDROOT
TORSDOF 0
ENDMDL
