MODEL 1
REMARK minimizedAffinity -5.86027336
REMARK minimizedRMSD -1
REMARK  0 active torsions:
REMARK  status: ('A' for Active; 'I' for Inactive)
ROOT
ATOM      1  N1  IND d   1      -0.626  -3.560  -1.441  0.00  0.00    -0.196 N 
ATOM      2  C2  IND d   1       0.427  -3.368  -2.292  0.00  0.00     0.054 A 
ATOM      3  C3  IND d   1       1.019  -2.177  -2.047  0.00  0.00    -0.031 A 
ATOM      4  C4  IND d   1       0.490  -0.431  -0.231  0.00  0.00     0.051 A 
ATOM      5  C5  IND d   1      -0.406  -0.145   0.761  0.00  0.00    -0.031 A 
ATOM      6  C6  IND d   1      -1.440  -1.002   1.078  0.00  0.00     0.015 A 
ATOM      7  C7  IND d   1      -1.611  -2.186   0.419  0.00  0.00    -0.016 A 
ATOM      8  C8  IND d   1      -0.707  -2.476  -0.593  0.00  0.00    -0.047 A 
ATOM      9  C9  IND d   1       0.319  -1.592  -0.947  0.00  0.00    -0.096 A 
ATOM     10  HN1 IND d   1      -1.149  -4.242  -1.435  0.00  0.00     0.298 HD
ENDROOT
TORSDOF 0
ENDMDL
