MODEL 1
REMARK minimizedAffinity -1.84425318
REMARK minimizedRMSD -1
REMARK  0 active torsions:
REMARK  status: ('A' for Active; 'I' for Inactive)
ROOT
ATOM      1  N1  IND d   1       1.540  -0.284  -0.454  0.00  0.00    -0.196 N 
ATOM      2  C2  IND d   1       1.347  -1.551  -0.931  0.00  0.00     0.054 A 
ATOM      3  C3  IND d   1       0.192  -2.064  -0.449  0.00  0.00    -0.031 A 
ATOM      4  C4  IND d   1      -1.584  -0.963   1.054  0.00  0.00     0.051 A 
ATOM      5  C5  IND d   1      -1.833   0.172   1.774  0.00  0.00    -0.031 A 
ATOM      6  C6  IND d   1      -0.954   1.235   1.786  0.00  0.00     0.015 A 
ATOM      7  C7  IND d   1       0.207   1.208   1.066  0.00  0.00    -0.016 A 
ATOM      8  C8  IND d   1       0.466   0.054   0.340  0.00  0.00    -0.047 A 
ATOM      9  C9  IND d   1      -0.402  -1.045   0.358  0.00  0.00    -0.096 A 
ATOM     10  HN1 IND d   1       2.218   0.217  -0.622  0.00  0.00     0.298 HD
ENDROOT
TORSDOF 0
ENDMDL
