MODEL 1
REMARK minimizedAffinity -3.10926485
REMARK minimizedRMSD -1
REMARK  0 active torsions:
REMARK  status: ('A' for Active; 'I' for Inactive)
ROOT
ATOM      1  N1  IND d   1       0.115  -0.059   0.725  0.00  0.00    -0.196 N 
ATOM      2  C2  IND d   1      -0.998  -0.348   1.465  0.00  0.00     0.054 A 
ATOM      3  C3  IND d   1      -1.469  -1.574   1.148  0.00  0.00    -0.031 A 
ATOM      4  C4  IND d   1      -0.514  -3.321  -0.485  0.00  0.00     0.051 A 
ATOM      5  C5  IND d   1       0.468  -3.500  -1.418  0.00  0.00    -0.031 A 
ATOM      6  C6  IND d   1       1.403  -2.522  -1.688  0.00  0.00     0.015 A 
ATOM      7  C7  IND d   1       1.398  -1.328  -1.024  0.00  0.00    -0.016 A 
ATOM      8  C8  IND d   1       0.397  -1.140  -0.081  0.00  0.00    -0.047 A 
ATOM      9  C9  IND d   1      -0.580  -2.113   0.167  0.00  0.00    -0.096 A 
ATOM     10  HN1 IND d   1       0.562   0.674   0.757  0.00  0.00     0.298 HD
ENDROOT
TORSDOF 0
ENDMDL
