MODEL 1
REMARK minimizedAffinity -5.37872458
REMARK minimizedRMSD -1
REMARK  0 active torsions:
REMARK  status: ('A' for Active; 'I' for Inactive)
ROOT
ATOM      1  N1  IND d   1       1.126   1.951  -1.205  0.00  0.00    -0.196 N 
ATOM      2  C2  IND d   1       1.801   0.762  -1.200  0.00  0.00     0.054 A 
ATOM      3  C3  IND d   1       1.246  -0.090  -0.309  0.00  0.00    -0.031 A 
ATOM      4  C4  IND d   1      -0.836   0.220   1.173  0.00  0.00     0.051 A 
ATOM      5  C5  IND d   1      -1.766   1.151   1.543  0.00  0.00    -0.031 A 
ATOM      6  C6  IND d   1      -1.782   2.420   1.002  0.00  0.00     0.015 A 
ATOM      7  C7  IND d   1      -0.871   2.805   0.059  0.00  0.00    -0.016 A 
ATOM      8  C8  IND d   1       0.079   1.865  -0.313  0.00  0.00    -0.047 A 
ATOM      9  C9  IND d   1       0.127   0.589   0.263  0.00  0.00    -0.096 A 
ATOM     10  HN1 IND d   1       1.321   2.637  -1.685  0.00  0.00     0.298 HD
ENDROOT
TORSDOF 0
ENDMDL
