MODEL 1
REMARK minimizedAffinity -3.0756166
REMARK minimizedRMSD -1
REMARK  0 active torsions:
REMARK  status: ('A' for Active; 'I' for Inactive)
ROOT
ATOM      1  N1  IND d   1      -0.679  -3.493  -1.255  0.00  0.00    -0.196 N 
ATOM      2  C2  IND d   1       0.264  -3.768  -2.205  0.00  0.00     0.054 A 
ATOM      3  C3  IND d   1       1.160  -2.759  -2.284  0.00  0.00    -0.031 A 
ATOM      4  C4  IND d   1       1.330  -0.608  -0.880  0.00  0.00     0.051 A 
ATOM      5  C5  IND d   1       0.673   0.103   0.086  0.00  0.00    -0.031 A 
ATOM      6  C6  IND d   1      -0.489  -0.360   0.668  0.00  0.00     0.015 A 
ATOM      7  C7  IND d   1      -1.035  -1.561   0.312  0.00  0.00    -0.016 A 
ATOM      8  C8  IND d   1      -0.375  -2.281  -0.673  0.00  0.00    -0.047 A 
ATOM      9  C9  IND d   1       0.782  -1.797  -1.298  0.00  0.00    -0.096 A 
ATOM     10  HN1 IND d   1      -1.350  -3.992  -1.054  0.00  0.00     0.298 HD
ENDROOT
TORSDOF 0
ENDMDL
