MODEL 1
REMARK minimizedAffinity -2.95738363
REMARK minimizedRMSD -1
REMARK  0 active torsions:
REMARK  status: ('A' for Active; 'I' for Inactive)
ROOT
ATOM      1  N1  IND d   1       0.990   0.102  -0.922  0.00  0.00    -0.196 N 
ATOM      2  C2  IND d   1       1.035  -1.236  -1.199  0.00  0.00     0.054 A 
ATOM      3  C3  IND d   1       0.187  -1.912  -0.393  0.00  0.00    -0.031 A 
ATOM      4  C4  IND d   1      -1.447  -1.014   1.383  0.00  0.00     0.051 A 
ATOM      5  C5  IND d   1      -1.822   0.136   2.019  0.00  0.00    -0.031 A 
ATOM      6  C6  IND d   1      -1.269   1.359   1.698  0.00  0.00     0.015 A 
ATOM      7  C7  IND d   1      -0.325   1.479   0.718  0.00  0.00    -0.016 A 
ATOM      8  C8  IND d   1       0.063   0.312   0.075  0.00  0.00    -0.047 A 
ATOM      9  C9  IND d   1      -0.464  -0.938   0.425  0.00  0.00    -0.096 A 
ATOM     10  HN1 IND d   1       1.461   0.710  -1.306  0.00  0.00     0.298 HD
ENDROOT
TORSDOF 0
ENDMDL
