MODEL 1
REMARK minimizedAffinity -1.35365534
REMARK minimizedRMSD -1
REMARK  0 active torsions:
REMARK  status: ('A' for Active; 'I' for Inactive)
ROOT
ATOM      1  N1  IND d   1      -0.308  -1.860  -1.000  0.00  0.00    -0.196 N 
ATOM      2  C2  IND d   1       1.044  -1.803  -1.191  0.00  0.00     0.054 A 
ATOM      3  C3  IND d   1       1.604  -0.925  -0.328  0.00  0.00    -0.031 A 
ATOM      4  C4  IND d   1       0.504   0.450   1.550  0.00  0.00     0.051 A 
ATOM      5  C5  IND d   1      -0.715   0.759   2.087  0.00  0.00    -0.031 A 
ATOM      6  C6  IND d   1      -1.883   0.197   1.614  0.00  0.00     0.015 A 
ATOM      7  C7  IND d   1      -1.875  -0.707   0.590  0.00  0.00    -0.016 A 
ATOM      8  C8  IND d   1      -0.641  -1.018   0.038  0.00  0.00    -0.047 A 
ATOM      9  C9  IND d   1       0.544  -0.419   0.485  0.00  0.00    -0.096 A 
ATOM     10  HN1 IND d   1      -0.858  -2.342  -1.452  0.00  0.00     0.298 HD
ENDROOT
TORSDOF 0
ENDMDL
