MODEL 1
REMARK minimizedAffinity -2.47461653
REMARK minimizedRMSD -1
REMARK  0 active torsions:
REMARK  status: ('A' for Active; 'I' for Inactive)
ROOT
ATOM      1  N1  IND d   1       0.734   0.408  -0.811  0.00  0.00    -0.196 N 
ATOM      2  C2  IND d   1       1.339  -0.772  -1.143  0.00  0.00     0.054 A 
ATOM      3  C3  IND d   1       1.059  -1.720  -0.220  0.00  0.00    -0.031 A 
ATOM      4  C4  IND d   1      -0.451  -1.582   1.860  0.00  0.00     0.051 A 
ATOM      5  C5  IND d   1      -1.191  -0.700   2.598  0.00  0.00    -0.031 A 
ATOM      6  C6  IND d   1      -1.331   0.622   2.228  0.00  0.00     0.015 A 
ATOM      7  C7  IND d   1      -0.745   1.111   1.095  0.00  0.00    -0.016 A 
ATOM      8  C8  IND d   1       0.013   0.220   0.348  0.00  0.00    -0.047 A 
ATOM      9  C9  IND d   1       0.194  -1.112   0.741  0.00  0.00    -0.096 A 
ATOM     10  HN1 IND d   1       0.794   1.144  -1.252  0.00  0.00     0.298 HD
ENDROOT
TORSDOF 0
ENDMDL
