MODEL 1
REMARK minimizedAffinity -3.79222679
REMARK minimizedRMSD -1
REMARK  0 active torsions:
REMARK  status: ('A' for Active; 'I' for Inactive)
ROOT
ATOM      1  N1  IND d   1       0.537   2.636  -0.738  0.00  0.00    -0.196 N 
ATOM      2  C2  IND d   1       0.105   3.833  -0.236  0.00  0.00     0.054 A 
ATOM      3  C3  IND d   1      -0.640   3.635   0.874  0.00  0.00    -0.031 A 
ATOM      4  C4  IND d   1      -1.194   1.442   2.104  0.00  0.00     0.051 A 
ATOM      5  C5  IND d   1      -1.053   0.087   2.005  0.00  0.00    -0.031 A 
ATOM      6  C6  IND d   1      -0.359  -0.500   0.966  0.00  0.00     0.015 A 
ATOM      7  C7  IND d   1       0.233   0.251  -0.009  0.00  0.00    -0.016 A 
ATOM      8  C8  IND d   1       0.086   1.628   0.084  0.00  0.00    -0.047 A 
ATOM      9  C9  IND d   1      -0.654   2.227   1.112  0.00  0.00    -0.096 A 
ATOM     10  HN1 IND d   1       1.010   2.532  -1.449  0.00  0.00     0.298 HD
ENDROOT
TORSDOF 0
ENDMDL
