MODEL 1
REMARK minimizedAffinity -0.477730215
REMARK minimizedRMSD -1
REMARK  0 active torsions:
REMARK  status: ('A' for Active; 'I' for Inactive)
ROOT
ATOM      1  N1  IND d   1       0.482   2.571  -0.855  0.00  0.00    -0.196 N 
ATOM      2  C2  IND d   1       0.059   3.798  -0.426  0.00  0.00     0.054 A 
ATOM      3  C3  IND d   1      -0.848   3.662   0.567  0.00  0.00    -0.031 A 
ATOM      4  C4  IND d   1      -1.710   1.524   1.713  0.00  0.00     0.051 A 
ATOM      5  C5  IND d   1      -1.643   0.161   1.641  0.00  0.00    -0.031 A 
ATOM      6  C6  IND d   1      -0.845  -0.482   0.716  0.00  0.00     0.015 A 
ATOM      7  C7  IND d   1      -0.073   0.219  -0.168  0.00  0.00    -0.016 A 
ATOM      8  C8  IND d   1      -0.145   1.603  -0.102  0.00  0.00    -0.047 A 
ATOM      9  C9  IND d   1      -0.985   2.260   0.806  0.00  0.00    -0.096 A 
ATOM     10  HN1 IND d   1       1.044   2.428  -1.490  0.00  0.00     0.298 HD
ENDROOT
TORSDOF 0
ENDMDL
