MODEL 1
REMARK minimizedAffinity -2.4937458
REMARK minimizedRMSD -1
REMARK  0 active torsions:
REMARK  status: ('A' for Active; 'I' for Inactive)
ROOT
ATOM      1  N1  IND d   1      -0.418  -2.263  -2.672  0.00  0.00    -0.196 N 
ATOM      2  C2  IND d   1       0.762  -2.827  -3.070  0.00  0.00     0.054 A 
ATOM      3  C3  IND d   1       1.761  -2.469  -2.232  0.00  0.00    -0.031 A 
ATOM      4  C4  IND d   1       1.667  -1.050  -0.087  0.00  0.00     0.051 A 
ATOM      5  C5  IND d   1       0.817  -0.287   0.664  0.00  0.00    -0.031 A 
ATOM      6  C6  IND d   1      -0.516  -0.143   0.335  0.00  0.00     0.015 A 
ATOM      7  C7  IND d   1      -1.053  -0.768  -0.754  0.00  0.00    -0.016 A 
ATOM      8  C8  IND d   1      -0.191  -1.538  -1.522  0.00  0.00    -0.047 A 
ATOM      9  C9  IND d   1       1.172  -1.654  -1.218  0.00  0.00    -0.096 A 
ATOM     10  HN1 IND d   1      -1.174  -2.346  -3.072  0.00  0.00     0.298 HD
ENDROOT
TORSDOF 0
ENDMDL
