MODEL 1
REMARK minimizedAffinity -4.55122709
REMARK minimizedRMSD -1
REMARK  0 active torsions:
REMARK  status: ('A' for Active; 'I' for Inactive)
ROOT
ATOM      1  N1  IND d   1       1.002  -1.696  -2.494  0.00  0.00    -0.196 N 
ATOM      2  C2  IND d   1       0.916  -3.060  -2.469  0.00  0.00     0.054 A 
ATOM      3  C3  IND d   1       0.421  -3.478  -1.282  0.00  0.00    -0.031 A 
ATOM      4  C4  IND d   1      -0.411  -2.093   0.722  0.00  0.00     0.051 A 
ATOM      5  C5  IND d   1      -0.498  -0.809   1.182  0.00  0.00    -0.031 A 
ATOM      6  C6  IND d   1      -0.084   0.267   0.423  0.00  0.00     0.015 A 
ATOM      7  C7  IND d   1       0.424   0.099  -0.833  0.00  0.00    -0.016 A 
ATOM      8  C8  IND d   1       0.521  -1.204  -1.301  0.00  0.00    -0.047 A 
ATOM      9  C9  IND d   1       0.143  -2.303  -0.519  0.00  0.00    -0.096 A 
ATOM     10  HN1 IND d   1       1.306  -1.225  -3.146  0.00  0.00     0.298 HD
ENDROOT
TORSDOF 0
ENDMDL
