MODEL 1
REMARK minimizedAffinity -3.51422405
REMARK minimizedRMSD -1
REMARK  0 active torsions:
REMARK  status: ('A' for Active; 'I' for Inactive)
ROOT
ATOM      1  N1  IND d   1      -0.215   0.086   1.499  0.00  0.00    -0.196 N 
ATOM      2  C2  IND d   1       0.021  -0.522   0.298  0.00  0.00     0.054 A 
ATOM      3  C3  IND d   1       0.026   0.392  -0.698  0.00  0.00    -0.031 A 
ATOM      4  C4  IND d   1      -0.229   2.951  -0.572  0.00  0.00     0.051 A 
ATOM      5  C5  IND d   1      -0.500   3.965   0.304  0.00  0.00    -0.031 A 
ATOM      6  C6  IND d   1      -0.691   3.733   1.651  0.00  0.00     0.015 A 
ATOM      7  C7  IND d   1      -0.606   2.474   2.176  0.00  0.00    -0.016 A 
ATOM      8  C8  IND d   1      -0.338   1.442   1.288  0.00  0.00    -0.047 A 
ATOM      9  C9  IND d   1      -0.186   1.666  -0.086  0.00  0.00    -0.096 A 
ATOM     10  HN1 IND d   1      -0.276  -0.312   2.259  0.00  0.00     0.298 HD
ENDROOT
TORSDOF 0
ENDMDL
