MODEL 1
REMARK minimizedAffinity -5.54702044
REMARK minimizedRMSD -1
REMARK  0 active torsions:
REMARK  status: ('A' for Active; 'I' for Inactive)
ROOT
ATOM      1  N1  IND d   1       1.032   0.554  -0.764  0.00  0.00    -0.196 N 
ATOM      2  C2  IND d   1       0.905  -0.621  -0.078  0.00  0.00     0.054 A 
ATOM      3  C3  IND d   1       0.004  -0.488   0.921  0.00  0.00    -0.031 A 
ATOM      4  C4  IND d   1      -1.455   1.538   1.549  0.00  0.00     0.051 A 
ATOM      5  C5  IND d   1      -1.667   2.851   1.235  0.00  0.00    -0.031 A 
ATOM      6  C6  IND d   1      -0.979   3.477   0.216  0.00  0.00     0.015 A 
ATOM      7  C7  IND d   1      -0.057   2.808  -0.537  0.00  0.00    -0.016 A 
ATOM      8  C8  IND d   1       0.167   1.476  -0.217  0.00  0.00    -0.047 A 
ATOM      9  C9  IND d   1      -0.498   0.847   0.843  0.00  0.00    -0.096 A 
ATOM     10  HN1 IND d   1       1.562   0.694  -1.426  0.00  0.00     0.298 HD
ENDROOT
TORSDOF 0
ENDMDL
