MODEL 1
REMARK minimizedAffinity 1.1404165
REMARK minimizedRMSD -1
REMARK  0 active torsions:
REMARK  status: ('A' for Active; 'I' for Inactive)
ROOT
ATOM      1  N1  IND d   1      -0.184  -2.245   1.844  0.00  0.00    -0.196 N 
ATOM      2  C2  IND d   1      -1.503  -1.923   2.002  0.00  0.00     0.054 A 
ATOM      3  C3  IND d   1      -1.785  -0.767   1.359  0.00  0.00    -0.031 A 
ATOM      4  C4  IND d   1      -0.259   0.708  -0.098  0.00  0.00     0.051 A 
ATOM      5  C5  IND d   1       1.038   0.842  -0.507  0.00  0.00    -0.031 A 
ATOM      6  C6  IND d   1       2.013  -0.067  -0.149  0.00  0.00     0.015 A 
ATOM      7  C7  IND d   1       1.724  -1.154   0.627  0.00  0.00    -0.016 A 
ATOM      8  C8  IND d   1       0.409  -1.289   1.050  0.00  0.00    -0.047 A 
ATOM      9  C9  IND d   1      -0.576  -0.347   0.724  0.00  0.00    -0.096 A 
ATOM     10  HN1 IND d   1       0.209  -2.931   2.184  0.00  0.00     0.298 HD
ENDROOT
TORSDOF 0
ENDMDL
