MODEL 1
REMARK minimizedAffinity -2.87496614
REMARK minimizedRMSD -1
REMARK  0 active torsions:
REMARK  status: ('A' for Active; 'I' for Inactive)
ROOT
ATOM      1  N1  IND d   1       0.745   0.060   1.194  0.00  0.00    -0.196 N 
ATOM      2  C2  IND d   1       1.577   0.853   0.454  0.00  0.00     0.054 A 
ATOM      3  C3  IND d   1       1.010   1.147  -0.738  0.00  0.00    -0.031 A 
ATOM      4  C4  IND d   1      -1.318   0.518  -1.640  0.00  0.00     0.051 A 
ATOM      5  C5  IND d   1      -2.424  -0.227  -1.341  0.00  0.00    -0.031 A 
ATOM      6  C6  IND d   1      -2.534  -0.925  -0.156  0.00  0.00     0.015 A 
ATOM      7  C7  IND d   1      -1.542  -0.896   0.783  0.00  0.00    -0.016 A 
ATOM      8  C8  IND d   1      -0.414  -0.147   0.479  0.00  0.00    -0.047 A 
ATOM      9  C9  IND d   1      -0.278   0.529  -0.740  0.00  0.00    -0.096 A 
ATOM     10  HN1 IND d   1       0.917  -0.255   1.975  0.00  0.00     0.298 HD
ENDROOT
TORSDOF 0
ENDMDL
