MODEL 1
REMARK minimizedAffinity -0.100353628
REMARK minimizedRMSD -1
REMARK  0 active torsions:
REMARK  status: ('A' for Active; 'I' for Inactive)
ROOT
ATOM      1  N1  IND d   1       1.354   3.065  -0.340  0.00  0.00    -0.196 N 
ATOM      2  C2  IND d   1       2.400   3.187   0.532  0.00  0.00     0.054 A 
ATOM      3  C3  IND d   1       2.570   2.039   1.225  0.00  0.00    -0.031 A 
ATOM      4  C4  IND d   1       1.314  -0.198   1.019  0.00  0.00     0.051 A 
ATOM      5  C5  IND d   1       0.255  -0.785   0.385  0.00  0.00    -0.031 A 
ATOM      6  C6  IND d   1      -0.506  -0.105  -0.544  0.00  0.00     0.015 A 
ATOM      7  C7  IND d   1      -0.228   1.189  -0.883  0.00  0.00    -0.016 A 
ATOM      8  C8  IND d   1       0.843   1.790  -0.236  0.00  0.00    -0.047 A 
ATOM      9  C9  IND d   1       1.593   1.118   0.738  0.00  0.00    -0.096 A 
ATOM     10  HN1 IND d   1       1.064   3.681  -0.866  0.00  0.00     0.298 HD
ENDROOT
TORSDOF 0
ENDMDL
