MODEL 1
REMARK minimizedAffinity -3.63144684
REMARK minimizedRMSD -1
REMARK  0 active torsions:
REMARK  status: ('A' for Active; 'I' for Inactive)
ROOT
ATOM      1  N1  IND d   1      -0.670   0.410  -1.593  0.00  0.00    -0.196 N 
ATOM      2  C2  IND d   1      -2.026   0.239  -1.551  0.00  0.00     0.054 A 
ATOM      3  C3  IND d   1      -2.368  -0.555  -0.512  0.00  0.00    -0.031 A 
ATOM      4  C4  IND d   1      -0.877  -1.601   1.307  0.00  0.00     0.051 A 
ATOM      5  C5  IND d   1       0.432  -1.757   1.669  0.00  0.00    -0.031 A 
ATOM      6  C6  IND d   1       1.461  -1.186   0.949  0.00  0.00     0.015 A 
ATOM      7  C7  IND d   1       1.217  -0.423  -0.159  0.00  0.00    -0.016 A 
ATOM      8  C8  IND d   1      -0.110  -0.268  -0.533  0.00  0.00    -0.047 A 
ATOM      9  C9  IND d   1      -1.155  -0.881   0.170  0.00  0.00    -0.096 A 
ATOM     10  HN1 IND d   1      -0.240   0.864  -2.183  0.00  0.00     0.298 HD
ENDROOT
TORSDOF 0
ENDMDL
