MODEL 1
REMARK minimizedAffinity -4.03499222
REMARK minimizedRMSD -1
REMARK  0 active torsions:
REMARK  status: ('A' for Active; 'I' for Inactive)
ROOT
ATOM      1  N1  IND d   1       0.383  -0.516   1.310  0.00  0.00    -0.196 N 
ATOM      2  C2  IND d   1       1.510   0.005   0.738  0.00  0.00     0.054 A 
ATOM      3  C3  IND d   1       1.287   0.293  -0.564  0.00  0.00    -0.031 A 
ATOM      4  C4  IND d   1      -0.880   0.086  -1.937  0.00  0.00     0.051 A 
ATOM      5  C5  IND d   1      -2.165  -0.373  -1.858  0.00  0.00    -0.031 A 
ATOM      6  C6  IND d   1      -2.677  -0.912  -0.696  0.00  0.00     0.015 A 
ATOM      7  C7  IND d   1      -1.924  -1.002   0.440  0.00  0.00    -0.016 A 
ATOM      8  C8  IND d   1      -0.617  -0.543   0.362  0.00  0.00    -0.047 A 
ATOM      9  C9  IND d   1      -0.078  -0.034  -0.826  0.00  0.00    -0.096 A 
ATOM     10  HN1 IND d   1       0.311  -0.783   2.124  0.00  0.00     0.298 HD
ENDROOT
TORSDOF 0
ENDMDL
