MODEL 1
REMARK minimizedAffinity -3.48761487
REMARK minimizedRMSD -1
REMARK  0 active torsions:
REMARK  status: ('A' for Active; 'I' for Inactive)
ROOT
ATOM      1  N1  IND d   1       0.100   1.506   1.083  0.00  0.00    -0.196 N 
ATOM      2  C2  IND d   1       1.368   1.238   0.650  0.00  0.00     0.054 A 
ATOM      3  C3  IND d   1       1.339   0.362  -0.379  0.00  0.00    -0.031 A 
ATOM      4  C4  IND d   1      -0.683  -0.683  -1.581  0.00  0.00     0.051 A 
ATOM      5  C5  IND d   1      -2.046  -0.768  -1.521  0.00  0.00    -0.031 A 
ATOM      6  C6  IND d   1      -2.778  -0.084  -0.572  0.00  0.00     0.015 A 
ATOM      7  C7  IND d   1      -2.173   0.724   0.349  0.00  0.00    -0.016 A 
ATOM      8  C8  IND d   1      -0.789   0.807   0.295  0.00  0.00    -0.047 A 
ATOM      9  C9  IND d   1      -0.037   0.082  -0.639  0.00  0.00    -0.096 A 
ATOM     10  HN1 IND d   1      -0.109   2.023   1.737  0.00  0.00     0.298 HD
ENDROOT
TORSDOF 0
ENDMDL
