MODEL 1
REMARK minimizedAffinity -3.99979186
REMARK minimizedRMSD -1
REMARK  0 active torsions:
REMARK  status: ('A' for Active; 'I' for Inactive)
ROOT
ATOM      1  N1  IND d   1       1.047  -0.342   0.368  0.00  0.00    -0.196 N 
ATOM      2  C2  IND d   1       1.621   0.114  -0.785  0.00  0.00     0.054 A 
ATOM      3  C3  IND d   1       0.672   0.379  -1.711  0.00  0.00    -0.031 A 
ATOM      4  C4  IND d   1      -1.890   0.236  -1.513  0.00  0.00     0.051 A 
ATOM      5  C5  IND d   1      -2.885  -0.163  -0.664  0.00  0.00    -0.031 A 
ATOM      6  C6  IND d   1      -2.614  -0.649   0.599  0.00  0.00     0.015 A 
ATOM      7  C7  IND d   1      -1.334  -0.744   1.066  0.00  0.00    -0.016 A 
ATOM      8  C8  IND d   1      -0.321  -0.346   0.204  0.00  0.00    -0.047 A 
ATOM      9  C9  IND d   1      -0.587   0.108  -1.094  0.00  0.00    -0.096 A 
ATOM     10  HN1 IND d   1       1.468  -0.584   1.077  0.00  0.00     0.298 HD
ENDROOT
TORSDOF 0
ENDMDL
