MODEL 1
REMARK minimizedAffinity -3.72735882
REMARK minimizedRMSD -1
REMARK  0 active torsions:
REMARK  status: ('A' for Active; 'I' for Inactive)
ROOT
ATOM      1  N1  IND d   1      -2.700  -0.955  -1.176  0.00  0.00    -0.196 N 
ATOM      2  C2  IND d   1      -3.275  -1.516  -0.070  0.00  0.00     0.054 A 
ATOM      3  C3  IND d   1      -2.418  -1.482   0.974  0.00  0.00    -0.031 A 
ATOM      4  C4  IND d   1      -0.059  -0.461   1.121  0.00  0.00     0.051 A 
ATOM      5  C5  IND d   1       0.908   0.131   0.357  0.00  0.00    -0.031 A 
ATOM      6  C6  IND d   1       0.716   0.399  -0.983  0.00  0.00     0.015 A 
ATOM      7  C7  IND d   1      -0.459   0.094  -1.609  0.00  0.00    -0.016 A 
ATOM      8  C8  IND d   1      -1.440  -0.513  -0.839  0.00  0.00    -0.047 A 
ATOM      9  C9  IND d   1      -1.236  -0.827   0.511  0.00  0.00    -0.096 A 
ATOM     10  HN1 IND d   1      -3.065  -0.889  -1.952  0.00  0.00     0.298 HD
ENDROOT
TORSDOF 0
ENDMDL
