MODEL 1
REMARK minimizedAffinity -4.04881859
REMARK minimizedRMSD -1
REMARK  0 active torsions:
REMARK  status: ('A' for Active; 'I' for Inactive)
ROOT
ATOM      1  N1  IND d   1      -2.101   0.626   0.635  0.00  0.00    -0.196 N 
ATOM      2  C2  IND d   1      -2.583  -0.245  -0.301  0.00  0.00     0.054 A 
ATOM      3  C3  IND d   1      -1.563  -0.828  -0.970  0.00  0.00    -0.031 A 
ATOM      4  C4  IND d   1       0.975  -0.578  -0.624  0.00  0.00     0.051 A 
ATOM      5  C5  IND d   1       1.901   0.131   0.089  0.00  0.00    -0.031 A 
ATOM      6  C6  IND d   1       1.532   1.059   1.042  0.00  0.00     0.015 A 
ATOM      7  C7  IND d   1       0.218   1.304   1.326  0.00  0.00    -0.016 A 
ATOM      8  C8  IND d   1      -0.724   0.591   0.599  0.00  0.00    -0.047 A 
ATOM      9  C9  IND d   1      -0.356  -0.321  -0.399  0.00  0.00    -0.096 A 
ATOM     10  HN1 IND d   1      -2.577   1.114   1.159  0.00  0.00     0.298 HD
ENDROOT
TORSDOF 0
ENDMDL
