MODEL 1
REMARK minimizedAffinity -3.33654666
REMARK minimizedRMSD -1
REMARK  0 active torsions:
REMARK  status: ('A' for Active; 'I' for Inactive)
ROOT
ATOM      1  N1  IND d   1       1.722  -1.145   1.861  0.00  0.00    -0.196 N 
ATOM      2  C2  IND d   1       2.697  -0.529   1.127  0.00  0.00     0.054 A 
ATOM      3  C3  IND d   1       2.151   0.141   0.087  0.00  0.00    -0.031 A 
ATOM      4  C4  IND d   1      -0.327   0.444  -0.542  0.00  0.00     0.051 A 
ATOM      5  C5  IND d   1      -1.585   0.039  -0.193  0.00  0.00    -0.031 A 
ATOM      6  C6  IND d   1      -1.809  -0.796   0.882  0.00  0.00     0.015 A 
ATOM      7  C7  IND d   1      -0.781  -1.250   1.659  0.00  0.00    -0.016 A 
ATOM      8  C8  IND d   1       0.498  -0.847   1.302  0.00  0.00    -0.047 A 
ATOM      9  C9  IND d   1       0.736  -0.034   0.187  0.00  0.00    -0.096 A 
ATOM     10  HN1 IND d   1       1.851  -1.637   2.554  0.00  0.00     0.298 HD
ENDROOT
TORSDOF 0
ENDMDL
