MODEL 1
REMARK minimizedAffinity -3.71541882
REMARK minimizedRMSD -1
REMARK  0 active torsions:
REMARK  status: ('A' for Active; 'I' for Inactive)
ROOT
ATOM      1  N1  IND d   1       0.007   0.735   1.246  0.00  0.00    -0.196 N 
ATOM      2  C2  IND d   1       1.209   1.070   0.688  0.00  0.00     0.054 A 
ATOM      3  C3  IND d   1       1.242   0.705  -0.614  0.00  0.00    -0.031 A 
ATOM      4  C4  IND d   1      -0.602  -0.361  -2.060  0.00  0.00     0.051 A 
ATOM      5  C5  IND d   1      -1.862  -0.885  -1.985  0.00  0.00    -0.031 A 
ATOM      6  C6  IND d   1      -2.579  -0.893  -0.806  0.00  0.00     0.015 A 
ATOM      7  C7  IND d   1      -2.065  -0.365   0.344  0.00  0.00    -0.016 A 
ATOM      8  C8  IND d   1      -0.783   0.161   0.273  0.00  0.00    -0.047 A 
ATOM      9  C9  IND d   1      -0.034   0.134  -0.910  0.00  0.00    -0.096 A 
ATOM     10  HN1 IND d   1      -0.218   0.862   2.066  0.00  0.00     0.298 HD
ENDROOT
TORSDOF 0
ENDMDL
