MODEL 1
REMARK minimizedAffinity -2.91205192
REMARK minimizedRMSD -1
REMARK  0 active torsions:
REMARK  status: ('A' for Active; 'I' for Inactive)
ROOT
ATOM      1  N1  IND d   1       0.775  -2.239   2.186  0.00  0.00    -0.196 N 
ATOM      2  C2  IND d   1      -0.414  -2.674   2.705  0.00  0.00     0.054 A 
ATOM      3  C3  IND d   1      -1.444  -2.000   2.147  0.00  0.00    -0.031 A 
ATOM      4  C4  IND d   1      -1.419  -0.216   0.291  0.00  0.00     0.051 A 
ATOM      5  C5  IND d   1      -0.567   0.535  -0.470  0.00  0.00    -0.031 A 
ATOM      6  C6  IND d   1       0.803   0.394  -0.385  0.00  0.00     0.015 A 
ATOM      7  C7  IND d   1       1.374  -0.515   0.460  0.00  0.00    -0.016 A 
ATOM      8  C8  IND d   1       0.513  -1.273   1.240  0.00  0.00    -0.047 A 
ATOM      9  C9  IND d   1      -0.877  -1.105   1.189  0.00  0.00    -0.096 A 
ATOM     10  HN1 IND d   1       1.554  -2.522   2.414  0.00  0.00     0.298 HD
ENDROOT
TORSDOF 0
ENDMDL
