MODEL 1
REMARK minimizedAffinity -3.14403987
REMARK minimizedRMSD -1
REMARK  0 active torsions:
REMARK  status: ('A' for Active; 'I' for Inactive)
ROOT
ATOM      1  N1  IND d   1       0.081   0.835   1.041  0.00  0.00    -0.196 N 
ATOM      2  C2  IND d   1       1.345   0.682   0.542  0.00  0.00     0.054 A 
ATOM      3  C3  IND d   1       1.312  -0.009  -0.619  0.00  0.00    -0.031 A 
ATOM      4  C4  IND d   1      -0.713  -0.896  -1.938  0.00  0.00     0.051 A 
ATOM      5  C5  IND d   1      -2.071  -1.031  -1.864  0.00  0.00    -0.031 A 
ATOM      6  C6  IND d   1      -2.796  -0.538  -0.798  0.00  0.00     0.015 A 
ATOM      7  C7  IND d   1      -2.188   0.120   0.233  0.00  0.00    -0.016 A 
ATOM      8  C8  IND d   1      -0.809   0.253   0.165  0.00  0.00    -0.047 A 
ATOM      9  C9  IND d   1      -0.063  -0.282  -0.893  0.00  0.00    -0.096 A 
ATOM     10  HN1 IND d   1      -0.124   1.228   1.777  0.00  0.00     0.298 HD
ENDROOT
TORSDOF 0
ENDMDL
