MODEL 1
REMARK minimizedAffinity -2.94139838
REMARK minimizedRMSD -1
REMARK  0 active torsions:
REMARK  status: ('A' for Active; 'I' for Inactive)
ROOT
ATOM      1  C   UNL d   1       1.283  -1.766   2.083  0.00  0.00     0.023 A 
ATOM      2  C1  UNL d   1       0.307  -0.850   2.478  0.00  0.00     0.003 A 
ATOM      3  C2  UNL d   1      -0.201   0.071   1.560  0.00  0.00     0.048 A 
ATOM      4  C3  UNL d   1       0.270   0.071   0.247  0.00  0.00     0.023 A 
ATOM      5  C4  UNL d   1       1.245  -0.844  -0.153  0.00  0.00     0.048 A 
ATOM      6  C5  UNL d   1       1.751  -1.763   0.768  0.00  0.00     0.003 A 
ATOM      7  I   UNL d   1      -0.486   1.440  -1.121  0.00  0.00    -0.146 I 
ENDROOT
TORSDOF 0
ENDMDL
