MODEL 1
REMARK minimizedAffinity -2.72120285
REMARK minimizedRMSD -1
REMARK  0 active torsions:
REMARK  status: ('A' for Active; 'I' for Inactive)
ROOT
ATOM      1  C   UNL d   1      -1.221   0.036   1.670  0.00  0.00     0.023 A 
ATOM      2  C1  UNL d   1      -0.983   0.103   0.297  0.00  0.00     0.003 A 
ATOM      3  C2  UNL d   1       0.136  -0.529  -0.250  0.00  0.00     0.048 A 
ATOM      4  C3  UNL d   1       1.012  -1.226   0.581  0.00  0.00     0.023 A 
ATOM      5  C4  UNL d   1       0.777  -1.297   1.955  0.00  0.00     0.048 A 
ATOM      6  C5  UNL d   1      -0.343  -0.663   2.498  0.00  0.00     0.003 A 
ATOM      7  I   UNL d   1       2.678  -2.167  -0.231  0.00  0.00    -0.146 I 
ENDROOT
TORSDOF 0
ENDMDL
