MODEL 1
REMARK minimizedAffinity -3.84106207
REMARK minimizedRMSD -1
REMARK  0 active torsions:
REMARK  status: ('A' for Active; 'I' for Inactive)
ROOT
ATOM      1  C   UNL d   1       1.154  -1.549   2.278  0.00  0.00     0.023 A 
ATOM      2  C1  UNL d   1       1.637  -1.813   0.997  0.00  0.00     0.003 A 
ATOM      3  C2  UNL d   1       1.357  -0.935  -0.052  0.00  0.00     0.048 A 
ATOM      4  C3  UNL d   1       0.594   0.207   0.188  0.00  0.00     0.023 A 
ATOM      5  C4  UNL d   1       0.108   0.477   1.468  0.00  0.00     0.048 A 
ATOM      6  C5  UNL d   1       0.390  -0.405   2.513  0.00  0.00     0.003 A 
ATOM      7  I   UNL d   1       0.176   1.516  -1.372  0.00  0.00    -0.146 I 
ENDROOT
TORSDOF 0
ENDMDL
