MODEL 1
REMARK minimizedAffinity -3.27470064
REMARK minimizedRMSD -1
REMARK  0 active torsions:
REMARK  status: ('A' for Active; 'I' for Inactive)
ROOT
ATOM      1  C   UNL d   1      -0.148  -0.616   1.721  0.00  0.00     0.023 A 
ATOM      2  C1  UNL d   1       0.618  -0.725   0.561  0.00  0.00     0.003 A 
ATOM      3  C2  UNL d   1       0.251  -0.023  -0.589  0.00  0.00     0.048 A 
ATOM      4  C3  UNL d   1      -0.883   0.788  -0.571  0.00  0.00     0.023 A 
ATOM      5  C4  UNL d   1      -1.653   0.901   0.588  0.00  0.00     0.048 A 
ATOM      6  C5  UNL d   1      -1.282   0.197   1.734  0.00  0.00     0.003 A 
ATOM      7  I   UNL d   1      -1.431   1.835  -2.281  0.00  0.00    -0.146 I 
ENDROOT
TORSDOF 0
ENDMDL
