MODEL 1
REMARK minimizedAffinity -1.74014306
REMARK minimizedRMSD -1
REMARK  0 active torsions:
REMARK  status: ('A' for Active; 'I' for Inactive)
ROOT
ATOM      1  C   UNL d   1       0.319  -1.448   2.137  0.00  0.00     0.023 A 
ATOM      2  C1  UNL d   1      -0.786  -0.597   2.175  0.00  0.00     0.003 A 
ATOM      3  C2  UNL d   1      -1.095   0.200   1.071  0.00  0.00     0.048 A 
ATOM      4  C3  UNL d   1      -0.294   0.140  -0.069  0.00  0.00     0.023 A 
ATOM      5  C4  UNL d   1       0.812  -0.710  -0.113  0.00  0.00     0.048 A 
ATOM      6  C5  UNL d   1       1.117  -1.504   0.994  0.00  0.00     0.003 A 
ATOM      7  I   UNL d   1      -0.751   1.325  -1.715  0.00  0.00    -0.146 I 
ENDROOT
TORSDOF 0
ENDMDL
