MODEL 1
REMARK minimizedAffinity 6.39712334
REMARK minimizedRMSD -1
REMARK  1 active torsions:
REMARK  status: ('A' for Active; 'I' for Inactive)
REMARK    1  A    between atoms: C1_2  and  C2_3 
ROOT
ATOM      1  C2  UNL d   1      -2.164  -2.513  -0.601  0.00  0.00    -0.073 A 
ATOM      2  C3  UNL d   1      -1.013  -2.392   0.185  0.00  0.00    -0.002 A 
ATOM      3  C4  UNL d   1       0.250  -2.388  -0.409  0.00  0.00     0.004 A 
ATOM      4  C5  UNL d   1       0.374  -2.499  -1.793  0.00  0.00    -0.004 A 
ATOM      5  C6  UNL d   1      -0.765  -2.609  -2.598  0.00  0.00    -0.075 A 
ATOM      6  C7  UNL d   1      -0.647  -2.731  -4.089  0.00  0.00     0.076 C 
ATOM      7  C8  UNL d   1      -2.029  -2.614  -1.994  0.00  0.00     0.001 A 
ENDROOT
BRANCH   1   8
ATOM      8  C1  UNL d   1      -3.530  -2.511   0.035  0.00  0.00     0.053 C 
ATOM      9  C   UNL d   1      -3.452  -2.573   1.552  0.00  0.00     0.018 C 
ENDBRANCH   1   8
TORSDOF 1
ENDMDL
