MODEL 1
REMARK minimizedAffinity 4.22047567
REMARK minimizedRMSD -1
REMARK  1 active torsions:
REMARK  status: ('A' for Active; 'I' for Inactive)
REMARK    1  A    between atoms: C1_2  and  C2_3 
ROOT
ATOM      1  C2  UNL d   1      -0.838  -3.527  -4.500  0.00  0.00    -0.073 A 
ATOM      2  C3  UNL d   1       0.202  -4.111  -5.232  0.00  0.00    -0.002 A 
ATOM      3  C4  UNL d   1      -0.008  -5.305  -5.924  0.00  0.00     0.004 A 
ATOM      4  C5  UNL d   1      -1.258  -5.922  -5.897  0.00  0.00    -0.004 A 
ATOM      5  C6  UNL d   1      -2.313  -5.347  -5.181  0.00  0.00    -0.075 A 
ATOM      6  C7  UNL d   1      -3.664  -5.999  -5.140  0.00  0.00     0.076 C 
ATOM      7  C8  UNL d   1      -2.094  -4.150  -4.486  0.00  0.00     0.001 A 
ENDROOT
BRANCH   1   8
ATOM      8  C1  UNL d   1      -0.618  -2.235  -3.757  0.00  0.00     0.053 C 
ATOM      9  C   UNL d   1       0.393  -2.389  -2.632  0.00  0.00     0.018 C 
ENDBRANCH   1   8
TORSDOF 1
ENDMDL
