MODEL 1
REMARK minimizedAffinity 10.2519474
REMARK minimizedRMSD -1
REMARK  1 active torsions:
REMARK  status: ('A' for Active; 'I' for Inactive)
REMARK    1  A    between atoms: C1_2  and  C2_3 
ROOT
ATOM      1  C2  UNL d   1      -3.671   4.710   0.708  0.00  0.00    -0.073 A 
ATOM      2  C3  UNL d   1      -4.937   4.716   0.112  0.00  0.00    -0.002 A 
ATOM      3  C4  UNL d   1      -5.537   3.519  -0.280  0.00  0.00     0.004 A 
ATOM      4  C5  UNL d   1      -4.882   2.305  -0.075  0.00  0.00    -0.004 A 
ATOM      5  C6  UNL d   1      -3.621   2.277   0.529  0.00  0.00    -0.075 A 
ATOM      6  C7  UNL d   1      -2.901   0.980   0.755  0.00  0.00     0.076 C 
ATOM      7  C8  UNL d   1      -3.024   3.484   0.918  0.00  0.00     0.001 A 
ENDROOT
BRANCH   1   8
ATOM      8  C1  UNL d   1      -3.022   6.000   1.139  0.00  0.00     0.053 C 
ATOM      9  C   UNL d   1      -1.523   5.998   0.881  0.00  0.00     0.018 C 
ENDBRANCH   1   8
TORSDOF 1
ENDMDL
