MODEL 1
REMARK minimizedAffinity 10.478446
REMARK minimizedRMSD -1
REMARK  1 active torsions:
REMARK  status: ('A' for Active; 'I' for Inactive)
REMARK    1  A    between atoms: C1_2  and  C2_3 
ROOT
ATOM      1  C2  UNL d   1      -1.240  -2.484  -0.375  0.00  0.00    -0.073 A 
ATOM      2  C3  UNL d   1      -2.304  -2.712  -1.255  0.00  0.00    -0.002 A 
ATOM      3  C4  UNL d   1      -2.088  -2.730  -2.633  0.00  0.00     0.004 A 
ATOM      4  C5  UNL d   1      -0.807  -2.528  -3.145  0.00  0.00    -0.004 A 
ATOM      5  C6  UNL d   1       0.272  -2.311  -2.282  0.00  0.00    -0.075 A 
ATOM      6  C7  UNL d   1       1.656  -2.090  -2.817  0.00  0.00     0.076 C 
ATOM      7  C8  UNL d   1       0.046  -2.292  -0.899  0.00  0.00     0.001 A 
ENDROOT
BRANCH   1   8
ATOM      8  C1  UNL d   1      -1.467  -2.470   1.114  0.00  0.00     0.053 C 
ATOM      9  C   UNL d   1      -0.423  -3.288   1.858  0.00  0.00     0.018 C 
ENDBRANCH   1   8
TORSDOF 1
ENDMDL
