MODEL 1
REMARK minimizedAffinity 12.4140387
REMARK minimizedRMSD -1
REMARK  1 active torsions:
REMARK  status: ('A' for Active; 'I' for Inactive)
REMARK    1  A    between atoms: C1_2  and  C2_3 
ROOT
ATOM      1  C2  UNL d   1       1.163  -3.367  -3.261  0.00  0.00    -0.073 A 
ATOM      2  C3  UNL d   1       0.025  -3.173  -4.052  0.00  0.00    -0.002 A 
ATOM      3  C4  UNL d   1      -1.141  -2.648  -3.494  0.00  0.00     0.004 A 
ATOM      4  C5  UNL d   1      -1.180  -2.306  -2.142  0.00  0.00    -0.004 A 
ATOM      5  C6  UNL d   1      -0.050  -2.481  -1.338  0.00  0.00    -0.075 A 
ATOM      6  C7  UNL d   1      -0.076  -2.120   0.119  0.00  0.00     0.076 C 
ATOM      7  C8  UNL d   1       1.117  -3.011  -1.905  0.00  0.00     0.001 A 
ENDROOT
BRANCH   1   8
ATOM      8  C1  UNL d   1       2.426  -3.927  -3.860  0.00  0.00     0.053 C 
ATOM      9  C   UNL d   1       2.435  -3.817  -5.377  0.00  0.00     0.018 C 
ENDBRANCH   1   8
TORSDOF 1
ENDMDL
