MODEL 1
REMARK minimizedAffinity 8.89292145
REMARK minimizedRMSD -1
REMARK  1 active torsions:
REMARK  status: ('A' for Active; 'I' for Inactive)
REMARK    1  A    between atoms: C1_2  and  C2_3 
ROOT
ATOM      1  C2  UNL d   1      -0.275  -2.580  -2.325  0.00  0.00    -0.073 A 
ATOM      2  C3  UNL d   1      -1.425  -3.032  -2.983  0.00  0.00    -0.002 A 
ATOM      3  C4  UNL d   1      -1.320  -3.922  -4.052  0.00  0.00     0.004 A 
ATOM      4  C5  UNL d   1      -0.069  -4.374  -4.470  0.00  0.00    -0.004 A 
ATOM      5  C6  UNL d   1       1.091  -3.943  -3.817  0.00  0.00    -0.075 A 
ATOM      6  C7  UNL d   1       2.445  -4.419  -4.255  0.00  0.00     0.076 C 
ATOM      7  C8  UNL d   1       0.978  -3.047  -2.746  0.00  0.00     0.001 A 
ENDROOT
BRANCH   1   8
ATOM      8  C1  UNL d   1      -0.384  -1.623  -1.165  0.00  0.00     0.053 C 
ATOM      9  C   UNL d   1      -0.694  -2.341   0.139  0.00  0.00     0.018 C 
ENDBRANCH   1   8
TORSDOF 1
ENDMDL
