MODEL 1
REMARK minimizedAffinity 7.16344404
REMARK minimizedRMSD -1
REMARK  1 active torsions:
REMARK  status: ('A' for Active; 'I' for Inactive)
REMARK    1  A    between atoms: C1_2  and  C2_3 
ROOT
ATOM      1  C2  UNL d   1       1.686  -4.082  -4.772  0.00  0.00    -0.073 A 
ATOM      2  C3  UNL d   1       0.780  -4.417  -5.784  0.00  0.00    -0.002 A 
ATOM      3  C4  UNL d   1      -0.566  -4.067  -5.670  0.00  0.00     0.004 A 
ATOM      4  C5  UNL d   1      -1.018  -3.372  -4.548  0.00  0.00    -0.004 A 
ATOM      5  C6  UNL d   1      -0.126  -3.017  -3.532  0.00  0.00    -0.075 A 
ATOM      6  C7  UNL d   1      -0.596  -2.272  -2.317  0.00  0.00     0.076 C 
ATOM      7  C8  UNL d   1       1.224  -3.375  -3.652  0.00  0.00     0.001 A 
ENDROOT
BRANCH   1   8
ATOM      8  C1  UNL d   1       3.141  -4.453  -4.893  0.00  0.00     0.053 C 
ATOM      9  C   UNL d   1       3.551  -5.497  -3.866  0.00  0.00     0.018 C 
ENDBRANCH   1   8
TORSDOF 1
ENDMDL
