MODEL 1
REMARK minimizedAffinity 8.95913792
REMARK minimizedRMSD -1
REMARK  1 active torsions:
REMARK  status: ('A' for Active; 'I' for Inactive)
REMARK    1  A    between atoms: C1_2  and  C2_3 
ROOT
ATOM      1  C2  UNL d   1      -0.923  -2.617  -0.603  0.00  0.00    -0.073 A 
ATOM      2  C3  UNL d   1       0.293  -2.121  -1.086  0.00  0.00    -0.002 A 
ATOM      3  C4  UNL d   1       0.632  -2.273  -2.431  0.00  0.00     0.004 A 
ATOM      4  C5  UNL d   1      -0.243  -2.915  -3.307  0.00  0.00    -0.004 A 
ATOM      5  C6  UNL d   1      -1.468  -3.408  -2.846  0.00  0.00    -0.075 A 
ATOM      6  C7  UNL d   1      -2.419  -4.103  -3.775  0.00  0.00     0.076 C 
ATOM      7  C8  UNL d   1      -1.800  -3.253  -1.493  0.00  0.00     0.001 A 
ENDROOT
BRANCH   1   8
ATOM      8  C1  UNL d   1      -1.296  -2.450   0.847  0.00  0.00     0.053 C 
ATOM      9  C   UNL d   1      -2.796  -2.285   1.035  0.00  0.00     0.018 C 
ENDBRANCH   1   8
TORSDOF 1
ENDMDL
