MODEL 1
REMARK minimizedAffinity 8.71571922
REMARK minimizedRMSD -1
REMARK  1 active torsions:
REMARK  status: ('A' for Active; 'I' for Inactive)
REMARK    1  A    between atoms: C1_2  and  C2_3 
ROOT
ATOM      1  C2  UNL d   1       0.965  -3.307  -3.404  0.00  0.00    -0.073 A 
ATOM      2  C3  UNL d   1      -0.298  -3.084  -3.964  0.00  0.00    -0.002 A 
ATOM      3  C4  UNL d   1      -1.395  -2.817  -3.145  0.00  0.00     0.004 A 
ATOM      4  C5  UNL d   1      -1.241  -2.764  -1.760  0.00  0.00    -0.004 A 
ATOM      5  C6  UNL d   1       0.016  -2.972  -1.182  0.00  0.00    -0.075 A 
ATOM      6  C7  UNL d   1       0.198  -2.920   0.307  0.00  0.00     0.076 C 
ATOM      7  C8  UNL d   1       1.113  -3.242  -2.011  0.00  0.00     0.001 A 
ENDROOT
BRANCH   1   8
ATOM      8  C1  UNL d   1       2.155  -3.589  -4.285  0.00  0.00     0.053 C 
ATOM      9  C   UNL d   1       1.756  -3.767  -5.741  0.00  0.00     0.018 C 
ENDBRANCH   1   8
TORSDOF 1
ENDMDL
