MODEL 1
REMARK minimizedAffinity 10.9270926
REMARK minimizedRMSD -1
REMARK  1 active torsions:
REMARK  status: ('A' for Active; 'I' for Inactive)
REMARK    1  A    between atoms: C1_2  and  C2_3 
ROOT
ATOM      1  C2  UNL d   1      -3.510   0.735   5.769  0.00  0.00    -0.073 A 
ATOM      2  C3  UNL d   1      -4.731   0.055   5.852  0.00  0.00    -0.002 A 
ATOM      3  C4  UNL d   1      -5.926   0.765   5.969  0.00  0.00     0.004 A 
ATOM      4  C5  UNL d   1      -5.915   2.159   5.998  0.00  0.00    -0.004 A 
ATOM      5  C6  UNL d   1      -4.707   2.857   5.905  0.00  0.00    -0.075 A 
ATOM      6  C7  UNL d   1      -4.678   4.357   5.937  0.00  0.00     0.076 C 
ATOM      7  C8  UNL d   1      -3.510   2.137   5.790  0.00  0.00     0.001 A 
ENDROOT
BRANCH   1   8
ATOM      8  C1  UNL d   1      -2.217  -0.027   5.636  0.00  0.00     0.053 C 
ATOM      9  C   UNL d   1      -2.442  -1.456   5.169  0.00  0.00     0.018 C 
ENDBRANCH   1   8
TORSDOF 1
ENDMDL
