MODEL 1
REMARK minimizedAffinity 11.4684668
REMARK minimizedRMSD -1
REMARK  1 active torsions:
REMARK  status: ('A' for Active; 'I' for Inactive)
REMARK    1  A    between atoms: C1_2  and  C2_3 
ROOT
ATOM      1  C2  UNL d   1      -0.028  -3.655  -0.641  0.00  0.00    -0.073 A 
ATOM      2  C3  UNL d   1      -0.013  -2.306  -0.270  0.00  0.00    -0.002 A 
ATOM      3  C4  UNL d   1      -0.447  -1.324  -1.162  0.00  0.00     0.004 A 
ATOM      4  C5  UNL d   1      -0.908  -1.682  -2.429  0.00  0.00    -0.004 A 
ATOM      5  C6  UNL d   1      -0.942  -3.026  -2.814  0.00  0.00    -0.075 A 
ATOM      6  C7  UNL d   1      -1.433  -3.426  -4.174  0.00  0.00     0.076 C 
ATOM      7  C8  UNL d   1      -0.502  -4.005  -1.914  0.00  0.00     0.001 A 
ENDROOT
BRANCH   1   8
ATOM      8  C1  UNL d   1       0.434  -4.719   0.321  0.00  0.00     0.053 C 
ATOM      9  C   UNL d   1       0.833  -6.000  -0.395  0.00  0.00     0.018 C 
ENDBRANCH   1   8
TORSDOF 1
ENDMDL
