MODEL 1
REMARK minimizedAffinity 4.39469147
REMARK minimizedRMSD -1
REMARK  1 active torsions:
REMARK  status: ('A' for Active; 'I' for Inactive)
REMARK    1  A    between atoms: C1_2  and  C2_3 
ROOT
ATOM      1  C2  UNL d   1      -2.459  -2.299  -0.380  0.00  0.00    -0.073 A 
ATOM      2  C3  UNL d   1      -1.205  -1.913   0.108  0.00  0.00    -0.002 A 
ATOM      3  C4  UNL d   1      -0.099  -1.875  -0.742  0.00  0.00     0.004 A 
ATOM      4  C5  UNL d   1      -0.235  -2.215  -2.088  0.00  0.00    -0.004 A 
ATOM      5  C6  UNL d   1      -1.482  -2.592  -2.597  0.00  0.00    -0.075 A 
ATOM      6  C7  UNL d   1      -1.645  -2.963  -4.042  0.00  0.00     0.076 C 
ATOM      7  C8  UNL d   1      -2.588  -2.630  -1.737  0.00  0.00     0.001 A 
ENDROOT
BRANCH   1   8
ATOM      8  C1  UNL d   1      -3.657  -2.335   0.532  0.00  0.00     0.053 C 
ATOM      9  C   UNL d   1      -3.669  -1.166   1.504  0.00  0.00     0.018 C 
ENDBRANCH   1   8
TORSDOF 1
ENDMDL
