MODEL 1
REMARK minimizedAffinity 12.9269657
REMARK minimizedRMSD -1
REMARK  1 active torsions:
REMARK  status: ('A' for Active; 'I' for Inactive)
REMARK    1  A    between atoms: C1_2  and  C2_3 
ROOT
ATOM      1  C2  UNL d   1      -1.039   3.951   1.003  0.00  0.00    -0.073 A 
ATOM      2  C3  UNL d   1      -1.435   2.705   0.504  0.00  0.00    -0.002 A 
ATOM      3  C4  UNL d   1      -2.724   2.525  -0.001  0.00  0.00     0.004 A 
ATOM      4  C5  UNL d   1      -3.626   3.589  -0.017  0.00  0.00    -0.004 A 
ATOM      5  C6  UNL d   1      -3.245   4.844   0.467  0.00  0.00    -0.075 A 
ATOM      6  C7  UNL d   1      -4.204   5.998   0.458  0.00  0.00     0.076 C 
ATOM      7  C8  UNL d   1      -1.950   5.016   0.974  0.00  0.00     0.001 A 
ENDROOT
BRANCH   1   8
ATOM      8  C1  UNL d   1       0.354   4.152   1.543  0.00  0.00     0.053 C 
ATOM      9  C   UNL d   1       1.078   5.291   0.843  0.00  0.00     0.018 C 
ENDBRANCH   1   8
TORSDOF 1
ENDMDL
