MODEL 1
REMARK minimizedAffinity 7.78705406
REMARK minimizedRMSD -1
REMARK  0 active torsions:
REMARK  status: ('A' for Active; 'I' for Inactive)
ROOT
ATOM      1  C   UNL d   1       2.245  -6.000  -2.819  0.00  0.00     0.020 A 
ATOM      2  C1  UNL d   1       2.220  -5.435  -1.544  0.00  0.00     0.020 A 
ATOM      3  C2  UNL d   1       3.233  -4.560  -1.149  0.00  0.00     0.034 A 
ATOM      4  C3  UNL d   1       4.276  -4.247  -2.028  0.00  0.00     0.017 A 
ATOM      5  C4  UNL d   1       4.300  -4.814  -3.307  0.00  0.00     0.017 A 
ATOM      6  C5  UNL d   1       3.283  -5.690  -3.699  0.00  0.00     0.034 A 
ATOM      7 Cl   UNL d   1       5.554  -4.475  -4.448  0.00  0.00    -0.070 Cl
ATOM      8 Cl1  UNL d   1       5.496  -3.156  -1.472  0.00  0.00    -0.070 Cl
ENDROOT
TORSDOF 0
ENDMDL
