MODEL 1
REMARK minimizedAffinity 4.35737085
REMARK minimizedRMSD -1
REMARK  0 active torsions:
REMARK  status: ('A' for Active; 'I' for Inactive)
ROOT
ATOM      1  C   UNL d   1       1.930  -1.390   0.759  0.00  0.00     0.020 A 
ATOM      2  C1  UNL d   1       1.742  -0.302   1.611  0.00  0.00     0.020 A 
ATOM      3  C2  UNL d   1       1.169   0.875   1.124  0.00  0.00     0.034 A 
ATOM      4  C3  UNL d   1       0.783   0.968  -0.218  0.00  0.00     0.017 A 
ATOM      5  C4  UNL d   1       0.973  -0.124  -1.072  0.00  0.00     0.017 A 
ATOM      6  C5  UNL d   1       1.546  -1.301  -0.580  0.00  0.00     0.034 A 
ATOM      7 Cl   UNL d   1       0.521  -0.085  -2.740  0.00  0.00    -0.070 Cl
ATOM      8 Cl1  UNL d   1       0.082   2.454  -0.751  0.00  0.00    -0.070 Cl
ENDROOT
TORSDOF 0
ENDMDL
