MODEL 1
REMARK minimizedAffinity 13.2960892
REMARK minimizedRMSD -1
REMARK  0 active torsions:
REMARK  status: ('A' for Active; 'I' for Inactive)
ROOT
ATOM      1  C   UNL d   1       5.664  -2.375   4.846  0.00  0.00     0.020 A 
ATOM      2  C1  UNL d   1       4.909  -2.595   5.997  0.00  0.00     0.020 A 
ATOM      3  C2  UNL d   1       3.541  -2.312   6.000  0.00  0.00     0.034 A 
ATOM      4  C3  UNL d   1       2.924  -1.808   4.849  0.00  0.00     0.017 A 
ATOM      5  C4  UNL d   1       3.683  -1.588   3.694  0.00  0.00     0.017 A 
ATOM      6  C5  UNL d   1       5.052  -1.872   3.697  0.00  0.00     0.034 A 
ATOM      7 Cl   UNL d   1       2.992  -0.968   2.236  0.00  0.00    -0.070 Cl
ATOM      8 Cl1  UNL d   1       1.229  -1.482   4.924  0.00  0.00    -0.070 Cl
ENDROOT
TORSDOF 0
ENDMDL
