MODEL 1
REMARK minimizedAffinity 9.16124821
REMARK minimizedRMSD -1
REMARK  0 active torsions:
REMARK  status: ('A' for Active; 'I' for Inactive)
ROOT
ATOM      1  C   UNL d   1      -2.656   5.004  -5.014  0.00  0.00     0.020 A 
ATOM      2  C1  UNL d   1      -3.985   4.727  -4.696  0.00  0.00     0.020 A 
ATOM      3  C2  UNL d   1      -4.382   3.413  -4.441  0.00  0.00     0.034 A 
ATOM      4  C3  UNL d   1      -3.450   2.371  -4.503  0.00  0.00     0.017 A 
ATOM      5  C4  UNL d   1      -2.116   2.650  -4.822  0.00  0.00     0.017 A 
ATOM      6  C5  UNL d   1      -1.724   3.968  -5.077  0.00  0.00     0.034 A 
ATOM      7 Cl   UNL d   1      -0.908   1.418  -4.918  0.00  0.00    -0.070 Cl
ATOM      8 Cl1  UNL d   1      -4.010   0.770  -4.175  0.00  0.00    -0.070 Cl
ENDROOT
TORSDOF 0
ENDMDL
