MODEL 1
REMARK minimizedAffinity 6.57401896
REMARK minimizedRMSD -1
REMARK  0 active torsions:
REMARK  status: ('A' for Active; 'I' for Inactive)
ROOT
ATOM      1  C   UNL d   1      -0.197   2.609  -0.524  0.00  0.00     0.020 A 
ATOM      2  C1  UNL d   1       0.192   2.344   0.789  0.00  0.00     0.020 A 
ATOM      3  C2  UNL d   1       0.835   1.143   1.097  0.00  0.00     0.034 A 
ATOM      4  C3  UNL d   1       1.091   0.203   0.093  0.00  0.00     0.017 A 
ATOM      5  C4  UNL d   1       0.701   0.470  -1.225  0.00  0.00     0.017 A 
ATOM      6  C5  UNL d   1       0.057   1.674  -1.528  0.00  0.00     0.034 A 
ATOM      7 Cl   UNL d   1       0.982  -0.641  -2.518  0.00  0.00    -0.070 Cl
ATOM      8 Cl1  UNL d   1       1.890  -1.260   0.546  0.00  0.00    -0.070 Cl
ENDROOT
TORSDOF 0
ENDMDL
