MODEL 1
REMARK minimizedAffinity 10.9828768
REMARK minimizedRMSD -1
REMARK  0 active torsions:
REMARK  status: ('A' for Active; 'I' for Inactive)
ROOT
ATOM      1  C   UNL d   1      -3.187   5.255  -4.963  0.00  0.00     0.020 A 
ATOM      2  C1  UNL d   1      -4.471   4.842  -5.316  0.00  0.00     0.020 A 
ATOM      3  C2  UNL d   1      -4.712   3.504  -5.632  0.00  0.00     0.034 A 
ATOM      4  C3  UNL d   1      -3.668   2.573  -5.597  0.00  0.00     0.017 A 
ATOM      5  C4  UNL d   1      -2.379   2.988  -5.242  0.00  0.00     0.017 A 
ATOM      6  C5  UNL d   1      -2.143   4.329  -4.926  0.00  0.00     0.034 A 
ATOM      7 Cl   UNL d   1      -1.040   1.897  -5.176  0.00  0.00    -0.070 Cl
ATOM      8 Cl1  UNL d   1      -4.038   0.934  -6.000  0.00  0.00    -0.070 Cl
ENDROOT
TORSDOF 0
ENDMDL
