MODEL 1
REMARK minimizedAffinity 10.4206505
REMARK minimizedRMSD -1
REMARK  0 active torsions:
REMARK  status: ('A' for Active; 'I' for Inactive)
ROOT
ATOM      1  C   UNL d   1      -0.324   1.809  -0.457  0.00  0.00     0.020 A 
ATOM      2  C1  UNL d   1       0.507   1.285   0.532  0.00  0.00     0.020 A 
ATOM      3  C2  UNL d   1       1.534   2.065   1.068  0.00  0.00     0.034 A 
ATOM      4  C3  UNL d   1       1.733   3.374   0.614  0.00  0.00     0.017 A 
ATOM      5  C4  UNL d   1       0.898   3.900  -0.379  0.00  0.00     0.017 A 
ATOM      6  C5  UNL d   1      -0.128   3.114  -0.911  0.00  0.00     0.034 A 
ATOM      7 Cl   UNL d   1       1.082   5.506  -0.989  0.00  0.00    -0.070 Cl
ATOM      8 Cl1  UNL d   1       3.021   4.282   1.321  0.00  0.00    -0.070 Cl
ENDROOT
TORSDOF 0
ENDMDL
