MODEL 1
REMARK minimizedAffinity -3.854568
REMARK minimizedRMSD -1
REMARK  2 active torsions:
REMARK  status: ('A' for Active; 'I' for Inactive)
REMARK    1  A    between atoms: C1_2  and  C2_3 
REMARK    2  A    between atoms: C2_3  and  C3_4 
ROOT
ATOM      1  C3  UNL d   1       1.964   1.990  -0.115  0.00  0.00    -0.075 A 
ATOM      2  C4  UNL d   1       3.113   2.298   0.628  0.00  0.00     0.002 A 
ATOM      3  C5  UNL d   1       3.786   3.503   0.425  0.00  0.00     0.002 A 
ATOM      4  C6  UNL d   1       3.326   4.409  -0.528  0.00  0.00    -0.004 A 
ATOM      5  C7  UNL d   1       2.195   4.106  -1.284  0.00  0.00     0.002 A 
ATOM      6  C8  UNL d   1       1.518   2.903  -1.080  0.00  0.00     0.002 A 
ENDROOT
BRANCH   1   7
ATOM      7  C2  UNL d   1       1.215   0.700   0.120  0.00  0.00     0.056 C 
BRANCH   7   8
ATOM      8  C1  UNL d   1       1.636  -0.042   1.393  0.00  0.00     0.007 C 
ATOM      9  C   UNL d   1       0.557  -0.049   2.468  0.00  0.00     0.009 C 
ENDBRANCH   7   8
ENDBRANCH   1   7
TORSDOF 2
ENDMDL
