MODEL 1
REMARK minimizedAffinity -1.21951318
REMARK minimizedRMSD -1
REMARK  2 active torsions:
REMARK  status: ('A' for Active; 'I' for Inactive)
REMARK    1  A    between atoms: C1_2  and  C2_3 
REMARK    2  A    between atoms: C2_3  and  C3_4 
ROOT
ATOM      1  C3  UNL d   1      -0.101   0.474  -0.674  0.00  0.00    -0.075 A 
ATOM      2  C4  UNL d   1       0.372  -0.198   0.463  0.00  0.00     0.002 A 
ATOM      3  C5  UNL d   1      -0.504  -0.920   1.274  0.00  0.00     0.002 A 
ATOM      4  C6  UNL d   1      -1.862  -0.970   0.967  0.00  0.00    -0.004 A 
ATOM      5  C7  UNL d   1      -2.345  -0.292  -0.150  0.00  0.00     0.002 A 
ATOM      6  C8  UNL d   1      -1.471   0.427  -0.966  0.00  0.00     0.002 A 
ENDROOT
BRANCH   1   7
ATOM      7  C2  UNL d   1       0.846   1.233  -1.572  0.00  0.00     0.056 C 
BRANCH   7   8
ATOM      8  C1  UNL d   1       1.731   2.243  -0.835  0.00  0.00     0.007 C 
ATOM      9  C   UNL d   1       2.163   3.413  -1.709  0.00  0.00     0.009 C 
ENDBRANCH   7   8
ENDBRANCH   1   7
TORSDOF 2
ENDMDL
