MODEL 1
REMARK minimizedAffinity -4.38542223
REMARK minimizedRMSD -1
REMARK  2 active torsions:
REMARK  status: ('A' for Active; 'I' for Inactive)
REMARK    1  A    between atoms: C1_2  and  C2_3 
REMARK    2  A    between atoms: C2_3  and  C3_4 
ROOT
ATOM      1  C3  UNL d   1       0.985   0.604   0.632  0.00  0.00    -0.075 A 
ATOM      2  C4  UNL d   1      -0.277   0.341   0.082  0.00  0.00     0.002 A 
ATOM      3  C5  UNL d   1      -1.272  -0.267   0.849  0.00  0.00     0.002 A 
ATOM      4  C6  UNL d   1      -1.014  -0.628   2.170  0.00  0.00    -0.004 A 
ATOM      5  C7  UNL d   1       0.243  -0.386   2.722  0.00  0.00     0.002 A 
ATOM      6  C8  UNL d   1       1.238   0.226   1.958  0.00  0.00     0.002 A 
ENDROOT
BRANCH   1   7
ATOM      7  C2  UNL d   1       2.056   1.288  -0.183  0.00  0.00     0.056 C 
BRANCH   7   8
ATOM      8  C1  UNL d   1       1.945   2.817  -0.202  0.00  0.00     0.007 C 
ATOM      9  C   UNL d   1       3.267   3.518   0.075  0.00  0.00     0.009 C 
ENDBRANCH   7   8
ENDBRANCH   1   7
TORSDOF 2
ENDMDL
