MODEL 1
REMARK minimizedAffinity -0.397845358
REMARK minimizedRMSD -1
REMARK  2 active torsions:
REMARK  status: ('A' for Active; 'I' for Inactive)
REMARK    1  A    between atoms: C1_2  and  C2_3 
REMARK    2  A    between atoms: C2_3  and  C3_4 
ROOT
ATOM      1  C3  UNL d   1       2.578  -0.831  -2.322  0.00  0.00    -0.075 A 
ATOM      2  C4  UNL d   1       3.578  -1.723  -2.737  0.00  0.00     0.002 A 
ATOM      3  C5  UNL d   1       3.241  -2.967  -3.270  0.00  0.00     0.002 A 
ATOM      4  C6  UNL d   1       1.903  -3.340  -3.387  0.00  0.00    -0.004 A 
ATOM      5  C7  UNL d   1       0.902  -2.468  -2.963  0.00  0.00     0.002 A 
ATOM      6  C8  UNL d   1       1.236  -1.221  -2.433  0.00  0.00     0.002 A 
ENDROOT
BRANCH   1   7
ATOM      7  C2  UNL d   1       2.935   0.528  -1.772  0.00  0.00     0.056 C 
BRANCH   7   8
ATOM      8  C1  UNL d   1       1.886   1.111  -0.819  0.00  0.00     0.007 C 
ATOM      9  C   UNL d   1       2.432   2.219   0.071  0.00  0.00     0.009 C 
ENDBRANCH   7   8
ENDBRANCH   1   7
TORSDOF 2
ENDMDL
