MODEL 1
REMARK minimizedAffinity -1.88030839
REMARK minimizedRMSD -1
REMARK  2 active torsions:
REMARK  status: ('A' for Active; 'I' for Inactive)
REMARK    1  A    between atoms: C1_2  and  C2_3 
REMARK    2  A    between atoms: C2_3  and  C3_4 
ROOT
ATOM      1  C3  UNL d   1       1.669  -1.332  -3.811  0.00  0.00    -0.075 A 
ATOM      2  C4  UNL d   1       1.289  -2.548  -4.397  0.00  0.00     0.002 A 
ATOM      3  C5  UNL d   1      -0.057  -2.906  -4.477  0.00  0.00     0.002 A 
ATOM      4  C6  UNL d   1      -1.037  -2.060  -3.964  0.00  0.00    -0.004 A 
ATOM      5  C7  UNL d   1      -0.670  -0.857  -3.365  0.00  0.00     0.002 A 
ATOM      6  C8  UNL d   1       0.675  -0.494  -3.288  0.00  0.00     0.002 A 
ENDROOT
BRANCH   1   7
ATOM      7  C2  UNL d   1       3.122  -0.925  -3.749  0.00  0.00     0.056 C 
BRANCH   7   8
ATOM      8  C1  UNL d   1       3.371   0.552  -4.073  0.00  0.00     0.007 C 
ATOM      9  C   UNL d   1       4.037   0.765  -5.425  0.00  0.00     0.009 C 
ENDBRANCH   7   8
ENDBRANCH   1   7
TORSDOF 2
ENDMDL
