MODEL 1
REMARK minimizedAffinity -0.183378726
REMARK minimizedRMSD -1
REMARK  2 active torsions:
REMARK  status: ('A' for Active; 'I' for Inactive)
REMARK    1  A    between atoms: C1_2  and  C2_3 
REMARK    2  A    between atoms: C2_3  and  C3_4 
ROOT
ATOM      1  C3  UNL d   1       1.269  -1.381  -2.479  0.00  0.00    -0.075 A 
ATOM      2  C4  UNL d   1       0.081  -1.352  -3.224  0.00  0.00     0.002 A 
ATOM      3  C5  UNL d   1      -0.322  -2.467  -3.959  0.00  0.00     0.002 A 
ATOM      4  C6  UNL d   1       0.460  -3.620  -3.966  0.00  0.00    -0.004 A 
ATOM      5  C7  UNL d   1       1.650  -3.655  -3.243  0.00  0.00     0.002 A 
ATOM      6  C8  UNL d   1       2.054  -2.542  -2.503  0.00  0.00     0.002 A 
ENDROOT
BRANCH   1   7
ATOM      7  C2  UNL d   1       1.696  -0.188  -1.659  0.00  0.00     0.056 C 
BRANCH   7   8
ATOM      8  C1  UNL d   1       2.245   0.976  -2.490  0.00  0.00     0.007 C 
ATOM      9  C   UNL d   1       2.265   2.298  -1.733  0.00  0.00     0.009 C 
ENDBRANCH   7   8
ENDBRANCH   1   7
TORSDOF 2
ENDMDL
