MODEL 1
REMARK minimizedAffinity 6.67502928
REMARK minimizedRMSD -1
REMARK  2 active torsions:
REMARK  status: ('A' for Active; 'I' for Inactive)
REMARK    1  A    between atoms: C1_2  and  C2_3 
REMARK    2  A    between atoms: C2_3  and  C3_4 
ROOT
ATOM      1  C3  UNL d   1      -3.923  -5.983   0.409  0.00  0.00    -0.075 A 
ATOM      2  C4  UNL d   1      -3.269  -5.980  -0.831  0.00  0.00     0.002 A 
ATOM      3  C5  UNL d   1      -1.876  -5.993  -0.897  0.00  0.00     0.002 A 
ATOM      4  C6  UNL d   1      -1.120  -5.998   0.273  0.00  0.00    -0.004 A 
ATOM      5  C7  UNL d   1      -1.759  -5.984   1.511  0.00  0.00     0.002 A 
ATOM      6  C8  UNL d   1      -3.153  -5.976   1.580  0.00  0.00     0.002 A 
ENDROOT
BRANCH   1   7
ATOM      7  C2  UNL d   1      -5.431  -5.998   0.488  0.00  0.00     0.056 C 
BRANCH   7   8
ATOM      8  C1  UNL d   1      -5.996  -5.357   1.760  0.00  0.00     0.007 C 
ATOM      9  C   UNL d   1      -6.000  -3.835   1.714  0.00  0.00     0.009 C 
ENDBRANCH   7   8
ENDBRANCH   1   7
TORSDOF 2
ENDMDL
