MODEL 1
REMARK minimizedAffinity 1.22177958
REMARK minimizedRMSD -1
REMARK  2 active torsions:
REMARK  status: ('A' for Active; 'I' for Inactive)
REMARK    1  A    between atoms: C1_2  and  C2_3 
REMARK    2  A    between atoms: C2_3  and  C3_4 
ROOT
ATOM      1  C3  UNL d   1      -3.731   1.703   3.907  0.00  0.00    -0.075 A 
ATOM      2  C4  UNL d   1      -4.000   1.856   5.275  0.00  0.00     0.002 A 
ATOM      3  C5  UNL d   1      -5.131   2.554   5.701  0.00  0.00     0.002 A 
ATOM      4  C6  UNL d   1      -6.000   3.115   4.767  0.00  0.00    -0.004 A 
ATOM      5  C7  UNL d   1      -5.734   2.983   3.406  0.00  0.00     0.002 A 
ATOM      6  C8  UNL d   1      -4.605   2.282   2.977  0.00  0.00     0.002 A 
ENDROOT
BRANCH   1   7
ATOM      7  C2  UNL d   1      -2.525   0.924   3.439  0.00  0.00     0.056 C 
BRANCH   7   8
ATOM      8  C1  UNL d   1      -1.443   1.787   2.781  0.00  0.00     0.007 C 
ATOM      9  C   UNL d   1      -0.716   2.693   3.765  0.00  0.00     0.009 C 
ENDBRANCH   7   8
ENDBRANCH   1   7
TORSDOF 2
ENDMDL
