MODEL 1
REMARK minimizedAffinity 9.1725893
REMARK minimizedRMSD -1
REMARK  2 active torsions:
REMARK  status: ('A' for Active; 'I' for Inactive)
REMARK    1  A    between atoms: C1_2  and  C2_3 
REMARK    2  A    between atoms: C2_3  and  C3_4 
ROOT
ATOM      1  C3  UNL d   1       0.025  -1.510  -2.891  0.00  0.00    -0.075 A 
ATOM      2  C4  UNL d   1      -1.277  -1.001  -2.774  0.00  0.00     0.002 A 
ATOM      3  C5  UNL d   1      -1.592  -0.085  -1.771  0.00  0.00     0.002 A 
ATOM      4  C6  UNL d   1      -0.615   0.327  -0.867  0.00  0.00    -0.004 A 
ATOM      5  C7  UNL d   1       0.677  -0.184  -0.964  0.00  0.00     0.002 A 
ATOM      6  C8  UNL d   1       0.997  -1.098  -1.969  0.00  0.00     0.002 A 
ENDROOT
BRANCH   1   7
ATOM      7  C2  UNL d   1       0.380  -2.480  -3.992  0.00  0.00     0.056 C 
BRANCH   7   8
ATOM      8  C1  UNL d   1      -0.772  -3.401  -4.407  0.00  0.00     0.007 C 
ATOM      9  C   UNL d   1      -1.266  -3.144  -5.825  0.00  0.00     0.009 C 
ENDBRANCH   7   8
ENDBRANCH   1   7
TORSDOF 2
ENDMDL
