MODEL 1
REMARK minimizedAffinity 1.79559588
REMARK minimizedRMSD -1
REMARK  2 active torsions:
REMARK  status: ('A' for Active; 'I' for Inactive)
REMARK    1  A    between atoms: C1_2  and  C2_3 
REMARK    2  A    between atoms: C2_3  and  C3_4 
ROOT
ATOM      1  C3  UNL d   1      -2.178  -4.796   1.668  0.00  0.00    -0.075 A 
ATOM      2  C4  UNL d   1      -2.848  -6.000   1.406  0.00  0.00     0.002 A 
ATOM      3  C5  UNL d   1      -4.118  -5.993   0.829  0.00  0.00     0.002 A 
ATOM      4  C6  UNL d   1      -4.738  -4.785   0.518  0.00  0.00    -0.004 A 
ATOM      5  C7  UNL d   1      -4.089  -3.583   0.789  0.00  0.00     0.002 A 
ATOM      6  C8  UNL d   1      -2.816  -3.587   1.362  0.00  0.00     0.002 A 
ENDROOT
BRANCH   1   7
ATOM      7  C2  UNL d   1      -0.791  -4.797   2.265  0.00  0.00     0.056 C 
BRANCH   7   8
ATOM      8  C1  UNL d   1       0.064  -6.000   1.853  0.00  0.00     0.007 C 
ATOM      9  C   UNL d   1       1.454  -5.989   2.474  0.00  0.00     0.009 C 
ENDBRANCH   7   8
ENDBRANCH   1   7
TORSDOF 2
ENDMDL
