MODEL 1
REMARK minimizedAffinity -3.26843882
REMARK minimizedRMSD -1
REMARK  2 active torsions:
REMARK  status: ('A' for Active; 'I' for Inactive)
REMARK    1  A    between atoms: C1_2  and  C2_3 
REMARK    2  A    between atoms: C2_3  and  C3_4 
ROOT
ATOM      1  C3  UNL d   1      -2.281  -4.711   1.365  0.00  0.00    -0.075 A 
ATOM      2  C4  UNL d   1      -2.947  -3.540   0.975  0.00  0.00     0.002 A 
ATOM      3  C5  UNL d   1      -4.246  -3.599   0.468  0.00  0.00     0.002 A 
ATOM      4  C6  UNL d   1      -4.890  -4.827   0.335  0.00  0.00    -0.004 A 
ATOM      5  C7  UNL d   1      -4.232  -5.998   0.703  0.00  0.00     0.002 A 
ATOM      6  C8  UNL d   1      -2.934  -5.942   1.215  0.00  0.00     0.002 A 
ENDROOT
BRANCH   1   7
ATOM      7  C2  UNL d   1      -0.887  -4.652   1.942  0.00  0.00     0.056 C 
BRANCH   7   8
ATOM      8  C1  UNL d   1      -0.159  -6.000   1.953  0.00  0.00     0.007 C 
ATOM      9  C   UNL d   1       1.300  -5.891   2.376  0.00  0.00     0.009 C 
ENDBRANCH   7   8
ENDBRANCH   1   7
TORSDOF 2
ENDMDL
