MODEL 1
REMARK minimizedAffinity -3.62607408
REMARK minimizedRMSD -1
REMARK  0 active torsions:
REMARK  status: ('A' for Active; 'I' for Inactive)
ROOT
ATOM      1  C   UNL d   1      -0.170  -0.452  -0.134  0.00  0.00     0.172 C 
ATOM      2  N   UNL d   1      -0.075  -1.768  -0.720  0.00  0.00    -0.070 N 
ATOM      3  C1  UNL d   1      -1.121  -2.630  -0.920  0.00  0.00    -0.004 A 
ATOM      4  C2  UNL d   1      -0.619  -3.775  -1.500  0.00  0.00    -0.047 A 
ATOM      5  C3  UNL d   1       0.776  -3.595  -1.654  0.00  0.00    -0.047 A 
ATOM      6  C4  UNL d   1       1.086  -2.344  -1.163  0.00  0.00    -0.004 A 
ENDROOT
TORSDOF 0
ENDMDL
