MODEL 1
REMARK minimizedAffinity -3.92929578
REMARK minimizedRMSD -1
REMARK  0 active torsions:
REMARK  status: ('A' for Active; 'I' for Inactive)
ROOT
ATOM      1  C   UNL d   1      -0.391   0.885  -0.596  0.00  0.00     0.172 C 
ATOM      2  N   UNL d   1      -0.438  -0.520  -0.265  0.00  0.00    -0.070 N 
ATOM      3  C1  UNL d   1       0.072  -1.537  -1.027  0.00  0.00    -0.004 A 
ATOM      4  C2  UNL d   1      -0.174  -2.722  -0.368  0.00  0.00    -0.047 A 
ATOM      5  C3  UNL d   1      -0.855  -2.406   0.831  0.00  0.00    -0.047 A 
ATOM      6  C4  UNL d   1      -1.006  -1.036   0.869  0.00  0.00    -0.004 A 
ENDROOT
TORSDOF 0
ENDMDL
