MODEL 1
REMARK minimizedAffinity -3.54573822
REMARK minimizedRMSD -1
REMARK  0 active torsions:
REMARK  status: ('A' for Active; 'I' for Inactive)
ROOT
ATOM      1  C   UNL d   1      -0.075   1.118  -0.347  0.00  0.00     0.172 C 
ATOM      2  N   UNL d   1      -0.187  -0.279   0.002  0.00  0.00    -0.070 N 
ATOM      3  C1  UNL d   1      -0.918  -0.786   1.042  0.00  0.00    -0.004 A 
ATOM      4  C2  UNL d   1      -0.766  -2.156   1.036  0.00  0.00    -0.047 A 
ATOM      5  C3  UNL d   1       0.087  -2.483  -0.044  0.00  0.00    -0.047 A 
ATOM      6  C4  UNL d   1       0.431  -1.302  -0.668  0.00  0.00    -0.004 A 
ENDROOT
TORSDOF 0
ENDMDL
