MODEL 1
REMARK minimizedAffinity -1.27894843
REMARK minimizedRMSD -1
REMARK  0 active torsions:
REMARK  status: ('A' for Active; 'I' for Inactive)
ROOT
ATOM      1  C   UNL d   1      -2.585  -3.294   0.317  0.00  0.00     0.172 C 
ATOM      2  N   UNL d   1      -1.232  -2.858   0.065  0.00  0.00    -0.070 N 
ATOM      3  C1  UNL d   1      -0.859  -1.599  -0.324  0.00  0.00    -0.004 A 
ATOM      4  C2  UNL d   1       0.513  -1.587  -0.458  0.00  0.00    -0.047 A 
ATOM      5  C3  UNL d   1       0.980  -2.885  -0.139  0.00  0.00    -0.047 A 
ATOM      6  C4  UNL d   1      -0.121  -3.651   0.181  0.00  0.00    -0.004 A 
ENDROOT
TORSDOF 0
ENDMDL
