MODEL 1
REMARK minimizedAffinity -2.03223062
REMARK minimizedRMSD -1
REMARK  0 active torsions:
REMARK  status: ('A' for Active; 'I' for Inactive)
ROOT
ATOM      1  C   UNL d   1      -1.726   0.000   0.789  0.00  0.00     0.172 C 
ATOM      2  N   UNL d   1      -0.992  -1.217   0.535  0.00  0.00    -0.070 N 
ATOM      3  C1  UNL d   1       0.330  -1.295   0.189  0.00  0.00    -0.004 A 
ATOM      4  C2  UNL d   1       0.649  -2.627   0.036  0.00  0.00    -0.047 A 
ATOM      5  C3  UNL d   1      -0.523  -3.376   0.297  0.00  0.00    -0.047 A 
ATOM      6  C4  UNL d   1      -1.524  -2.478   0.603  0.00  0.00    -0.004 A 
ENDROOT
TORSDOF 0
ENDMDL
