MODEL 1
REMARK minimizedAffinity -3.20727324
REMARK minimizedRMSD -1
REMARK  0 active torsions:
REMARK  status: ('A' for Active; 'I' for Inactive)
ROOT
ATOM      1  C   UNL d   1       0.284   0.628  -0.240  0.00  0.00     0.172 C 
ATOM      2  N   UNL d   1       0.066  -0.787  -0.050  0.00  0.00    -0.070 N 
ATOM      3  C1  UNL d   1       0.553  -1.784  -0.851  0.00  0.00    -0.004 A 
ATOM      4  C2  UNL d   1       0.125  -2.988  -0.334  0.00  0.00    -0.047 A 
ATOM      5  C3  UNL d   1      -0.647  -2.704   0.817  0.00  0.00    -0.047 A 
ATOM      6  C4  UNL d   1      -0.668  -1.333   0.970  0.00  0.00    -0.004 A 
ENDROOT
TORSDOF 0
ENDMDL
