MODEL 1
REMARK minimizedAffinity -2.66413116
REMARK minimizedRMSD -1
REMARK  0 active torsions:
REMARK  status: ('A' for Active; 'I' for Inactive)
ROOT
ATOM      1  C   UNL d   1      -0.101   0.483  -0.292  0.00  0.00     0.172 C 
ATOM      2  N   UNL d   1       0.026  -0.918   0.033  0.00  0.00    -0.070 N 
ATOM      3  C1  UNL d   1       1.020  -1.752  -0.404  0.00  0.00    -0.004 A 
ATOM      4  C2  UNL d   1       0.786  -3.002   0.126  0.00  0.00    -0.047 A 
ATOM      5  C3  UNL d   1      -0.391  -2.917   0.907  0.00  0.00    -0.047 A 
ATOM      6  C4  UNL d   1      -0.841  -1.616   0.832  0.00  0.00    -0.004 A 
ENDROOT
TORSDOF 0
ENDMDL
