MODEL 1
REMARK minimizedAffinity -3.83082104
REMARK minimizedRMSD -1
REMARK  0 active torsions:
REMARK  status: ('A' for Active; 'I' for Inactive)
ROOT
ATOM      1  C   UNL d   1       0.055   0.975   0.013  0.00  0.00     0.172 C 
ATOM      2  N   UNL d   1       0.055  -0.463   0.143  0.00  0.00    -0.070 N 
ATOM      3  C1  UNL d   1      -0.348  -1.165   1.247  0.00  0.00    -0.004 A 
ATOM      4  C2  UNL d   1      -0.196  -2.507   0.974  0.00  0.00    -0.047 A 
ATOM      5  C3  UNL d   1       0.318  -2.616  -0.340  0.00  0.00    -0.047 A 
ATOM      6  C4  UNL d   1       0.464  -1.335  -0.831  0.00  0.00    -0.004 A 
ENDROOT
TORSDOF 0
ENDMDL
