MODEL 1
REMARK minimizedAffinity -1.55304444
REMARK minimizedRMSD -1
REMARK  0 active torsions:
REMARK  status: ('A' for Active; 'I' for Inactive)
ROOT
ATOM      1  C   UNL d   1      -0.685  -2.894   0.023  0.00  0.00     0.172 C 
ATOM      2  N   UNL d   1      -0.245  -1.552  -0.275  0.00  0.00    -0.070 N 
ATOM      3  C1  UNL d   1      -0.183  -0.515   0.617  0.00  0.00    -0.004 A 
ATOM      4  C2  UNL d   1       0.287   0.593  -0.056  0.00  0.00    -0.047 A 
ATOM      5  C3  UNL d   1       0.514   0.208  -1.399  0.00  0.00    -0.047 A 
ATOM      6  C4  UNL d   1       0.177  -1.124  -1.507  0.00  0.00    -0.004 A 
ENDROOT
TORSDOF 0
ENDMDL
