MODEL 1
REMARK minimizedAffinity -3.13559341
REMARK minimizedRMSD -1
REMARK  0 active torsions:
REMARK  status: ('A' for Active; 'I' for Inactive)
ROOT
ATOM      1  C   UNL d   1      -0.170   0.451   0.629  0.00  0.00     0.172 C 
ATOM      2  N   UNL d   1      -0.017  -0.955   0.339  0.00  0.00    -0.070 N 
ATOM      3  C1  UNL d   1       0.123  -1.503  -0.908  0.00  0.00    -0.004 A 
ATOM      4  C2  UNL d   1       0.242  -2.868  -0.759  0.00  0.00    -0.047 A 
ATOM      5  C3  UNL d   1       0.169  -3.151   0.625  0.00  0.00    -0.047 A 
ATOM      6  C4  UNL d   1       0.009  -1.949   1.282  0.00  0.00    -0.004 A 
ENDROOT
TORSDOF 0
ENDMDL
