MODEL 1
REMARK minimizedAffinity -3.74795365
REMARK minimizedRMSD -1
REMARK  0 active torsions:
REMARK  status: ('A' for Active; 'I' for Inactive)
ROOT
ATOM      1  C   UNL d   1       0.164   1.069  -0.455  0.00  0.00     0.172 C 
ATOM      2  N   UNL d   1       0.235  -0.363  -0.623  0.00  0.00    -0.070 N 
ATOM      3  C1  UNL d   1       0.440  -1.019  -1.807  0.00  0.00    -0.004 A 
ATOM      4  C2  UNL d   1       0.443  -2.372  -1.545  0.00  0.00    -0.047 A 
ATOM      5  C3  UNL d   1       0.232  -2.535  -0.156  0.00  0.00    -0.047 A 
ATOM      6  C4  UNL d   1       0.107  -1.275   0.391  0.00  0.00    -0.004 A 
ENDROOT
TORSDOF 0
ENDMDL
