MODEL 1
REMARK minimizedAffinity -3.72553372
REMARK minimizedRMSD -1
REMARK  0 active torsions:
REMARK  status: ('A' for Active; 'I' for Inactive)
ROOT
ATOM      1  C   UNL d   1       0.228   1.098  -0.503  0.00  0.00     0.172 C 
ATOM      2  N   UNL d   1       0.035  -0.227   0.037  0.00  0.00    -0.070 N 
ATOM      3  C1  UNL d   1      -1.048  -0.642   0.765  0.00  0.00    -0.004 A 
ATOM      4  C2  UNL d   1      -0.854  -1.967   1.093  0.00  0.00    -0.047 A 
ATOM      5  C3  UNL d   1       0.390  -2.361   0.544  0.00  0.00    -0.047 A 
ATOM      6  C4  UNL d   1       0.918  -1.264  -0.104  0.00  0.00    -0.004 A 
ENDROOT
TORSDOF 0
ENDMDL
