MODEL 1
REMARK minimizedAffinity -3.03973126
REMARK minimizedRMSD -1
REMARK  0 active torsions:
REMARK  status: ('A' for Active; 'I' for Inactive)
ROOT
ATOM      1  C   UNL d   1       0.007  -1.655  -2.230  0.00  0.00     0.172 C 
ATOM      2  N   UNL d   1      -0.321  -0.909  -1.037  0.00  0.00    -0.070 N 
ATOM      3  C1  UNL d   1      -0.844  -1.435   0.114  0.00  0.00    -0.004 A 
ATOM      4  C2  UNL d   1      -1.013  -0.402   1.011  0.00  0.00    -0.047 A 
ATOM      5  C3  UNL d   1      -0.576   0.785   0.377  0.00  0.00    -0.047 A 
ATOM      6  C4  UNL d   1      -0.153   0.442  -0.890  0.00  0.00    -0.004 A 
ENDROOT
TORSDOF 0
ENDMDL
