MODEL 1
REMARK minimizedAffinity -3.72061396
REMARK minimizedRMSD -1
REMARK  0 active torsions:
REMARK  status: ('A' for Active; 'I' for Inactive)
ROOT
ATOM      1  C   UNL d   1       0.141   1.089  -0.314  0.00  0.00     0.172 C 
ATOM      2  N   UNL d   1      -0.109  -0.316  -0.092  0.00  0.00    -0.070 N 
ATOM      3  C1  UNL d   1      -1.145  -0.837   0.636  0.00  0.00    -0.004 A 
ATOM      4  C2  UNL d   1      -1.032  -2.210   0.607  0.00  0.00    -0.047 A 
ATOM      5  C3  UNL d   1       0.113  -2.525  -0.164  0.00  0.00    -0.047 A 
ATOM      6  C4  UNL d   1       0.665  -1.333  -0.585  0.00  0.00    -0.004 A 
ENDROOT
TORSDOF 0
ENDMDL
