MODEL 1
REMARK minimizedAffinity -2.9215939
REMARK minimizedRMSD -1
REMARK  0 active torsions:
REMARK  status: ('A' for Active; 'I' for Inactive)
ROOT
ATOM      1  C   UNL d   1      -0.704   0.314   0.356  0.00  0.00     0.172 C 
ATOM      2  N   UNL d   1      -0.617  -0.934  -0.365  0.00  0.00    -0.070 N 
ATOM      3  C1  UNL d   1      -0.992  -2.161   0.113  0.00  0.00    -0.004 A 
ATOM      4  C2  UNL d   1      -0.753  -3.091  -0.875  0.00  0.00    -0.047 A 
ATOM      5  C3  UNL d   1      -0.215  -2.399  -1.986  0.00  0.00    -0.047 A 
ATOM      6  C4  UNL d   1      -0.141  -1.065  -1.643  0.00  0.00    -0.004 A 
ENDROOT
TORSDOF 0
ENDMDL
