MODEL 1
REMARK minimizedAffinity -2.09963512
REMARK minimizedRMSD -1
REMARK  0 active torsions:
REMARK  status: ('A' for Active; 'I' for Inactive)
ROOT
ATOM      1  C   UNL d   1      -0.545   0.125   0.251  0.00  0.00     0.078 C 
ATOM      2  C1  UNL d   1      -0.594   1.061  -0.920  0.00  0.00    -0.077 A 
ATOM      3  C2  UNL d   1       0.555   1.732  -1.356  0.00  0.00    -0.001 A 
ATOM      4  C3  UNL d   1       0.492   2.607  -2.441  0.00  0.00     0.003 A 
ATOM      5  C4  UNL d   1      -0.718   2.821  -3.099  0.00  0.00    -0.005 A 
ATOM      6  C5  UNL d   1      -1.867   2.160  -2.671  0.00  0.00     0.003 A 
ATOM      7  C6  UNL d   1      -1.806   1.284  -1.586  0.00  0.00    -0.001 A 
ENDROOT
TORSDOF 0
ENDMDL
