MODEL 1
REMARK minimizedAffinity -4.40179777
REMARK minimizedRMSD -1
REMARK  0 active torsions:
REMARK  status: ('A' for Active; 'I' for Inactive)
ROOT
ATOM      1  C   UNL d   1       0.712  -1.728   2.926  0.00  0.00     0.078 C 
ATOM      2  C1  UNL d   1       0.515  -1.128   1.566  0.00  0.00    -0.077 A 
ATOM      3  C2  UNL d   1      -0.539  -0.241   1.315  0.00  0.00    -0.001 A 
ATOM      4  C3  UNL d   1      -0.716   0.303   0.042  0.00  0.00     0.003 A 
ATOM      5  C4  UNL d   1       0.157  -0.035  -0.991  0.00  0.00    -0.005 A 
ATOM      6  C5  UNL d   1       1.207  -0.918  -0.751  0.00  0.00     0.003 A 
ATOM      7  C6  UNL d   1       1.386  -1.463   0.522  0.00  0.00    -0.001 A 
ENDROOT
TORSDOF 0
ENDMDL
