MODEL 1
REMARK minimizedAffinity -4.57488108
REMARK minimizedRMSD -1
REMARK  0 active torsions:
REMARK  status: ('A' for Active; 'I' for Inactive)
ROOT
ATOM      1  C   UNL d   1      -0.929   0.422   1.217  0.00  0.00     0.078 C 
ATOM      2  C1  UNL d   1      -0.802   0.779  -0.234  0.00  0.00    -0.077 A 
ATOM      3  C2  UNL d   1      -1.297   1.994  -0.723  0.00  0.00    -0.001 A 
ATOM      4  C3  UNL d   1      -1.180   2.309  -2.078  0.00  0.00     0.003 A 
ATOM      5  C4  UNL d   1      -0.570   1.415  -2.955  0.00  0.00    -0.005 A 
ATOM      6  C5  UNL d   1      -0.076   0.202  -2.477  0.00  0.00     0.003 A 
ATOM      7  C6  UNL d   1      -0.192  -0.115  -1.123  0.00  0.00    -0.001 A 
ENDROOT
TORSDOF 0
ENDMDL
