MODEL 1
REMARK minimizedAffinity -2.41734433
REMARK minimizedRMSD -1
REMARK  0 active torsions:
REMARK  status: ('A' for Active; 'I' for Inactive)
ROOT
ATOM      1  C   UNL d   1       2.544  -2.689   0.722  0.00  0.00     0.078 C 
ATOM      2  C1  UNL d   1       1.367  -1.776   0.892  0.00  0.00    -0.077 A 
ATOM      3  C2  UNL d   1       0.875  -1.025  -0.183  0.00  0.00    -0.001 A 
ATOM      4  C3  UNL d   1      -0.215  -0.172  -0.008  0.00  0.00     0.003 A 
ATOM      5  C4  UNL d   1      -0.822  -0.060   1.242  0.00  0.00    -0.005 A 
ATOM      6  C5  UNL d   1      -0.338  -0.800   2.318  0.00  0.00     0.003 A 
ATOM      7  C6  UNL d   1       0.752  -1.654   2.145  0.00  0.00    -0.001 A 
ENDROOT
TORSDOF 0
ENDMDL
