MODEL 1
REMARK minimizedAffinity -3.24301076
REMARK minimizedRMSD -1
REMARK  0 active torsions:
REMARK  status: ('A' for Active; 'I' for Inactive)
ROOT
ATOM      1  C   UNL d   1       2.251  -2.603   1.044  0.00  0.00     0.078 C 
ATOM      2  C1  UNL d   1       1.072  -1.677   1.044  0.00  0.00    -0.077 A 
ATOM      3  C2  UNL d   1       0.681  -1.007  -0.122  0.00  0.00    -0.001 A 
ATOM      4  C3  UNL d   1      -0.413  -0.140  -0.104  0.00  0.00     0.003 A 
ATOM      5  C4  UNL d   1      -1.124   0.066   1.076  0.00  0.00    -0.005 A 
ATOM      6  C5  UNL d   1      -0.741  -0.594   2.242  0.00  0.00     0.003 A 
ATOM      7  C6  UNL d   1       0.353  -1.462   2.227  0.00  0.00    -0.001 A 
ENDROOT
TORSDOF 0
ENDMDL
