MODEL 1
REMARK minimizedAffinity -3.85366273
REMARK minimizedRMSD -1
REMARK  0 active torsions:
REMARK  status: ('A' for Active; 'I' for Inactive)
ROOT
ATOM      1  C   UNL d   1       2.275  -2.361  -0.041  0.00  0.00     0.078 C 
ATOM      2  C1  UNL d   1       1.084  -1.552   0.375  0.00  0.00    -0.077 A 
ATOM      3  C2  UNL d   1       0.177  -1.062  -0.573  0.00  0.00    -0.001 A 
ATOM      4  C3  UNL d   1      -0.922  -0.301  -0.172  0.00  0.00     0.003 A 
ATOM      5  C4  UNL d   1      -1.125  -0.022   1.178  0.00  0.00    -0.005 A 
ATOM      6  C5  UNL d   1      -0.227  -0.503   2.129  0.00  0.00     0.003 A 
ATOM      7  C6  UNL d   1       0.873  -1.264   1.730  0.00  0.00    -0.001 A 
ENDROOT
TORSDOF 0
ENDMDL
