MODEL 1
REMARK minimizedAffinity -1.02246046
REMARK minimizedRMSD -1
REMARK  0 active torsions:
REMARK  status: ('A' for Active; 'I' for Inactive)
ROOT
ATOM      1  C   UNL d   1       0.270  -1.680   2.561  0.00  0.00     0.078 C 
ATOM      2  C1  UNL d   1      -0.033  -0.940   1.293  0.00  0.00    -0.077 A 
ATOM      3  C2  UNL d   1      -1.230  -0.229   1.141  0.00  0.00    -0.001 A 
ATOM      4  C3  UNL d   1      -1.503   0.448  -0.048  0.00  0.00     0.003 A 
ATOM      5  C4  UNL d   1      -0.586   0.419  -1.097  0.00  0.00    -0.005 A 
ATOM      6  C5  UNL d   1       0.606  -0.288  -0.956  0.00  0.00     0.003 A 
ATOM      7  C6  UNL d   1       0.882  -0.965   0.233  0.00  0.00    -0.001 A 
ENDROOT
TORSDOF 0
ENDMDL
