MODEL 1
REMARK minimizedAffinity -0.422240257
REMARK minimizedRMSD -1
REMARK  0 active torsions:
REMARK  status: ('A' for Active; 'I' for Inactive)
ROOT
ATOM      1  C   UNL d   1      -2.582   3.726   3.118  0.00  0.00     0.023 A 
ATOM      2  C1  UNL d   1      -1.435   2.932   3.148  0.00  0.00     0.003 A 
ATOM      3  C2  UNL d   1      -0.536   2.963   2.080  0.00  0.00     0.048 A 
ATOM      4  C3  UNL d   1      -0.789   3.789   0.986  0.00  0.00     0.023 A 
ATOM      5  C4  UNL d   1      -1.935   4.586   0.952  0.00  0.00     0.048 A 
ATOM      6  C5  UNL d   1      -2.832   4.551   2.022  0.00  0.00     0.003 A 
ATOM      7  I   UNL d   1       0.548   3.836  -0.605  0.00  0.00    -0.146 I 
ENDROOT
TORSDOF 0
ENDMDL
