MODEL 1
REMARK minimizedAffinity 5.28269672
REMARK minimizedRMSD -1
REMARK  0 active torsions:
REMARK  status: ('A' for Active; 'I' for Inactive)
ROOT
ATOM      1  C   UNL d   1       4.888  -3.068  -0.749  0.00  0.00     0.023 A 
ATOM      2  C1  UNL d   1       4.930  -4.461  -0.689  0.00  0.00     0.003 A 
ATOM      3  C2  UNL d   1       4.728  -5.217  -1.846  0.00  0.00     0.048 A 
ATOM      4  C3  UNL d   1       4.485  -4.574  -3.059  0.00  0.00     0.023 A 
ATOM      5  C4  UNL d   1       4.442  -3.180  -3.123  0.00  0.00     0.048 A 
ATOM      6  C5  UNL d   1       4.645  -2.429  -1.965  0.00  0.00     0.003 A 
ATOM      7  I   UNL d   1       4.183  -5.698  -4.781  0.00  0.00    -0.146 I 
ENDROOT
TORSDOF 0
ENDMDL
