MODEL 1
REMARK minimizedAffinity -2.19223714
REMARK minimizedRMSD -1
REMARK  0 active torsions:
REMARK  status: ('A' for Active; 'I' for Inactive)
ROOT
ATOM      1  C   UNL d   1      -5.649   2.688  -1.490  0.00  0.00     0.023 A 
ATOM      2  C1  UNL d   1      -5.976   1.867  -2.570  0.00  0.00     0.003 A 
ATOM      3  C2  UNL d   1      -5.997   2.389  -3.865  0.00  0.00     0.048 A 
ATOM      4  C3  UNL d   1      -5.689   3.733  -4.073  0.00  0.00     0.023 A 
ATOM      5  C4  UNL d   1      -5.360   4.558  -2.996  0.00  0.00     0.048 A 
ATOM      6  C5  UNL d   1      -5.342   4.032  -1.703  0.00  0.00     0.003 A 
ATOM      7  I   UNL d   1      -5.719   4.512  -6.000  0.00  0.00    -0.146 I 
ENDROOT
TORSDOF 0
ENDMDL
