MODEL 1
REMARK minimizedAffinity 2.18419361
REMARK minimizedRMSD -1
REMARK  0 active torsions:
REMARK  status: ('A' for Active; 'I' for Inactive)
ROOT
ATOM      1  C   UNL d   1      -4.360   4.509  -5.596  0.00  0.00     0.023 A 
ATOM      2  C1  UNL d   1      -3.663   4.500  -4.388  0.00  0.00     0.003 A 
ATOM      3  C2  UNL d   1      -4.132   3.739  -3.315  0.00  0.00     0.048 A 
ATOM      4  C3  UNL d   1      -5.299   2.989  -3.458  0.00  0.00     0.023 A 
ATOM      5  C4  UNL d   1      -6.000   2.995  -4.665  0.00  0.00     0.048 A 
ATOM      6  C5  UNL d   1      -5.527   3.758  -5.735  0.00  0.00     0.003 A 
ATOM      7  I   UNL d   1      -6.000   1.855  -1.863  0.00  0.00    -0.146 I 
ENDROOT
TORSDOF 0
ENDMDL
