MODEL 1
REMARK minimizedAffinity -0.0100167291
REMARK minimizedRMSD -1
REMARK  0 active torsions:
REMARK  status: ('A' for Active; 'I' for Inactive)
ROOT
ATOM      1  C   UNL d   1      -5.996   3.269  -1.271  0.00  0.00     0.023 A 
ATOM      2  C1  UNL d   1      -5.999   4.614  -1.641  0.00  0.00     0.003 A 
ATOM      3  C2  UNL d   1      -5.999   4.969  -2.991  0.00  0.00     0.048 A 
ATOM      4  C3  UNL d   1      -5.998   3.973  -3.967  0.00  0.00     0.023 A 
ATOM      5  C4  UNL d   1      -5.997   2.626  -3.603  0.00  0.00     0.048 A 
ATOM      6  C5  UNL d   1      -5.995   2.276  -2.251  0.00  0.00     0.003 A 
ATOM      7  I   UNL d   1      -5.999   4.499  -5.978  0.00  0.00    -0.146 I 
ENDROOT
TORSDOF 0
ENDMDL
