MODEL 1
REMARK minimizedAffinity 5.03627729
REMARK minimizedRMSD -1
REMARK  0 active torsions:
REMARK  status: ('A' for Active; 'I' for Inactive)
ROOT
ATOM      1  C   UNL d   1       0.267  -2.715  -1.387  0.00  0.00     0.023 A 
ATOM      2  C1  UNL d   1      -0.935  -2.149  -0.961  0.00  0.00     0.003 A 
ATOM      3  C2  UNL d   1      -0.985  -0.801  -0.603  0.00  0.00     0.048 A 
ATOM      4  C3  UNL d   1       0.170  -0.023  -0.674  0.00  0.00     0.023 A 
ATOM      5  C4  UNL d   1       1.375  -0.585  -1.100  0.00  0.00     0.048 A 
ATOM      6  C5  UNL d   1       1.420  -1.934  -1.456  0.00  0.00     0.003 A 
ATOM      7  I   UNL d   1       0.099   1.985  -0.142  0.00  0.00    -0.146 I 
ENDROOT
TORSDOF 0
ENDMDL
