MODEL 1
REMARK minimizedAffinity -4.67727518
REMARK minimizedRMSD -1
REMARK  0 active torsions:
REMARK  status: ('A' for Active; 'I' for Inactive)
ROOT
ATOM      1  C   UNL d   1      -4.308   0.059  -5.834  0.00  0.00     0.023 A 
ATOM      2  C1  UNL d   1      -5.608   0.212  -5.352  0.00  0.00     0.003 A 
ATOM      3  C2  UNL d   1      -5.988   1.404  -4.731  0.00  0.00     0.048 A 
ATOM      4  C3  UNL d   1      -5.063   2.438  -4.596  0.00  0.00     0.023 A 
ATOM      5  C4  UNL d   1      -3.761   2.289  -5.077  0.00  0.00     0.048 A 
ATOM      6  C5  UNL d   1      -3.386   1.096  -5.696  0.00  0.00     0.003 A 
ATOM      7  I   UNL d   1      -5.626   4.213  -3.672  0.00  0.00    -0.146 I 
ENDROOT
TORSDOF 0
ENDMDL
