MODEL 1
REMARK minimizedAffinity -3.41333556
REMARK minimizedRMSD -1
REMARK  0 active torsions:
REMARK  status: ('A' for Active; 'I' for Inactive)
ROOT
ATOM      1  C   UNL d   1      -4.140   0.663  -4.876  0.00  0.00     0.023 A 
ATOM      2  C1  UNL d   1      -3.352   1.708  -5.358  0.00  0.00     0.003 A 
ATOM      3  C2  UNL d   1      -3.884   2.995  -5.464  0.00  0.00     0.048 A 
ATOM      4  C3  UNL d   1      -5.205   3.230  -5.084  0.00  0.00     0.023 A 
ATOM      5  C4  UNL d   1      -5.998   2.187  -4.601  0.00  0.00     0.048 A 
ATOM      6  C5  UNL d   1      -5.461   0.902  -4.498  0.00  0.00     0.003 A 
ATOM      7  I   UNL d   1      -6.000   5.144  -5.241  0.00  0.00    -0.146 I 
ENDROOT
TORSDOF 0
ENDMDL
