MODEL 1
REMARK minimizedAffinity -2.66827703
REMARK minimizedRMSD -1
REMARK  0 active torsions:
REMARK  status: ('A' for Active; 'I' for Inactive)
ROOT
ATOM      1  C   UNL d   1      -4.778   3.894  -6.000  0.00  0.00     0.023 A 
ATOM      2  C1  UNL d   1      -4.231   2.698  -5.534  0.00  0.00     0.003 A 
ATOM      3  C2  UNL d   1      -4.567   2.223  -4.264  0.00  0.00     0.048 A 
ATOM      4  C3  UNL d   1      -5.450   2.949  -3.466  0.00  0.00     0.023 A 
ATOM      5  C4  UNL d   1      -6.000   4.146  -3.928  0.00  0.00     0.048 A 
ATOM      6  C5  UNL d   1      -5.661   4.617  -5.198  0.00  0.00     0.003 A 
ATOM      7  I   UNL d   1      -5.952   2.245  -1.576  0.00  0.00    -0.146 I 
ENDROOT
TORSDOF 0
ENDMDL
