MODEL 1
REMARK minimizedAffinity -3.74888492
REMARK minimizedRMSD -1
REMARK  0 active torsions:
REMARK  status: ('A' for Active; 'I' for Inactive)
ROOT
ATOM      1  C   UNL d   1       0.742   0.066  -1.068  0.00  0.00     0.020 A 
ATOM      2  C1  UNL d   1      -0.516   0.438  -1.541  0.00  0.00     0.020 A 
ATOM      3  C2  UNL d   1      -1.546   0.720  -0.641  0.00  0.00     0.034 A 
ATOM      4  C3  UNL d   1      -1.320   0.631   0.737  0.00  0.00     0.017 A 
ATOM      5  C4  UNL d   1      -0.057   0.257   1.211  0.00  0.00     0.017 A 
ATOM      6  C5  UNL d   1       0.971  -0.024   0.306  0.00  0.00     0.034 A 
ATOM      7 Cl   UNL d   1       0.298   0.125   2.898  0.00  0.00    -0.070 Cl
ATOM      8 Cl1  UNL d   1      -2.639   0.994   1.793  0.00  0.00    -0.070 Cl
ENDROOT
TORSDOF 0
ENDMDL
