MODEL 1
REMARK minimizedAffinity -2.77838564
REMARK minimizedRMSD -1
REMARK  0 active torsions:
REMARK  status: ('A' for Active; 'I' for Inactive)
ROOT
ATOM      1  C   UNL d   1       0.612   1.070  -0.952  0.00  0.00     0.020 A 
ATOM      2  C1  UNL d   1       0.314  -0.175  -1.504  0.00  0.00     0.020 A 
ATOM      3  C2  UNL d   1       0.121  -1.280  -0.671  0.00  0.00     0.034 A 
ATOM      4  C3  UNL d   1       0.226  -1.140   0.718  0.00  0.00     0.017 A 
ATOM      5  C4  UNL d   1       0.526   0.110   1.270  0.00  0.00     0.017 A 
ATOM      6  C5  UNL d   1       0.718   1.212   0.432  0.00  0.00     0.034 A 
ATOM      7 Cl   UNL d   1       0.671   0.360   2.974  0.00  0.00    -0.070 Cl
ATOM      8 Cl1  UNL d   1      -0.025  -2.548   1.688  0.00  0.00    -0.070 Cl
ENDROOT
TORSDOF 0
ENDMDL
