MODEL 1
REMARK minimizedAffinity -3.413692
REMARK minimizedRMSD -1
REMARK  0 active torsions:
REMARK  status: ('A' for Active; 'I' for Inactive)
ROOT
ATOM      1  C   UNL d   1      -0.692  -0.270   2.698  0.00  0.00     0.020 A 
ATOM      2  C1  UNL d   1      -1.583  -0.470   1.645  0.00  0.00     0.020 A 
ATOM      3  C2  UNL d   1      -1.136  -0.378   0.325  0.00  0.00     0.034 A 
ATOM      4  C3  UNL d   1       0.206  -0.084   0.056  0.00  0.00     0.017 A 
ATOM      5  C4  UNL d   1       1.099   0.117   1.114  0.00  0.00     0.017 A 
ATOM      6  C5  UNL d   1       0.646   0.023   2.433  0.00  0.00     0.034 A 
ATOM      7 Cl   UNL d   1       2.769   0.483   0.860  0.00  0.00    -0.070 Cl
ATOM      8 Cl1  UNL d   1       0.690   0.015  -1.600  0.00  0.00    -0.070 Cl
ENDROOT
TORSDOF 0
ENDMDL
