MODEL 1
REMARK minimizedAffinity -5.81625748
REMARK minimizedRMSD -1
REMARK  0 active torsions:
REMARK  status: ('A' for Active; 'I' for Inactive)
ROOT
ATOM      1  C   UNL d   1       0.746   0.640   0.330  0.00  0.00     0.020 A 
ATOM      2  C1  UNL d   1       1.184  -0.040   1.466  0.00  0.00     0.020 A 
ATOM      3  C2  UNL d   1       0.255  -0.546   2.377  0.00  0.00     0.034 A 
ATOM      4  C3  UNL d   1      -1.116  -0.374   2.154  0.00  0.00     0.017 A 
ATOM      5  C4  UNL d   1      -1.554   0.308   1.014  0.00  0.00     0.017 A 
ATOM      6  C5  UNL d   1      -0.620   0.813   0.104  0.00  0.00     0.034 A 
ATOM      7 Cl   UNL d   1      -3.229   0.561   0.670  0.00  0.00    -0.070 Cl
ATOM      8 Cl1  UNL d   1      -2.209  -1.026   3.323  0.00  0.00    -0.070 Cl
ENDROOT
TORSDOF 0
ENDMDL
