MODEL 1
REMARK minimizedAffinity -4.67017794
REMARK minimizedRMSD -1
REMARK  0 active torsions:
REMARK  status: ('A' for Active; 'I' for Inactive)
ROOT
ATOM      1  C   UNL d   1      -1.131  -1.110   3.572  0.00  0.00     0.020 A 
ATOM      2  C1  UNL d   1      -2.098  -0.898   2.590  0.00  0.00     0.020 A 
ATOM      3  C2  UNL d   1      -1.710  -0.613   1.279  0.00  0.00     0.034 A 
ATOM      4  C3  UNL d   1      -0.353  -0.538   0.947  0.00  0.00     0.017 A 
ATOM      5  C4  UNL d   1       0.617  -0.751   1.933  0.00  0.00     0.017 A 
ATOM      6  C5  UNL d   1       0.224  -1.037   3.244  0.00  0.00     0.034 A 
ATOM      7 Cl   UNL d   1       2.311  -0.677   1.599  0.00  0.00    -0.070 Cl
ATOM      8 Cl1  UNL d   1       0.054  -0.182  -0.694  0.00  0.00    -0.070 Cl
ENDROOT
TORSDOF 0
ENDMDL
