MODEL 1
REMARK minimizedAffinity -5.43837452
REMARK minimizedRMSD -1
REMARK  0 active torsions:
REMARK  status: ('A' for Active; 'I' for Inactive)
ROOT
ATOM      1  C   UNL d   1      -1.327  -0.068   3.424  0.00  0.00     0.020 A 
ATOM      2  C1  UNL d   1      -2.353  -0.034   2.481  0.00  0.00     0.020 A 
ATOM      3  C2  UNL d   1      -2.061   0.219   1.139  0.00  0.00     0.034 A 
ATOM      4  C3  UNL d   1      -0.738   0.439   0.737  0.00  0.00     0.017 A 
ATOM      5  C4  UNL d   1       0.291   0.405   1.684  0.00  0.00     0.017 A 
ATOM      6  C5  UNL d   1      -0.008   0.151   3.026  0.00  0.00     0.034 A 
ATOM      7 Cl   UNL d   1       1.947   0.668   1.264  0.00  0.00    -0.070 Cl
ATOM      8 Cl1  UNL d   1      -0.449   0.746  -0.939  0.00  0.00    -0.070 Cl
ENDROOT
TORSDOF 0
ENDMDL
