MODEL 1
REMARK minimizedAffinity 0.745398879
REMARK minimizedRMSD -1
REMARK  0 active torsions:
REMARK  status: ('A' for Active; 'I' for Inactive)
ROOT
ATOM      1  C   UNL d   1       0.651   0.099   2.312  0.00  0.00     0.020 A 
ATOM      2  C1  UNL d   1       0.883  -0.127   0.956  0.00  0.00     0.020 A 
ATOM      3  C2  UNL d   1      -0.153   0.038   0.033  0.00  0.00     0.034 A 
ATOM      4  C3  UNL d   1      -1.425   0.430   0.466  0.00  0.00     0.017 A 
ATOM      5  C4  UNL d   1      -1.656   0.657   1.828  0.00  0.00     0.017 A 
ATOM      6  C5  UNL d   1      -0.616   0.491   2.747  0.00  0.00     0.034 A 
ATOM      7 Cl   UNL d   1      -3.199   1.144   2.437  0.00  0.00    -0.070 Cl
ATOM      8 Cl1  UNL d   1      -2.658   0.615  -0.729  0.00  0.00    -0.070 Cl
ENDROOT
TORSDOF 0
ENDMDL
