MODEL 1
REMARK minimizedAffinity -2.19702554
REMARK minimizedRMSD -1
REMARK  0 active torsions:
REMARK  status: ('A' for Active; 'I' for Inactive)
ROOT
ATOM      1  C   UNL d   1       1.341   0.050   1.235  0.00  0.00     0.020 A 
ATOM      2  C1  UNL d   1       0.692  -0.050   2.465  0.00  0.00     0.020 A 
ATOM      3  C2  UNL d   1      -0.683   0.175   2.550  0.00  0.00     0.034 A 
ATOM      4  C3  UNL d   1      -1.415   0.502   1.402  0.00  0.00     0.017 A 
ATOM      5  C4  UNL d   1      -0.763   0.602   0.168  0.00  0.00     0.017 A 
ATOM      6  C5  UNL d   1       0.614   0.375   0.089  0.00  0.00     0.034 A 
ATOM      7 Cl   UNL d   1      -1.599   1.001  -1.292  0.00  0.00    -0.070 Cl
ATOM      8 Cl1  UNL d   1      -3.113   0.767   1.580  0.00  0.00    -0.070 Cl
ENDROOT
TORSDOF 0
ENDMDL
