MODEL 1
REMARK minimizedAffinity -4.13305902
REMARK minimizedRMSD -1
REMARK  0 active torsions:
REMARK  status: ('A' for Active; 'I' for Inactive)
ROOT
ATOM      1  C   UNL d   1      -2.930   1.019   1.522  0.00  0.00     0.020 A 
ATOM      2  C1  UNL d   1      -2.377   0.739   2.770  0.00  0.00     0.020 A 
ATOM      3  C2  UNL d   1      -1.042   0.341   2.869  0.00  0.00     0.034 A 
ATOM      4  C3  UNL d   1      -0.255   0.223   1.718  0.00  0.00     0.017 A 
ATOM      5  C4  UNL d   1      -0.811   0.505   0.465  0.00  0.00     0.017 A 
ATOM      6  C5  UNL d   1      -2.149   0.903   0.371  0.00  0.00     0.034 A 
ATOM      7 Cl   UNL d   1       0.096   0.381  -1.001  0.00  0.00    -0.070 Cl
ATOM      8 Cl1  UNL d   1       1.388  -0.273   1.914  0.00  0.00    -0.070 Cl
ENDROOT
TORSDOF 0
ENDMDL
