MODEL 1
REMARK minimizedAffinity -1.27365375
REMARK minimizedRMSD -1
REMARK  0 active torsions:
REMARK  status: ('A' for Active; 'I' for Inactive)
ROOT
ATOM      1  C   UNL d   1       1.789  -0.262   1.780  0.00  0.00     0.020 A 
ATOM      2  C1  UNL d   1       1.010  -0.285   2.936  0.00  0.00     0.020 A 
ATOM      3  C2  UNL d   1      -0.335   0.087   2.878  0.00  0.00     0.034 A 
ATOM      4  C3  UNL d   1      -0.904   0.485   1.663  0.00  0.00     0.017 A 
ATOM      5  C4  UNL d   1      -0.121   0.508   0.503  0.00  0.00     0.017 A 
ATOM      6  C5  UNL d   1       1.225   0.134   0.566  0.00  0.00     0.034 A 
ATOM      7 Cl   UNL d   1      -0.753   0.987  -1.032  0.00  0.00    -0.070 Cl
ATOM      8 Cl1  UNL d   1      -2.573   0.932   1.666  0.00  0.00    -0.070 Cl
ENDROOT
TORSDOF 0
ENDMDL
