MODEL 1
REMARK minimizedAffinity -2.62239814
REMARK minimizedRMSD -1
REMARK  0 active torsions:
REMARK  status: ('A' for Active; 'I' for Inactive)
ROOT
ATOM      1  C   UNL d   1       1.533   0.032  -0.783  0.00  0.00     0.020 A 
ATOM      2  C1  UNL d   1       0.368   0.105  -1.547  0.00  0.00     0.020 A 
ATOM      3  C2  UNL d   1      -0.866   0.297  -0.922  0.00  0.00     0.034 A 
ATOM      4  C3  UNL d   1      -0.938   0.417   0.471  0.00  0.00     0.017 A 
ATOM      5  C4  UNL d   1       0.231   0.345   1.236  0.00  0.00     0.017 A 
ATOM      6  C5  UNL d   1       1.464   0.152   0.605  0.00  0.00     0.034 A 
ATOM      7 Cl   UNL d   1       0.222   0.484   2.959  0.00  0.00    -0.070 Cl
ATOM      8 Cl1  UNL d   1      -2.497   0.654   1.177  0.00  0.00    -0.070 Cl
ENDROOT
TORSDOF 0
ENDMDL
