MODEL 1
REMARK minimizedAffinity -3.44532466
REMARK minimizedRMSD -1
REMARK  0 active torsions:
REMARK  status: ('A' for Active; 'I' for Inactive)
ROOT
ATOM      1  C   UNL d   1       0.771   0.122   0.482  0.00  0.00     0.020 A 
ATOM      2  C1  UNL d   1       1.136  -0.005   1.821  0.00  0.00     0.020 A 
ATOM      3  C2  UNL d   1       0.155   0.008   2.816  0.00  0.00     0.034 A 
ATOM      4  C3  UNL d   1      -1.194   0.149   2.473  0.00  0.00     0.017 A 
ATOM      5  C4  UNL d   1      -1.559   0.277   1.128  0.00  0.00     0.017 A 
ATOM      6  C5  UNL d   1      -0.574   0.264   0.136  0.00  0.00     0.034 A 
ATOM      7 Cl   UNL d   1      -3.204   0.456   0.626  0.00  0.00    -0.070 Cl
ATOM      8 Cl1  UNL d   1      -2.353   0.157   3.754  0.00  0.00    -0.070 Cl
ENDROOT
TORSDOF 0
ENDMDL
