MODEL 1
REMARK minimizedAffinity -5.88356209
REMARK minimizedRMSD -1
REMARK  0 active torsions:
REMARK  status: ('A' for Active; 'I' for Inactive)
ROOT
ATOM      1  C   UNL d   1      -2.056  -0.276   2.527  0.00  0.00     0.020 A 
ATOM      2  C1  UNL d   1      -0.953  -0.220   3.378  0.00  0.00     0.020 A 
ATOM      3  C2  UNL d   1       0.331  -0.081   2.849  0.00  0.00     0.034 A 
ATOM      4  C3  UNL d   1       0.517   0.002   1.464  0.00  0.00     0.017 A 
ATOM      5  C4  UNL d   1      -0.591  -0.055   0.610  0.00  0.00     0.017 A 
ATOM      6  C5  UNL d   1      -1.875  -0.194   1.146  0.00  0.00     0.034 A 
ATOM      7 Cl   UNL d   1      -0.442   0.041  -1.109  0.00  0.00    -0.070 Cl
ATOM      8 Cl1  UNL d   1       2.133   0.173   0.878  0.00  0.00    -0.070 Cl
ENDROOT
TORSDOF 0
ENDMDL
