MODEL 1
REMARK minimizedAffinity -5.83231497
REMARK minimizedRMSD -1
REMARK  0 active torsions:
REMARK  status: ('A' for Active; 'I' for Inactive)
ROOT
ATOM      1  C   UNL d   1      -2.908  -0.237   3.373  0.00  0.00     0.020 A 
ATOM      2  C1  UNL d   1      -1.634  -0.725   3.662  0.00  0.00     0.020 A 
ATOM      3  C2  UNL d   1      -0.652  -0.744   2.669  0.00  0.00     0.034 A 
ATOM      4  C3  UNL d   1      -0.942  -0.274   1.383  0.00  0.00     0.017 A 
ATOM      5  C4  UNL d   1      -2.220   0.216   1.094  0.00  0.00     0.017 A 
ATOM      6  C5  UNL d   1      -3.200   0.233   2.092  0.00  0.00     0.034 A 
ATOM      7 Cl   UNL d   1      -2.653   0.813  -0.469  0.00  0.00    -0.070 Cl
ATOM      8 Cl1  UNL d   1       0.321  -0.326   0.205  0.00  0.00    -0.070 Cl
ENDROOT
TORSDOF 0
ENDMDL
