MODEL 1
REMARK minimizedAffinity -4.6278019
REMARK minimizedRMSD -1
REMARK  0 active torsions:
REMARK  status: ('A' for Active; 'I' for Inactive)
ROOT
ATOM      1  C   UNL d   1      -2.890  -0.090   2.527  0.00  0.00     0.020 A 
ATOM      2  C1  UNL d   1      -1.797  -0.399   3.336  0.00  0.00     0.020 A 
ATOM      3  C2  UNL d   1      -0.500  -0.290   2.830  0.00  0.00     0.034 A 
ATOM      4  C3  UNL d   1      -0.292   0.130   1.511  0.00  0.00     0.017 A 
ATOM      5  C4  UNL d   1      -1.390   0.440   0.700  0.00  0.00     0.017 A 
ATOM      6  C5  UNL d   1      -2.686   0.329   1.212  0.00  0.00     0.034 A 
ATOM      7 Cl   UNL d   1      -1.212   0.965  -0.937  0.00  0.00    -0.070 Cl
ATOM      8 Cl1  UNL d   1       1.338   0.242   0.952  0.00  0.00    -0.070 Cl
ENDROOT
TORSDOF 0
ENDMDL
