MODEL 1
REMARK minimizedAffinity 7.43281555
REMARK minimizedRMSD -1
REMARK  1 active torsions:
REMARK  status: ('A' for Active; 'I' for Inactive)
REMARK    1  A    between atoms: N_2  and  C1_3 
ROOT
ATOM      1  C1  UNL d   1      -4.929   3.347   3.427  0.00  0.00     0.143 A 
ATOM      2  C2  UNL d   1      -4.535   3.900   4.650  0.00  0.00    -0.057 A 
ATOM      3  C3  UNL d   1      -4.887   5.209   5.002  0.00  0.00     0.033 A 
ATOM      4  C4  UNL d   1      -5.618   6.000   4.122  0.00  0.00    -0.042 A 
ATOM      5  C5  UNL d   1      -6.000   5.479   2.891  0.00  0.00     0.033 A 
ATOM      6  C6  UNL d   1      -5.651   4.169   2.547  0.00  0.00    -0.057 A 
ENDROOT
BRANCH   1   7
ATOM      7  N   UNL d   1      -4.527   2.087   2.978  0.00  0.00    -0.732 N 
ATOM      8  C   UNL d   1      -4.870   0.894   3.723  0.00  0.00     0.284 C 
ATOM      9  H3  UNL d   1      -4.618   1.987   1.969  0.00  0.00     0.395 HD
ENDBRANCH   1   7
TORSDOF 1
ENDMDL
