MODEL 1
REMARK minimizedAffinity 10.470994
REMARK minimizedRMSD -1
REMARK  1 active torsions:
REMARK  status: ('A' for Active; 'I' for Inactive)
REMARK    1  A    between atoms: N_2  and  C1_3 
ROOT
ATOM      1  C1  UNL d   1      -3.580  -3.426  -2.713  0.00  0.00     0.143 A 
ATOM      2  C2  UNL d   1      -3.537  -4.759  -2.292  0.00  0.00    -0.057 A 
ATOM      3  C3  UNL d   1      -4.591  -5.640  -2.562  0.00  0.00     0.033 A 
ATOM      4  C4  UNL d   1      -5.723  -5.194  -3.235  0.00  0.00    -0.042 A 
ATOM      5  C5  UNL d   1      -5.799  -3.866  -3.641  0.00  0.00     0.033 A 
ATOM      6  C6  UNL d   1      -4.740  -2.993  -3.374  0.00  0.00    -0.057 A 
ENDROOT
BRANCH   1   7
ATOM      7  N   UNL d   1      -2.608  -2.476  -2.389  0.00  0.00    -0.732 N 
ATOM      8  C   UNL d   1      -2.496  -1.966  -1.040  0.00  0.00     0.284 C 
ATOM      9  H3  UNL d   1      -1.714  -2.667  -2.836  0.00  0.00     0.395 HD
ENDBRANCH   1   7
TORSDOF 1
ENDMDL
