MODEL 1
REMARK minimizedAffinity 7.72853613
REMARK minimizedRMSD -1
REMARK  1 active torsions:
REMARK  status: ('A' for Active; 'I' for Inactive)
REMARK    1  A    between atoms: N_2  and  C1_3 
ROOT
ATOM      1  C1  UNL d   1      -4.906  -3.548  -3.019  0.00  0.00     0.143 A 
ATOM      2  C2  UNL d   1      -4.968  -4.886  -2.617  0.00  0.00    -0.057 A 
ATOM      3  C3  UNL d   1      -3.822  -5.574  -2.201  0.00  0.00     0.033 A 
ATOM      4  C4  UNL d   1      -2.583  -4.941  -2.208  0.00  0.00    -0.042 A 
ATOM      5  C5  UNL d   1      -2.493  -3.618  -2.628  0.00  0.00     0.033 A 
ATOM      6  C6  UNL d   1      -3.643  -2.935  -3.035  0.00  0.00    -0.057 A 
ENDROOT
BRANCH   1   7
ATOM      7  N   UNL d   1      -5.994  -2.840  -3.536  0.00  0.00    -0.732 N 
ATOM      8  C   UNL d   1      -5.999  -2.400  -4.915  0.00  0.00     0.284 C 
ATOM      9  H3  UNL d   1      -6.886  -3.208  -3.214  0.00  0.00     0.395 HD
ENDBRANCH   1   7
TORSDOF 1
ENDMDL
