MODEL 1
REMARK minimizedAffinity 10.0363121
REMARK minimizedRMSD -1
REMARK  1 active torsions:
REMARK  status: ('A' for Active; 'I' for Inactive)
REMARK    1  A    between atoms: N_2  and  C1_3 
ROOT
ATOM      1  C1  UNL d   1      -3.399  -3.490  -3.202  0.00  0.00     0.143 A 
ATOM      2  C2  UNL d   1      -2.967  -4.780  -2.877  0.00  0.00    -0.057 A 
ATOM      3  C3  UNL d   1      -1.676  -5.217  -3.199  0.00  0.00     0.033 A 
ATOM      4  C4  UNL d   1      -0.801  -4.377  -3.881  0.00  0.00    -0.042 A 
ATOM      5  C5  UNL d   1      -1.218  -3.099  -4.237  0.00  0.00     0.033 A 
ATOM      6  C6  UNL d   1      -2.506  -2.667  -3.906  0.00  0.00    -0.057 A 
ENDROOT
BRANCH   1   7
ATOM      7  N   UNL d   1      -4.702  -3.031  -2.997  0.00  0.00    -0.732 N 
ATOM      8  C   UNL d   1      -5.749  -3.336  -3.948  0.00  0.00     0.284 C 
ATOM      9  H3  UNL d   1      -4.990  -3.103  -2.024  0.00  0.00     0.395 HD
ENDBRANCH   1   7
TORSDOF 1
ENDMDL
