MODEL 1
REMARK minimizedAffinity 11.5855875
REMARK minimizedRMSD -1
REMARK  1 active torsions:
REMARK  status: ('A' for Active; 'I' for Inactive)
REMARK    1  A    between atoms: N_2  and  C1_3 
ROOT
ATOM      1  C1  UNL d   1      -3.656  -3.459  -2.809  0.00  0.00     0.143 A 
ATOM      2  C2  UNL d   1      -3.386  -4.787  -2.463  0.00  0.00    -0.057 A 
ATOM      3  C3  UNL d   1      -2.131  -5.359  -2.701  0.00  0.00     0.033 A 
ATOM      4  C4  UNL d   1      -1.128  -4.618  -3.319  0.00  0.00    -0.042 A 
ATOM      5  C5  UNL d   1      -1.382  -3.303  -3.693  0.00  0.00     0.033 A 
ATOM      6  C6  UNL d   1      -2.636  -2.736  -3.446  0.00  0.00    -0.057 A 
ENDROOT
BRANCH   1   7
ATOM      7  N   UNL d   1      -4.915  -2.864  -2.687  0.00  0.00    -0.732 N 
ATOM      8  C   UNL d   1      -5.941  -3.101  -3.680  0.00  0.00     0.284 C 
ATOM      9  H3  UNL d   1      -5.255  -2.867  -1.728  0.00  0.00     0.395 HD
ENDBRANCH   1   7
TORSDOF 1
ENDMDL
