MODEL 1
REMARK minimizedAffinity 8.51170921
REMARK minimizedRMSD -1
REMARK  1 active torsions:
REMARK  status: ('A' for Active; 'I' for Inactive)
REMARK    1  A    between atoms: N_2  and  C1_3 
ROOT
ATOM      1  C1  UNL d   1      -4.872   1.356   3.695  0.00  0.00     0.143 A 
ATOM      2  C2  UNL d   1      -5.525   0.669   4.724  0.00  0.00    -0.057 A 
ATOM      3  C3  UNL d   1      -5.999   1.339   5.858  0.00  0.00     0.033 A 
ATOM      4  C4  UNL d   1      -5.801   2.709   5.997  0.00  0.00    -0.042 A 
ATOM      5  C5  UNL d   1      -5.132   3.408   4.998  0.00  0.00     0.033 A 
ATOM      6  C6  UNL d   1      -4.667   2.734   3.865  0.00  0.00    -0.057 A 
ENDROOT
BRANCH   1   7
ATOM      7  N   UNL d   1      -4.291   0.730   2.589  0.00  0.00    -0.732 N 
ATOM      8  C   UNL d   1      -4.919  -0.422   1.980  0.00  0.00     0.284 C 
ATOM      9  H3  UNL d   1      -3.910   1.397   1.922  0.00  0.00     0.395 HD
ENDBRANCH   1   7
TORSDOF 1
ENDMDL
