MODEL 1
REMARK minimizedAffinity 5.74072361
REMARK minimizedRMSD -1
REMARK  1 active torsions:
REMARK  status: ('A' for Active; 'I' for Inactive)
REMARK    1  A    between atoms: N_2  and  C1_3 
ROOT
ATOM      1  C1  UNL d   1       2.743   1.074   1.017  0.00  0.00     0.143 A 
ATOM      2  C2  UNL d   1       3.575  -0.020   1.282  0.00  0.00    -0.057 A 
ATOM      3  C3  UNL d   1       4.810  -0.165   0.640  0.00  0.00     0.033 A 
ATOM      4  C4  UNL d   1       5.225   0.770  -0.303  0.00  0.00    -0.042 A 
ATOM      5  C5  UNL d   1       4.404   1.852  -0.600  0.00  0.00     0.033 A 
ATOM      6  C6  UNL d   1       3.174   1.995   0.050  0.00  0.00    -0.057 A 
ENDROOT
BRANCH   1   7
ATOM      7  N   UNL d   1       1.460   1.222   1.549  0.00  0.00    -0.732 N 
ATOM      8  C   UNL d   1       0.766   0.091   2.127  0.00  0.00     0.284 C 
ATOM      9  H3  UNL d   1       1.356   2.087   2.075  0.00  0.00     0.395 HD
ENDBRANCH   1   7
TORSDOF 1
ENDMDL
