MODEL 1
REMARK minimizedAffinity 11.5371962
REMARK minimizedRMSD -1
REMARK  1 active torsions:
REMARK  status: ('A' for Active; 'I' for Inactive)
REMARK    1  A    between atoms: N_2  and  C1_3 
ROOT
ATOM      1  C1  UNL d   1      -3.909  -3.698  -2.511  0.00  0.00     0.143 A 
ATOM      2  C2  UNL d   1      -5.169  -3.744  -3.117  0.00  0.00    -0.057 A 
ATOM      3  C3  UNL d   1      -5.996  -4.866  -2.987  0.00  0.00     0.033 A 
ATOM      4  C4  UNL d   1      -5.565  -5.977  -2.271  0.00  0.00    -0.042 A 
ATOM      5  C5  UNL d   1      -4.306  -5.964  -1.681  0.00  0.00     0.033 A 
ATOM      6  C6  UNL d   1      -3.486  -4.838  -1.808  0.00  0.00    -0.057 A 
ENDROOT
BRANCH   1   7
ATOM      7  N   UNL d   1      -2.999  -2.652  -2.685  0.00  0.00    -0.732 N 
ATOM      8  C   UNL d   1      -2.269  -2.115  -1.556  0.00  0.00     0.284 C 
ATOM      9  H3  UNL d   1      -2.441  -2.759  -3.528  0.00  0.00     0.395 HD
ENDBRANCH   1   7
TORSDOF 1
ENDMDL
