MODEL 1
REMARK minimizedAffinity 10.575388
REMARK minimizedRMSD -1
REMARK  1 active torsions:
REMARK  status: ('A' for Active; 'I' for Inactive)
REMARK    1  A    between atoms: N_2  and  C1_3 
ROOT
ATOM      1  C1  UNL d   1      -5.158   2.086   3.628  0.00  0.00     0.143 A 
ATOM      2  C2  UNL d   1      -5.393   0.707   3.654  0.00  0.00    -0.057 A 
ATOM      3  C3  UNL d   1      -5.824   0.066   4.821  0.00  0.00     0.033 A 
ATOM      4  C4  UNL d   1      -6.000   0.790   5.996  0.00  0.00    -0.042 A 
ATOM      5  C5  UNL d   1      -5.747   2.157   6.000  0.00  0.00     0.033 A 
ATOM      6  C6  UNL d   1      -5.324   2.793   4.829  0.00  0.00    -0.057 A 
ENDROOT
BRANCH   1   7
ATOM      7  N   UNL d   1      -4.634   2.765   2.525  0.00  0.00    -0.732 N 
ATOM      8  C   UNL d   1      -5.426   3.752   1.823  0.00  0.00     0.284 C 
ATOM      9  H3  UNL d   1      -3.661   3.031   2.659  0.00  0.00     0.395 HD
ENDBRANCH   1   7
TORSDOF 1
ENDMDL
