MODEL 1
REMARK minimizedAffinity 13.3681107
REMARK minimizedRMSD -1
REMARK  1 active torsions:
REMARK  status: ('A' for Active; 'I' for Inactive)
REMARK    1  A    between atoms: N_2  and  C1_3 
ROOT
ATOM      1  C1  UNL d   1      -1.095  -1.534   1.519  0.00  0.00     0.143 A 
ATOM      2  C2  UNL d   1      -0.966  -1.625   2.909  0.00  0.00    -0.057 A 
ATOM      3  C3  UNL d   1      -0.095  -0.786   3.614  0.00  0.00     0.033 A 
ATOM      4  C4  UNL d   1       0.686   0.144   2.936  0.00  0.00    -0.042 A 
ATOM      5  C5  UNL d   1       0.592   0.236   1.552  0.00  0.00     0.033 A 
ATOM      6  C6  UNL d   1      -0.284  -0.601   0.854  0.00  0.00    -0.057 A 
ENDROOT
BRANCH   1   7
ATOM      7  N   UNL d   1      -1.870  -2.406   0.751  0.00  0.00    -0.732 N 
ATOM      8  C   UNL d   1      -2.220  -2.074  -0.614  0.00  0.00     0.284 C 
ATOM      9  H3  UNL d   1      -1.609  -3.380   0.887  0.00  0.00     0.395 HD
ENDBRANCH   1   7
TORSDOF 1
ENDMDL
