MODEL 1
REMARK minimizedAffinity 9.41322803
REMARK minimizedRMSD -1
REMARK  1 active torsions:
REMARK  status: ('A' for Active; 'I' for Inactive)
REMARK    1  A    between atoms: N_2  and  C1_3 
ROOT
ATOM      1  C1  UNL d   1       2.977   1.702  -0.374  0.00  0.00     0.143 A 
ATOM      2  C2  UNL d   1       1.754   1.900   0.276  0.00  0.00    -0.057 A 
ATOM      3  C3  UNL d   1       1.239   0.946   1.161  0.00  0.00     0.033 A 
ATOM      4  C4  UNL d   1       1.927  -0.241   1.391  0.00  0.00    -0.042 A 
ATOM      5  C5  UNL d   1       3.132  -0.471   0.737  0.00  0.00     0.033 A 
ATOM      6  C6  UNL d   1       3.645   0.489  -0.141  0.00  0.00    -0.057 A 
ENDROOT
BRANCH   1   7
ATOM      7  N   UNL d   1       3.494   2.568  -1.340  0.00  0.00    -0.732 N 
ATOM      8  C   UNL d   1       2.942   2.595  -2.678  0.00  0.00     0.284 C 
ATOM      9  H3  UNL d   1       3.712   3.487  -0.962  0.00  0.00     0.395 HD
ENDBRANCH   1   7
TORSDOF 1
ENDMDL
