MODEL 1
REMARK minimizedAffinity 19.4629345
REMARK minimizedRMSD -1
REMARK  1 active torsions:
REMARK  status: ('A' for Active; 'I' for Inactive)
REMARK    1  A    between atoms: N_2  and  C1_3 
ROOT
ATOM      1  C1  UNL d   1      -5.373  -3.689  -3.102  0.00  0.00     0.143 A 
ATOM      2  C2  UNL d   1      -5.982  -4.936  -2.920  0.00  0.00    -0.057 A 
ATOM      3  C3  UNL d   1      -5.296  -5.999  -2.321  0.00  0.00     0.033 A 
ATOM      4  C4  UNL d   1      -3.974  -5.842  -1.918  0.00  0.00    -0.042 A 
ATOM      5  C5  UNL d   1      -3.340  -4.619  -2.111  0.00  0.00     0.033 A 
ATOM      6  C6  UNL d   1      -4.033  -3.560  -2.704  0.00  0.00    -0.057 A 
ENDROOT
BRANCH   1   7
ATOM      7  N   UNL d   1      -5.970  -2.623  -3.780  0.00  0.00    -0.732 N 
ATOM      8  C   UNL d   1      -5.955  -2.569  -5.226  0.00  0.00     0.284 C 
ATOM      9  H3  UNL d   1      -6.855  -2.344  -3.362  0.00  0.00     0.395 HD
ENDBRANCH   1   7
TORSDOF 1
ENDMDL
