MODEL 1
REMARK minimizedAffinity 10.6469584
REMARK minimizedRMSD -1
REMARK  1 active torsions:
REMARK  status: ('A' for Active; 'I' for Inactive)
REMARK    1  A    between atoms: N_2  and  C1_3 
ROOT
ATOM      1  C1  UNL d   1       3.554  -0.356   1.535  0.00  0.00     0.143 A 
ATOM      2  C2  UNL d   1       2.449   0.403   1.133  0.00  0.00    -0.057 A 
ATOM      3  C3  UNL d   1       1.437   0.746   2.037  0.00  0.00     0.033 A 
ATOM      4  C4  UNL d   1       1.496   0.310   3.356  0.00  0.00    -0.042 A 
ATOM      5  C5  UNL d   1       2.572  -0.467   3.772  0.00  0.00     0.033 A 
ATOM      6  C6  UNL d   1       3.584  -0.801   2.866  0.00  0.00    -0.057 A 
ENDROOT
BRANCH   1   7
ATOM      7  N   UNL d   1       4.543  -0.812   0.661  0.00  0.00    -0.732 N 
ATOM      8  C   UNL d   1       4.550  -0.398  -0.726  0.00  0.00     0.284 C 
ATOM      9  H3  UNL d   1       5.464  -0.833   1.093  0.00  0.00     0.395 HD
ENDBRANCH   1   7
TORSDOF 1
ENDMDL
