MODEL 1
REMARK minimizedAffinity 13.8740683
REMARK minimizedRMSD -1
REMARK  1 active torsions:
REMARK  status: ('A' for Active; 'I' for Inactive)
REMARK    1  A    between atoms: N_2  and  C1_3 
ROOT
ATOM      1  C1  UNL d   1       3.178   1.888  -0.954  0.00  0.00     0.143 A 
ATOM      2  C2  UNL d   1       3.754   0.621  -0.817  0.00  0.00    -0.057 A 
ATOM      3  C3  UNL d   1       3.365  -0.247   0.211  0.00  0.00     0.033 A 
ATOM      4  C4  UNL d   1       2.410   0.151   1.140  0.00  0.00    -0.042 A 
ATOM      5  C5  UNL d   1       1.842   1.416   1.038  0.00  0.00     0.033 A 
ATOM      6  C6  UNL d   1       2.230   2.275   0.005  0.00  0.00    -0.057 A 
ENDROOT
BRANCH   1   7
ATOM      7  N   UNL d   1       3.593   2.833  -1.896  0.00  0.00    -0.732 N 
ATOM      8  C   UNL d   1       2.677   3.320  -2.905  0.00  0.00     0.284 C 
ATOM      9  H3  UNL d   1       4.183   3.555  -1.487  0.00  0.00     0.395 HD
ENDBRANCH   1   7
TORSDOF 1
ENDMDL
