MODEL 1
REMARK minimizedAffinity 12.5847206
REMARK minimizedRMSD -1
REMARK  1 active torsions:
REMARK  status: ('A' for Active; 'I' for Inactive)
REMARK    1  A    between atoms: N_2  and  C1_3 
ROOT
ATOM      1  C1  UNL d   1      -4.928   3.818   4.445  0.00  0.00     0.143 A 
ATOM      2  C2  UNL d   1      -4.577   3.395   3.158  0.00  0.00    -0.057 A 
ATOM      3  C3  UNL d   1      -4.238   2.061   2.899  0.00  0.00     0.033 A 
ATOM      4  C4  UNL d   1      -4.215   1.130   3.932  0.00  0.00    -0.042 A 
ATOM      5  C5  UNL d   1      -4.536   1.533   5.224  0.00  0.00     0.033 A 
ATOM      6  C6  UNL d   1      -4.880   2.865   5.474  0.00  0.00    -0.057 A 
ENDROOT
BRANCH   1   7
ATOM      7  N   UNL d   1      -5.179   5.149   4.784  0.00  0.00    -0.732 N 
ATOM      8  C   UNL d   1      -5.996   5.986   3.931  0.00  0.00     0.284 C 
ATOM      9  H3  UNL d   1      -5.358   5.270   5.779  0.00  0.00     0.395 HD
ENDBRANCH   1   7
TORSDOF 1
ENDMDL
