MODEL 1
REMARK minimizedAffinity 12.4471512
REMARK minimizedRMSD -1
REMARK  1 active torsions:
REMARK  status: ('A' for Active; 'I' for Inactive)
REMARK    1  A    between atoms: N_2  and  C1_3 
ROOT
ATOM      1  C1  UNL d   1      -2.405  -3.547  -2.386  0.00  0.00     0.143 A 
ATOM      2  C2  UNL d   1      -1.304  -3.543  -3.249  0.00  0.00    -0.057 A 
ATOM      3  C3  UNL d   1      -0.740  -4.737  -3.713  0.00  0.00     0.033 A 
ATOM      4  C4  UNL d   1      -1.250  -5.962  -3.296  0.00  0.00    -0.042 A 
ATOM      5  C5  UNL d   1      -2.328  -5.991  -2.418  0.00  0.00     0.033 A 
ATOM      6  C6  UNL d   1      -2.892  -4.795  -1.964  0.00  0.00    -0.057 A 
ENDROOT
BRANCH   1   7
ATOM      7  N   UNL d   1      -2.949  -2.395  -1.813  0.00  0.00    -0.732 N 
ATOM      8  C   UNL d   1      -2.625  -2.026  -0.452  0.00  0.00     0.284 C 
ATOM      9  H3  UNL d   1      -2.972  -1.612  -2.462  0.00  0.00     0.395 HD
ENDBRANCH   1   7
TORSDOF 1
ENDMDL
