MODEL 1
REMARK minimizedAffinity 19.6021252
REMARK minimizedRMSD -1
REMARK  1 active torsions:
REMARK  status: ('A' for Active; 'I' for Inactive)
REMARK    1  A    between atoms: N_2  and  C1_3 
ROOT
ATOM      1  C1  UNL d   1      -5.231  -3.733  -2.992  0.00  0.00     0.143 A 
ATOM      2  C2  UNL d   1      -6.000  -4.879  -2.760  0.00  0.00    -0.057 A 
ATOM      3  C3  UNL d   1      -5.460  -5.997  -2.113  0.00  0.00     0.033 A 
ATOM      4  C4  UNL d   1      -4.129  -6.000  -1.711  0.00  0.00    -0.042 A 
ATOM      5  C5  UNL d   1      -3.339  -4.881  -1.953  0.00  0.00     0.033 A 
ATOM      6  C6  UNL d   1      -3.886  -3.765  -2.594  0.00  0.00    -0.057 A 
ENDROOT
BRANCH   1   7
ATOM      7  N   UNL d   1      -5.682  -2.627  -3.717  0.00  0.00    -0.732 N 
ATOM      8  C   UNL d   1      -5.620  -2.619  -5.163  0.00  0.00     0.284 C 
ATOM      9  H3  UNL d   1      -6.540  -2.236  -3.335  0.00  0.00     0.395 HD
ENDBRANCH   1   7
TORSDOF 1
ENDMDL
