MODEL 1
REMARK minimizedAffinity 15.4818277
REMARK minimizedRMSD -1
REMARK  1 active torsions:
REMARK  status: ('A' for Active; 'I' for Inactive)
REMARK    1  A    between atoms: N_2  and  C1_3 
ROOT
ATOM      1  C1  UNL d   1       3.757   0.487   0.752  0.00  0.00     0.143 A 
ATOM      2  C2  UNL d   1       3.806   1.502  -0.209  0.00  0.00    -0.057 A 
ATOM      3  C3  UNL d   1       4.910   1.644  -1.060  0.00  0.00     0.033 A 
ATOM      4  C4  UNL d   1       6.000   0.788  -0.943  0.00  0.00    -0.042 A 
ATOM      5  C5  UNL d   1       5.984  -0.212   0.022  0.00  0.00     0.033 A 
ATOM      6  C6  UNL d   1       4.876  -0.354   0.863  0.00  0.00    -0.057 A 
ENDROOT
BRANCH   1   7
ATOM      7  N   UNL d   1       2.732   0.355   1.692  0.00  0.00    -0.732 N 
ATOM      8  C   UNL d   1       1.874   1.476   2.010  0.00  0.00     0.284 C 
ATOM      9  H3  UNL d   1       2.243  -0.534   1.610  0.00  0.00     0.395 HD
ENDBRANCH   1   7
TORSDOF 1
ENDMDL
