MODEL 1
REMARK minimizedAffinity 1.51582503
REMARK minimizedRMSD -1
REMARK  1 active torsions:
REMARK  status: ('A' for Active; 'I' for Inactive)
REMARK    1  A    between atoms: C1_2  and  C2_3 
ROOT
ATOM      1  C2  UNL d   1      -0.123  -2.218  -5.092  0.00  0.00    -0.073 A 
ATOM      2  C3  UNL d   1       0.378  -3.160  -5.998  0.00  0.00    -0.002 A 
ATOM      3  C4  UNL d   1       0.362  -4.519  -5.684  0.00  0.00     0.004 A 
ATOM      4  C5  UNL d   1      -0.160  -4.951  -4.465  0.00  0.00    -0.004 A 
ATOM      5  C6  UNL d   1      -0.676  -4.027  -3.551  0.00  0.00    -0.075 A 
ATOM      6  C7  UNL d   1      -1.239  -4.476  -2.234  0.00  0.00     0.076 C 
ATOM      7  C8  UNL d   1      -0.654  -2.663  -3.873  0.00  0.00     0.001 A 
ENDROOT
BRANCH   1   8
ATOM      8  C1  UNL d   1      -0.113  -0.750  -5.430  0.00  0.00     0.053 C 
ATOM      9  C   UNL d   1       1.225  -0.304  -5.998  0.00  0.00     0.018 C 
ENDBRANCH   1   8
TORSDOF 1
ENDMDL
