MODEL 1
REMARK minimizedAffinity -0.013176715
REMARK minimizedRMSD -1
REMARK  1 active torsions:
REMARK  status: ('A' for Active; 'I' for Inactive)
REMARK    1  A    between atoms: C1_2  and  C2_3 
ROOT
ATOM      1  C2  UNL d   1      -2.076  -0.147   1.877  0.00  0.00    -0.073 A 
ATOM      2  C3  UNL d   1      -2.618  -1.341   2.366  0.00  0.00    -0.002 A 
ATOM      3  C4  UNL d   1      -2.784  -1.529   3.739  0.00  0.00     0.004 A 
ATOM      4  C5  UNL d   1      -2.416  -0.526   4.635  0.00  0.00    -0.004 A 
ATOM      5  C6  UNL d   1      -1.883   0.679   4.165  0.00  0.00    -0.075 A 
ATOM      6  C7  UNL d   1      -1.481   1.768   5.115  0.00  0.00     0.076 C 
ATOM      7  C8  UNL d   1      -1.718   0.860   2.785  0.00  0.00     0.001 A 
ENDROOT
BRANCH   1   8
ATOM      8  C1  UNL d   1      -1.901   0.064   0.395  0.00  0.00     0.053 C 
ATOM      9  C   UNL d   1      -3.046   0.865  -0.206  0.00  0.00     0.018 C 
ENDBRANCH   1   8
TORSDOF 1
ENDMDL
