MODEL 1
REMARK minimizedAffinity 1.32352078
REMARK minimizedRMSD -1
REMARK  1 active torsions:
REMARK  status: ('A' for Active; 'I' for Inactive)
REMARK    1  A    between atoms: C1_2  and  C2_3 
ROOT
ATOM      1  C2  UNL d   1      -2.185   0.669   1.692  0.00  0.00    -0.073 A 
ATOM      2  C3  UNL d   1      -1.705   1.341   2.822  0.00  0.00    -0.002 A 
ATOM      3  C4  UNL d   1      -0.352   1.280   3.156  0.00  0.00     0.004 A 
ATOM      4  C5  UNL d   1       0.535   0.554   2.362  0.00  0.00    -0.004 A 
ATOM      5  C6  UNL d   1       0.077  -0.114   1.222  0.00  0.00    -0.075 A 
ATOM      6  C7  UNL d   1       1.018  -0.901   0.358  0.00  0.00     0.076 C 
ATOM      7  C8  UNL d   1      -1.284  -0.050   0.894  0.00  0.00     0.001 A 
ENDROOT
BRANCH   1   8
ATOM      8  C1  UNL d   1      -3.645   0.737   1.324  0.00  0.00     0.053 C 
ATOM      9  C   UNL d   1      -3.849   1.166  -0.121  0.00  0.00     0.018 C 
ENDBRANCH   1   8
TORSDOF 1
ENDMDL
