MODEL 1
REMARK minimizedAffinity 9.22755337
REMARK minimizedRMSD -1
REMARK  1 active torsions:
REMARK  status: ('A' for Active; 'I' for Inactive)
REMARK    1  A    between atoms: C1_2  and  C2_3 
ROOT
ATOM      1  C2  UNL d   1      -2.465  -0.701   1.073  0.00  0.00    -0.073 A 
ATOM      2  C3  UNL d   1      -1.619   0.063   1.884  0.00  0.00    -0.002 A 
ATOM      3  C4  UNL d   1      -1.767   1.449   1.949  0.00  0.00     0.004 A 
ATOM      4  C5  UNL d   1      -2.766   2.084   1.211  0.00  0.00    -0.004 A 
ATOM      5  C6  UNL d   1      -3.629   1.336   0.403  0.00  0.00    -0.075 A 
ATOM      6  C7  UNL d   1      -4.707   2.004  -0.399  0.00  0.00     0.076 C 
ATOM      7  C8  UNL d   1      -3.472  -0.055   0.341  0.00  0.00     0.001 A 
ENDROOT
BRANCH   1   8
ATOM      8  C1  UNL d   1      -2.313  -2.199   1.004  0.00  0.00     0.053 C 
ATOM      9  C   UNL d   1      -2.264  -2.701  -0.430  0.00  0.00     0.018 C 
ENDBRANCH   1   8
TORSDOF 1
ENDMDL
