MODEL 1
REMARK minimizedAffinity 3.0313282
REMARK minimizedRMSD -1
REMARK  1 active torsions:
REMARK  status: ('A' for Active; 'I' for Inactive)
REMARK    1  A    between atoms: C1_2  and  C2_3 
ROOT
ATOM      1  C2  UNL d   1      -2.030   0.591   1.395  0.00  0.00    -0.073 A 
ATOM      2  C3  UNL d   1      -1.554  -0.723   1.461  0.00  0.00    -0.002 A 
ATOM      3  C4  UNL d   1      -2.027  -1.689   0.571  0.00  0.00     0.004 A 
ATOM      4  C5  UNL d   1      -2.973  -1.350  -0.396  0.00  0.00    -0.004 A 
ATOM      5  C6  UNL d   1      -3.451  -0.039  -0.485  0.00  0.00    -0.075 A 
ATOM      6  C7  UNL d   1      -4.470   0.341  -1.519  0.00  0.00     0.076 C 
ATOM      7  C8  UNL d   1      -2.974   0.925   0.413  0.00  0.00     0.001 A 
ENDROOT
BRANCH   1   8
ATOM      8  C1  UNL d   1      -1.518   1.639   2.349  0.00  0.00     0.053 C 
ATOM      9  C   UNL d   1      -0.291   1.165   3.112  0.00  0.00     0.018 C 
ENDBRANCH   1   8
TORSDOF 1
ENDMDL
