MODEL 1
REMARK minimizedAffinity 2.28682256
REMARK minimizedRMSD -1
REMARK  1 active torsions:
REMARK  status: ('A' for Active; 'I' for Inactive)
REMARK    1  A    between atoms: C1_2  and  C2_3 
ROOT
ATOM      1  C2  UNL d   1      -0.542  -1.779  -5.258  0.00  0.00    -0.073 A 
ATOM      2  C3  UNL d   1      -1.720  -2.169  -4.610  0.00  0.00    -0.002 A 
ATOM      3  C4  UNL d   1      -2.003  -3.522  -4.417  0.00  0.00     0.004 A 
ATOM      4  C5  UNL d   1      -1.110  -4.496  -4.863  0.00  0.00    -0.004 A 
ATOM      5  C6  UNL d   1       0.077  -4.126  -5.502  0.00  0.00    -0.075 A 
ATOM      6  C7  UNL d   1       1.047  -5.162  -5.990  0.00  0.00     0.076 C 
ATOM      7  C8  UNL d   1       0.353  -2.766  -5.695  0.00  0.00     0.001 A 
ENDROOT
BRANCH   1   8
ATOM      8  C1  UNL d   1      -0.229  -0.319  -5.463  0.00  0.00     0.053 C 
ATOM      9  C   UNL d   1       1.127   0.059  -4.888  0.00  0.00     0.018 C 
ENDBRANCH   1   8
TORSDOF 1
ENDMDL
