MODEL 1
REMARK minimizedAffinity -2.91854191
REMARK minimizedRMSD -1
REMARK  1 active torsions:
REMARK  status: ('A' for Active; 'I' for Inactive)
REMARK    1  A    between atoms: C1_2  and  C2_3 
ROOT
ATOM      1  C2  UNL d   1      -1.522   0.284   1.702  0.00  0.00    -0.073 A 
ATOM      2  C3  UNL d   1      -1.099  -0.697   0.797  0.00  0.00    -0.002 A 
ATOM      3  C4  UNL d   1      -1.808  -0.919  -0.384  0.00  0.00     0.004 A 
ATOM      4  C5  UNL d   1      -2.941  -0.160  -0.676  0.00  0.00    -0.004 A 
ATOM      5  C6  UNL d   1      -3.373   0.833   0.210  0.00  0.00    -0.075 A 
ATOM      6  C7  UNL d   1      -4.591   1.656  -0.089  0.00  0.00     0.076 C 
ATOM      7  C8  UNL d   1      -2.657   1.048   1.395  0.00  0.00     0.001 A 
ENDROOT
BRANCH   1   8
ATOM      8  C1  UNL d   1      -0.756   0.532   2.976  0.00  0.00     0.053 C 
ATOM      9  C   UNL d   1       0.516  -0.299   3.047  0.00  0.00     0.018 C 
ENDBRANCH   1   8
TORSDOF 1
ENDMDL
