MODEL 1
REMARK minimizedAffinity 2.79454851
REMARK minimizedRMSD -1
REMARK  1 active torsions:
REMARK  status: ('A' for Active; 'I' for Inactive)
REMARK    1  A    between atoms: N_2  and  C1_3 
ROOT
ATOM      1  C1  UNL d   1       0.166   0.069   0.086  0.00  0.00     0.143 A 
ATOM      2  C2  UNL d   1      -0.676  -0.321  -0.961  0.00  0.00    -0.057 A 
ATOM      3  C3  UNL d   1      -2.043  -0.537  -0.751  0.00  0.00     0.033 A 
ATOM      4  C4  UNL d   1      -2.589  -0.395   0.521  0.00  0.00    -0.042 A 
ATOM      5  C5  UNL d   1      -1.766  -0.032   1.581  0.00  0.00     0.033 A 
ATOM      6  C6  UNL d   1      -0.403   0.189   1.364  0.00  0.00    -0.057 A 
ENDROOT
BRANCH   1   7
ATOM      7  N   UNL d   1       1.551   0.203  -0.038  0.00  0.00    -0.732 N 
ATOM      8  C   UNL d   1       2.445  -0.634   0.734  0.00  0.00     0.284 C 
ATOM      9  H3  UNL d   1       1.843   0.344  -1.003  0.00  0.00     0.395 HD
ENDBRANCH   1   7
TORSDOF 1
ENDMDL
