MODEL 1
REMARK minimizedAffinity 1.9617126
REMARK minimizedRMSD -1
REMARK  1 active torsions:
REMARK  status: ('A' for Active; 'I' for Inactive)
REMARK    1  A    between atoms: N_2  and  C1_3 
ROOT
ATOM      1  C1  UNL d   1       0.376   0.034   0.204  0.00  0.00     0.143 A 
ATOM      2  C2  UNL d   1      -0.335   0.637   1.247  0.00  0.00    -0.057 A 
ATOM      3  C3  UNL d   1      -1.733   0.711   1.225  0.00  0.00     0.033 A 
ATOM      4  C4  UNL d   1      -2.445   0.206   0.142  0.00  0.00    -0.042 A 
ATOM      5  C5  UNL d   1      -1.758  -0.375  -0.918  0.00  0.00     0.033 A 
ATOM      6  C6  UNL d   1      -0.362  -0.451  -0.887  0.00  0.00    -0.057 A 
ENDROOT
BRANCH   1   7
ATOM      7  N   UNL d   1       1.770   0.018   0.120  0.00  0.00    -0.732 N 
ATOM      8  C   UNL d   1       2.478   1.059  -0.593  0.00  0.00     0.284 C 
ATOM      9  H3  UNL d   1       2.208  -0.257   0.997  0.00  0.00     0.395 HD
ENDBRANCH   1   7
TORSDOF 1
ENDMDL
