MODEL 1
REMARK minimizedAffinity -4.82155371
REMARK minimizedRMSD -1
REMARK  1 active torsions:
REMARK  status: ('A' for Active; 'I' for Inactive)
REMARK    1  A    between atoms: N_2  and  C1_3 
ROOT
ATOM      1  C1  UNL d   1       0.369   0.026   0.587  0.00  0.00     0.143 A 
ATOM      2  C2  UNL d   1      -0.962   0.457   0.607  0.00  0.00    -0.057 A 
ATOM      3  C3  UNL d   1      -1.510   1.068   1.741  0.00  0.00     0.033 A 
ATOM      4  C4  UNL d   1      -0.743   1.233   2.889  0.00  0.00    -0.042 A 
ATOM      5  C5  UNL d   1       0.575   0.789   2.901  0.00  0.00     0.033 A 
ATOM      6  C6  UNL d   1       1.119   0.186   1.763  0.00  0.00    -0.057 A 
ENDROOT
BRANCH   1   7
ATOM      7  N   UNL d   1       0.943  -0.677  -0.475  0.00  0.00    -0.732 N 
ATOM      8  C   UNL d   1       0.736  -0.247  -1.841  0.00  0.00     0.284 C 
ATOM      9  H3  UNL d   1       1.894  -0.977  -0.273  0.00  0.00     0.395 HD
ENDBRANCH   1   7
TORSDOF 1
ENDMDL
