MODEL 1
REMARK minimizedAffinity -1.44702566
REMARK minimizedRMSD -1
REMARK  1 active torsions:
REMARK  status: ('A' for Active; 'I' for Inactive)
REMARK    1  A    between atoms: N_2  and  C1_3 
ROOT
ATOM      1  C1  UNL d   1       0.380  -0.149   1.214  0.00  0.00     0.143 A 
ATOM      2  C2  UNL d   1      -0.741   0.130   0.425  0.00  0.00    -0.057 A 
ATOM      3  C3  UNL d   1      -1.884   0.727   0.971  0.00  0.00     0.033 A 
ATOM      4  C4  UNL d   1      -1.936   1.031   2.328  0.00  0.00    -0.042 A 
ATOM      5  C5  UNL d   1      -0.843   0.739   3.136  0.00  0.00     0.033 A 
ATOM      6  C6  UNL d   1       0.297   0.148   2.584  0.00  0.00    -0.057 A 
ENDROOT
BRANCH   1   7
ATOM      7  N   UNL d   1       1.507  -0.832   0.751  0.00  0.00    -0.732 N 
ATOM      8  C   UNL d   1       2.730  -0.845   1.523  0.00  0.00     0.284 C 
ATOM      9  H3  UNL d   1       1.272  -1.727   0.328  0.00  0.00     0.395 HD
ENDBRANCH   1   7
TORSDOF 1
ENDMDL
