MODEL 1
REMARK minimizedAffinity -4.01228142
REMARK minimizedRMSD -1
REMARK  1 active torsions:
REMARK  status: ('A' for Active; 'I' for Inactive)
REMARK    1  A    between atoms: N_2  and  C1_3 
ROOT
ATOM      1  C1  UNL d   1       0.607   0.487   0.625  0.00  0.00     0.143 A 
ATOM      2  C2  UNL d   1      -0.452   1.389   0.772  0.00  0.00    -0.057 A 
ATOM      3  C3  UNL d   1      -0.763   1.946   2.019  0.00  0.00     0.033 A 
ATOM      4  C4  UNL d   1      -0.037   1.586   3.149  0.00  0.00    -0.042 A 
ATOM      5  C5  UNL d   1       1.004   0.672   3.031  0.00  0.00     0.033 A 
ATOM      6  C6  UNL d   1       1.314   0.125   1.782  0.00  0.00    -0.057 A 
ENDROOT
BRANCH   1   7
ATOM      7  N   UNL d   1       0.904  -0.176  -0.568  0.00  0.00    -0.732 N 
ATOM      8  C   UNL d   1      -0.147  -0.790  -1.351  0.00  0.00     0.284 C 
ATOM      9  H3  UNL d   1       1.602   0.315  -1.122  0.00  0.00     0.395 HD
ENDBRANCH   1   7
TORSDOF 1
ENDMDL
