MODEL 1
REMARK minimizedAffinity -4.63860655
REMARK minimizedRMSD -1
REMARK  1 active torsions:
REMARK  status: ('A' for Active; 'I' for Inactive)
REMARK    1  A    between atoms: N_2  and  C1_3 
ROOT
ATOM      1  C1  UNL d   1       0.001   0.288   0.502  0.00  0.00     0.143 A 
ATOM      2  C2  UNL d   1      -1.051   0.994   1.096  0.00  0.00    -0.057 A 
ATOM      3  C3  UNL d   1      -0.964   1.455   2.415  0.00  0.00     0.033 A 
ATOM      4  C4  UNL d   1       0.170   1.191   3.176  0.00  0.00    -0.042 A 
ATOM      5  C5  UNL d   1       1.218   0.470   2.615  0.00  0.00     0.033 A 
ATOM      6  C6  UNL d   1       1.128   0.018   1.295  0.00  0.00    -0.057 A 
ENDROOT
BRANCH   1   7
ATOM      7  N   UNL d   1      -0.065  -0.281  -0.772  0.00  0.00    -0.732 N 
ATOM      8  C   UNL d   1       1.123  -0.397  -1.590  0.00  0.00     0.284 C 
ATOM      9  H3  UNL d   1      -0.672  -1.097  -0.802  0.00  0.00     0.395 HD
ENDBRANCH   1   7
TORSDOF 1
ENDMDL
