MODEL 1
REMARK minimizedAffinity -3.52578211
REMARK minimizedRMSD -1
REMARK  1 active torsions:
REMARK  status: ('A' for Active; 'I' for Inactive)
REMARK    1  A    between atoms: N_2  and  C1_3 
ROOT
ATOM      1  C1  UNL d   1       0.325  -0.700   0.091  0.00  0.00     0.143 A 
ATOM      2  C2  UNL d   1      -0.914  -0.151   0.437  0.00  0.00    -0.057 A 
ATOM      3  C3  UNL d   1      -1.258   0.081   1.775  0.00  0.00     0.033 A 
ATOM      4  C4  UNL d   1      -0.376  -0.260   2.795  0.00  0.00    -0.042 A 
ATOM      5  C5  UNL d   1       0.851  -0.831   2.476  0.00  0.00     0.033 A 
ATOM      6  C6  UNL d   1       1.191  -1.054   1.138  0.00  0.00    -0.057 A 
ENDROOT
BRANCH   1   7
ATOM      7  N   UNL d   1       0.685  -1.046  -1.213  0.00  0.00    -0.732 N 
ATOM      8  C   UNL d   1       0.840  -0.028  -2.230  0.00  0.00     0.284 C 
ATOM      9  H3  UNL d   1       1.398  -1.772  -1.240  0.00  0.00     0.395 HD
ENDBRANCH   1   7
TORSDOF 1
ENDMDL
