MODEL 1
REMARK minimizedAffinity -2.42789578
REMARK minimizedRMSD -1
REMARK  1 active torsions:
REMARK  status: ('A' for Active; 'I' for Inactive)
REMARK    1  A    between atoms: N_2  and  C1_3 
ROOT
ATOM      1  C1  UNL d   1       0.209  -0.454   0.665  0.00  0.00     0.143 A 
ATOM      2  C2  UNL d   1       1.248  -0.772   1.546  0.00  0.00    -0.057 A 
ATOM      3  C3  UNL d   1       1.122  -0.557   2.924  0.00  0.00     0.033 A 
ATOM      4  C4  UNL d   1      -0.038   0.009   3.443  0.00  0.00    -0.042 A 
ATOM      5  C5  UNL d   1      -1.073   0.357   2.583  0.00  0.00     0.033 A 
ATOM      6  C6  UNL d   1      -0.944   0.133   1.208  0.00  0.00    -0.057 A 
ENDROOT
BRANCH   1   7
ATOM      7  N   UNL d   1       0.311  -0.552  -0.725  0.00  0.00    -0.732 N 
ATOM      8  C   UNL d   1       0.528   0.628  -1.534  0.00  0.00     0.284 C 
ATOM      9  H3  UNL d   1       0.852  -1.362  -1.018  0.00  0.00     0.395 HD
ENDBRANCH   1   7
TORSDOF 1
ENDMDL
