MODEL 1
REMARK minimizedAffinity 1.29861975
REMARK minimizedRMSD -1
REMARK  0 active torsions:
REMARK  status: ('A' for Active; 'I' for Inactive)
ROOT
ATOM      1  C   UNL d   1      -1.151  -0.993  -0.567  0.00  0.00    -0.002 A 
ATOM      2  C1  UNL d   1      -0.033  -0.187  -0.729  0.00  0.00     0.010 A 
ATOM      3  C2  UNL d   1       0.311   0.754   0.243  0.00  0.00     0.041 A 
ATOM      4  C3  UNL d   1      -0.493   0.871   1.394  0.00  0.00    -0.075 A 
ATOM      5  S   UNL d   1      -0.265   1.953   2.716  0.00  0.00     0.015 SA
ATOM      6  C4  UNL d   1      -1.645   1.370   3.529  0.00  0.00     0.022 A 
ATOM      7  C5  UNL d   1      -2.277   0.374   2.822  0.00  0.00     0.026 A 
ATOM      8  C6  UNL d   1      -1.623   0.070   1.580  0.00  0.00    -0.082 A 
ATOM      9  C7  UNL d   1      -1.946  -0.874   0.576  0.00  0.00     0.045 A 
ENDROOT
TORSDOF 0
ENDMDL
