MODEL 1
REMARK minimizedAffinity 13.2644663
REMARK minimizedRMSD -1
REMARK  0 active torsions:
REMARK  status: ('A' for Active; 'I' for Inactive)
ROOT
ATOM      1  C   UNL d   1      -6.000  -0.808  -1.764  0.00  0.00    -0.002 A 
ATOM      2  C1  UNL d   1      -4.836  -0.750  -2.518  0.00  0.00     0.010 A 
ATOM      3  C2  UNL d   1      -3.595  -0.596  -1.898  0.00  0.00     0.041 A 
ATOM      4  C3  UNL d   1      -3.542  -0.503  -0.493  0.00  0.00    -0.075 A 
ATOM      5  S   UNL d   1      -2.134  -0.312   0.484  0.00  0.00     0.015 SA
ATOM      6  C4  UNL d   1      -3.044  -0.304   1.925  0.00  0.00     0.022 A 
ATOM      7  C5  UNL d   1      -4.390  -0.442   1.685  0.00  0.00     0.026 A 
ATOM      8  C6  UNL d   1      -4.700  -0.560   0.288  0.00  0.00    -0.082 A 
ATOM      9  C7  UNL d   1      -5.943  -0.715  -0.371  0.00  0.00     0.045 A 
ENDROOT
TORSDOF 0
ENDMDL
