MODEL 1
REMARK minimizedAffinity 12.5133686
REMARK minimizedRMSD -1
REMARK  0 active torsions:
REMARK  status: ('A' for Active; 'I' for Inactive)
ROOT
ATOM      1  C   UNL d   1      -2.484  -1.262   2.407  0.00  0.00    -0.002 A 
ATOM      2  C1  UNL d   1      -2.370  -0.780   1.111  0.00  0.00     0.010 A 
ATOM      3  C2  UNL d   1      -1.981  -1.625   0.070  0.00  0.00     0.041 A 
ATOM      4  C3  UNL d   1      -1.708  -2.977   0.357  0.00  0.00    -0.075 A 
ATOM      5  S   UNL d   1      -1.216  -4.197  -0.758  0.00  0.00     0.015 SA
ATOM      6  C4  UNL d   1      -1.147  -5.387   0.460  0.00  0.00     0.022 A 
ATOM      7  C5  UNL d   1      -1.487  -4.884   1.693  0.00  0.00     0.026 A 
ATOM      8  C6  UNL d   1      -1.816  -3.486   1.654  0.00  0.00    -0.082 A 
ATOM      9  C7  UNL d   1      -2.212  -2.604   2.687  0.00  0.00     0.045 A 
ENDROOT
TORSDOF 0
ENDMDL
