MODEL 1
REMARK minimizedAffinity 12.4272099
REMARK minimizedRMSD -1
REMARK  0 active torsions:
REMARK  status: ('A' for Active; 'I' for Inactive)
ROOT
ATOM      1  C   UNL d   1      -0.319  -5.740   5.810  0.00  0.00    -0.002 A 
ATOM      2  C1  UNL d   1      -1.643  -5.353   5.957  0.00  0.00     0.010 A 
ATOM      3  C2  UNL d   1      -1.988  -4.001   6.000  0.00  0.00     0.041 A 
ATOM      4  C3  UNL d   1      -0.969  -3.034   5.889  0.00  0.00    -0.075 A 
ATOM      5  S   UNL d   1      -1.156  -1.320   5.915  0.00  0.00     0.015 SA
ATOM      6  C4  UNL d   1       0.519  -1.061   5.730  0.00  0.00     0.022 A 
ATOM      7  C5  UNL d   1       1.218  -2.242   5.649  0.00  0.00     0.026 A 
ATOM      8  C6  UNL d   1       0.372  -3.398   5.739  0.00  0.00    -0.082 A 
ATOM      9  C7  UNL d   1       0.689  -4.778   5.700  0.00  0.00     0.045 A 
ENDROOT
TORSDOF 0
ENDMDL
