MODEL 1
REMARK minimizedAffinity -0.161187053
REMARK minimizedRMSD -1
REMARK  1 active torsions:
REMARK  status: ('A' for Active; 'I' for Inactive)
REMARK    1  A    between atoms: C1_2  and  C2_3 
ROOT
ATOM      1  C2  UNL d   1      -1.140   3.311  -1.839  0.00  0.00    -0.076 A 
ATOM      2  C3  UNL d   1      -2.301   2.610  -2.209  0.00  0.00     0.004 A 
ATOM      3  C4  UNL d   1      -2.909   1.716  -1.330  0.00  0.00    -0.003 A 
ATOM      4  C5  UNL d   1      -2.367   1.509  -0.066  0.00  0.00     0.000 A 
ATOM      5  C6  UNL d   1      -1.226   2.209   0.324  0.00  0.00     0.000 A 
ATOM      6  C7  UNL d   1      -0.610   3.126  -0.544  0.00  0.00    -0.073 A 
ATOM      7  C8  UNL d   1       0.622   3.850  -0.074  0.00  0.00     0.078 C 
ENDROOT
BRANCH   1   8
ATOM      8  C1  UNL d   1      -0.508   4.247  -2.844  0.00  0.00     0.053 C 
ATOM      9  C   UNL d   1      -0.430   3.640  -4.237  0.00  0.00     0.018 C 
ENDBRANCH   1   8
TORSDOF 1
ENDMDL
