MODEL 1
REMARK minimizedAffinity 5.12653017
REMARK minimizedRMSD -1
REMARK  1 active torsions:
REMARK  status: ('A' for Active; 'I' for Inactive)
REMARK    1  A    between atoms: C1_2  and  C2_3 
ROOT
ATOM      1  C2  UNL d   1       1.619   2.187  -0.229  0.00  0.00    -0.076 A 
ATOM      2  C3  UNL d   1       2.876   1.573  -0.362  0.00  0.00     0.004 A 
ATOM      3  C4  UNL d   1       4.047   2.262  -0.051  0.00  0.00    -0.003 A 
ATOM      4  C5  UNL d   1       3.980   3.576   0.400  0.00  0.00     0.000 A 
ATOM      5  C6  UNL d   1       2.740   4.194   0.555  0.00  0.00     0.000 A 
ATOM      6  C7  UNL d   1       1.548   3.509   0.261  0.00  0.00    -0.073 A 
ATOM      7  C8  UNL d   1       0.239   4.226   0.441  0.00  0.00     0.078 C 
ENDROOT
BRANCH   1   8
ATOM      8  C1  UNL d   1       0.385   1.399  -0.607  0.00  0.00     0.053 C 
ATOM      9  C   UNL d   1       0.276   0.086   0.152  0.00  0.00     0.018 C 
ENDBRANCH   1   8
TORSDOF 1
ENDMDL
