MODEL 1
REMARK minimizedAffinity -2.6441431
REMARK minimizedRMSD -1
REMARK  1 active torsions:
REMARK  status: ('A' for Active; 'I' for Inactive)
REMARK    1  A    between atoms: C1_2  and  C2_3 
ROOT
ATOM      1  C2  UNL d   1      -1.462   1.935  -1.764  0.00  0.00    -0.076 A 
ATOM      2  C3  UNL d   1      -2.201   1.454  -2.858  0.00  0.00     0.004 A 
ATOM      3  C4  UNL d   1      -2.210   2.136  -4.074  0.00  0.00    -0.003 A 
ATOM      4  C5  UNL d   1      -1.478   3.311  -4.214  0.00  0.00     0.000 A 
ATOM      5  C6  UNL d   1      -0.725   3.793  -3.145  0.00  0.00     0.000 A 
ATOM      6  C7  UNL d   1      -0.693   3.108  -1.917  0.00  0.00    -0.073 A 
ATOM      7  C8  UNL d   1       0.132   3.677  -0.795  0.00  0.00     0.078 C 
ENDROOT
BRANCH   1   8
ATOM      8  C1  UNL d   1      -1.513   1.168  -0.462  0.00  0.00     0.053 C 
ATOM      9  C   UNL d   1      -0.544  -0.005  -0.439  0.00  0.00     0.018 C 
ENDBRANCH   1   8
TORSDOF 1
ENDMDL
