MODEL 1
REMARK minimizedAffinity -1.51153398
REMARK minimizedRMSD -1
REMARK  1 active torsions:
REMARK  status: ('A' for Active; 'I' for Inactive)
REMARK    1  A    between atoms: C1_2  and  C2_3 
ROOT
ATOM      1  C2  UNL d   1       0.135  -1.129   0.525  0.00  0.00    -0.076 A 
ATOM      2  C3  UNL d   1       0.606  -0.348  -0.544  0.00  0.00     0.004 A 
ATOM      3  C4  UNL d   1       0.099   0.929  -0.779  0.00  0.00    -0.003 A 
ATOM      4  C5  UNL d   1      -0.889   1.446   0.053  0.00  0.00     0.000 A 
ATOM      5  C6  UNL d   1      -1.355   0.692   1.129  0.00  0.00     0.000 A 
ATOM      6  C7  UNL d   1      -0.843  -0.591   1.389  0.00  0.00    -0.073 A 
ATOM      7  C8  UNL d   1      -1.387  -1.362   2.560  0.00  0.00     0.078 C 
ENDROOT
BRANCH   1   8
ATOM      8  C1  UNL d   1       0.703  -2.517   0.714  0.00  0.00     0.053 C 
ATOM      9  C   UNL d   1       2.086  -2.499   1.347  0.00  0.00     0.018 C 
ENDBRANCH   1   8
TORSDOF 1
ENDMDL
