MODEL 1
REMARK minimizedAffinity -3.59978819
REMARK minimizedRMSD -1
REMARK  1 active torsions:
REMARK  status: ('A' for Active; 'I' for Inactive)
REMARK    1  A    between atoms: C1_2  and  C2_3 
ROOT
ATOM      1  C2  UNL d   1      -0.102   3.031  -0.802  0.00  0.00    -0.076 A 
ATOM      2  C3  UNL d   1      -0.250   3.928  -1.875  0.00  0.00     0.004 A 
ATOM      3  C4  UNL d   1      -1.031   3.599  -2.982  0.00  0.00    -0.003 A 
ATOM      4  C5  UNL d   1      -1.677   2.370  -3.034  0.00  0.00     0.000 A 
ATOM      5  C6  UNL d   1      -1.557   1.475  -1.970  0.00  0.00     0.000 A 
ATOM      6  C7  UNL d   1      -0.786   1.797  -0.840  0.00  0.00    -0.073 A 
ATOM      7  C8  UNL d   1      -0.686   0.793   0.275  0.00  0.00     0.078 C 
ENDROOT
BRANCH   1   8
ATOM      8  C1  UNL d   1       0.779   3.431   0.360  0.00  0.00     0.053 C 
ATOM      9  C   UNL d   1       2.260   3.327   0.030  0.00  0.00     0.018 C 
ENDBRANCH   1   8
TORSDOF 1
ENDMDL
