MODEL 1
REMARK minimizedAffinity -2.68948102
REMARK minimizedRMSD -1
REMARK  1 active torsions:
REMARK  status: ('A' for Active; 'I' for Inactive)
REMARK    1  A    between atoms: C1_2  and  C2_3 
ROOT
ATOM      1  C2  UNL d   1      -1.269   2.224  -2.291  0.00  0.00    -0.076 A 
ATOM      2  C3  UNL d   1      -0.426   3.327  -2.508  0.00  0.00     0.004 A 
ATOM      3  C4  UNL d   1      -0.568   4.126  -3.642  0.00  0.00    -0.003 A 
ATOM      4  C5  UNL d   1      -1.556   3.835  -4.575  0.00  0.00     0.000 A 
ATOM      5  C6  UNL d   1      -2.413   2.755  -4.366  0.00  0.00     0.000 A 
ATOM      6  C7  UNL d   1      -2.294   1.949  -3.221  0.00  0.00    -0.073 A 
ATOM      7  C8  UNL d   1      -3.241   0.793  -3.050  0.00  0.00     0.078 C 
ENDROOT
BRANCH   1   8
ATOM      8  C1  UNL d   1      -1.050   1.377  -1.057  0.00  0.00     0.053 C 
ATOM      9  C   UNL d   1      -0.094   2.025  -0.068  0.00  0.00     0.018 C 
ENDBRANCH   1   8
TORSDOF 1
ENDMDL
