MODEL 1
REMARK minimizedAffinity -0.504446864
REMARK minimizedRMSD -1
REMARK  1 active torsions:
REMARK  status: ('A' for Active; 'I' for Inactive)
REMARK    1  A    between atoms: C1_2  and  C2_3 
ROOT
ATOM      1  C2  UNL d   1      -0.198   2.998  -1.166  0.00  0.00    -0.076 A 
ATOM      2  C3  UNL d   1      -0.447   3.874  -2.237  0.00  0.00     0.004 A 
ATOM      3  C4  UNL d   1      -1.225   3.477  -3.323  0.00  0.00    -0.003 A 
ATOM      4  C5  UNL d   1      -1.767   2.197  -3.356  0.00  0.00     0.000 A 
ATOM      5  C6  UNL d   1      -1.545   1.320  -2.294  0.00  0.00     0.000 A 
ATOM      6  C7  UNL d   1      -0.776   1.711  -1.184  0.00  0.00    -0.073 A 
ATOM      7  C8  UNL d   1      -0.564   0.723  -0.070  0.00  0.00     0.078 C 
ENDROOT
BRANCH   1   8
ATOM      8  C1  UNL d   1       0.676   3.475  -0.028  0.00  0.00     0.053 C 
ATOM      9  C   UNL d   1       2.153   3.476  -0.389  0.00  0.00     0.018 C 
ENDBRANCH   1   8
TORSDOF 1
ENDMDL
