MODEL 1
REMARK minimizedAffinity -4.45417166
REMARK minimizedRMSD -1
REMARK  1 active torsions:
REMARK  status: ('A' for Active; 'I' for Inactive)
REMARK    1  A    between atoms: C1_2  and  C2_3 
ROOT
ATOM      1  C2  UNL d   1      -0.576   3.493  -1.260  0.00  0.00    -0.076 A 
ATOM      2  C3  UNL d   1      -0.271   4.127  -2.477  0.00  0.00     0.004 A 
ATOM      3  C4  UNL d   1      -0.694   3.589  -3.691  0.00  0.00    -0.003 A 
ATOM      4  C5  UNL d   1      -1.429   2.409  -3.709  0.00  0.00     0.000 A 
ATOM      5  C6  UNL d   1      -1.756   1.776  -2.510  0.00  0.00     0.000 A 
ATOM      6  C7  UNL d   1      -1.352   2.314  -1.276  0.00  0.00    -0.073 A 
ATOM      7  C8  UNL d   1      -1.727   1.586  -0.014  0.00  0.00     0.078 C 
ENDROOT
BRANCH   1   8
ATOM      8  C1  UNL d   1      -0.068   4.108   0.025  0.00  0.00     0.053 C 
ATOM      9  C   UNL d   1       1.450   4.184   0.074  0.00  0.00     0.018 C 
ENDBRANCH   1   8
TORSDOF 1
ENDMDL
