MODEL 1
REMARK minimizedAffinity -3.66562653
REMARK minimizedRMSD -1
REMARK  1 active torsions:
REMARK  status: ('A' for Active; 'I' for Inactive)
REMARK    1  A    between atoms: C1_2  and  C2_3 
ROOT
ATOM      1  C2  UNL d   1       0.792  -1.261   1.006  0.00  0.00    -0.076 A 
ATOM      2  C3  UNL d   1      -0.278  -1.555   1.868  0.00  0.00     0.004 A 
ATOM      3  C4  UNL d   1      -1.435  -0.777   1.866  0.00  0.00    -0.003 A 
ATOM      4  C5  UNL d   1      -1.540   0.307   1.002  0.00  0.00     0.000 A 
ATOM      5  C6  UNL d   1      -0.495   0.602   0.127  0.00  0.00     0.000 A 
ATOM      6  C7  UNL d   1       0.672  -0.182   0.105  0.00  0.00    -0.073 A 
ATOM      7  C8  UNL d   1       1.770   0.186  -0.855  0.00  0.00     0.078 C 
ENDROOT
BRANCH   1   8
ATOM      8  C1  UNL d   1       2.033  -2.124   1.071  0.00  0.00     0.053 C 
ATOM      9  C   UNL d   1       1.791  -3.437   1.798  0.00  0.00     0.018 C 
ENDBRANCH   1   8
TORSDOF 1
ENDMDL
