MODEL 1
REMARK minimizedAffinity -3.26395631
REMARK minimizedRMSD -1
REMARK  1 active torsions:
REMARK  status: ('A' for Active; 'I' for Inactive)
REMARK    1  A    between atoms: C1_2  and  C2_3 
ROOT
ATOM      1  C2  UNL d   1       1.635  -0.220  -0.080  0.00  0.00    -0.076 A 
ATOM      2  C3  UNL d   1       2.427  -1.202   0.538  0.00  0.00     0.004 A 
ATOM      3  C4  UNL d   1       1.845  -2.264   1.228  0.00  0.00    -0.003 A 
ATOM      4  C5  UNL d   1       0.460  -2.361   1.310  0.00  0.00     0.000 A 
ATOM      5  C6  UNL d   1      -0.342  -1.405   0.688  0.00  0.00     0.000 A 
ATOM      6  C7  UNL d   1       0.229  -0.337  -0.025  0.00  0.00    -0.073 A 
ATOM      7  C8  UNL d   1      -0.683   0.669  -0.672  0.00  0.00     0.078 C 
ENDROOT
BRANCH   1   8
ATOM      8  C1  UNL d   1       2.323   0.924  -0.791  0.00  0.00     0.053 C 
ATOM      9  C   UNL d   1       2.349   2.196   0.041  0.00  0.00     0.018 C 
ENDBRANCH   1   8
TORSDOF 1
ENDMDL
