MODEL 1
REMARK minimizedAffinity -3.28641152
REMARK minimizedRMSD -1
REMARK  1 active torsions:
REMARK  status: ('A' for Active; 'I' for Inactive)
REMARK    1  A    between atoms: C1_2  and  C2_3 
ROOT
ATOM      1  C2  UNL d   1       0.097  -0.392  -0.700  0.00  0.00    -0.076 A 
ATOM      2  C3  UNL d   1      -0.327  -1.731  -0.643  0.00  0.00     0.004 A 
ATOM      3  C4  UNL d   1       0.268  -2.634   0.236  0.00  0.00    -0.003 A 
ATOM      4  C5  UNL d   1       1.295  -2.213   1.073  0.00  0.00     0.000 A 
ATOM      5  C6  UNL d   1       1.716  -0.884   1.042  0.00  0.00     0.000 A 
ATOM      6  C7  UNL d   1       1.116   0.043   0.173  0.00  0.00    -0.073 A 
ATOM      7  C8  UNL d   1       1.614   1.463   0.178  0.00  0.00     0.078 C 
ENDROOT
BRANCH   1   8
ATOM      8  C1  UNL d   1      -0.567   0.536  -1.692  0.00  0.00     0.053 C 
ATOM      9  C   UNL d   1      -1.898   1.072  -1.189  0.00  0.00     0.018 C 
ENDBRANCH   1   8
TORSDOF 1
ENDMDL
