MODEL 1
REMARK minimizedAffinity -4.19501162
REMARK minimizedRMSD -1
REMARK  1 active torsions:
REMARK  status: ('A' for Active; 'I' for Inactive)
REMARK    1  A    between atoms: C1_2  and  C2_3 
ROOT
ATOM      1  C2  UNL d   1       0.591   1.226   0.134  0.00  0.00    -0.076 A 
ATOM      2  C3  UNL d   1       0.608   2.626   0.011  0.00  0.00     0.004 A 
ATOM      3  C4  UNL d   1       1.810   3.323  -0.093  0.00  0.00    -0.003 A 
ATOM      4  C5  UNL d   1       3.016   2.631  -0.077  0.00  0.00     0.000 A 
ATOM      5  C6  UNL d   1       3.018   1.240   0.026  0.00  0.00     0.000 A 
ATOM      6  C7  UNL d   1       1.814   0.521   0.116  0.00  0.00    -0.073 A 
ATOM      7  C8  UNL d   1       1.875  -0.978   0.232  0.00  0.00     0.078 C 
ENDROOT
BRANCH   1   8
ATOM      8  C1  UNL d   1      -0.742   0.527   0.272  0.00  0.00     0.053 C 
ATOM      9  C   UNL d   1      -1.135   0.301   1.724  0.00  0.00     0.018 C 
ENDBRANCH   1   8
TORSDOF 1
ENDMDL
