MODEL 1
REMARK minimizedAffinity -1.57414234
REMARK minimizedRMSD -1
REMARK  1 active torsions:
REMARK  status: ('A' for Active; 'I' for Inactive)
REMARK    1  A    between atoms: C1_2  and  C2_3 
ROOT
ATOM      1  C2  UNL d   1       2.133  -0.929   1.247  0.00  0.00    -0.076 A 
ATOM      2  C3  UNL d   1       1.806   0.330   0.712  0.00  0.00     0.004 A 
ATOM      3  C4  UNL d   1       0.574   0.552   0.101  0.00  0.00    -0.003 A 
ATOM      4  C5  UNL d   1      -0.354  -0.481   0.016  0.00  0.00     0.000 A 
ATOM      5  C6  UNL d   1      -0.054  -1.731   0.556  0.00  0.00     0.000 A 
ATOM      6  C7  UNL d   1       1.178  -1.967   1.190  0.00  0.00    -0.073 A 
ATOM      7  C8  UNL d   1       1.451  -3.335   1.751  0.00  0.00     0.078 C 
ENDROOT
BRANCH   1   8
ATOM      8  C1  UNL d   1       3.496  -1.118   1.874  0.00  0.00     0.053 C 
ATOM      9  C   UNL d   1       3.514  -0.752   3.350  0.00  0.00     0.018 C 
ENDBRANCH   1   8
TORSDOF 1
ENDMDL
