MODEL 1
REMARK minimizedAffinity 8.99191475
REMARK minimizedRMSD -1
REMARK  0 active torsions:
REMARK  status: ('A' for Active; 'I' for Inactive)
ROOT
ATOM      1  C   UNL d   1      -3.462   1.550  -4.364  0.00  0.00     0.124 A 
ATOM      2  C1  UNL d   1      -3.262   0.320  -3.753  0.00  0.00     0.062 A 
ATOM      3  C2  UNL d   1      -3.985  -0.021  -2.613  0.00  0.00     0.162 A 
ATOM      4  C3  UNL d   1      -4.916   0.869  -2.078  0.00  0.00    -0.034 A 
ATOM      5  C4  UNL d   1      -5.112   2.104  -2.699  0.00  0.00     0.162 A 
ATOM      6  C5  UNL d   1      -4.386   2.441  -3.837  0.00  0.00     0.062 A 
ATOM      7  F   UNL d   1      -4.581   3.629  -4.427  0.00  0.00    -0.097 F 
ATOM      8  F1  UNL d   1      -5.999   2.984  -2.211  0.00  0.00    -0.096 F 
ATOM      9  I   UNL d   1      -5.999   0.363  -0.375  0.00  0.00    -0.060 I 
ATOM     10  F2  UNL d   1      -3.771  -1.216  -2.043  0.00  0.00    -0.096 F 
ATOM     11  F3  UNL d   1      -2.369  -0.542  -4.260  0.00  0.00    -0.097 F 
ATOM     12  F4  UNL d   1      -2.764   1.876  -5.460  0.00  0.00    -0.092 F 
ENDROOT
TORSDOF 0
ENDMDL
