MODEL 1
REMARK minimizedAffinity 11.9032145
REMARK minimizedRMSD -1
REMARK  0 active torsions:
REMARK  status: ('A' for Active; 'I' for Inactive)
ROOT
ATOM      1  C   UNL d   1      -2.497   0.883  -3.043  0.00  0.00     0.124 A 
ATOM      2  C1  UNL d   1      -2.240   2.240  -2.901  0.00  0.00     0.062 A 
ATOM      3  C2  UNL d   1      -3.238   3.173  -3.166  0.00  0.00     0.162 A 
ATOM      4  C3  UNL d   1      -4.504   2.753  -3.574  0.00  0.00    -0.034 A 
ATOM      5  C4  UNL d   1      -4.755   1.387  -3.715  0.00  0.00     0.162 A 
ATOM      6  C5  UNL d   1      -3.754   0.458  -3.449  0.00  0.00     0.062 A 
ATOM      7  F   UNL d   1      -4.005  -0.852  -3.586  0.00  0.00    -0.097 F 
ATOM      8  F1  UNL d   1      -5.961   0.948  -4.105  0.00  0.00    -0.096 F 
ATOM      9  I   UNL d   1      -5.999   4.145  -3.970  0.00  0.00    -0.060 I 
ATOM     10  F2  UNL d   1      -2.961   4.477  -3.021  0.00  0.00    -0.096 F 
ATOM     11  F3  UNL d   1      -1.026   2.653  -2.510  0.00  0.00    -0.097 F 
ATOM     12  F4  UNL d   1      -1.535  -0.012  -2.788  0.00  0.00    -0.092 F 
ENDROOT
TORSDOF 0
ENDMDL
