MODEL 1
REMARK minimizedAffinity 9.84214306
REMARK minimizedRMSD -1
REMARK  0 active torsions:
REMARK  status: ('A' for Active; 'I' for Inactive)
ROOT
ATOM      1  C   UNL d   1       1.551   1.186   1.690  0.00  0.00     0.124 A 
ATOM      2  C1  UNL d   1       2.299   1.821   2.671  0.00  0.00     0.062 A 
ATOM      3  C2  UNL d   1       3.563   2.322   2.375  0.00  0.00     0.162 A 
ATOM      4  C3  UNL d   1       4.089   2.189   1.089  0.00  0.00    -0.034 A 
ATOM      5  C4  UNL d   1       3.332   1.548   0.107  0.00  0.00     0.162 A 
ATOM      6  C5  UNL d   1       2.068   1.049   0.409  0.00  0.00     0.062 A 
ATOM      7  F   UNL d   1       1.348   0.435  -0.541  0.00  0.00    -0.097 F 
ATOM      8  F1  UNL d   1       3.807   1.403  -1.139  0.00  0.00    -0.096 F 
ATOM      9  I   UNL d   1       5.979   2.936   0.642  0.00  0.00    -0.060 I 
ATOM     10  F2  UNL d   1       4.263   2.932   3.343  0.00  0.00    -0.096 F 
ATOM     11  F3  UNL d   1       1.802   1.953   3.910  0.00  0.00    -0.097 F 
ATOM     12  F4  UNL d   1       0.336   0.704   1.978  0.00  0.00    -0.092 F 
ENDROOT
TORSDOF 0
ENDMDL
