MODEL 1
REMARK minimizedAffinity 11.6573191
REMARK minimizedRMSD -1
REMARK  0 active torsions:
REMARK  status: ('A' for Active; 'I' for Inactive)
ROOT
ATOM      1  C   UNL d   1       2.259   0.590  -0.367  0.00  0.00     0.124 A 
ATOM      2  C1  UNL d   1       2.229   1.310   0.819  0.00  0.00     0.062 A 
ATOM      3  C2  UNL d   1       3.296   2.134   1.165  0.00  0.00     0.162 A 
ATOM      4  C3  UNL d   1       4.402   2.245   0.322  0.00  0.00    -0.034 A 
ATOM      5  C4  UNL d   1       4.425   1.517  -0.869  0.00  0.00     0.162 A 
ATOM      6  C5  UNL d   1       3.357   0.694  -1.210  0.00  0.00     0.062 A 
ATOM      7  F   UNL d   1       3.387  -0.000  -2.357  0.00  0.00    -0.097 F 
ATOM      8  F1  UNL d   1       5.473   1.599  -1.703  0.00  0.00    -0.096 F 
ATOM      9  I   UNL d   1       6.000   3.476   0.835  0.00  0.00    -0.060 I 
ATOM     10  F2  UNL d   1       3.240   2.818   2.317  0.00  0.00    -0.096 F 
ATOM     11  F3  UNL d   1       1.170   1.211   1.635  0.00  0.00    -0.097 F 
ATOM     12  F4  UNL d   1       1.231  -0.203  -0.697  0.00  0.00    -0.092 F 
ENDROOT
TORSDOF 0
ENDMDL
