MODEL 1
REMARK minimizedAffinity 7.32241011
REMARK minimizedRMSD -1
REMARK  0 active torsions:
REMARK  status: ('A' for Active; 'I' for Inactive)
ROOT
ATOM      1  C   UNL d   1      -4.830  -0.449  -1.991  0.00  0.00     0.124 A 
ATOM      2  C1  UNL d   1      -4.716  -0.190  -3.350  0.00  0.00     0.062 A 
ATOM      3  C2  UNL d   1      -5.036   1.068  -3.852  0.00  0.00     0.162 A 
ATOM      4  C3  UNL d   1      -5.471   2.078  -2.995  0.00  0.00    -0.034 A 
ATOM      5  C4  UNL d   1      -5.584   1.810  -1.629  0.00  0.00     0.162 A 
ATOM      6  C5  UNL d   1      -5.264   0.551  -1.132  0.00  0.00     0.062 A 
ATOM      7  F   UNL d   1      -5.374   0.304   0.181  0.00  0.00    -0.097 F 
ATOM      8  F1  UNL d   1      -6.000   2.759  -0.777  0.00  0.00    -0.096 F 
ATOM      9  I   UNL d   1      -5.950   3.961  -3.742  0.00  0.00    -0.060 I 
ATOM     10  F2  UNL d   1      -4.917   1.290  -5.170  0.00  0.00    -0.096 F 
ATOM     11  F3  UNL d   1      -4.298  -1.155  -4.182  0.00  0.00    -0.097 F 
ATOM     12  F4  UNL d   1      -4.523  -1.660  -1.510  0.00  0.00    -0.092 F 
ENDROOT
TORSDOF 0
ENDMDL
