MODEL 1
REMARK minimizedAffinity -1.61651134
REMARK minimizedRMSD -1
REMARK  1 active torsions:
REMARK  status: ('A' for Active; 'I' for Inactive)
REMARK    1  A    between atoms: C1_2  and  C2_3 
ROOT
ATOM      1  C2  UNL d   1      -5.356   3.704  -0.026  0.00  0.00    -0.073 A 
ATOM      2  C3  UNL d   1      -6.000   3.371   1.171  0.00  0.00    -0.002 A 
ATOM      3  C4  UNL d   1      -5.398   2.493   2.074  0.00  0.00     0.004 A 
ATOM      4  C5  UNL d   1      -4.146   1.946   1.793  0.00  0.00    -0.004 A 
ATOM      5  C6  UNL d   1      -3.482   2.276   0.607  0.00  0.00    -0.075 A 
ATOM      6  C7  UNL d   1      -2.136   1.694   0.289  0.00  0.00     0.076 C 
ATOM      7  C8  UNL d   1      -4.094   3.156  -0.296  0.00  0.00     0.001 A 
ENDROOT
BRANCH   1   8
ATOM      8  C1  UNL d   1      -5.999   4.656  -1.001  0.00  0.00     0.053 C 
ATOM      9  C   UNL d   1      -5.999   4.106  -2.419  0.00  0.00     0.018 C 
ENDBRANCH   1   8
TORSDOF 1
ENDMDL
