MODEL 1
REMARK minimizedAffinity 8.65271282
REMARK minimizedRMSD -1
REMARK  1 active torsions:
REMARK  status: ('A' for Active; 'I' for Inactive)
REMARK    1  A    between atoms: C1_2  and  C2_3 
ROOT
ATOM      1  C2  UNL d   1       0.839   0.522   3.042  0.00  0.00    -0.073 A 
ATOM      2  C3  UNL d   1       0.659   0.095   4.363  0.00  0.00    -0.002 A 
ATOM      3  C4  UNL d   1       0.729  -1.262   4.681  0.00  0.00     0.004 A 
ATOM      4  C5  UNL d   1       0.987  -2.204   3.685  0.00  0.00    -0.004 A 
ATOM      5  C6  UNL d   1       1.182  -1.795   2.362  0.00  0.00    -0.075 A 
ATOM      6  C7  UNL d   1       1.458  -2.796   1.278  0.00  0.00     0.076 C 
ATOM      7  C8  UNL d   1       1.107  -0.431   2.050  0.00  0.00     0.001 A 
ENDROOT
BRANCH   1   8
ATOM      8  C1  UNL d   1       0.771   1.987   2.695  0.00  0.00     0.053 C 
ATOM      9  C   UNL d   1       2.027   2.732   3.118  0.00  0.00     0.018 C 
ENDBRANCH   1   8
TORSDOF 1
ENDMDL
