MODEL 1
REMARK minimizedAffinity 12.5690908
REMARK minimizedRMSD -1
REMARK  1 active torsions:
REMARK  status: ('A' for Active; 'I' for Inactive)
REMARK    1  A    between atoms: C1_2  and  C2_3 
ROOT
ATOM      1  C2  UNL d   1       1.609  -3.756   2.253  0.00  0.00    -0.073 A 
ATOM      2  C3  UNL d   1       1.051  -3.692   3.535  0.00  0.00    -0.002 A 
ATOM      3  C4  UNL d   1       0.892  -2.462   4.174  0.00  0.00     0.004 A 
ATOM      4  C5  UNL d   1       1.282  -1.284   3.537  0.00  0.00    -0.004 A 
ATOM      5  C6  UNL d   1       1.831  -1.326   2.251  0.00  0.00    -0.075 A 
ATOM      6  C7  UNL d   1       2.259  -0.069   1.553  0.00  0.00     0.076 C 
ATOM      7  C8  UNL d   1       1.991  -2.566   1.617  0.00  0.00     0.001 A 
ENDROOT
BRANCH   1   8
ATOM      8  C1  UNL d   1       1.777  -5.082   1.557  0.00  0.00     0.053 C 
ATOM      9  C   UNL d   1       1.631  -4.955   0.049  0.00  0.00     0.018 C 
ENDBRANCH   1   8
TORSDOF 1
ENDMDL
