MODEL 1
REMARK minimizedAffinity 9.29704285
REMARK minimizedRMSD -1
REMARK  1 active torsions:
REMARK  status: ('A' for Active; 'I' for Inactive)
REMARK    1  A    between atoms: C1_2  and  C2_3 
ROOT
ATOM      1  C2  UNL d   1       2.066  -4.659   5.220  0.00  0.00    -0.073 A 
ATOM      2  C3  UNL d   1       3.447  -4.481   5.360  0.00  0.00    -0.002 A 
ATOM      3  C4  UNL d   1       4.106  -3.482   4.643  0.00  0.00     0.004 A 
ATOM      4  C5  UNL d   1       3.391  -2.646   3.785  0.00  0.00    -0.004 A 
ATOM      5  C6  UNL d   1       2.008  -2.801   3.640  0.00  0.00    -0.075 A 
ATOM      6  C7  UNL d   1       1.225  -1.912   2.719  0.00  0.00     0.076 C 
ATOM      7  C8  UNL d   1       1.354  -3.809   4.362  0.00  0.00     0.001 A 
ENDROOT
BRANCH   1   8
ATOM      8  C1  UNL d   1       1.350  -5.733   5.997  0.00  0.00     0.053 C 
ATOM      9  C   UNL d   1      -0.159  -5.543   5.974  0.00  0.00     0.018 C 
ENDBRANCH   1   8
TORSDOF 1
ENDMDL
