MODEL 1
REMARK minimizedAffinity 12.0022125
REMARK minimizedRMSD -1
REMARK  2 active torsions:
REMARK  status: ('A' for Active; 'I' for Inactive)
REMARK    1  A    between atoms: C1_2  and  C2_3 
REMARK    2  A    between atoms: C2_3  and  C3_4 
ROOT
ATOM      1  C3  UNL d   1       3.680   2.132   2.955  0.00  0.00    -0.075 A 
ATOM      2  C4  UNL d   1       4.049   3.031   3.966  0.00  0.00     0.002 A 
ATOM      3  C5  UNL d   1       4.489   4.315   3.645  0.00  0.00     0.002 A 
ATOM      4  C6  UNL d   1       4.575   4.713   2.313  0.00  0.00    -0.004 A 
ATOM      5  C7  UNL d   1       4.226   3.823   1.300  0.00  0.00     0.002 A 
ATOM      6  C8  UNL d   1       3.782   2.538   1.618  0.00  0.00     0.002 A 
ENDROOT
BRANCH   1   7
ATOM      7  C2  UNL d   1       3.175   0.750   3.296  0.00  0.00     0.056 C 
BRANCH   7   8
ATOM      8  C1  UNL d   1       2.075   0.238   2.359  0.00  0.00     0.007 C 
ATOM      9  C   UNL d   1       0.876  -0.339   3.099  0.00  0.00     0.009 C 
ENDBRANCH   7   8
ENDBRANCH   1   7
TORSDOF 2
ENDMDL
