MODEL 1
REMARK minimizedAffinity 10.4705
REMARK minimizedRMSD -1
REMARK  2 active torsions:
REMARK  status: ('A' for Active; 'I' for Inactive)
REMARK    1  A    between atoms: C1_2  and  C2_3 
REMARK    2  A    between atoms: C2_3  and  C3_4 
ROOT
ATOM      1  C3  UNL d   1       3.765   2.947   2.535  0.00  0.00    -0.075 A 
ATOM      2  C4  UNL d   1       3.883   4.145   3.253  0.00  0.00     0.002 A 
ATOM      3  C5  UNL d   1       3.929   5.369   2.586  0.00  0.00     0.002 A 
ATOM      4  C6  UNL d   1       3.868   5.411   1.195  0.00  0.00    -0.004 A 
ATOM      5  C7  UNL d   1       3.767   4.225   0.470  0.00  0.00     0.002 A 
ATOM      6  C8  UNL d   1       3.716   2.999   1.135  0.00  0.00     0.002 A 
ENDROOT
BRANCH   1   7
ATOM      7  C2  UNL d   1       3.685   1.620   3.252  0.00  0.00     0.056 C 
BRANCH   7   8
ATOM      8  C1  UNL d   1       4.366   1.611   4.625  0.00  0.00     0.007 C 
ATOM      9  C   UNL d   1       5.871   1.387   4.546  0.00  0.00     0.009 C 
ENDBRANCH   7   8
ENDBRANCH   1   7
TORSDOF 2
ENDMDL
