MODEL 1
REMARK minimizedAffinity 8.26342201
REMARK minimizedRMSD -1
REMARK  2 active torsions:
REMARK  status: ('A' for Active; 'I' for Inactive)
REMARK    1  A    between atoms: C1_2  and  C2_3 
REMARK    2  A    between atoms: C2_3  and  C3_4 
ROOT
ATOM      1  C3  UNL d   1       3.436   2.884   5.478  0.00  0.00    -0.075 A 
ATOM      2  C4  UNL d   1       3.777   1.529   5.366  0.00  0.00     0.002 A 
ATOM      3  C5  UNL d   1       5.041   1.151   4.913  0.00  0.00     0.002 A 
ATOM      4  C6  UNL d   1       5.975   2.122   4.557  0.00  0.00    -0.004 A 
ATOM      5  C7  UNL d   1       5.642   3.472   4.649  0.00  0.00     0.002 A 
ATOM      6  C8  UNL d   1       4.379   3.852   5.106  0.00  0.00     0.002 A 
ENDROOT
BRANCH   1   7
ATOM      7  C2  UNL d   1       2.080   3.299   5.996  0.00  0.00     0.056 C 
BRANCH   7   8
ATOM      8  C1  UNL d   1       1.040   2.173   5.996  0.00  0.00     0.007 C 
ATOM      9  C   UNL d   1      -0.388   2.675   5.826  0.00  0.00     0.009 C 
ENDBRANCH   7   8
ENDBRANCH   1   7
TORSDOF 2
ENDMDL
