MODEL 1
REMARK minimizedAffinity 14.0885601
REMARK minimizedRMSD -1
REMARK  2 active torsions:
REMARK  status: ('A' for Active; 'I' for Inactive)
REMARK    1  A    between atoms: C1_2  and  C2_3 
REMARK    2  A    between atoms: C2_3  and  C3_4 
ROOT
ATOM      1  C3  UNL d   1      -0.860  -2.605  -4.944  0.00  0.00    -0.075 A 
ATOM      2  C4  UNL d   1       0.034  -1.562  -5.224  0.00  0.00     0.002 A 
ATOM      3  C5  UNL d   1       0.366  -0.630  -4.240  0.00  0.00     0.002 A 
ATOM      4  C6  UNL d   1      -0.198  -0.723  -2.970  0.00  0.00    -0.004 A 
ATOM      5  C7  UNL d   1      -1.100  -1.746  -2.685  0.00  0.00     0.002 A 
ATOM      6  C8  UNL d   1      -1.430  -2.682  -3.666  0.00  0.00     0.002 A 
ENDROOT
BRANCH   1   7
ATOM      7  C2  UNL d   1      -1.200  -3.635  -5.995  0.00  0.00     0.056 C 
BRANCH   7   8
ATOM      8  C1  UNL d   1      -2.313  -4.603  -5.583  0.00  0.00     0.007 C 
ATOM      9  C   UNL d   1      -1.789  -5.892  -4.963  0.00  0.00     0.009 C 
ENDBRANCH   7   8
ENDBRANCH   1   7
TORSDOF 2
ENDMDL
