MODEL 1
REMARK minimizedAffinity 5.9136796
REMARK minimizedRMSD -1
REMARK  2 active torsions:
REMARK  status: ('A' for Active; 'I' for Inactive)
REMARK    1  A    between atoms: C1_2  and  C2_3 
REMARK    2  A    between atoms: C2_3  and  C3_4 
ROOT
ATOM      1  C3  UNL d   1       0.580   0.482   3.438  0.00  0.00    -0.075 A 
ATOM      2  C4  UNL d   1      -0.013  -0.433   2.555  0.00  0.00     0.002 A 
ATOM      3  C5  UNL d   1       0.217  -1.802   2.694  0.00  0.00     0.002 A 
ATOM      4  C6  UNL d   1       1.048  -2.272   3.708  0.00  0.00    -0.004 A 
ATOM      5  C7  UNL d   1       1.656  -1.372   4.580  0.00  0.00     0.002 A 
ATOM      6  C8  UNL d   1       1.424  -0.001   4.446  0.00  0.00     0.002 A 
ENDROOT
BRANCH   1   7
ATOM      7  C2  UNL d   1       0.311   1.962   3.311  0.00  0.00     0.056 C 
BRANCH   7   8
ATOM      8  C1  UNL d   1      -0.696   2.503   4.332  0.00  0.00     0.007 C 
ATOM      9  C   UNL d   1      -0.184   2.452   5.765  0.00  0.00     0.009 C 
ENDBRANCH   7   8
ENDBRANCH   1   7
TORSDOF 2
ENDMDL
