MODEL 1
REMARK minimizedAffinity 9.64917755
REMARK minimizedRMSD -1
REMARK  2 active torsions:
REMARK  status: ('A' for Active; 'I' for Inactive)
REMARK    1  A    between atoms: C1_2  and  C2_3 
REMARK    2  A    between atoms: C2_3  and  C3_4 
ROOT
ATOM      1  C3  UNL d   1       2.271  -2.628   4.154  0.00  0.00    -0.075 A 
ATOM      2  C4  UNL d   1       3.603  -2.676   3.719  0.00  0.00     0.002 A 
ATOM      3  C5  UNL d   1       4.074  -1.763   2.776  0.00  0.00     0.002 A 
ATOM      4  C6  UNL d   1       3.219  -0.797   2.249  0.00  0.00    -0.004 A 
ATOM      5  C7  UNL d   1       1.889  -0.750   2.661  0.00  0.00     0.002 A 
ATOM      6  C8  UNL d   1       1.416  -1.660   3.608  0.00  0.00     0.002 A 
ENDROOT
BRANCH   1   7
ATOM      7  C2  UNL d   1       1.762  -3.595   5.196  0.00  0.00     0.056 C 
BRANCH   7   8
ATOM      8  C1  UNL d   1       1.884  -5.068   4.792  0.00  0.00     0.007 C 
ATOM      9  C   UNL d   1       1.050  -6.000   5.661  0.00  0.00     0.009 C 
ENDBRANCH   7   8
ENDBRANCH   1   7
TORSDOF 2
ENDMDL
