MODEL 1
REMARK minimizedAffinity 6.96006632
REMARK minimizedRMSD -1
REMARK  2 active torsions:
REMARK  status: ('A' for Active; 'I' for Inactive)
REMARK    1  A    between atoms: C1_2  and  C2_3 
REMARK    2  A    between atoms: C2_3  and  C3_4 
ROOT
ATOM      1  C3  UNL d   1       2.436  -0.747   3.165  0.00  0.00    -0.075 A 
ATOM      2  C4  UNL d   1       1.482  -1.687   3.579  0.00  0.00     0.002 A 
ATOM      3  C5  UNL d   1       1.838  -2.727   4.437  0.00  0.00     0.002 A 
ATOM      4  C6  UNL d   1       3.152  -2.847   4.883  0.00  0.00    -0.004 A 
ATOM      5  C7  UNL d   1       4.112  -1.929   4.465  0.00  0.00     0.002 A 
ATOM      6  C8  UNL d   1       3.758  -0.884   3.610  0.00  0.00     0.002 A 
ENDROOT
BRANCH   1   7
ATOM      7  C2  UNL d   1       2.051   0.399   2.259  0.00  0.00     0.056 C 
BRANCH   7   8
ATOM      8  C1  UNL d   1       3.239   1.069   1.562  0.00  0.00     0.007 C 
ATOM      9  C   UNL d   1       2.870   2.375   0.870  0.00  0.00     0.009 C 
ENDBRANCH   7   8
ENDBRANCH   1   7
TORSDOF 2
ENDMDL
