MODEL 1
REMARK minimizedAffinity 12.225399
REMARK minimizedRMSD -1
REMARK  2 active torsions:
REMARK  status: ('A' for Active; 'I' for Inactive)
REMARK    1  A    between atoms: C1_2  and  C2_3 
REMARK    2  A    between atoms: C2_3  and  C3_4 
ROOT
ATOM      1  C3  UNL d   1       0.607  -0.868   0.703  0.00  0.00    -0.075 A 
ATOM      2  C4  UNL d   1      -0.410  -0.135   1.331  0.00  0.00     0.002 A 
ATOM      3  C5  UNL d   1      -1.671  -0.026   0.744  0.00  0.00     0.002 A 
ATOM      4  C6  UNL d   1      -1.927  -0.638  -0.481  0.00  0.00    -0.004 A 
ATOM      5  C7  UNL d   1      -0.920  -1.355  -1.122  0.00  0.00     0.002 A 
ATOM      6  C8  UNL d   1       0.342  -1.470  -0.535  0.00  0.00     0.002 A 
ENDROOT
BRANCH   1   7
ATOM      7  C2  UNL d   1       1.965  -1.015   1.347  0.00  0.00     0.056 C 
BRANCH   7   8
ATOM      8  C1  UNL d   1       2.037  -0.477   2.780  0.00  0.00     0.007 C 
ATOM      9  C   UNL d   1       1.619  -1.500   3.827  0.00  0.00     0.009 C 
ENDBRANCH   7   8
ENDBRANCH   1   7
TORSDOF 2
ENDMDL
