MODEL 1
REMARK minimizedAffinity 3.18070316
REMARK minimizedRMSD -1
REMARK  2 active torsions:
REMARK  status: ('A' for Active; 'I' for Inactive)
REMARK    1  A    between atoms: C1_2  and  C2_3 
REMARK    2  A    between atoms: C2_3  and  C3_4 
ROOT
ATOM      1  C3  UNL d   1       2.808  -1.362   3.661  0.00  0.00    -0.075 A 
ATOM      2  C4  UNL d   1       2.379  -2.371   2.785  0.00  0.00     0.002 A 
ATOM      3  C5  UNL d   1       1.670  -2.049   1.628  0.00  0.00     0.002 A 
ATOM      4  C6  UNL d   1       1.371  -0.720   1.336  0.00  0.00    -0.004 A 
ATOM      5  C7  UNL d   1       1.777   0.288   2.207  0.00  0.00     0.002 A 
ATOM      6  C8  UNL d   1       2.491  -0.030   3.364  0.00  0.00     0.002 A 
ENDROOT
BRANCH   1   7
ATOM      7  C2  UNL d   1       3.601  -1.701   4.900  0.00  0.00     0.056 C 
BRANCH   7   8
ATOM      8  C1  UNL d   1       5.072  -2.034   4.627  0.00  0.00     0.007 C 
ATOM      9  C   UNL d   1       5.877  -2.283   5.896  0.00  0.00     0.009 C 
ENDBRANCH   7   8
ENDBRANCH   1   7
TORSDOF 2
ENDMDL
