MODEL 1
REMARK minimizedAffinity 13.704814
REMARK minimizedRMSD -1
REMARK  2 active torsions:
REMARK  status: ('A' for Active; 'I' for Inactive)
REMARK    1  A    between atoms: C1_2  and  C2_3 
REMARK    2  A    between atoms: C2_3  and  C3_4 
ROOT
ATOM      1  C3  UNL d   1       1.198  -0.172   0.795  0.00  0.00    -0.075 A 
ATOM      2  C4  UNL d   1      -0.009   0.512   1.002  0.00  0.00     0.002 A 
ATOM      3  C5  UNL d   1      -1.121   0.245   0.203  0.00  0.00     0.002 A 
ATOM      4  C6  UNL d   1      -1.038  -0.700  -0.818  0.00  0.00    -0.004 A 
ATOM      5  C7  UNL d   1       0.161  -1.373  -1.043  0.00  0.00     0.002 A 
ATOM      6  C8  UNL d   1       1.274  -1.111  -0.242  0.00  0.00     0.002 A 
ENDROOT
BRANCH   1   7
ATOM      7  C2  UNL d   1       2.396   0.092   1.676  0.00  0.00     0.056 C 
BRANCH   7   8
ATOM      8  C1  UNL d   1       2.163  -0.225   3.157  0.00  0.00     0.007 C 
ATOM      9  C   UNL d   1       1.950  -1.709   3.427  0.00  0.00     0.009 C 
ENDBRANCH   7   8
ENDBRANCH   1   7
TORSDOF 2
ENDMDL
