MODEL 1
REMARK minimizedAffinity 6.92876005
REMARK minimizedRMSD -1
REMARK  2 active torsions:
REMARK  status: ('A' for Active; 'I' for Inactive)
REMARK    1  A    between atoms: C1_2  and  C2_3 
REMARK    2  A    between atoms: C2_3  and  C3_4 
ROOT
ATOM      1  C3  UNL d   1       3.828  -2.392   3.694  0.00  0.00    -0.075 A 
ATOM      2  C4  UNL d   1       4.301  -1.854   4.900  0.00  0.00     0.002 A 
ATOM      3  C5  UNL d   1       4.536  -2.679   6.000  0.00  0.00     0.002 A 
ATOM      4  C6  UNL d   1       4.294  -4.048   5.912  0.00  0.00    -0.004 A 
ATOM      5  C7  UNL d   1       3.809  -4.591   4.725  0.00  0.00     0.002 A 
ATOM      6  C8  UNL d   1       3.576  -3.769   3.621  0.00  0.00     0.002 A 
ENDROOT
BRANCH   1   7
ATOM      7  C2  UNL d   1       3.599  -1.509   2.491  0.00  0.00     0.056 C 
BRANCH   7   8
ATOM      8  C1  UNL d   1       2.139  -1.089   2.295  0.00  0.00     0.007 C 
ATOM      9  C   UNL d   1       1.786   0.207   3.012  0.00  0.00     0.009 C 
ENDBRANCH   7   8
ENDBRANCH   1   7
TORSDOF 2
ENDMDL
