MODEL 1
REMARK minimizedAffinity 9.97986126
REMARK minimizedRMSD -1
REMARK  2 active torsions:
REMARK  status: ('A' for Active; 'I' for Inactive)
REMARK    1  A    between atoms: C1_2  and  C2_3 
REMARK    2  A    between atoms: C2_3  and  C3_4 
ROOT
ATOM      1  C3  UNL d   1       0.607  -0.821   0.927  0.00  0.00    -0.075 A 
ATOM      2  C4  UNL d   1      -0.764  -0.548   0.822  0.00  0.00     0.002 A 
ATOM      3  C5  UNL d   1      -1.505  -1.042  -0.252  0.00  0.00     0.002 A 
ATOM      4  C6  UNL d   1      -0.884  -1.806  -1.238  0.00  0.00    -0.004 A 
ATOM      5  C7  UNL d   1       0.482  -2.069  -1.152  0.00  0.00     0.002 A 
ATOM      6  C8  UNL d   1       1.224  -1.580  -0.077  0.00  0.00     0.002 A 
ENDROOT
BRANCH   1   7
ATOM      7  C2  UNL d   1       1.408  -0.314   2.102  0.00  0.00     0.056 C 
BRANCH   7   8
ATOM      8  C1  UNL d   1       2.338  -1.362   2.722  0.00  0.00     0.007 C 
ATOM      9  C   UNL d   1       1.831  -1.902   4.053  0.00  0.00     0.009 C 
ENDBRANCH   7   8
ENDBRANCH   1   7
TORSDOF 2
ENDMDL
