MODEL 1
REMARK minimizedAffinity 6.75093651
REMARK minimizedRMSD -1
REMARK  2 active torsions:
REMARK  status: ('A' for Active; 'I' for Inactive)
REMARK    1  A    between atoms: C1_2  and  C2_3 
REMARK    2  A    between atoms: C2_3  and  C3_4 
ROOT
ATOM      1  C3  UNL d   1       2.873  -3.393   3.663  0.00  0.00    -0.075 A 
ATOM      2  C4  UNL d   1       2.572  -3.780   2.349  0.00  0.00     0.002 A 
ATOM      3  C5  UNL d   1       1.959  -2.887   1.470  0.00  0.00     0.002 A 
ATOM      4  C6  UNL d   1       1.630  -1.602   1.895  0.00  0.00    -0.004 A 
ATOM      5  C7  UNL d   1       1.909  -1.211   3.203  0.00  0.00     0.002 A 
ATOM      6  C8  UNL d   1       2.526  -2.101   4.083  0.00  0.00     0.002 A 
ENDROOT
BRANCH   1   7
ATOM      7  C2  UNL d   1       3.563  -4.345   4.611  0.00  0.00     0.056 C 
BRANCH   7   8
ATOM      8  C1  UNL d   1       2.917  -4.420   5.999  0.00  0.00     0.007 C 
ATOM      9  C   UNL d   1       1.543  -5.076   5.986  0.00  0.00     0.009 C 
ENDBRANCH   7   8
ENDBRANCH   1   7
TORSDOF 2
ENDMDL
