MODEL 1
REMARK minimizedAffinity 4.24827766
REMARK minimizedRMSD -1
REMARK  2 active torsions:
REMARK  status: ('A' for Active; 'I' for Inactive)
REMARK    1  A    between atoms: C1_2  and  C2_3 
REMARK    2  A    between atoms: C2_3  and  C3_4 
ROOT
ATOM      1  C3  UNL d   1       2.673  -2.122   2.766  0.00  0.00    -0.075 A 
ATOM      2  C4  UNL d   1       2.129  -2.347   4.039  0.00  0.00     0.002 A 
ATOM      3  C5  UNL d   1       2.010  -3.644   4.540  0.00  0.00     0.002 A 
ATOM      4  C6  UNL d   1       2.422  -4.730   3.772  0.00  0.00    -0.004 A 
ATOM      5  C7  UNL d   1       2.948  -4.520   2.499  0.00  0.00     0.002 A 
ATOM      6  C8  UNL d   1       3.072  -3.224   1.997  0.00  0.00     0.002 A 
ENDROOT
BRANCH   1   7
ATOM      7  C2  UNL d   1       2.831  -0.719   2.230  0.00  0.00     0.056 C 
BRANCH   7   8
ATOM      8  C1  UNL d   1       1.527   0.084   2.189  0.00  0.00     0.007 C 
ATOM      9  C   UNL d   1       0.520  -0.458   1.183  0.00  0.00     0.009 C 
ENDBRANCH   7   8
ENDBRANCH   1   7
TORSDOF 2
ENDMDL
