MODEL 1
REMARK minimizedAffinity -0.316752166
REMARK minimizedRMSD -1
REMARK  2 active torsions:
REMARK  status: ('A' for Active; 'I' for Inactive)
REMARK    1  A    between atoms: C1_2  and  C2_3 
REMARK    2  A    between atoms: C2_3  and  C3_4 
ROOT
ATOM      1  C3  UNL d   1      -5.854   4.309   3.285  0.00  0.00    -0.075 A 
ATOM      2  C4  UNL d   1      -5.640   3.333   4.268  0.00  0.00     0.002 A 
ATOM      3  C5  UNL d   1      -5.595   3.684   5.618  0.00  0.00     0.002 A 
ATOM      4  C6  UNL d   1      -5.753   5.015   6.000  0.00  0.00    -0.004 A 
ATOM      5  C7  UNL d   1      -5.950   5.995   5.030  0.00  0.00     0.002 A 
ATOM      6  C8  UNL d   1      -5.999   5.646   3.679  0.00  0.00     0.002 A 
ENDROOT
BRANCH   1   7
ATOM      7  C2  UNL d   1      -5.933   3.931   1.825  0.00  0.00     0.056 C 
BRANCH   7   8
ATOM      8  C1  UNL d   1      -5.259   4.935   0.883  0.00  0.00     0.007 C 
ATOM      9  C   UNL d   1      -4.454   5.999   1.617  0.00  0.00     0.009 C 
ENDBRANCH   7   8
ENDBRANCH   1   7
TORSDOF 2
ENDMDL
