MODEL 1
REMARK minimizedAffinity -2.86535978
REMARK minimizedRMSD -1
REMARK  2 active torsions:
REMARK  status: ('A' for Active; 'I' for Inactive)
REMARK    1  A    between atoms: C1_2  and  C2_3 
REMARK    2  A    between atoms: C2_3  and  C3_4 
ROOT
ATOM      1  C3  UNL d   1      -5.697   4.551   3.994  0.00  0.00    -0.075 A 
ATOM      2  C4  UNL d   1      -6.000   3.445   3.186  0.00  0.00     0.002 A 
ATOM      3  C5  UNL d   1      -5.999   3.562   1.796  0.00  0.00     0.002 A 
ATOM      4  C6  UNL d   1      -5.706   4.785   1.197  0.00  0.00    -0.004 A 
ATOM      5  C7  UNL d   1      -5.420   5.894   1.990  0.00  0.00     0.002 A 
ATOM      6  C8  UNL d   1      -5.416   5.779   3.381  0.00  0.00     0.002 A 
ENDROOT
BRANCH   1   7
ATOM      7  C2  UNL d   1      -5.668   4.424   5.498  0.00  0.00     0.056 C 
BRANCH   7   8
ATOM      8  C1  UNL d   1      -5.506   2.985   6.000  0.00  0.00     0.007 C 
ATOM      9  C   UNL d   1      -4.071   2.480   5.924  0.00  0.00     0.009 C 
ENDBRANCH   7   8
ENDBRANCH   1   7
TORSDOF 2
ENDMDL
