MODEL 1
REMARK minimizedAffinity 10.4824276
REMARK minimizedRMSD -1
REMARK  2 active torsions:
REMARK  status: ('A' for Active; 'I' for Inactive)
REMARK    1  A    between atoms: C1_2  and  C2_3 
REMARK    2  A    between atoms: C2_3  and  C3_4 
ROOT
ATOM      1  C3  UNL d   1      -0.704  -0.434   1.480  0.00  0.00    -0.075 A 
ATOM      2  C4  UNL d   1      -2.098  -0.505   1.613  0.00  0.00     0.002 A 
ATOM      3  C5  UNL d   1      -2.894  -0.890   0.533  0.00  0.00     0.002 A 
ATOM      4  C6  UNL d   1      -2.308  -1.198  -0.693  0.00  0.00    -0.004 A 
ATOM      5  C7  UNL d   1      -0.925  -1.115  -0.840  0.00  0.00     0.002 A 
ATOM      6  C8  UNL d   1      -0.126  -0.734   0.239  0.00  0.00     0.002 A 
ENDROOT
BRANCH   1   7
ATOM      7  C2  UNL d   1       0.165  -0.047   2.653  0.00  0.00     0.056 C 
BRANCH   7   8
ATOM      8  C1  UNL d   1       1.512  -0.775   2.698  0.00  0.00     0.007 C 
ATOM      9  C   UNL d   1       2.591   0.003   3.440  0.00  0.00     0.009 C 
ENDBRANCH   7   8
ENDBRANCH   1   7
TORSDOF 2
ENDMDL
