MODEL 1
REMARK minimizedAffinity -2.84050298
REMARK minimizedRMSD -1
REMARK  2 active torsions:
REMARK  status: ('A' for Active; 'I' for Inactive)
REMARK    1  A    between atoms: C1_2  and  C2_3 
REMARK    2  A    between atoms: C2_3  and  C3_4 
ROOT
ATOM      1  C3  UNL d   1      -5.668   3.453   4.006  0.00  0.00    -0.075 A 
ATOM      2  C4  UNL d   1      -5.498   2.983   2.696  0.00  0.00     0.002 A 
ATOM      3  C5  UNL d   1      -5.183   3.865   1.662  0.00  0.00     0.002 A 
ATOM      4  C6  UNL d   1      -5.045   5.227   1.922  0.00  0.00    -0.004 A 
ATOM      5  C7  UNL d   1      -5.227   5.707   3.216  0.00  0.00     0.002 A 
ATOM      6  C8  UNL d   1      -5.538   4.826   4.254  0.00  0.00     0.002 A 
ENDROOT
BRANCH   1   7
ATOM      7  C2  UNL d   1      -5.979   2.500   5.135  0.00  0.00     0.056 C 
BRANCH   7   8
ATOM      8  C1  UNL d   1      -4.750   2.058   5.935  0.00  0.00     0.007 C 
ATOM      9  C   UNL d   1      -3.632   3.092   5.939  0.00  0.00     0.009 C 
ENDBRANCH   7   8
ENDBRANCH   1   7
TORSDOF 2
ENDMDL
