MODEL 1
REMARK minimizedAffinity -3.18772316
REMARK minimizedRMSD -1
REMARK  2 active torsions:
REMARK  status: ('A' for Active; 'I' for Inactive)
REMARK    1  A    between atoms: C1_2  and  C2_3 
REMARK    2  A    between atoms: C2_3  and  C3_4 
ROOT
ATOM      1  C3  UNL d   1      -5.478   4.781   3.922  0.00  0.00    -0.075 A 
ATOM      2  C4  UNL d   1      -5.616   3.583   3.207  0.00  0.00     0.002 A 
ATOM      3  C5  UNL d   1      -5.691   3.594   1.814  0.00  0.00     0.002 A 
ATOM      4  C6  UNL d   1      -5.641   4.800   1.120  0.00  0.00    -0.004 A 
ATOM      5  C7  UNL d   1      -5.521   5.999   1.821  0.00  0.00     0.002 A 
ATOM      6  C8  UNL d   1      -5.441   5.990   3.214  0.00  0.00     0.002 A 
ENDROOT
BRANCH   1   7
ATOM      7  C2  UNL d   1      -5.366   4.774   5.428  0.00  0.00     0.056 C 
BRANCH   7   8
ATOM      8  C1  UNL d   1      -4.200   3.936   5.962  0.00  0.00     0.007 C 
ATOM      9  C   UNL d   1      -4.500   2.444   6.000  0.00  0.00     0.009 C 
ENDBRANCH   7   8
ENDBRANCH   1   7
TORSDOF 2
ENDMDL
