MODEL 1
REMARK minimizedAffinity -3.1318295
REMARK minimizedRMSD -1
REMARK  2 active torsions:
REMARK  status: ('A' for Active; 'I' for Inactive)
REMARK    1  A    between atoms: C1_2  and  C2_3 
REMARK    2  A    between atoms: C2_3  and  C3_4 
ROOT
ATOM      1  C3  UNL d   1      -5.632   4.357   4.173  0.00  0.00    -0.075 A 
ATOM      2  C4  UNL d   1      -5.391   5.685   3.793  0.00  0.00     0.002 A 
ATOM      3  C5  UNL d   1      -5.097   6.000   2.466  0.00  0.00     0.002 A 
ATOM      4  C6  UNL d   1      -5.030   4.992   1.506  0.00  0.00    -0.004 A 
ATOM      5  C7  UNL d   1      -5.252   3.667   1.876  0.00  0.00     0.002 A 
ATOM      6  C8  UNL d   1      -5.550   3.350   3.202  0.00  0.00     0.002 A 
ENDROOT
BRANCH   1   7
ATOM      7  C2  UNL d   1      -5.980   4.013   5.602  0.00  0.00     0.056 C 
BRANCH   7   8
ATOM      8  C1  UNL d   1      -5.913   2.515   5.917  0.00  0.00     0.007 C 
ATOM      9  C   UNL d   1      -4.489   1.982   6.000  0.00  0.00     0.009 C 
ENDBRANCH   7   8
ENDBRANCH   1   7
TORSDOF 2
ENDMDL
