MODEL 1
REMARK minimizedAffinity -1.82285118
REMARK minimizedRMSD -1
REMARK  2 active torsions:
REMARK  status: ('A' for Active; 'I' for Inactive)
REMARK    1  A    between atoms: C1_2  and  C2_3 
REMARK    2  A    between atoms: C2_3  and  C3_4 
ROOT
ATOM      1  C3  UNL d   1      -5.438   4.932   3.474  0.00  0.00    -0.075 A 
ATOM      2  C4  UNL d   1      -5.999   4.031   2.558  0.00  0.00     0.002 A 
ATOM      3  C5  UNL d   1      -5.677   4.106   1.202  0.00  0.00     0.002 A 
ATOM      4  C6  UNL d   1      -4.800   5.087   0.745  0.00  0.00    -0.004 A 
ATOM      5  C7  UNL d   1      -4.249   5.998   1.644  0.00  0.00     0.002 A 
ATOM      6  C8  UNL d   1      -4.567   5.922   3.002  0.00  0.00     0.002 A 
ENDROOT
BRANCH   1   7
ATOM      7  C2  UNL d   1      -5.759   4.837   4.947  0.00  0.00     0.056 C 
BRANCH   7   8
ATOM      8  C1  UNL d   1      -5.047   3.688   5.668  0.00  0.00     0.007 C 
ATOM      9  C   UNL d   1      -5.964   2.512   5.975  0.00  0.00     0.009 C 
ENDBRANCH   7   8
ENDBRANCH   1   7
TORSDOF 2
ENDMDL
