MODEL 1
REMARK minimizedAffinity -2.93853235
REMARK minimizedRMSD -1
REMARK  2 active torsions:
REMARK  status: ('A' for Active; 'I' for Inactive)
REMARK    1  A    between atoms: C1_2  and  C2_3 
REMARK    2  A    between atoms: C2_3  and  C3_4 
ROOT
ATOM      1  C3  UNL d   1      -5.374   4.481   4.172  0.00  0.00    -0.075 A 
ATOM      2  C4  UNL d   1      -5.739   5.753   3.707  0.00  0.00     0.002 A 
ATOM      3  C5  UNL d   1      -5.861   5.999   2.339  0.00  0.00     0.002 A 
ATOM      4  C6  UNL d   1      -5.611   4.982   1.421  0.00  0.00    -0.004 A 
ATOM      5  C7  UNL d   1      -5.231   3.719   1.871  0.00  0.00     0.002 A 
ATOM      6  C8  UNL d   1      -5.113   3.469   3.239  0.00  0.00     0.002 A 
ENDROOT
BRANCH   1   7
ATOM      7  C2  UNL d   1      -5.268   4.201   5.652  0.00  0.00     0.056 C 
BRANCH   7   8
ATOM      8  C1  UNL d   1      -5.089   2.718   5.995  0.00  0.00     0.007 C 
ATOM      9  C   UNL d   1      -3.632   2.274   5.994  0.00  0.00     0.009 C 
ENDBRANCH   7   8
ENDBRANCH   1   7
TORSDOF 2
ENDMDL
