MODEL 1
REMARK minimizedAffinity -0.725598872
REMARK minimizedRMSD -1
REMARK  2 active torsions:
REMARK  status: ('A' for Active; 'I' for Inactive)
REMARK    1  A    between atoms: C1_2  and  C2_3 
REMARK    2  A    between atoms: C2_3  and  C3_4 
ROOT
ATOM      1  C3  UNL d   1      -5.712   2.832   4.996  0.00  0.00    -0.075 A 
ATOM      2  C4  UNL d   1      -5.673   2.854   3.595  0.00  0.00     0.002 A 
ATOM      3  C5  UNL d   1      -5.781   4.060   2.902  0.00  0.00     0.002 A 
ATOM      4  C6  UNL d   1      -5.939   5.256   3.600  0.00  0.00    -0.004 A 
ATOM      5  C7  UNL d   1      -5.995   5.244   4.992  0.00  0.00     0.002 A 
ATOM      6  C8  UNL d   1      -5.883   4.038   5.687  0.00  0.00     0.002 A 
ENDROOT
BRANCH   1   7
ATOM      7  C2  UNL d   1      -5.566   1.533   5.753  0.00  0.00     0.056 C 
BRANCH   7   8
ATOM      8  C1  UNL d   1      -4.113   1.109   5.991  0.00  0.00     0.007 C 
ATOM      9  C   UNL d   1      -3.131   2.271   5.923  0.00  0.00     0.009 C 
ENDBRANCH   7   8
ENDBRANCH   1   7
TORSDOF 2
ENDMDL
