MODEL 1
REMARK minimizedAffinity 3.96766853
REMARK minimizedRMSD -1
REMARK  2 active torsions:
REMARK  status: ('A' for Active; 'I' for Inactive)
REMARK    1  A    between atoms: C1_2  and  C2_3 
REMARK    2  A    between atoms: C2_3  and  C3_4 
ROOT
ATOM      1  C3  UNL d   1      -5.311   5.283   1.652  0.00  0.00    -0.075 A 
ATOM      2  C4  UNL d   1      -5.679   6.000   0.504  0.00  0.00     0.002 A 
ATOM      3  C5  UNL d   1      -5.998   5.330  -0.678  0.00  0.00     0.002 A 
ATOM      4  C6  UNL d   1      -5.942   3.939  -0.730  0.00  0.00    -0.004 A 
ATOM      5  C7  UNL d   1      -5.562   3.217   0.399  0.00  0.00     0.002 A 
ATOM      6  C8  UNL d   1      -5.247   3.884   1.584  0.00  0.00     0.002 A 
ENDROOT
BRANCH   1   7
ATOM      7  C2  UNL d   1      -4.994   6.000   2.942  0.00  0.00     0.056 C 
BRANCH   7   8
ATOM      8  C1  UNL d   1      -5.868   5.571   4.125  0.00  0.00     0.007 C 
ATOM      9  C   UNL d   1      -5.221   4.498   4.992  0.00  0.00     0.009 C 
ENDBRANCH   7   8
ENDBRANCH   1   7
TORSDOF 2
ENDMDL
