MODEL 1
REMARK minimizedAffinity -2.74376416
REMARK minimizedRMSD -1
REMARK  2 active torsions:
REMARK  status: ('A' for Active; 'I' for Inactive)
REMARK    1  A    between atoms: C1_2  and  C2_3 
REMARK    2  A    between atoms: C2_3  and  C3_4 
ROOT
ATOM      1  C3  UNL d   1      -5.271   5.279   3.890  0.00  0.00    -0.075 A 
ATOM      2  C4  UNL d   1      -4.703   6.000   4.951  0.00  0.00     0.002 A 
ATOM      3  C5  UNL d   1      -4.056   5.335   5.993  0.00  0.00     0.002 A 
ATOM      4  C6  UNL d   1      -3.977   3.944   5.993  0.00  0.00    -0.004 A 
ATOM      5  C7  UNL d   1      -4.552   3.217   4.953  0.00  0.00     0.002 A 
ATOM      6  C8  UNL d   1      -5.196   3.880   3.907  0.00  0.00     0.002 A 
ENDROOT
BRANCH   1   7
ATOM      7  C2  UNL d   1      -5.946   5.994   2.744  0.00  0.00     0.056 C 
BRANCH   7   8
ATOM      8  C1  UNL d   1      -5.702   5.350   1.376  0.00  0.00     0.007 C 
ATOM      9  C   UNL d   1      -4.562   5.999   0.602  0.00  0.00     0.009 C 
ENDBRANCH   7   8
ENDBRANCH   1   7
TORSDOF 2
ENDMDL
