MODEL 1
REMARK minimizedAffinity -3.22783923
REMARK minimizedRMSD -1
REMARK  2 active torsions:
REMARK  status: ('A' for Active; 'I' for Inactive)
REMARK    1  A    between atoms: C1_2  and  C2_3 
REMARK    2  A    between atoms: C2_3  and  C3_4 
ROOT
ATOM      1  C3  UNL d   1      -5.442   4.973   3.202  0.00  0.00    -0.075 A 
ATOM      2  C4  UNL d   1      -5.892   5.998   4.046  0.00  0.00     0.002 A 
ATOM      3  C5  UNL d   1      -6.000   5.788   5.421  0.00  0.00     0.002 A 
ATOM      4  C6  UNL d   1      -5.670   4.549   5.967  0.00  0.00    -0.004 A 
ATOM      5  C7  UNL d   1      -5.238   3.518   5.136  0.00  0.00     0.002 A 
ATOM      6  C8  UNL d   1      -5.125   3.727   3.760  0.00  0.00     0.002 A 
ENDROOT
BRANCH   1   7
ATOM      7  C2  UNL d   1      -5.295   5.203   1.717  0.00  0.00     0.056 C 
BRANCH   7   8
ATOM      8  C1  UNL d   1      -4.907   3.949   0.926  0.00  0.00     0.007 C 
ATOM      9  C   UNL d   1      -5.999   3.476  -0.023  0.00  0.00     0.009 C 
ENDBRANCH   7   8
ENDBRANCH   1   7
TORSDOF 2
ENDMDL
