MODEL 1
REMARK minimizedAffinity -2.91009378
REMARK minimizedRMSD -1
REMARK  2 active torsions:
REMARK  status: ('A' for Active; 'I' for Inactive)
REMARK    1  A    between atoms: C1_2  and  C2_3 
REMARK    2  A    between atoms: C2_3  and  C3_4 
ROOT
ATOM      1  C3  UNL d   1      -5.396   4.114   4.397  0.00  0.00    -0.075 A 
ATOM      2  C4  UNL d   1      -5.967   5.385   4.242  0.00  0.00     0.002 A 
ATOM      3  C5  UNL d   1      -6.000   5.999   2.989  0.00  0.00     0.002 A 
ATOM      4  C6  UNL d   1      -5.455   5.355   1.880  0.00  0.00    -0.004 A 
ATOM      5  C7  UNL d   1      -4.871   4.099   2.026  0.00  0.00     0.002 A 
ATOM      6  C8  UNL d   1      -4.840   3.481   3.277  0.00  0.00     0.002 A 
ENDROOT
BRANCH   1   7
ATOM      7  C2  UNL d   1      -5.383   3.431   5.744  0.00  0.00     0.056 C 
BRANCH   7   8
ATOM      8  C1  UNL d   1      -4.256   2.408   5.915  0.00  0.00     0.007 C 
ATOM      9  C   UNL d   1      -4.756   0.972   6.000  0.00  0.00     0.009 C 
ENDBRANCH   7   8
ENDBRANCH   1   7
TORSDOF 2
ENDMDL
