MODEL 1
REMARK minimizedAffinity -2.16197753
REMARK minimizedRMSD -1
REMARK  2 active torsions:
REMARK  status: ('A' for Active; 'I' for Inactive)
REMARK    1  A    between atoms: C1_2  and  C2_3 
REMARK    2  A    between atoms: C2_3  and  C3_4 
ROOT
ATOM      1  C3  UNL d   1      -4.732   4.770   3.933  0.00  0.00    -0.075 A 
ATOM      2  C4  UNL d   1      -5.064   5.961   3.270  0.00  0.00     0.002 A 
ATOM      3  C5  UNL d   1      -5.131   6.000   1.877  0.00  0.00     0.002 A 
ATOM      4  C6  UNL d   1      -4.859   4.856   1.130  0.00  0.00    -0.004 A 
ATOM      5  C7  UNL d   1      -4.512   3.672   1.778  0.00  0.00     0.002 A 
ATOM      6  C8  UNL d   1      -4.448   3.628   3.172  0.00  0.00     0.002 A 
ENDROOT
BRANCH   1   7
ATOM      7  C2  UNL d   1      -4.685   4.714   5.441  0.00  0.00     0.056 C 
BRANCH   7   8
ATOM      8  C1  UNL d   1      -4.187   3.377   6.000  0.00  0.00     0.007 C 
ATOM      9  C   UNL d   1      -5.254   2.290   6.000  0.00  0.00     0.009 C 
ENDBRANCH   7   8
ENDBRANCH   1   7
TORSDOF 2
ENDMDL
