MODEL 1
REMARK minimizedAffinity 6.87859249
REMARK minimizedRMSD -1
REMARK  1 active torsions:
REMARK  status: ('A' for Active; 'I' for Inactive)
REMARK    1  A    between atoms: N_2  and  C1_3 
ROOT
ATOM      1  C1  UNL d   1       2.191  -0.067   4.457  0.00  0.00     0.143 A 
ATOM      2  C2  UNL d   1       3.225   0.799   4.829  0.00  0.00    -0.057 A 
ATOM      3  C3  UNL d   1       4.318   0.344   5.577  0.00  0.00     0.033 A 
ATOM      4  C4  UNL d   1       4.382  -0.982   5.991  0.00  0.00    -0.042 A 
ATOM      5  C5  UNL d   1       3.353  -1.854   5.653  0.00  0.00     0.033 A 
ATOM      6  C6  UNL d   1       2.267  -1.396   4.901  0.00  0.00    -0.057 A 
ENDROOT
BRANCH   1   7
ATOM      7  N   UNL d   1       1.030   0.347   3.799  0.00  0.00    -0.732 N 
ATOM      8  C   UNL d   1       0.711  -0.156   2.479  0.00  0.00     0.284 C 
ATOM      9  H3  UNL d   1       0.230   0.408   4.424  0.00  0.00     0.395 HD
ENDBRANCH   1   7
TORSDOF 1
ENDMDL
