MODEL 1
REMARK minimizedAffinity 9.8346405
REMARK minimizedRMSD -1
REMARK  1 active torsions:
REMARK  status: ('A' for Active; 'I' for Inactive)
REMARK    1  A    between atoms: N_2  and  C1_3 
ROOT
ATOM      1  C1  UNL d   1      -5.893   3.405  -0.125  0.00  0.00     0.143 A 
ATOM      2  C2  UNL d   1      -5.889   3.475  -1.522  0.00  0.00    -0.057 A 
ATOM      3  C3  UNL d   1      -5.912   4.706  -2.188  0.00  0.00     0.033 A 
ATOM      4  C4  UNL d   1      -5.967   5.893  -1.464  0.00  0.00    -0.042 A 
ATOM      5  C5  UNL d   1      -5.997   5.847  -0.075  0.00  0.00     0.033 A 
ATOM      6  C6  UNL d   1      -5.968   4.614   0.584  0.00  0.00    -0.057 A 
ENDROOT
BRANCH   1   7
ATOM      7  N   UNL d   1      -5.972   2.209   0.594  0.00  0.00    -0.732 N 
ATOM      8  C   UNL d   1      -4.782   1.609   1.159  0.00  0.00     0.284 C 
ATOM      9  H3  UNL d   1      -6.785   2.176   1.205  0.00  0.00     0.395 HD
ENDBRANCH   1   7
TORSDOF 1
ENDMDL
