MODEL 1
REMARK minimizedAffinity 6.97948551
REMARK minimizedRMSD -1
REMARK  1 active torsions:
REMARK  status: ('A' for Active; 'I' for Inactive)
REMARK    1  A    between atoms: N_2  and  C1_3 
ROOT
ATOM      1  C1  UNL d   1      -4.200   1.041  -0.173  0.00  0.00     0.143 A 
ATOM      2  C2  UNL d   1      -3.896  -0.272  -0.548  0.00  0.00    -0.057 A 
ATOM      3  C3  UNL d   1      -3.084  -1.086   0.251  0.00  0.00     0.033 A 
ATOM      4  C4  UNL d   1      -2.536  -0.590   1.429  0.00  0.00    -0.042 A 
ATOM      5  C5  UNL d   1      -2.804   0.720   1.809  0.00  0.00     0.033 A 
ATOM      6  C6  UNL d   1      -3.621   1.526   1.011  0.00  0.00    -0.057 A 
ENDROOT
BRANCH   1   7
ATOM      7  N   UNL d   1      -4.920   1.931  -0.972  0.00  0.00    -0.732 N 
ATOM      8  C   UNL d   1      -4.699   3.358  -0.870  0.00  0.00     0.284 C 
ATOM      9  H3  UNL d   1      -5.030   1.595  -1.926  0.00  0.00     0.395 HD
ENDBRANCH   1   7
TORSDOF 1
ENDMDL
