MODEL 1
REMARK minimizedAffinity 9.46556854
REMARK minimizedRMSD -1
REMARK  1 active torsions:
REMARK  status: ('A' for Active; 'I' for Inactive)
REMARK    1  A    between atoms: N_2  and  C1_3 
ROOT
ATOM      1  C1  UNL d   1       0.158  -0.881  -3.346  0.00  0.00     0.143 A 
ATOM      2  C2  UNL d   1      -0.702  -1.229  -4.394  0.00  0.00    -0.057 A 
ATOM      3  C3  UNL d   1      -1.674  -2.224  -4.236  0.00  0.00     0.033 A 
ATOM      4  C4  UNL d   1      -1.785  -2.911  -3.031  0.00  0.00    -0.042 A 
ATOM      5  C5  UNL d   1      -0.925  -2.599  -1.984  0.00  0.00     0.033 A 
ATOM      6  C6  UNL d   1       0.040  -1.600  -2.147  0.00  0.00    -0.057 A 
ENDROOT
BRANCH   1   7
ATOM      7  N   UNL d   1       1.209   0.030  -3.473  0.00  0.00    -0.732 N 
ATOM      8  C   UNL d   1       2.535  -0.420  -3.840  0.00  0.00     0.284 C 
ATOM      9  H3  UNL d   1       0.922   0.893  -3.929  0.00  0.00     0.395 HD
ENDBRANCH   1   7
TORSDOF 1
ENDMDL
