MODEL 1
REMARK minimizedAffinity -0.975209177
REMARK minimizedRMSD -1
REMARK  0 active torsions:
REMARK  status: ('A' for Active; 'I' for Inactive)
ROOT
ATOM      1  C1  BNZ d   1      -0.337  -5.963   2.009  0.00  0.00     0.000 A 
ATOM      2  C2  BNZ d   1      -0.732  -5.952   3.320  0.00  0.00     0.000 A 
ATOM      3  C3  BNZ d   1      -2.057  -5.989   3.652  0.00  0.00     0.000 A 
ATOM      4  C4  BNZ d   1      -2.986  -5.995   2.674  0.00  0.00     0.000 A 
ATOM      5  C5  BNZ d   1      -2.604  -5.997   1.347  0.00  0.00     0.000 A 
ATOM      6  C6  BNZ d   1      -1.268  -6.000   1.017  0.00  0.00     0.000 A 
ENDROOT
TORSDOF 0
ENDMDL
