MODEL 1
REMARK minimizedAffinity 1.17447555
REMARK minimizedRMSD -1
REMARK  0 active torsions:
REMARK  status: ('A' for Active; 'I' for Inactive)
ROOT
ATOM      1  C1  BNZ d   1      -0.478  -5.995   1.229  0.00  0.00     0.000 A 
ATOM      2  C2  BNZ d   1      -1.575  -6.000   0.410  0.00  0.00     0.000 A 
ATOM      3  C3  BNZ d   1      -2.839  -5.980   0.931  0.00  0.00     0.000 A 
ATOM      4  C4  BNZ d   1      -3.004  -5.995   2.270  0.00  0.00     0.000 A 
ATOM      5  C5  BNZ d   1      -1.908  -6.000   3.109  0.00  0.00     0.000 A 
ATOM      6  C6  BNZ d   1      -0.637  -5.981   2.581  0.00  0.00     0.000 A 
ENDROOT
TORSDOF 0
ENDMDL
