MODEL 1
REMARK minimizedAffinity 4.83976555
REMARK minimizedRMSD -1
REMARK  0 active torsions:
REMARK  status: ('A' for Active; 'I' for Inactive)
ROOT
ATOM      1  C1  BNZ d   1      -2.499  -1.801  -2.548  0.00  0.00     0.000 A 
ATOM      2  C2  BNZ d   1      -2.635  -3.083  -3.010  0.00  0.00     0.000 A 
ATOM      3  C3  BNZ d   1      -1.784  -3.579  -3.959  0.00  0.00     0.000 A 
ATOM      4  C4  BNZ d   1      -0.826  -2.781  -4.472  0.00  0.00     0.000 A 
ATOM      5  C5  BNZ d   1      -0.682  -1.484  -4.023  0.00  0.00     0.000 A 
ATOM      6  C6  BNZ d   1      -1.515  -1.000  -3.040  0.00  0.00     0.000 A 
ENDROOT
TORSDOF 0
ENDMDL
