MODEL 1
REMARK minimizedAffinity 2.70877671
REMARK minimizedRMSD -1
REMARK  0 active torsions:
REMARK  status: ('A' for Active; 'I' for Inactive)
ROOT
ATOM      1  C1  BNZ d   1       0.017  -6.000   4.083  0.00  0.00     0.000 A 
ATOM      2  C2  BNZ d   1       0.780  -5.999   5.220  0.00  0.00     0.000 A 
ATOM      3  C3  BNZ d   1       1.855  -5.163   5.341  0.00  0.00     0.000 A 
ATOM      4  C4  BNZ d   1       2.189  -4.360   4.311  0.00  0.00     0.000 A 
ATOM      5  C5  BNZ d   1       1.435  -4.356   3.154  0.00  0.00     0.000 A 
ATOM      6  C6  BNZ d   1       0.331  -5.170   3.052  0.00  0.00     0.000 A 
ENDROOT
TORSDOF 0
ENDMDL
