MODEL 1
REMARK minimizedAffinity 1.87571955
REMARK minimizedRMSD -1
REMARK  0 active torsions:
REMARK  status: ('A' for Active; 'I' for Inactive)
ROOT
ATOM      1  C1  BNZ d   1       3.736   1.508  -5.615  0.00  0.00     0.000 A 
ATOM      2  C2  BNZ d   1       4.785   2.299  -6.000  0.00  0.00     0.000 A 
ATOM      3  C3  BNZ d   1       5.925   2.364  -5.249  0.00  0.00     0.000 A 
ATOM      4  C4  BNZ d   1       6.000   1.670  -4.095  0.00  0.00     0.000 A 
ATOM      5  C5  BNZ d   1       4.946   0.876  -3.688  0.00  0.00     0.000 A 
ATOM      6  C6  BNZ d   1       3.815   0.783  -4.466  0.00  0.00     0.000 A 
ENDROOT
TORSDOF 0
ENDMDL
