MODEL 1
REMARK minimizedAffinity 1.71589041
REMARK minimizedRMSD -1
REMARK  0 active torsions:
REMARK  status: ('A' for Active; 'I' for Inactive)
ROOT
ATOM      1  C1  BNZ d   1      -0.569   0.875   2.471  0.00  0.00     0.000 A 
ATOM      2  C2  BNZ d   1      -1.305   0.153   3.372  0.00  0.00     0.000 A 
ATOM      3  C3  BNZ d   1      -1.605  -1.160   3.138  0.00  0.00     0.000 A 
ATOM      4  C4  BNZ d   1      -1.204  -1.737   1.987  0.00  0.00     0.000 A 
ATOM      5  C5  BNZ d   1      -0.470  -1.019   1.064  0.00  0.00     0.000 A 
ATOM      6  C6  BNZ d   1      -0.137   0.291   1.320  0.00  0.00     0.000 A 
ENDROOT
TORSDOF 0
ENDMDL
