MODEL 1
REMARK minimizedAffinity 1.9663285
REMARK minimizedRMSD -1
REMARK  0 active torsions:
REMARK  status: ('A' for Active; 'I' for Inactive)
ROOT
ATOM      1  C1  BNZ d   1      -2.122  -1.698  -3.436  0.00  0.00     0.000 A 
ATOM      2  C2  BNZ d   1      -0.974  -1.094  -3.874  0.00  0.00     0.000 A 
ATOM      3  C3  BNZ d   1      -0.001  -1.815  -4.508  0.00  0.00     0.000 A 
ATOM      4  C4  BNZ d   1      -0.159  -3.145  -4.666  0.00  0.00     0.000 A 
ATOM      5  C5  BNZ d   1      -1.307  -3.771  -4.221  0.00  0.00     0.000 A 
ATOM      6  C6  BNZ d   1      -2.301  -3.035  -3.619  0.00  0.00     0.000 A 
ENDROOT
TORSDOF 0
ENDMDL
