MODEL 1
REMARK minimizedAffinity 1.1573987
REMARK minimizedRMSD -1
REMARK  0 active torsions:
REMARK  status: ('A' for Active; 'I' for Inactive)
ROOT
ATOM      1  C1  BNZ d   1       1.225  -5.972   3.999  0.00  0.00     0.000 A 
ATOM      2  C2  BNZ d   1      -0.120  -5.966   4.258  0.00  0.00     0.000 A 
ATOM      3  C3  BNZ d   1      -1.030  -5.998   3.239  0.00  0.00     0.000 A 
ATOM      4  C4  BNZ d   1      -0.595  -5.995   1.962  0.00  0.00     0.000 A 
ATOM      5  C5  BNZ d   1       0.757  -5.992   1.684  0.00  0.00     0.000 A 
ATOM      6  C6  BNZ d   1       1.671  -6.000   2.713  0.00  0.00     0.000 A 
ENDROOT
TORSDOF 0
ENDMDL
