MODEL 1
REMARK minimizedAffinity 5.2308836
REMARK minimizedRMSD -1
REMARK  0 active torsions:
REMARK  status: ('A' for Active; 'I' for Inactive)
ROOT
ATOM      1  C1  BNZ d   1       0.174   0.988   1.314  0.00  0.00     0.000 A 
ATOM      2  C2  BNZ d   1       0.089  -0.267   0.773  0.00  0.00     0.000 A 
ATOM      3  C3  BNZ d   1      -0.673  -1.236   1.365  0.00  0.00     0.000 A 
ATOM      4  C4  BNZ d   1      -1.315  -0.960   2.518  0.00  0.00     0.000 A 
ATOM      5  C5  BNZ d   1      -1.233   0.297   3.082  0.00  0.00     0.000 A 
ATOM      6  C6  BNZ d   1      -0.497   1.281   2.462  0.00  0.00     0.000 A 
ENDROOT
TORSDOF 0
ENDMDL
