MODEL 1
REMARK minimizedAffinity 4.44161654
REMARK minimizedRMSD -1
REMARK  0 active torsions:
REMARK  status: ('A' for Active; 'I' for Inactive)
ROOT
ATOM      1  C1  BNZ d   1      -5.820   1.639   5.815  0.00  0.00     0.000 A 
ATOM      2  C2  BNZ d   1      -6.000   2.148   4.556  0.00  0.00     0.000 A 
ATOM      3  C3  BNZ d   1      -6.000   1.328   3.463  0.00  0.00     0.000 A 
ATOM      4  C4  BNZ d   1      -5.779   0.007   3.625  0.00  0.00     0.000 A 
ATOM      5  C5  BNZ d   1      -5.586  -0.520   4.886  0.00  0.00     0.000 A 
ATOM      6  C6  BNZ d   1      -5.626   0.303   5.988  0.00  0.00     0.000 A 
ENDROOT
TORSDOF 0
ENDMDL
