MODEL 1
REMARK minimizedAffinity 6.72074938
REMARK minimizedRMSD -1
REMARK  0 active torsions:
REMARK  status: ('A' for Active; 'I' for Inactive)
ROOT
ATOM      1  C1  BNZ d   1      -5.269  -1.127   5.999  0.00  0.00     0.000 A 
ATOM      2  C2  BNZ d   1      -5.332   0.241   6.000  0.00  0.00     0.000 A 
ATOM      3  C3  BNZ d   1      -5.388   0.940   4.826  0.00  0.00     0.000 A 
ATOM      4  C4  BNZ d   1      -5.340   0.273   3.655  0.00  0.00     0.000 A 
ATOM      5  C5  BNZ d   1      -5.267  -1.106   3.638  0.00  0.00     0.000 A 
ATOM      6  C6  BNZ d   1      -5.250  -1.808   4.821  0.00  0.00     0.000 A 
ENDROOT
TORSDOF 0
ENDMDL
