MODEL 1
REMARK minimizedAffinity 3.49050903
REMARK minimizedRMSD -1
REMARK  0 active torsions:
REMARK  status: ('A' for Active; 'I' for Inactive)
ROOT
ATOM      1  C1  BNZ d   1      -0.365  -5.994   4.269  0.00  0.00     0.000 A 
ATOM      2  C2  BNZ d   1       0.798  -6.000   3.547  0.00  0.00     0.000 A 
ATOM      3  C3  BNZ d   1       0.773  -5.976   2.180  0.00  0.00     0.000 A 
ATOM      4  C4  BNZ d   1      -0.413  -5.986   1.538  0.00  0.00     0.000 A 
ATOM      5  C5  BNZ d   1      -1.595  -5.990   2.253  0.00  0.00     0.000 A 
ATOM      6  C6  BNZ d   1      -1.566  -5.975   3.629  0.00  0.00     0.000 A 
ENDROOT
TORSDOF 0
ENDMDL
