MODEL 1
REMARK minimizedAffinity 5.47049189
REMARK minimizedRMSD -1
REMARK  0 active torsions:
REMARK  status: ('A' for Active; 'I' for Inactive)
ROOT
ATOM      1  C1  BNZ d   1      -1.572  -1.152   2.515  0.00  0.00     0.000 A 
ATOM      2  C2  BNZ d   1      -1.232   0.125   2.876  0.00  0.00     0.000 A 
ATOM      3  C3  BNZ d   1      -0.441   0.893   2.068  0.00  0.00     0.000 A 
ATOM      4  C4  BNZ d   1       0.042   0.372   0.922  0.00  0.00     0.000 A 
ATOM      5  C5  BNZ d   1      -0.284  -0.917   0.549  0.00  0.00     0.000 A 
ATOM      6  C6  BNZ d   1      -1.113  -1.674   1.345  0.00  0.00     0.000 A 
ENDROOT
TORSDOF 0
ENDMDL
