MODEL 1
REMARK minimizedAffinity 0.606959045
REMARK minimizedRMSD -1
REMARK  0 active torsions:
REMARK  status: ('A' for Active; 'I' for Inactive)
ROOT
ATOM      1  C1  BNZ d   1      -5.999   1.813   3.055  0.00  0.00     0.000 A 
ATOM      2  C2  BNZ d   1      -6.000   2.981   3.769  0.00  0.00     0.000 A 
ATOM      3  C3  BNZ d   1      -5.750   2.980   5.113  0.00  0.00     0.000 A 
ATOM      4  C4  BNZ d   1      -5.541   1.809   5.748  0.00  0.00     0.000 A 
ATOM      5  C5  BNZ d   1      -5.546   0.621   5.043  0.00  0.00     0.000 A 
ATOM      6  C6  BNZ d   1      -5.759   0.630   3.684  0.00  0.00     0.000 A 
ENDROOT
TORSDOF 0
ENDMDL
