MODEL 1
REMARK minimizedAffinity 2.57045555
REMARK minimizedRMSD -1
REMARK  0 active torsions:
REMARK  status: ('A' for Active; 'I' for Inactive)
ROOT
ATOM      1  C1  BNZ d   1      -0.280  -5.999   3.406  0.00  0.00     0.000 A 
ATOM      2  C2  BNZ d   1       1.089  -6.000   3.455  0.00  0.00     0.000 A 
ATOM      3  C3  BNZ d   1       1.831  -5.975   2.307  0.00  0.00     0.000 A 
ATOM      4  C4  BNZ d   1       1.205  -5.991   1.113  0.00  0.00     0.000 A 
ATOM      5  C5  BNZ d   1      -0.174  -6.000   1.047  0.00  0.00     0.000 A 
ATOM      6  C6  BNZ d   1      -0.918  -5.985   2.204  0.00  0.00     0.000 A 
ENDROOT
TORSDOF 0
ENDMDL
