MODEL 1
REMARK minimizedAffinity 3.25787497
REMARK minimizedRMSD -1
REMARK  0 active torsions:
REMARK  status: ('A' for Active; 'I' for Inactive)
ROOT
ATOM      1  C1  BNZ d   1      -0.068   0.583   2.308  0.00  0.00     0.000 A 
ATOM      2  C2  BNZ d   1      -0.839  -0.205   3.120  0.00  0.00     0.000 A 
ATOM      3  C3  BNZ d   1      -1.082  -1.512   2.801  0.00  0.00     0.000 A 
ATOM      4  C4  BNZ d   1      -0.587  -2.018   1.653  0.00  0.00     0.000 A 
ATOM      5  C5  BNZ d   1       0.185  -1.233   0.819  0.00  0.00     0.000 A 
ATOM      6  C6  BNZ d   1       0.459   0.071   1.162  0.00  0.00     0.000 A 
ENDROOT
TORSDOF 0
ENDMDL
