MODEL 1
REMARK minimizedAffinity -5.29166079
REMARK minimizedRMSD -1
REMARK  3 active torsions:
REMARK  status: ('A' for Active; 'I' for Inactive)
REMARK    1  A    between atoms: C3'_2  and  C2'_3 
REMARK    2  A    between atoms: C2'_3  and  C1'_4 
REMARK    3  A    between atoms: C1'_4  and  C1_5 
ROOT
ATOM      1  C1  N4B d   1      -0.642   0.140   0.504  0.00  0.00    -0.075 A 
ATOM      2  C2  N4B d   1      -0.950  -0.878   1.433  0.00  0.00     0.002 A 
ATOM      3  C3  N4B d   1      -0.755  -2.196   1.097  0.00  0.00     0.002 A 
ATOM      4  C4  N4B d   1      -0.273  -2.518  -0.163  0.00  0.00    -0.004 A 
ATOM      5  C5  N4B d   1       0.047  -1.527  -1.044  0.00  0.00     0.002 A 
ATOM      6  C6  N4B d   1      -0.140  -0.199  -0.719  0.00  0.00     0.002 A 
ENDROOT
BRANCH   1   7
ATOM      7  C1' N4B d   1      -0.919   1.590   0.795  0.00  0.00     0.057 C 
BRANCH   7   8
ATOM      8  C2' N4B d   1       0.064   2.454   0.011  0.00  0.00     0.009 C 
BRANCH   8   9
ATOM      9  C3' N4B d   1       0.569   3.628   0.832  0.00  0.00     0.004 C 
ATOM     10  C4' N4B d   1       2.066   3.686   0.902  0.00  0.00     0.003 C 
ENDBRANCH   8   9
ENDBRANCH   7   8
ENDBRANCH   1   7
TORSDOF 3
ENDMDL
