MODEL 1
REMARK minimizedAffinity -4.32343674
REMARK minimizedRMSD -1
REMARK  3 active torsions:
REMARK  status: ('A' for Active; 'I' for Inactive)
REMARK    1  A    between atoms: C3'_2  and  C2'_3 
REMARK    2  A    between atoms: C2'_3  and  C1'_4 
REMARK    3  A    between atoms: C1'_4  and  C1_5 
ROOT
ATOM      1  C1  N4B d   1      -0.366   0.082   0.238  0.00  0.00    -0.075 A 
ATOM      2  C2  N4B d   1      -1.178  -0.624   1.153  0.00  0.00     0.002 A 
ATOM      3  C3  N4B d   1      -1.081  -1.991   1.244  0.00  0.00     0.002 A 
ATOM      4  C4  N4B d   1      -0.197  -2.672   0.420  0.00  0.00    -0.004 A 
ATOM      5  C5  N4B d   1       0.601  -1.980  -0.443  0.00  0.00     0.002 A 
ATOM      6  C6  N4B d   1       0.517  -0.606  -0.542  0.00  0.00     0.002 A 
ENDROOT
BRANCH   1   7
ATOM      7  C1' N4B d   1      -0.498   1.568   0.042  0.00  0.00     0.057 C 
BRANCH   7   8
ATOM      8  C2' N4B d   1       0.877   2.214   0.178  0.00  0.00     0.009 C 
BRANCH   8   9
ATOM      9  C3' N4B d   1       0.788   3.633   0.713  0.00  0.00     0.004 C 
ATOM     10  C4' N4B d   1       2.127   4.206   1.067  0.00  0.00     0.003 C 
ENDBRANCH   8   9
ENDBRANCH   7   8
ENDBRANCH   1   7
TORSDOF 3
ENDMDL
