MODEL 1
REMARK minimizedAffinity -4.68102026
REMARK minimizedRMSD -1
REMARK  3 active torsions:
REMARK  status: ('A' for Active; 'I' for Inactive)
REMARK    1  A    between atoms: C3'_2  and  C2'_3 
REMARK    2  A    between atoms: C2'_3  and  C1'_4 
REMARK    3  A    between atoms: C1'_4  and  C1_5 
ROOT
ATOM      1  C1  N4B d   1      -0.208  -0.260   0.043  0.00  0.00    -0.075 A 
ATOM      2  C2  N4B d   1      -1.339  -0.932   0.555  0.00  0.00     0.002 A 
ATOM      3  C3  N4B d   1      -1.365  -2.305   0.590  0.00  0.00     0.002 A 
ATOM      4  C4  N4B d   1      -0.283  -3.023   0.102  0.00  0.00    -0.004 A 
ATOM      5  C5  N4B d   1       0.816  -2.366  -0.367  0.00  0.00     0.002 A 
ATOM      6  C6  N4B d   1       0.857  -0.987  -0.404  0.00  0.00     0.002 A 
ENDROOT
BRANCH   1   7
ATOM      7  C1' N4B d   1      -0.168   1.238  -0.094  0.00  0.00     0.057 C 
BRANCH   7   8
ATOM      8  C2' N4B d   1       1.206   1.744   0.335  0.00  0.00     0.009 C 
BRANCH   8   9
ATOM      9  C3' N4B d   1       1.157   3.186   0.811  0.00  0.00     0.004 C 
ATOM     10  C4' N4B d   1       2.509   3.833   0.844  0.00  0.00     0.003 C 
ENDBRANCH   8   9
ENDBRANCH   7   8
ENDBRANCH   1   7
TORSDOF 3
ENDMDL
