MODEL 1
REMARK minimizedAffinity -3.50456142
REMARK minimizedRMSD -1
REMARK  3 active torsions:
REMARK  status: ('A' for Active; 'I' for Inactive)
REMARK    1  A    between atoms: C3'_2  and  C2'_3 
REMARK    2  A    between atoms: C2'_3  and  C1'_4 
REMARK    3  A    between atoms: C1'_4  and  C1_5 
ROOT
ATOM      1  C1  N4B d   1       0.695   2.073   0.307  0.00  0.00    -0.075 A 
ATOM      2  C2  N4B d   1       1.103   3.031  -0.646  0.00  0.00     0.002 A 
ATOM      3  C3  N4B d   1       1.510   4.278  -0.237  0.00  0.00     0.002 A 
ATOM      4  C4  N4B d   1       1.499   4.593   1.114  0.00  0.00    -0.004 A 
ATOM      5  C5  N4B d   1       1.127   3.654   2.030  0.00  0.00     0.002 A 
ATOM      6  C6  N4B d   1       0.720   2.396   1.633  0.00  0.00     0.002 A 
ENDROOT
BRANCH   1   7
ATOM      7  C1' N4B d   1       0.160   0.727  -0.098  0.00  0.00     0.057 C 
BRANCH   7   8
ATOM      8  C2' N4B d   1      -1.010   0.359   0.809  0.00  0.00     0.009 C 
BRANCH   8   9
ATOM      9  C3' N4B d   1      -0.698  -0.848   1.677  0.00  0.00     0.004 C 
ATOM     10  C4' N4B d   1      -1.018  -2.148   1.001  0.00  0.00     0.003 C 
ENDBRANCH   8   9
ENDBRANCH   7   8
ENDBRANCH   1   7
TORSDOF 3
ENDMDL
