MODEL 1
REMARK minimizedAffinity -4.07603025
REMARK minimizedRMSD -1
REMARK  3 active torsions:
REMARK  status: ('A' for Active; 'I' for Inactive)
REMARK    1  A    between atoms: C3'_2  and  C2'_3 
REMARK    2  A    between atoms: C2'_3  and  C1'_4 
REMARK    3  A    between atoms: C1'_4  and  C1_5 
ROOT
ATOM      1  C1  N4B d   1      -0.648   0.262   0.051  0.00  0.00    -0.075 A 
ATOM      2  C2  N4B d   1      -0.791  -0.984  -0.598  0.00  0.00     0.002 A 
ATOM      3  C3  N4B d   1      -0.801  -2.144   0.137  0.00  0.00     0.002 A 
ATOM      4  C4  N4B d   1      -0.651  -2.085   1.514  0.00  0.00    -0.004 A 
ATOM      5  C5  N4B d   1      -0.538  -0.876   2.136  0.00  0.00     0.002 A 
ATOM      6  C6  N4B d   1      -0.530   0.298   1.411  0.00  0.00     0.002 A 
ENDROOT
BRANCH   1   7
ATOM      7  C1' N4B d   1      -0.545   1.551  -0.717  0.00  0.00     0.057 C 
BRANCH   7   8
ATOM      8  C2' N4B d   1      -0.008   2.642   0.204  0.00  0.00     0.009 C 
BRANCH   8   9
ATOM      9  C3' N4B d   1       1.415   3.035  -0.150  0.00  0.00     0.004 C 
ATOM     10  C4' N4B d   1       2.341   2.991   1.030  0.00  0.00     0.003 C 
ENDBRANCH   8   9
ENDBRANCH   7   8
ENDBRANCH   1   7
TORSDOF 3
ENDMDL
