MODEL 1
REMARK minimizedAffinity -3.21372032
REMARK minimizedRMSD -1
REMARK  3 active torsions:
REMARK  status: ('A' for Active; 'I' for Inactive)
REMARK    1  A    between atoms: C3'_2  and  C2'_3 
REMARK    2  A    between atoms: C2'_3  and  C1'_4 
REMARK    3  A    between atoms: C1'_4  and  C1_5 
ROOT
ATOM      1  C1  N4B d   1      -0.220  -0.281   0.401  0.00  0.00    -0.075 A 
ATOM      2  C2  N4B d   1      -1.173  -1.272   0.723  0.00  0.00     0.002 A 
ATOM      3  C3  N4B d   1      -1.016  -2.554   0.255  0.00  0.00     0.002 A 
ATOM      4  C4  N4B d   1       0.070  -2.862  -0.550  0.00  0.00    -0.004 A 
ATOM      5  C5  N4B d   1       1.000  -1.905  -0.835  0.00  0.00     0.002 A 
ATOM      6  C6  N4B d   1       0.857  -0.614  -0.368  0.00  0.00     0.002 A 
ENDROOT
BRANCH   1   7
ATOM      7  C1' N4B d   1      -0.394   1.154   0.818  0.00  0.00     0.057 C 
BRANCH   7   8
ATOM      8  C2' N4B d   1       0.415   2.048  -0.116  0.00  0.00     0.009 C 
BRANCH   8   9
ATOM      9  C3' N4B d   1       0.478   3.482   0.384  0.00  0.00     0.004 C 
ATOM     10  C4' N4B d   1       1.882   3.955   0.615  0.00  0.00     0.003 C 
ENDBRANCH   8   9
ENDBRANCH   7   8
ENDBRANCH   1   7
TORSDOF 3
ENDMDL
