MODEL 1
REMARK minimizedAffinity -5.57178926
REMARK minimizedRMSD -1
REMARK  3 active torsions:
REMARK  status: ('A' for Active; 'I' for Inactive)
REMARK    1  A    between atoms: C3'_2  and  C2'_3 
REMARK    2  A    between atoms: C2'_3  and  C1'_4 
REMARK    3  A    between atoms: C1'_4  and  C1_5 
ROOT
ATOM      1  C1  N4B d   1      -0.019  -1.203   0.115  0.00  0.00    -0.075 A 
ATOM      2  C2  N4B d   1      -0.398  -2.305   0.913  0.00  0.00     0.002 A 
ATOM      3  C3  N4B d   1      -0.243  -3.583   0.435  0.00  0.00     0.002 A 
ATOM      4  C4  N4B d   1       0.269  -3.783  -0.838  0.00  0.00    -0.004 A 
ATOM      5  C5  N4B d   1       0.656  -2.714  -1.592  0.00  0.00     0.002 A 
ATOM      6  C6  N4B d   1       0.510  -1.424  -1.124  0.00  0.00     0.002 A 
ENDROOT
BRANCH   1   7
ATOM      7  C1' N4B d   1      -0.249   0.216   0.560  0.00  0.00     0.057 C 
BRANCH   7   8
ATOM      8  C2' N4B d   1       0.314   1.168  -0.491  0.00  0.00     0.009 C 
BRANCH   8   9
ATOM      9  C3' N4B d   1       0.062   2.622  -0.133  0.00  0.00     0.004 C 
ATOM     10  C4' N4B d   1       1.289   3.316   0.379  0.00  0.00     0.003 C 
ENDBRANCH   8   9
ENDBRANCH   7   8
ENDBRANCH   1   7
TORSDOF 3
ENDMDL
