MODEL 1
REMARK minimizedAffinity 3.42634654
REMARK minimizedRMSD -1
REMARK  0 active torsions:
REMARK  status: ('A' for Active; 'I' for Inactive)
ROOT
ATOM      1  C   UNL d   1       4.757   5.548  -2.051  0.00  0.00     0.020 A 
ATOM      2  C1  UNL d   1       5.654   4.480  -2.055  0.00  0.00     0.020 A 
ATOM      3  C2  UNL d   1       6.000   3.863  -3.259  0.00  0.00     0.034 A 
ATOM      4  C3  UNL d   1       5.449   4.314  -4.465  0.00  0.00     0.017 A 
ATOM      5  C4  UNL d   1       4.549   5.386  -4.460  0.00  0.00     0.017 A 
ATOM      6  C5  UNL d   1       4.206   5.999  -3.251  0.00  0.00     0.034 A 
ATOM      7 Cl   UNL d   1       3.829   5.998  -5.907  0.00  0.00    -0.070 Cl
ATOM      8 Cl1  UNL d   1       5.923   3.505  -5.916  0.00  0.00    -0.070 Cl
ENDROOT
TORSDOF 0
ENDMDL
