MODEL 1
REMARK minimizedAffinity 3.76732612
REMARK minimizedRMSD -1
REMARK  0 active torsions:
REMARK  status: ('A' for Active; 'I' for Inactive)
ROOT
ATOM      1  C   UNL d   1      -0.739  -3.704  -3.711  0.00  0.00     0.020 A 
ATOM      2  C1  UNL d   1       0.404  -3.713  -4.510  0.00  0.00     0.020 A 
ATOM      3  C2  UNL d   1       1.528  -2.978  -4.129  0.00  0.00     0.034 A 
ATOM      4  C3  UNL d   1       1.512  -2.230  -2.945  0.00  0.00     0.017 A 
ATOM      5  C4  UNL d   1       0.365  -2.222  -2.144  0.00  0.00     0.017 A 
ATOM      6  C5  UNL d   1      -0.758  -2.960  -2.531  0.00  0.00     0.034 A 
ATOM      7 Cl   UNL d   1       0.270  -1.324  -0.671  0.00  0.00    -0.070 Cl
ATOM      8 Cl1  UNL d   1       2.938  -1.345  -2.535  0.00  0.00    -0.070 Cl
ENDROOT
TORSDOF 0
ENDMDL
