MODEL 1
REMARK minimizedAffinity 7.01008081
REMARK minimizedRMSD -1
REMARK  0 active torsions:
REMARK  status: ('A' for Active; 'I' for Inactive)
ROOT
ATOM      1  C   UNL d   1       2.998  -1.949   3.472  0.00  0.00     0.020 A 
ATOM      2  C1  UNL d   1       2.215  -3.102   3.473  0.00  0.00     0.020 A 
ATOM      3  C2  UNL d   1       2.582  -4.195   4.260  0.00  0.00     0.034 A 
ATOM      4  C3  UNL d   1       3.736  -4.138   5.050  0.00  0.00     0.017 A 
ATOM      5  C4  UNL d   1       4.522  -2.980   5.049  0.00  0.00     0.017 A 
ATOM      6  C5  UNL d   1       4.149  -1.888   4.259  0.00  0.00     0.034 A 
ATOM      7 Cl   UNL d   1       5.959  -2.834   5.998  0.00  0.00    -0.070 Cl
ATOM      8 Cl1  UNL d   1       4.130  -5.527   5.999  0.00  0.00    -0.070 Cl
ENDROOT
TORSDOF 0
ENDMDL
