MODEL 1
REMARK minimizedAffinity 7.47258902
REMARK minimizedRMSD -1
REMARK  0 active torsions:
REMARK  status: ('A' for Active; 'I' for Inactive)
ROOT
ATOM      1  C   UNL d   1       0.172  -4.068  -3.904  0.00  0.00     0.020 A 
ATOM      2  C1  UNL d   1      -1.101  -3.756  -3.430  0.00  0.00     0.020 A 
ATOM      3  C2  UNL d   1      -1.251  -2.867  -2.363  0.00  0.00     0.034 A 
ATOM      4  C3  UNL d   1      -0.126  -2.288  -1.766  0.00  0.00     0.017 A 
ATOM      5  C4  UNL d   1       1.152  -2.602  -2.243  0.00  0.00     0.017 A 
ATOM      6  C5  UNL d   1       1.297  -3.492  -3.311  0.00  0.00     0.034 A 
ATOM      7 Cl   UNL d   1       2.588  -1.926  -1.558  0.00  0.00    -0.070 Cl
ATOM      8 Cl1  UNL d   1      -0.385  -1.197  -0.452  0.00  0.00    -0.070 Cl
ENDROOT
TORSDOF 0
ENDMDL
