MODEL 1
REMARK minimizedAffinity -0.667913973
REMARK minimizedRMSD -1
REMARK  0 active torsions:
REMARK  status: ('A' for Active; 'I' for Inactive)
ROOT
ATOM      1  C   UNL d   1       5.482  -1.453   5.968  0.00  0.00     0.020 A 
ATOM      2  C1  UNL d   1       4.233  -1.216   5.394  0.00  0.00     0.020 A 
ATOM      3  C2  UNL d   1       3.502  -2.275   4.852  0.00  0.00     0.034 A 
ATOM      4  C3  UNL d   1       4.019  -3.576   4.882  0.00  0.00     0.017 A 
ATOM      5  C4  UNL d   1       5.272  -3.812   5.458  0.00  0.00     0.017 A 
ATOM      6  C5  UNL d   1       6.000  -2.748   6.000  0.00  0.00     0.034 A 
ATOM      7 Cl   UNL d   1       5.975  -5.389   5.532  0.00  0.00    -0.070 Cl
ATOM      8 Cl1  UNL d   1       3.060  -4.837   4.193  0.00  0.00    -0.070 Cl
ENDROOT
TORSDOF 0
ENDMDL
