MODEL 1
REMARK minimizedAffinity 3.6492846
REMARK minimizedRMSD -1
REMARK  0 active torsions:
REMARK  status: ('A' for Active; 'I' for Inactive)
ROOT
ATOM      1  C   UNL d   1       5.664  -2.638   2.040  0.00  0.00     0.020 A 
ATOM      2  C1  UNL d   1       4.871  -1.492   2.097  0.00  0.00     0.020 A 
ATOM      3  C2  UNL d   1       4.414  -1.020   3.329  0.00  0.00     0.034 A 
ATOM      4  C3  UNL d   1       4.749  -1.694   4.510  0.00  0.00     0.017 A 
ATOM      5  C4  UNL d   1       5.545  -2.844   4.451  0.00  0.00     0.017 A 
ATOM      6  C5  UNL d   1       6.000  -3.312   3.215  0.00  0.00     0.034 A 
ATOM      7 Cl   UNL d   1       5.999  -3.729   5.865  0.00  0.00    -0.070 Cl
ATOM      8 Cl1  UNL d   1       4.149  -1.054   5.998  0.00  0.00    -0.070 Cl
ENDROOT
TORSDOF 0
ENDMDL
