MODEL 1
REMARK minimizedAffinity 2.52011728
REMARK minimizedRMSD -1
REMARK  0 active torsions:
REMARK  status: ('A' for Active; 'I' for Inactive)
ROOT
ATOM      1  C   UNL d   1       4.485   4.802  -6.000  0.00  0.00     0.020 A 
ATOM      2  C1  UNL d   1       4.451   5.985  -5.263  0.00  0.00     0.020 A 
ATOM      3  C2  UNL d   1       4.897   5.997  -3.940  0.00  0.00     0.034 A 
ATOM      4  C3  UNL d   1       5.379   4.823  -3.349  0.00  0.00     0.017 A 
ATOM      5  C4  UNL d   1       5.412   3.636  -4.089  0.00  0.00     0.017 A 
ATOM      6  C5  UNL d   1       4.964   3.630  -5.414  0.00  0.00     0.034 A 
ATOM      7 Cl   UNL d   1       5.993   2.148  -3.428  0.00  0.00    -0.070 Cl
ATOM      8 Cl1  UNL d   1       5.914   4.911  -1.709  0.00  0.00    -0.070 Cl
ENDROOT
TORSDOF 0
ENDMDL
