MODEL 1
REMARK minimizedAffinity 4.89648628
REMARK minimizedRMSD -1
REMARK  0 active torsions:
REMARK  status: ('A' for Active; 'I' for Inactive)
ROOT
ATOM      1  C   UNL d   1       4.151   5.994  -5.947  0.00  0.00     0.020 A 
ATOM      2  C1  UNL d   1       5.447   5.481  -5.945  0.00  0.00     0.020 A 
ATOM      3  C2  UNL d   1       5.996   4.974  -4.766  0.00  0.00     0.034 A 
ATOM      4  C3  UNL d   1       5.249   4.979  -3.582  0.00  0.00     0.017 A 
ATOM      5  C4  UNL d   1       3.947   5.494  -3.585  0.00  0.00     0.017 A 
ATOM      6  C5  UNL d   1       3.402   6.000  -4.769  0.00  0.00     0.034 A 
ATOM      7 Cl   UNL d   1       2.963   5.533  -2.165  0.00  0.00    -0.070 Cl
ATOM      8 Cl1  UNL d   1       5.991   4.336  -2.161  0.00  0.00    -0.070 Cl
ENDROOT
TORSDOF 0
ENDMDL
