MODEL 1
REMARK minimizedAffinity 1.88096738
REMARK minimizedRMSD -1
REMARK  0 active torsions:
REMARK  status: ('A' for Active; 'I' for Inactive)
ROOT
ATOM      1  C   UNL d   1       0.668  -2.275  -3.056  0.00  0.00     0.020 A 
ATOM      2  C1  UNL d   1       0.142  -2.267  -4.347  0.00  0.00     0.020 A 
ATOM      3  C2  UNL d   1      -0.446  -3.422  -4.868  0.00  0.00     0.034 A 
ATOM      4  C3  UNL d   1      -0.509  -4.589  -4.098  0.00  0.00     0.017 A 
ATOM      5  C4  UNL d   1       0.019  -4.595  -2.802  0.00  0.00     0.017 A 
ATOM      6  C5  UNL d   1       0.607  -3.436  -2.285  0.00  0.00     0.034 A 
ATOM      7 Cl   UNL d   1      -0.022  -5.997  -1.791  0.00  0.00    -0.070 Cl
ATOM      8 Cl1  UNL d   1      -1.251  -5.980  -4.805  0.00  0.00    -0.070 Cl
ENDROOT
TORSDOF 0
ENDMDL
