MODEL 1
REMARK minimizedAffinity 4.98774624
REMARK minimizedRMSD -1
REMARK  0 active torsions:
REMARK  status: ('A' for Active; 'I' for Inactive)
ROOT
ATOM      1  C   UNL d   1       5.970   4.756  -5.261  0.00  0.00     0.020 A 
ATOM      2  C1  UNL d   1       4.756   4.958  -5.917  0.00  0.00     0.020 A 
ATOM      3  C2  UNL d   1       3.572   5.048  -5.183  0.00  0.00     0.034 A 
ATOM      4  C3  UNL d   1       3.598   4.937  -3.788  0.00  0.00     0.017 A 
ATOM      5  C4  UNL d   1       4.817   4.734  -3.130  0.00  0.00     0.017 A 
ATOM      6  C5  UNL d   1       6.000   4.644  -3.870  0.00  0.00     0.034 A 
ATOM      7 Cl   UNL d   1       4.929   4.586  -1.411  0.00  0.00    -0.070 Cl
ATOM      8 Cl1  UNL d   1       2.096   5.059  -2.943  0.00  0.00    -0.070 Cl
ENDROOT
TORSDOF 0
ENDMDL
