MODEL 1
REMARK minimizedAffinity 2.90346885
REMARK minimizedRMSD -1
REMARK  0 active torsions:
REMARK  status: ('A' for Active; 'I' for Inactive)
ROOT
ATOM      1  C   UNL d   1       5.695  -2.907   0.857  0.00  0.00     0.020 A 
ATOM      2  C1  UNL d   1       4.965  -1.733   0.678  0.00  0.00     0.020 A 
ATOM      3  C2  UNL d   1       4.538  -1.000   1.787  0.00  0.00     0.034 A 
ATOM      4  C3  UNL d   1       4.841  -1.441   3.081  0.00  0.00     0.017 A 
ATOM      5  C4  UNL d   1       5.574  -2.619   3.260  0.00  0.00     0.017 A 
ATOM      6  C5  UNL d   1       5.999  -3.349   2.146  0.00  0.00     0.034 A 
ATOM      7 Cl   UNL d   1       5.986  -3.226   4.825  0.00  0.00    -0.070 Cl
ATOM      8 Cl1  UNL d   1       4.281  -0.485   4.407  0.00  0.00    -0.070 Cl
ENDROOT
TORSDOF 0
ENDMDL
