MODEL 1
REMARK minimizedAffinity 7.87524462
REMARK minimizedRMSD -1
REMARK  0 active torsions:
REMARK  status: ('A' for Active; 'I' for Inactive)
ROOT
ATOM      1  C   UNL d   1      -1.472  -2.876  -1.460  0.00  0.00     0.020 A 
ATOM      2  C1  UNL d   1      -0.596  -2.177  -0.630  0.00  0.00     0.020 A 
ATOM      3  C2  UNL d   1       0.616  -1.702  -1.135  0.00  0.00     0.034 A 
ATOM      4  C3  UNL d   1       0.956  -1.926  -2.474  0.00  0.00     0.017 A 
ATOM      5  C4  UNL d   1       0.076  -2.628  -3.307  0.00  0.00     0.017 A 
ATOM      6  C5  UNL d   1      -1.136  -3.101  -2.795  0.00  0.00     0.034 A 
ATOM      7 Cl   UNL d   1       0.427  -2.943  -4.970  0.00  0.00    -0.070 Cl
ATOM      8 Cl1  UNL d   1       2.471  -1.310  -3.032  0.00  0.00    -0.070 Cl
ENDROOT
TORSDOF 0
ENDMDL
