MODEL 1
REMARK minimizedAffinity 6.0932703
REMARK minimizedRMSD -1
REMARK  0 active torsions:
REMARK  status: ('A' for Active; 'I' for Inactive)
ROOT
ATOM      1  C   UNL d   1      -0.727  -2.812  -0.175  0.00  0.00     0.020 A 
ATOM      2  C1  UNL d   1      -1.838  -2.496  -0.957  0.00  0.00     0.020 A 
ATOM      3  C2  UNL d   1      -1.702  -2.357  -2.340  0.00  0.00     0.034 A 
ATOM      4  C3  UNL d   1      -0.452  -2.534  -2.945  0.00  0.00     0.017 A 
ATOM      5  C4  UNL d   1       0.662  -2.850  -2.160  0.00  0.00     0.017 A 
ATOM      6  C5  UNL d   1       0.520  -2.989  -0.776  0.00  0.00     0.034 A 
ATOM      7 Cl   UNL d   1       2.236  -3.083  -2.835  0.00  0.00    -0.070 Cl
ATOM      8 Cl1  UNL d   1      -0.357  -2.347  -4.661  0.00  0.00    -0.070 Cl
ENDROOT
TORSDOF 0
ENDMDL
