MODEL 1
REMARK minimizedAffinity 2.74941039
REMARK minimizedRMSD -1
REMARK  0 active torsions:
REMARK  status: ('A' for Active; 'I' for Inactive)
ROOT
ATOM      1  C   UNL d   1      -0.720  -3.262  -2.623  0.00  0.00     0.020 A 
ATOM      2  C1  UNL d   1      -0.995  -3.271  -1.256  0.00  0.00     0.020 A 
ATOM      3  C2  UNL d   1      -0.068  -2.742  -0.355  0.00  0.00     0.034 A 
ATOM      4  C3  UNL d   1       1.138  -2.204  -0.820  0.00  0.00     0.017 A 
ATOM      5  C4  UNL d   1       1.412  -2.196  -2.192  0.00  0.00     0.017 A 
ATOM      6  C5  UNL d   1       0.480  -2.726  -3.090  0.00  0.00     0.034 A 
ATOM      7 Cl   UNL d   1       2.878  -1.549  -2.840  0.00  0.00    -0.070 Cl
ATOM      8 Cl1  UNL d   1       2.237  -1.568   0.351  0.00  0.00    -0.070 Cl
ENDROOT
TORSDOF 0
ENDMDL
