MODEL 1
REMARK minimizedAffinity 1.84100604
REMARK minimizedRMSD -1
REMARK  0 active torsions:
REMARK  status: ('A' for Active; 'I' for Inactive)
ROOT
ATOM      1  C   UNL d   1       4.882   3.955  -4.883  0.00  0.00     0.020 A 
ATOM      2  C1  UNL d   1       6.000   3.827  -4.060  0.00  0.00     0.020 A 
ATOM      3  C2  UNL d   1       5.987   4.373  -2.775  0.00  0.00     0.034 A 
ATOM      4  C3  UNL d   1       4.854   5.050  -2.309  0.00  0.00     0.017 A 
ATOM      5  C4  UNL d   1       3.732   5.178  -3.137  0.00  0.00     0.017 A 
ATOM      6  C5  UNL d   1       3.751   4.629  -4.423  0.00  0.00     0.034 A 
ATOM      7 Cl   UNL d   1       2.297   6.000  -2.633  0.00  0.00    -0.070 Cl
ATOM      8 Cl1  UNL d   1       4.907   5.701  -0.709  0.00  0.00    -0.070 Cl
ENDROOT
TORSDOF 0
ENDMDL
