MODEL 1
REMARK minimizedAffinity 4.5633564
REMARK minimizedRMSD -1
REMARK  0 active torsions:
REMARK  status: ('A' for Active; 'I' for Inactive)
ROOT
ATOM      1  C   UNL d   1       5.757   4.936  -1.322  0.00  0.00     0.020 A 
ATOM      2  C1  UNL d   1       4.776   5.917  -1.461  0.00  0.00     0.020 A 
ATOM      3  C2  UNL d   1       4.035   6.000  -2.642  0.00  0.00     0.034 A 
ATOM      4  C3  UNL d   1       4.274   5.101  -3.688  0.00  0.00     0.017 A 
ATOM      5  C4  UNL d   1       5.259   4.117  -3.547  0.00  0.00     0.017 A 
ATOM      6  C5  UNL d   1       5.998   4.038  -2.363  0.00  0.00     0.034 A 
ATOM      7 Cl   UNL d   1       5.611   2.973  -4.793  0.00  0.00    -0.070 Cl
ATOM      8 Cl1  UNL d   1       3.319   5.262  -5.119  0.00  0.00    -0.070 Cl
ENDROOT
TORSDOF 0
ENDMDL
