MODEL 1
REMARK minimizedAffinity 3.73476911
REMARK minimizedRMSD -1
REMARK  0 active torsions:
REMARK  status: ('A' for Active; 'I' for Inactive)
ROOT
ATOM      1  C   UNL d   1       4.858  -1.847   5.986  0.00  0.00     0.020 A 
ATOM      2  C1  UNL d   1       5.993  -1.437   5.288  0.00  0.00     0.020 A 
ATOM      3  C2  UNL d   1       5.997  -1.455   3.891  0.00  0.00     0.034 A 
ATOM      4  C3  UNL d   1       4.865  -1.883   3.189  0.00  0.00     0.017 A 
ATOM      5  C4  UNL d   1       3.726  -2.295   3.892  0.00  0.00     0.017 A 
ATOM      6  C5  UNL d   1       3.727  -2.275   5.290  0.00  0.00     0.034 A 
ATOM      7 Cl   UNL d   1       2.291  -2.837   3.095  0.00  0.00    -0.070 Cl
ATOM      8 Cl1  UNL d   1       4.940  -1.879   1.463  0.00  0.00    -0.070 Cl
ENDROOT
TORSDOF 0
ENDMDL
