MODEL 1
REMARK minimizedAffinity 6.93149662
REMARK minimizedRMSD -1
REMARK  2 active torsions:
REMARK  status: ('A' for Active; 'I' for Inactive)
REMARK    1  A    between atoms: C1_2  and  C2_3 
REMARK    2  A    between atoms: C2_3  and  C3_4 
ROOT
ATOM      1  C3  UNL d   1       0.011   1.766   0.764  0.00  0.00    -0.075 A 
ATOM      2  C4  UNL d   1       0.806   2.255   1.811  0.00  0.00     0.002 A 
ATOM      3  C5  UNL d   1       0.233   2.980   2.857  0.00  0.00     0.002 A 
ATOM      4  C6  UNL d   1      -1.136   3.234   2.864  0.00  0.00    -0.004 A 
ATOM      5  C7  UNL d   1      -1.933   2.767   1.821  0.00  0.00     0.002 A 
ATOM      6  C8  UNL d   1      -1.363   2.038   0.776  0.00  0.00     0.002 A 
ENDROOT
BRANCH   1   7
ATOM      7  C2  UNL d   1       0.621   0.956  -0.355  0.00  0.00     0.056 C 
BRANCH   7   8
ATOM      8  C1  UNL d   1       2.152   0.987  -0.385  0.00  0.00     0.007 C 
ATOM      9  C   UNL d   1       2.727   0.883  -1.791  0.00  0.00     0.009 C 
ENDBRANCH   7   8
ENDBRANCH   1   7
TORSDOF 2
ENDMDL
