MODEL 1
REMARK minimizedAffinity -0.414747417
REMARK minimizedRMSD -1
REMARK  2 active torsions:
REMARK  status: ('A' for Active; 'I' for Inactive)
REMARK    1  A    between atoms: C1_2  and  C2_3 
REMARK    2  A    between atoms: C2_3  and  C3_4 
ROOT
ATOM      1  C3  UNL d   1       1.617   1.062   0.602  0.00  0.00    -0.075 A 
ATOM      2  C4  UNL d   1       0.274   1.464   0.607  0.00  0.00     0.002 A 
ATOM      3  C5  UNL d   1      -0.135   2.561   1.366  0.00  0.00     0.002 A 
ATOM      4  C6  UNL d   1       0.790   3.262   2.137  0.00  0.00    -0.004 A 
ATOM      5  C7  UNL d   1       2.124   2.861   2.153  0.00  0.00     0.002 A 
ATOM      6  C8  UNL d   1       2.537   1.767   1.391  0.00  0.00     0.002 A 
ENDROOT
BRANCH   1   7
ATOM      7  C2  UNL d   1       2.071  -0.106  -0.240  0.00  0.00     0.056 C 
BRANCH   7   8
ATOM      8  C1  UNL d   1       2.590   0.290  -1.627  0.00  0.00     0.007 C 
ATOM      9  C   UNL d   1       3.004  -0.904  -2.476  0.00  0.00     0.009 C 
ENDBRANCH   7   8
ENDBRANCH   1   7
TORSDOF 2
ENDMDL
