MODEL 1
REMARK minimizedAffinity 0.755081654
REMARK minimizedRMSD -1
REMARK  2 active torsions:
REMARK  status: ('A' for Active; 'I' for Inactive)
REMARK    1  A    between atoms: C1_2  and  C2_3 
REMARK    2  A    between atoms: C2_3  and  C3_4 
ROOT
ATOM      1  C3  UNL d   1      -2.775   3.552  -5.825  0.00  0.00    -0.075 A 
ATOM      2  C4  UNL d   1      -4.051   2.970  -5.856  0.00  0.00     0.002 A 
ATOM      3  C5  UNL d   1      -5.192   3.768  -5.948  0.00  0.00     0.002 A 
ATOM      4  C6  UNL d   1      -5.073   5.155  -6.000  0.00  0.00    -0.004 A 
ATOM      5  C7  UNL d   1      -3.812   5.745  -5.953  0.00  0.00     0.002 A 
ATOM      6  C8  UNL d   1      -2.668   4.949  -5.866  0.00  0.00     0.002 A 
ENDROOT
BRANCH   1   7
ATOM      7  C2  UNL d   1      -1.535   2.693  -5.756  0.00  0.00     0.056 C 
BRANCH   7   8
ATOM      8  C1  UNL d   1      -0.761   2.821  -4.440  0.00  0.00     0.007 C 
ATOM      9  C   UNL d   1       0.704   2.423  -4.564  0.00  0.00     0.009 C 
ENDBRANCH   7   8
ENDBRANCH   1   7
TORSDOF 2
ENDMDL
