MODEL 1
REMARK minimizedAffinity 2.0310936
REMARK minimizedRMSD -1
REMARK  2 active torsions:
REMARK  status: ('A' for Active; 'I' for Inactive)
REMARK    1  A    between atoms: C1_2  and  C2_3 
REMARK    2  A    between atoms: C2_3  and  C3_4 
ROOT
ATOM      1  C3  UNL d   1       2.558   2.312   1.811  0.00  0.00    -0.075 A 
ATOM      2  C4  UNL d   1       1.195   2.641   1.804  0.00  0.00     0.002 A 
ATOM      3  C5  UNL d   1       0.287   1.881   1.067  0.00  0.00     0.002 A 
ATOM      4  C6  UNL d   1       0.730   0.790   0.322  0.00  0.00    -0.004 A 
ATOM      5  C7  UNL d   1       2.084   0.464   0.309  0.00  0.00     0.002 A 
ATOM      6  C8  UNL d   1       2.995   1.221   1.049  0.00  0.00     0.002 A 
ENDROOT
BRANCH   1   7
ATOM      7  C2  UNL d   1       3.541   3.114   2.630  0.00  0.00     0.056 C 
BRANCH   7   8
ATOM      8  C1  UNL d   1       4.920   3.263   1.978  0.00  0.00     0.007 C 
ATOM      9  C   UNL d   1       6.000   3.714   2.953  0.00  0.00     0.009 C 
ENDBRANCH   7   8
ENDBRANCH   1   7
TORSDOF 2
ENDMDL
