MODEL 1
REMARK minimizedAffinity 3.64904428
REMARK minimizedRMSD -1
REMARK  2 active torsions:
REMARK  status: ('A' for Active; 'I' for Inactive)
REMARK    1  A    between atoms: C1_2  and  C2_3 
REMARK    2  A    between atoms: C2_3  and  C3_4 
ROOT
ATOM      1  C3  UNL d   1       0.230   0.832   0.444  0.00  0.00    -0.075 A 
ATOM      2  C4  UNL d   1      -0.253   2.114   0.743  0.00  0.00     0.002 A 
ATOM      3  C5  UNL d   1      -1.582   2.299   1.126  0.00  0.00     0.002 A 
ATOM      4  C6  UNL d   1      -2.445   1.209   1.207  0.00  0.00    -0.004 A 
ATOM      5  C7  UNL d   1      -1.980  -0.067   0.897  0.00  0.00     0.002 A 
ATOM      6  C8  UNL d   1      -0.650  -0.256   0.517  0.00  0.00     0.002 A 
ENDROOT
BRANCH   1   7
ATOM      7  C2  UNL d   1       1.674   0.621   0.057  0.00  0.00     0.056 C 
BRANCH   7   8
ATOM      8  C1  UNL d   1       1.937   0.722  -1.449  0.00  0.00     0.007 C 
ATOM      9  C   UNL d   1       2.595  -0.523  -2.028  0.00  0.00     0.009 C 
ENDBRANCH   7   8
ENDBRANCH   1   7
TORSDOF 2
ENDMDL
