MODEL 1
REMARK minimizedAffinity 4.68372917
REMARK minimizedRMSD -1
REMARK  2 active torsions:
REMARK  status: ('A' for Active; 'I' for Inactive)
REMARK    1  A    between atoms: C1_2  and  C2_3 
REMARK    2  A    between atoms: C2_3  and  C3_4 
ROOT
ATOM      1  C3  UNL d   1       2.661   2.512   0.751  0.00  0.00    -0.075 A 
ATOM      2  C4  UNL d   1       3.757   2.073  -0.006  0.00  0.00     0.002 A 
ATOM      3  C5  UNL d   1       3.587   1.129  -1.019  0.00  0.00     0.002 A 
ATOM      4  C6  UNL d   1       2.323   0.605  -1.281  0.00  0.00    -0.004 A 
ATOM      5  C7  UNL d   1       1.230   1.021  -0.524  0.00  0.00     0.002 A 
ATOM      6  C8  UNL d   1       1.397   1.969   0.487  0.00  0.00     0.002 A 
ENDROOT
BRANCH   1   7
ATOM      7  C2  UNL d   1       2.834   3.556   1.828  0.00  0.00     0.056 C 
BRANCH   7   8
ATOM      8  C1  UNL d   1       3.372   4.896   1.317  0.00  0.00     0.007 C 
ATOM      9  C   UNL d   1       4.161   5.666   2.368  0.00  0.00     0.009 C 
ENDBRANCH   7   8
ENDBRANCH   1   7
TORSDOF 2
ENDMDL
