MODEL 1
REMARK minimizedAffinity 6.96073771
REMARK minimizedRMSD -1
REMARK  2 active torsions:
REMARK  status: ('A' for Active; 'I' for Inactive)
REMARK    1  A    between atoms: C1_2  and  C2_3 
REMARK    2  A    between atoms: C2_3  and  C3_4 
ROOT
ATOM      1  C3  UNL d   1       0.033   2.391   1.480  0.00  0.00    -0.075 A 
ATOM      2  C4  UNL d   1       1.296   2.762   1.965  0.00  0.00     0.002 A 
ATOM      3  C5  UNL d   1       1.419   3.420   3.189  0.00  0.00     0.002 A 
ATOM      4  C6  UNL d   1       0.284   3.723   3.938  0.00  0.00    -0.004 A 
ATOM      5  C7  UNL d   1      -0.976   3.374   3.458  0.00  0.00     0.002 A 
ATOM      6  C8  UNL d   1      -1.102   2.712   2.235  0.00  0.00     0.002 A 
ENDROOT
BRANCH   1   7
ATOM      7  C2  UNL d   1      -0.105   1.653   0.170  0.00  0.00     0.056 C 
BRANCH   7   8
ATOM      8  C1  UNL d   1       0.007   0.130   0.297  0.00  0.00     0.007 C 
ATOM      9  C   UNL d   1      -1.345  -0.568   0.357  0.00  0.00     0.009 C 
ENDBRANCH   7   8
ENDBRANCH   1   7
TORSDOF 2
ENDMDL
