MODEL 1
REMARK minimizedAffinity 3.43487215
REMARK minimizedRMSD -1
REMARK  2 active torsions:
REMARK  status: ('A' for Active; 'I' for Inactive)
REMARK    1  A    between atoms: C1_2  and  C2_3 
REMARK    2  A    between atoms: C2_3  and  C3_4 
ROOT
ATOM      1  C3  UNL d   1      -1.848  -2.646  -0.876  0.00  0.00    -0.075 A 
ATOM      2  C4  UNL d   1      -0.935  -3.705  -0.987  0.00  0.00     0.002 A 
ATOM      3  C5  UNL d   1      -1.373  -5.028  -0.916  0.00  0.00     0.002 A 
ATOM      4  C6  UNL d   1      -2.724  -5.308  -0.725  0.00  0.00    -0.004 A 
ATOM      5  C7  UNL d   1      -3.638  -4.264  -0.598  0.00  0.00     0.002 A 
ATOM      6  C8  UNL d   1      -3.203  -2.939  -0.672  0.00  0.00     0.002 A 
ENDROOT
BRANCH   1   7
ATOM      7  C2  UNL d   1      -1.385  -1.213  -0.981  0.00  0.00     0.056 C 
BRANCH   7   8
ATOM      8  C1  UNL d   1      -1.122  -0.542   0.372  0.00  0.00     0.007 C 
ATOM      9  C   UNL d   1      -1.984   0.691   0.607  0.00  0.00     0.009 C 
ENDBRANCH   7   8
ENDBRANCH   1   7
TORSDOF 2
ENDMDL
