MODEL 1
REMARK minimizedAffinity -0.187556699
REMARK minimizedRMSD -1
REMARK  2 active torsions:
REMARK  status: ('A' for Active; 'I' for Inactive)
REMARK    1  A    between atoms: C1_2  and  C2_3 
REMARK    2  A    between atoms: C2_3  and  C3_4 
ROOT
ATOM      1  C3  UNL d   1      -3.014   0.052   1.273  0.00  0.00    -0.075 A 
ATOM      2  C4  UNL d   1      -1.727  -0.472   1.463  0.00  0.00     0.002 A 
ATOM      3  C5  UNL d   1      -0.603   0.239   1.039  0.00  0.00     0.002 A 
ATOM      4  C6  UNL d   1      -0.752   1.474   0.413  0.00  0.00    -0.004 A 
ATOM      5  C7  UNL d   1      -2.027   1.996   0.204  0.00  0.00     0.002 A 
ATOM      6  C8  UNL d   1      -3.152   1.290   0.631  0.00  0.00     0.002 A 
ENDROOT
BRANCH   1   7
ATOM      7  C2  UNL d   1      -4.232  -0.699   1.755  0.00  0.00     0.056 C 
BRANCH   7   8
ATOM      8  C1  UNL d   1      -4.441  -0.641   3.272  0.00  0.00     0.007 C 
ATOM      9  C   UNL d   1      -5.757  -1.260   3.721  0.00  0.00     0.009 C 
ENDBRANCH   7   8
ENDBRANCH   1   7
TORSDOF 2
ENDMDL
