MODEL 1
REMARK minimizedAffinity -3.5881691
REMARK minimizedRMSD -1
REMARK  0 active torsions:
REMARK  status: ('A' for Active; 'I' for Inactive)
ROOT
ATOM      1  C   UNL d   1       3.422  -0.341   0.428  0.00  0.00     0.077 C 
ATOM      2  C1  UNL d   1       1.953  -0.156   0.188  0.00  0.00    -0.074 A 
ATOM      3  C2  UNL d   1       1.481   0.886  -0.617  0.00  0.00    -0.005 A 
ATOM      4  C3  UNL d   1       0.113   1.039  -0.838  0.00  0.00     0.006 A 
ATOM      5  C4  UNL d   1      -0.797   0.154  -0.258  0.00  0.00    -0.005 A 
ATOM      6  C5  UNL d   1      -0.344  -0.894   0.549  0.00  0.00    -0.074 A 
ATOM      7  C6  UNL d   1      -1.307  -1.860   1.172  0.00  0.00     0.077 C 
ATOM      8  C7  UNL d   1       1.033  -1.046   0.761  0.00  0.00    -0.001 A 
ENDROOT
TORSDOF 0
ENDMDL
