MODEL 1
REMARK minimizedAffinity -4.50307035
REMARK minimizedRMSD -1
REMARK  0 active torsions:
REMARK  status: ('A' for Active; 'I' for Inactive)
ROOT
ATOM      1  C   UNL d   1      -1.474  -0.748   0.380  0.00  0.00     0.077 C 
ATOM      2  C1  UNL d   1      -0.186   0.018   0.325  0.00  0.00    -0.074 A 
ATOM      3  C2  UNL d   1      -0.121   1.271  -0.293  0.00  0.00    -0.005 A 
ATOM      4  C3  UNL d   1       1.082   1.976  -0.328  0.00  0.00     0.006 A 
ATOM      5  C4  UNL d   1       2.230   1.436   0.253  0.00  0.00    -0.005 A 
ATOM      6  C5  UNL d   1       2.184   0.185   0.876  0.00  0.00    -0.074 A 
ATOM      7  C6  UNL d   1       3.406  -0.405   1.514  0.00  0.00     0.077 C 
ATOM      8  C7  UNL d   1       0.970  -0.514   0.913  0.00  0.00    -0.001 A 
ENDROOT
TORSDOF 0
ENDMDL
