MODEL 1
REMARK minimizedAffinity -3.03632259
REMARK minimizedRMSD -1
REMARK  0 active torsions:
REMARK  status: ('A' for Active; 'I' for Inactive)
ROOT
ATOM      1  C   UNL d   1       3.624  -0.640   1.051  0.00  0.00     0.077 C 
ATOM      2  C1  UNL d   1       2.175  -0.486   0.694  0.00  0.00    -0.074 A 
ATOM      3  C2  UNL d   1       1.327  -1.596   0.638  0.00  0.00    -0.005 A 
ATOM      4  C3  UNL d   1      -0.021  -1.436   0.314  0.00  0.00     0.006 A 
ATOM      5  C4  UNL d   1      -0.532  -0.166   0.043  0.00  0.00    -0.005 A 
ATOM      6  C5  UNL d   1       0.301   0.956   0.095  0.00  0.00    -0.074 A 
ATOM      7  C6  UNL d   1      -0.234   2.329  -0.183  0.00  0.00     0.077 C 
ATOM      8  C7  UNL d   1       1.652   0.787   0.429  0.00  0.00    -0.001 A 
ENDROOT
TORSDOF 0
ENDMDL
