MODEL 1
REMARK minimizedAffinity -5.67273092
REMARK minimizedRMSD -1
REMARK  0 active torsions:
REMARK  status: ('A' for Active; 'I' for Inactive)
ROOT
ATOM      1  C   UNL d   1       0.806   1.918  -0.055  0.00  0.00     0.077 C 
ATOM      2  C1  UNL d   1       1.511   0.696   0.455  0.00  0.00    -0.074 A 
ATOM      3  C2  UNL d   1       2.890   0.707   0.687  0.00  0.00    -0.005 A 
ATOM      4  C3  UNL d   1       3.530  -0.434   1.170  0.00  0.00     0.006 A 
ATOM      5  C4  UNL d   1       2.800  -1.595   1.427  0.00  0.00    -0.005 A 
ATOM      6  C5  UNL d   1       1.420  -1.624   1.202  0.00  0.00    -0.074 A 
ATOM      7  C6  UNL d   1       0.618  -2.860   1.482  0.00  0.00     0.077 C 
ATOM      8  C7  UNL d   1       0.782  -0.471   0.723  0.00  0.00    -0.001 A 
ENDROOT
TORSDOF 0
ENDMDL
