MODEL 1
REMARK minimizedAffinity -4.86481619
REMARK minimizedRMSD -1
REMARK  0 active torsions:
REMARK  status: ('A' for Active; 'I' for Inactive)
ROOT
ATOM      1  C   UNL d   1      -0.977  -0.213  -0.059  0.00  0.00     0.077 C 
ATOM      2  C1  UNL d   1       0.235  -0.821   0.583  0.00  0.00    -0.074 A 
ATOM      3  C2  UNL d   1       0.138  -2.001   1.328  0.00  0.00    -0.005 A 
ATOM      4  C3  UNL d   1       1.275  -2.560   1.911  0.00  0.00     0.006 A 
ATOM      5  C4  UNL d   1       2.518  -1.946   1.756  0.00  0.00    -0.005 A 
ATOM      6  C5  UNL d   1       2.635  -0.766   1.014  0.00  0.00    -0.074 A 
ATOM      7  C6  UNL d   1       3.965  -0.098   0.830  0.00  0.00     0.077 C 
ATOM      8  C7  UNL d   1       1.489  -0.214   0.426  0.00  0.00    -0.001 A 
ENDROOT
TORSDOF 0
ENDMDL
