MODEL 1
REMARK minimizedAffinity -3.10386276
REMARK minimizedRMSD -1
REMARK  0 active torsions:
REMARK  status: ('A' for Active; 'I' for Inactive)
ROOT
ATOM      1  C   UNL d   1      -1.126  -1.083  -1.080  0.00  0.00     0.077 C 
ATOM      2  C1  UNL d   1      -0.079  -0.226  -0.432  0.00  0.00    -0.074 A 
ATOM      3  C2  UNL d   1      -0.252   1.157  -0.317  0.00  0.00    -0.005 A 
ATOM      4  C3  UNL d   1       0.726   1.939   0.297  0.00  0.00     0.006 A 
ATOM      5  C4  UNL d   1       1.885   1.348   0.801  0.00  0.00    -0.005 A 
ATOM      6  C5  UNL d   1       2.075  -0.034   0.695  0.00  0.00    -0.074 A 
ATOM      7  C6  UNL d   1       3.311  -0.686   1.240  0.00  0.00     0.077 C 
ATOM      8  C7  UNL d   1       1.085  -0.814   0.084  0.00  0.00    -0.001 A 
ENDROOT
TORSDOF 0
ENDMDL
