MODEL 1
REMARK minimizedAffinity -4.74619865
REMARK minimizedRMSD -1
REMARK  0 active torsions:
REMARK  status: ('A' for Active; 'I' for Inactive)
ROOT
ATOM      1  C   UNL d   1      -2.625   1.094  -3.968  0.00  0.00     0.077 C 
ATOM      2  C1  UNL d   1      -2.605   0.467  -2.606  0.00  0.00    -0.074 A 
ATOM      3  C2  UNL d   1      -3.766  -0.080  -2.050  0.00  0.00    -0.005 A 
ATOM      4  C3  UNL d   1      -3.730  -0.668  -0.785  0.00  0.00     0.006 A 
ATOM      5  C4  UNL d   1      -2.536  -0.715  -0.066  0.00  0.00    -0.005 A 
ATOM      6  C5  UNL d   1      -1.365  -0.174  -0.607  0.00  0.00    -0.074 A 
ATOM      7  C6  UNL d   1      -0.070  -0.226   0.149  0.00  0.00     0.077 C 
ATOM      8  C7  UNL d   1      -1.407   0.409  -1.880  0.00  0.00    -0.001 A 
ENDROOT
TORSDOF 0
ENDMDL
