MODEL 1
REMARK minimizedAffinity -3.92413735
REMARK minimizedRMSD -1
REMARK  0 active torsions:
REMARK  status: ('A' for Active; 'I' for Inactive)
ROOT
ATOM      1  C   UNL d   1       1.763  -0.130   0.290  0.00  0.00     0.077 C 
ATOM      2  C1  UNL d   1       0.325  -0.126  -0.137  0.00  0.00    -0.074 A 
ATOM      3  C2  UNL d   1      -0.656  -0.758   0.633  0.00  0.00    -0.005 A 
ATOM      4  C3  UNL d   1      -1.991  -0.737   0.228  0.00  0.00     0.006 A 
ATOM      5  C4  UNL d   1      -2.357  -0.085  -0.951  0.00  0.00    -0.005 A 
ATOM      6  C5  UNL d   1      -1.390   0.553  -1.734  0.00  0.00    -0.074 A 
ATOM      7  C6  UNL d   1      -1.767   1.266  -2.998  0.00  0.00     0.077 C 
ATOM      8  C7  UNL d   1      -0.052   0.534  -1.316  0.00  0.00    -0.001 A 
ENDROOT
TORSDOF 0
ENDMDL
