MODEL 1
REMARK minimizedAffinity -4.99301195
REMARK minimizedRMSD -1
REMARK  0 active torsions:
REMARK  status: ('A' for Active; 'I' for Inactive)
ROOT
ATOM      1  C   UNL d   1       2.757  -0.531   0.138  0.00  0.00     0.077 C 
ATOM      2  C1  UNL d   1       1.302  -0.823   0.360  0.00  0.00    -0.074 A 
ATOM      3  C2  UNL d   1       0.895  -1.766   1.309  0.00  0.00    -0.005 A 
ATOM      4  C3  UNL d   1      -0.461  -2.019   1.512  0.00  0.00     0.006 A 
ATOM      5  C4  UNL d   1      -1.423  -1.333   0.769  0.00  0.00    -0.005 A 
ATOM      6  C5  UNL d   1      -1.035  -0.386  -0.184  0.00  0.00    -0.074 A 
ATOM      7  C6  UNL d   1      -2.055   0.367  -0.984  0.00  0.00     0.077 C 
ATOM      8  C7  UNL d   1       0.330  -0.132  -0.377  0.00  0.00    -0.001 A 
ENDROOT
TORSDOF 0
ENDMDL
