MODEL 1
REMARK minimizedAffinity 7.3610239
REMARK minimizedRMSD -1
REMARK  1 active torsions:
REMARK  status: ('A' for Active; 'I' for Inactive)
REMARK    1  A    between atoms: N_2  and  C1_3 
ROOT
ATOM      1  C1  UNL d   1      -2.535  -2.567  -4.267  0.00  0.00     0.143 A 
ATOM      2  C2  UNL d   1      -2.193  -1.392  -3.589  0.00  0.00    -0.057 A 
ATOM      3  C3  UNL d   1      -1.928  -1.399  -2.215  0.00  0.00     0.033 A 
ATOM      4  C4  UNL d   1      -2.028  -2.579  -1.486  0.00  0.00    -0.042 A 
ATOM      5  C5  UNL d   1      -2.392  -3.754  -2.134  0.00  0.00     0.033 A 
ATOM      6  C6  UNL d   1      -2.649  -3.743  -3.509  0.00  0.00    -0.057 A 
ENDROOT
BRANCH   1   7
ATOM      7  N   UNL d   1      -2.907  -2.609  -5.613  0.00  0.00    -0.732 N 
ATOM      8  C   UNL d   1      -4.235  -3.034  -5.999  0.00  0.00     0.284 C 
ATOM      9  H3  UNL d   1      -2.558  -1.809  -6.137  0.00  0.00     0.395 HD
ENDBRANCH   1   7
TORSDOF 1
ENDMDL
