MODEL 1
REMARK minimizedAffinity 17.176487
REMARK minimizedRMSD -1
REMARK  1 active torsions:
REMARK  status: ('A' for Active; 'I' for Inactive)
REMARK    1  A    between atoms: N_2  and  C1_3 
ROOT
ATOM      1  C1  UNL d   1      -1.912   1.173   3.178  0.00  0.00     0.143 A 
ATOM      2  C2  UNL d   1      -0.613   1.678   3.298  0.00  0.00    -0.057 A 
ATOM      3  C3  UNL d   1       0.491   0.825   3.410  0.00  0.00     0.033 A 
ATOM      4  C4  UNL d   1       0.312  -0.555   3.432  0.00  0.00    -0.042 A 
ATOM      5  C5  UNL d   1      -0.973  -1.079   3.339  0.00  0.00     0.033 A 
ATOM      6  C6  UNL d   1      -2.071  -0.221   3.221  0.00  0.00    -0.057 A 
ENDROOT
BRANCH   1   7
ATOM      7  N   UNL d   1      -3.059   1.971   3.163  0.00  0.00    -0.732 N 
ATOM      8  C   UNL d   1      -4.239   1.579   3.903  0.00  0.00     0.284 C 
ATOM      9  H3  UNL d   1      -2.842   2.963   3.221  0.00  0.00     0.395 HD
ENDBRANCH   1   7
TORSDOF 1
ENDMDL
