MODEL 1
REMARK minimizedAffinity 15.2742662
REMARK minimizedRMSD -1
REMARK  1 active torsions:
REMARK  status: ('A' for Active; 'I' for Inactive)
REMARK    1  A    between atoms: N_2  and  C1_3 
ROOT
ATOM      1  C1  UNL d   1      -1.685  -3.023   3.766  0.00  0.00     0.143 A 
ATOM      2  C2  UNL d   1      -2.942  -3.202   4.353  0.00  0.00    -0.057 A 
ATOM      3  C3  UNL d   1      -3.313  -4.430   4.914  0.00  0.00     0.033 A 
ATOM      4  C4  UNL d   1      -2.440  -5.512   4.872  0.00  0.00    -0.042 A 
ATOM      5  C5  UNL d   1      -1.195  -5.364   4.272  0.00  0.00     0.033 A 
ATOM      6  C6  UNL d   1      -0.828  -4.133   3.719  0.00  0.00    -0.057 A 
ENDROOT
BRANCH   1   7
ATOM      7  N   UNL d   1      -1.295  -1.856   3.104  0.00  0.00    -0.732 N 
ATOM      8  C   UNL d   1      -0.476  -0.868   3.772  0.00  0.00     0.284 C 
ATOM      9  H3  UNL d   1      -1.033  -2.028   2.136  0.00  0.00     0.395 HD
ENDBRANCH   1   7
TORSDOF 1
ENDMDL
