MODEL 1
REMARK minimizedAffinity 2.21022105
REMARK minimizedRMSD -1
REMARK  1 active torsions:
REMARK  status: ('A' for Active; 'I' for Inactive)
REMARK    1  A    between atoms: N_2  and  C1_3 
ROOT
ATOM      1  C1  UNL d   1       2.901   1.578  -1.880  0.00  0.00     0.143 A 
ATOM      2  C2  UNL d   1       2.271   1.969  -0.693  0.00  0.00    -0.057 A 
ATOM      3  C3  UNL d   1       2.548   1.328   0.521  0.00  0.00     0.033 A 
ATOM      4  C4  UNL d   1       3.440   0.262   0.564  0.00  0.00    -0.042 A 
ATOM      5  C5  UNL d   1       4.058  -0.161  -0.608  0.00  0.00     0.033 A 
ATOM      6  C6  UNL d   1       3.783   0.488  -1.816  0.00  0.00    -0.057 A 
ENDROOT
BRANCH   1   7
ATOM      7  N   UNL d   1       2.595   2.110  -3.135  0.00  0.00    -0.732 N 
ATOM      8  C   UNL d   1       1.256   2.573  -3.433  0.00  0.00     0.284 C 
ATOM      9  H3  UNL d   1       3.332   2.714  -3.490  0.00  0.00     0.395 HD
ENDBRANCH   1   7
TORSDOF 1
ENDMDL
