MODEL 1
REMARK minimizedAffinity 14.7491865
REMARK minimizedRMSD -1
REMARK  1 active torsions:
REMARK  status: ('A' for Active; 'I' for Inactive)
REMARK    1  A    between atoms: N_2  and  C1_3 
ROOT
ATOM      1  C1  UNL d   1      -3.268  -4.039  -3.710  0.00  0.00     0.143 A 
ATOM      2  C2  UNL d   1      -1.981  -4.587  -3.714  0.00  0.00    -0.057 A 
ATOM      3  C3  UNL d   1      -1.140  -4.457  -4.825  0.00  0.00     0.033 A 
ATOM      4  C4  UNL d   1      -1.583  -3.799  -5.968  0.00  0.00    -0.042 A 
ATOM      5  C5  UNL d   1      -2.868  -3.267  -5.995  0.00  0.00     0.033 A 
ATOM      6  C6  UNL d   1      -3.701  -3.395  -4.880  0.00  0.00    -0.057 A 
ENDROOT
BRANCH   1   7
ATOM      7  N   UNL d   1      -4.187  -4.220  -2.674  0.00  0.00    -0.732 N 
ATOM      8  C   UNL d   1      -5.573  -3.840  -2.843  0.00  0.00     0.284 C 
ATOM      9  H3  UNL d   1      -4.055  -5.103  -2.187  0.00  0.00     0.395 HD
ENDBRANCH   1   7
TORSDOF 1
ENDMDL
