MODEL 1
REMARK minimizedAffinity 3.39831161
REMARK minimizedRMSD -1
REMARK  1 active torsions:
REMARK  status: ('A' for Active; 'I' for Inactive)
REMARK    1  A    between atoms: N_2  and  C1_3 
ROOT
ATOM      1  C1  UNL d   1       0.002  -4.031   0.997  0.00  0.00     0.143 A 
ATOM      2  C2  UNL d   1      -0.407  -4.621   2.198  0.00  0.00    -0.057 A 
ATOM      3  C3  UNL d   1      -0.942  -3.852   3.239  0.00  0.00     0.033 A 
ATOM      4  C4  UNL d   1      -1.050  -2.472   3.107  0.00  0.00    -0.042 A 
ATOM      5  C5  UNL d   1      -0.627  -1.861   1.932  0.00  0.00     0.033 A 
ATOM      6  C6  UNL d   1      -0.100  -2.635   0.893  0.00  0.00    -0.057 A 
ENDROOT
BRANCH   1   7
ATOM      7  N   UNL d   1       0.632  -4.729  -0.037  0.00  0.00    -0.732 N 
ATOM      8  C   UNL d   1      -0.095  -5.086  -1.236  0.00  0.00     0.284 C 
ATOM      9  H3  UNL d   1       1.579  -4.398  -0.208  0.00  0.00     0.395 HD
ENDBRANCH   1   7
TORSDOF 1
ENDMDL
