MODEL 1
REMARK minimizedAffinity 11.4829836
REMARK minimizedRMSD -1
REMARK  1 active torsions:
REMARK  status: ('A' for Active; 'I' for Inactive)
REMARK    1  A    between atoms: N_2  and  C1_3 
ROOT
ATOM      1  C1  UNL d   1       2.975  -1.436  -5.864  0.00  0.00     0.143 A 
ATOM      2  C2  UNL d   1       3.673  -0.294  -5.458  0.00  0.00    -0.057 A 
ATOM      3  C3  UNL d   1       5.056  -0.328  -5.241  0.00  0.00     0.033 A 
ATOM      4  C4  UNL d   1       5.762  -1.516  -5.398  0.00  0.00    -0.042 A 
ATOM      5  C5  UNL d   1       5.085  -2.669  -5.777  0.00  0.00     0.033 A 
ATOM      6  C6  UNL d   1       3.705  -2.628  -5.999  0.00  0.00    -0.057 A 
ENDROOT
BRANCH   1   7
ATOM      7  N   UNL d   1       1.585  -1.491  -6.000  0.00  0.00    -0.732 N 
ATOM      8  C   UNL d   1       0.894  -2.762  -5.999  0.00  0.00     0.284 C 
ATOM      9  H3  UNL d   1       1.114  -0.761  -5.470  0.00  0.00     0.395 HD
ENDBRANCH   1   7
TORSDOF 1
ENDMDL
