MODEL 1
REMARK minimizedAffinity -2.10489702
REMARK minimizedRMSD -1
REMARK  1 active torsions:
REMARK  status: ('A' for Active; 'I' for Inactive)
REMARK    1  A    between atoms: N_2  and  C1_3 
ROOT
ATOM      1  C1  UNL d   1       4.894   2.728  -5.781  0.00  0.00     0.143 A 
ATOM      2  C2  UNL d   1       6.000   1.952  -5.416  0.00  0.00    -0.057 A 
ATOM      3  C3  UNL d   1       5.863   0.593  -5.111  0.00  0.00     0.033 A 
ATOM      4  C4  UNL d   1       4.610  -0.010  -5.138  0.00  0.00    -0.042 A 
ATOM      5  C5  UNL d   1       3.494   0.748  -5.474  0.00  0.00     0.033 A 
ATOM      6  C6  UNL d   1       3.637   2.103  -5.784  0.00  0.00    -0.057 A 
ENDROOT
BRANCH   1   7
ATOM      7  N   UNL d   1       4.950   4.107  -6.000  0.00  0.00    -0.732 N 
ATOM      8  C   UNL d   1       3.741   4.903  -5.997  0.00  0.00     0.284 C 
ATOM      9  H3  UNL d   1       5.737   4.544  -5.525  0.00  0.00     0.395 HD
ENDBRANCH   1   7
TORSDOF 1
ENDMDL
