MODEL 1
REMARK minimizedAffinity 7.54707766
REMARK minimizedRMSD -1
REMARK  1 active torsions:
REMARK  status: ('A' for Active; 'I' for Inactive)
REMARK    1  A    between atoms: N_2  and  C1_3 
ROOT
ATOM      1  C1  UNL d   1      -1.937  -4.544   4.090  0.00  0.00     0.143 A 
ATOM      2  C2  UNL d   1      -1.483  -5.314   5.165  0.00  0.00    -0.057 A 
ATOM      3  C3  UNL d   1      -2.377  -5.995   6.000  0.00  0.00     0.033 A 
ATOM      4  C4  UNL d   1      -3.749  -5.893   5.790  0.00  0.00    -0.042 A 
ATOM      5  C5  UNL d   1      -4.224  -5.113   4.742  0.00  0.00     0.033 A 
ATOM      6  C6  UNL d   1      -3.325  -4.441   3.908  0.00  0.00    -0.057 A 
ENDROOT
BRANCH   1   7
ATOM      7  N   UNL d   1      -1.103  -3.764   3.284  0.00  0.00    -0.732 N 
ATOM      8  C   UNL d   1      -1.414  -2.374   3.030  0.00  0.00     0.284 C 
ATOM      9  H3  UNL d   1      -0.117  -3.945   3.457  0.00  0.00     0.395 HD
ENDBRANCH   1   7
TORSDOF 1
ENDMDL
