MODEL 1
REMARK minimizedAffinity 8.82246494
REMARK minimizedRMSD -1
REMARK  1 active torsions:
REMARK  status: ('A' for Active; 'I' for Inactive)
REMARK    1  A    between atoms: N_2  and  C1_3 
ROOT
ATOM      1  C1  UNL d   1       1.558   1.549   2.228  0.00  0.00     0.143 A 
ATOM      2  C2  UNL d   1       2.002   2.701   1.570  0.00  0.00    -0.057 A 
ATOM      3  C3  UNL d   1       1.102   3.684   1.139  0.00  0.00     0.033 A 
ATOM      4  C4  UNL d   1      -0.265   3.517   1.334  0.00  0.00    -0.042 A 
ATOM      5  C5  UNL d   1      -0.731   2.368   1.963  0.00  0.00     0.033 A 
ATOM      6  C6  UNL d   1       0.173   1.394   2.397  0.00  0.00    -0.057 A 
ENDROOT
BRANCH   1   7
ATOM      7  N   UNL d   1       2.393   0.491   2.592  0.00  0.00    -0.732 N 
ATOM      8  C   UNL d   1       2.930   0.403   3.933  0.00  0.00     0.284 C 
ATOM      9  H3  UNL d   1       2.082  -0.399   2.210  0.00  0.00     0.395 HD
ENDBRANCH   1   7
TORSDOF 1
ENDMDL
