MODEL 1
REMARK minimizedAffinity 10.0867548
REMARK minimizedRMSD -1
REMARK  1 active torsions:
REMARK  status: ('A' for Active; 'I' for Inactive)
REMARK    1  A    between atoms: N_2  and  C1_3 
ROOT
ATOM      1  C1  UNL d   1       3.744   1.086  -3.562  0.00  0.00     0.143 A 
ATOM      2  C2  UNL d   1       3.200   0.258  -4.550  0.00  0.00    -0.057 A 
ATOM      3  C3  UNL d   1       4.019  -0.525  -5.373  0.00  0.00     0.033 A 
ATOM      4  C4  UNL d   1       5.402  -0.472  -5.240  0.00  0.00    -0.042 A 
ATOM      5  C5  UNL d   1       5.966   0.362  -4.282  0.00  0.00     0.033 A 
ATOM      6  C6  UNL d   1       5.143   1.137  -3.459  0.00  0.00    -0.057 A 
ENDROOT
BRANCH   1   7
ATOM      7  N   UNL d   1       2.989   1.963  -2.779  0.00  0.00    -0.732 N 
ATOM      8  C   UNL d   1       1.813   1.497  -2.077  0.00  0.00     0.284 C 
ATOM      9  H3  UNL d   1       3.570   2.600  -2.240  0.00  0.00     0.395 HD
ENDBRANCH   1   7
TORSDOF 1
ENDMDL
