MODEL 1
REMARK minimizedAffinity -1.45083189
REMARK minimizedRMSD -1
REMARK  1 active torsions:
REMARK  status: ('A' for Active; 'I' for Inactive)
REMARK    1  A    between atoms: C1_2  and  C2_3 
ROOT
ATOM      1  C2  UNL d   1       3.909   5.219   0.755  0.00  0.00    -0.081 A 
ATOM      2  C3  UNL d   1       2.622   4.975   0.260  0.00  0.00     0.006 A 
ATOM      3  C4  UNL d   1       2.316   5.237  -1.078  0.00  0.00     0.002 A 
ATOM      4  C5  UNL d   1       3.293   5.739  -1.944  0.00  0.00    -0.080 A 
ATOM      5  C6  UNL d   1       2.986   5.996  -3.390  0.00  0.00     0.076 C 
ATOM      6  C7  UNL d   1       4.574   6.000  -1.446  0.00  0.00     0.002 A 
ATOM      7  C8  UNL d   1       4.880   5.739  -0.108  0.00  0.00     0.006 A 
ENDROOT
BRANCH   1   8
ATOM      8  C1  UNL d   1       4.260   4.878   2.180  0.00  0.00     0.054 C 
ATOM      9  C   UNL d   1       5.501   5.629   2.640  0.00  0.00     0.018 C 
ENDBRANCH   1   8
TORSDOF 1
ENDMDL
