MODEL 1
REMARK minimizedAffinity 3.60148382
REMARK minimizedRMSD -1
REMARK  1 active torsions:
REMARK  status: ('A' for Active; 'I' for Inactive)
REMARK    1  A    between atoms: C1_2  and  C2_3 
ROOT
ATOM      1  C2  UNL d   1       2.323  -0.348  -2.134  0.00  0.00    -0.081 A 
ATOM      2  C3  UNL d   1       2.827   0.156  -3.340  0.00  0.00     0.006 A 
ATOM      3  C4  UNL d   1       2.300   1.324  -3.895  0.00  0.00     0.002 A 
ATOM      4  C5  UNL d   1       1.267   2.012  -3.250  0.00  0.00    -0.080 A 
ATOM      5  C6  UNL d   1       0.712   3.285  -3.820  0.00  0.00     0.076 C 
ATOM      6  C7  UNL d   1       0.751   1.500  -2.055  0.00  0.00     0.002 A 
ATOM      7  C8  UNL d   1       1.277   0.331  -1.500  0.00  0.00     0.006 A 
ENDROOT
BRANCH   1   8
ATOM      8  C1  UNL d   1       2.933  -1.572  -1.500  0.00  0.00     0.054 C 
ATOM      9  C   UNL d   1       1.875  -2.625  -1.201  0.00  0.00     0.018 C 
ENDBRANCH   1   8
TORSDOF 1
ENDMDL
