MODEL 1
REMARK minimizedAffinity 2.55781412
REMARK minimizedRMSD -1
REMARK  1 active torsions:
REMARK  status: ('A' for Active; 'I' for Inactive)
REMARK    1  A    between atoms: C1_2  and  C2_3 
ROOT
ATOM      1  C2  UNL d   1       1.190   1.266  -0.033  0.00  0.00    -0.081 A 
ATOM      2  C3  UNL d   1       1.955   0.366  -0.785  0.00  0.00     0.006 A 
ATOM      3  C4  UNL d   1       1.892   0.375  -2.180  0.00  0.00     0.002 A 
ATOM      4  C5  UNL d   1       1.069   1.289  -2.847  0.00  0.00    -0.080 A 
ATOM      5  C6  UNL d   1       1.014   1.330  -4.345  0.00  0.00     0.076 C 
ATOM      6  C7  UNL d   1       0.290   2.176  -2.096  0.00  0.00     0.002 A 
ATOM      7  C8  UNL d   1       0.353   2.167  -0.701  0.00  0.00     0.006 A 
ENDROOT
BRANCH   1   8
ATOM      8  C1  UNL d   1       1.305   1.301   1.469  0.00  0.00     0.054 C 
ATOM      9  C   UNL d   1       2.732   1.598   1.908  0.00  0.00     0.018 C 
ENDBRANCH   1   8
TORSDOF 1
ENDMDL
