MODEL 1
REMARK minimizedAffinity 11.0088072
REMARK minimizedRMSD -1
REMARK  1 active torsions:
REMARK  status: ('A' for Active; 'I' for Inactive)
REMARK    1  A    between atoms: C1_2  and  C2_3 
ROOT
ATOM      1  C2  UNL d   1      -4.358  -0.143   3.582  0.00  0.00    -0.081 A 
ATOM      2  C3  UNL d   1      -4.375  -1.391   2.947  0.00  0.00     0.006 A 
ATOM      3  C4  UNL d   1      -4.772  -1.501   1.612  0.00  0.00     0.002 A 
ATOM      4  C5  UNL d   1      -5.152  -0.365   0.889  0.00  0.00    -0.080 A 
ATOM      5  C6  UNL d   1      -5.552  -0.465  -0.553  0.00  0.00     0.076 C 
ATOM      6  C7  UNL d   1      -5.152   0.879   1.529  0.00  0.00     0.002 A 
ATOM      7  C8  UNL d   1      -4.755   0.990   2.864  0.00  0.00     0.006 A 
ENDROOT
BRANCH   1   8
ATOM      8  C1  UNL d   1      -3.868  -0.013   5.002  0.00  0.00     0.054 C 
ATOM      9  C   UNL d   1      -4.956  -0.383   5.999  0.00  0.00     0.018 C 
ENDBRANCH   1   8
TORSDOF 1
ENDMDL
