MODEL 1
REMARK minimizedAffinity 13.3554659
REMARK minimizedRMSD -1
REMARK  1 active torsions:
REMARK  status: ('A' for Active; 'I' for Inactive)
REMARK    1  A    between atoms: C1_2  and  C2_3 
ROOT
ATOM      1  C2  UNL d   1      -0.022   2.339  -0.267  0.00  0.00    -0.081 A 
ATOM      2  C3  UNL d   1      -0.103   2.662   1.093  0.00  0.00     0.006 A 
ATOM      3  C4  UNL d   1       1.027   2.575   1.910  0.00  0.00     0.002 A 
ATOM      4  C5  UNL d   1       2.257   2.172   1.379  0.00  0.00    -0.080 A 
ATOM      5  C6  UNL d   1       3.485   2.103   2.238  0.00  0.00     0.076 C 
ATOM      6  C7  UNL d   1       2.334   1.833   0.024  0.00  0.00     0.002 A 
ATOM      7  C8  UNL d   1       1.204   1.919  -0.793  0.00  0.00     0.006 A 
ENDROOT
BRANCH   1   8
ATOM      8  C1  UNL d   1      -1.224   2.494  -1.164  0.00  0.00     0.054 C 
ATOM      9  C   UNL d   1      -0.924   3.418  -2.335  0.00  0.00     0.018 C 
ENDBRANCH   1   8
TORSDOF 1
ENDMDL
