MODEL 1
REMARK minimizedAffinity 10.6574097
REMARK minimizedRMSD -1
REMARK  1 active torsions:
REMARK  status: ('A' for Active; 'I' for Inactive)
REMARK    1  A    between atoms: C1_2  and  C2_3 
ROOT
ATOM      1  C2  UNL d   1      -0.270   2.090   0.629  0.00  0.00    -0.081 A 
ATOM      2  C3  UNL d   1       1.027   2.008   1.151  0.00  0.00     0.006 A 
ATOM      3  C4  UNL d   1       2.067   1.480   0.383  0.00  0.00     0.002 A 
ATOM      4  C5  UNL d   1       1.830   1.033  -0.921  0.00  0.00    -0.080 A 
ATOM      5  C6  UNL d   1       2.945   0.492  -1.767  0.00  0.00     0.076 C 
ATOM      6  C7  UNL d   1       0.531   1.098  -1.436  0.00  0.00     0.002 A 
ATOM      7  C8  UNL d   1      -0.510   1.625  -0.669  0.00  0.00     0.006 A 
ENDROOT
BRANCH   1   8
ATOM      8  C1  UNL d   1      -1.381   2.718   1.431  0.00  0.00     0.054 C 
ATOM      9  C   UNL d   1      -1.562   4.186   1.071  0.00  0.00     0.018 C 
ENDBRANCH   1   8
TORSDOF 1
ENDMDL
