MODEL 1
REMARK minimizedAffinity 0.0389617383
REMARK minimizedRMSD -1
REMARK  1 active torsions:
REMARK  status: ('A' for Active; 'I' for Inactive)
REMARK    1  A    between atoms: C1_2  and  C2_3 
ROOT
ATOM      1  C2  UNL d   1       1.549  -1.518  -0.858  0.00  0.00    -0.081 A 
ATOM      2  C3  UNL d   1       2.184  -0.629  -1.734  0.00  0.00     0.006 A 
ATOM      3  C4  UNL d   1       1.585   0.590  -2.061  0.00  0.00     0.002 A 
ATOM      4  C5  UNL d   1       0.347   0.943  -1.514  0.00  0.00    -0.080 A 
ATOM      5  C6  UNL d   1      -0.292   2.262  -1.834  0.00  0.00     0.076 C 
ATOM      6  C7  UNL d   1      -0.295   0.047  -0.653  0.00  0.00     0.002 A 
ATOM      7  C8  UNL d   1       0.302  -1.172  -0.325  0.00  0.00     0.006 A 
ENDROOT
BRANCH   1   8
ATOM      8  C1  UNL d   1       2.221  -2.805  -0.452  0.00  0.00     0.054 C 
ATOM      9  C   UNL d   1       1.540  -3.428   0.758  0.00  0.00     0.018 C 
ENDBRANCH   1   8
TORSDOF 1
ENDMDL
