MODEL 1
REMARK minimizedAffinity 11.0303135
REMARK minimizedRMSD -1
REMARK  1 active torsions:
REMARK  status: ('A' for Active; 'I' for Inactive)
REMARK    1  A    between atoms: C1_2  and  C2_3 
ROOT
ATOM      1  C2  UNL d   1       3.969   3.732   0.823  0.00  0.00    -0.081 A 
ATOM      2  C3  UNL d   1       5.201   4.340   1.092  0.00  0.00     0.006 A 
ATOM      3  C4  UNL d   1       5.866   5.063   0.098  0.00  0.00     0.002 A 
ATOM      4  C5  UNL d   1       5.307   5.196  -1.177  0.00  0.00    -0.080 A 
ATOM      5  C6  UNL d   1       5.996   5.995  -2.243  0.00  0.00     0.076 C 
ATOM      6  C7  UNL d   1       4.084   4.574  -1.451  0.00  0.00     0.002 A 
ATOM      7  C8  UNL d   1       3.419   3.851  -0.459  0.00  0.00     0.006 A 
ENDROOT
BRANCH   1   8
ATOM      8  C1  UNL d   1       3.218   3.006   1.910  0.00  0.00     0.054 C 
ATOM      9  C   UNL d   1       1.885   2.476   1.403  0.00  0.00     0.018 C 
ENDBRANCH   1   8
TORSDOF 1
ENDMDL
