MODEL 1
REMARK minimizedAffinity 7.70392323
REMARK minimizedRMSD -1
REMARK  1 active torsions:
REMARK  status: ('A' for Active; 'I' for Inactive)
REMARK    1  A    between atoms: C1_2  and  C2_3 
ROOT
ATOM      1  C2  UNL d   1       1.215   0.391  -1.065  0.00  0.00    -0.081 A 
ATOM      2  C3  UNL d   1       1.061  -0.351   0.112  0.00  0.00     0.006 A 
ATOM      3  C4  UNL d   1       1.387  -1.710   0.141  0.00  0.00     0.002 A 
ATOM      4  C5  UNL d   1       1.879  -2.346  -1.004  0.00  0.00    -0.080 A 
ATOM      5  C6  UNL d   1       2.261  -3.796  -0.978  0.00  0.00     0.076 C 
ATOM      6  C7  UNL d   1       2.017  -1.609  -2.185  0.00  0.00     0.002 A 
ATOM      7  C8  UNL d   1       1.691  -0.251  -2.214  0.00  0.00     0.006 A 
ENDROOT
BRANCH   1   8
ATOM      8  C1  UNL d   1       0.926   1.870  -1.082  0.00  0.00     0.054 C 
ATOM      9  C   UNL d   1      -0.566   2.141  -1.206  0.00  0.00     0.018 C 
ENDBRANCH   1   8
TORSDOF 1
ENDMDL
