MODEL 1
REMARK minimizedAffinity -4.06867647
REMARK minimizedRMSD -1
REMARK  1 active torsions:
REMARK  status: ('A' for Active; 'I' for Inactive)
REMARK    1  A    between atoms: C1_2  and  C2_3 
ROOT
ATOM      1  C2  UNL d   1       1.876  -3.267   0.387  0.00  0.00    -0.081 A 
ATOM      2  C3  UNL d   1       3.121  -2.778  -0.026  0.00  0.00     0.006 A 
ATOM      3  C4  UNL d   1       3.201  -1.714  -0.927  0.00  0.00     0.002 A 
ATOM      4  C5  UNL d   1       2.038  -1.116  -1.424  0.00  0.00    -0.080 A 
ATOM      5  C6  UNL d   1       2.110   0.047  -2.369  0.00  0.00     0.076 C 
ATOM      6  C7  UNL d   1       0.794  -1.616  -1.025  0.00  0.00     0.002 A 
ATOM      7  C8  UNL d   1       0.713  -2.680  -0.125  0.00  0.00     0.006 A 
ENDROOT
BRANCH   1   8
ATOM      8  C1  UNL d   1       1.786  -4.372   1.408  0.00  0.00     0.054 C 
ATOM      9  C   UNL d   1       2.201  -5.710   0.813  0.00  0.00     0.018 C 
ENDBRANCH   1   8
TORSDOF 1
ENDMDL
