MODEL 1
REMARK minimizedAffinity 4.06187868
REMARK minimizedRMSD -1
REMARK  1 active torsions:
REMARK  status: ('A' for Active; 'I' for Inactive)
REMARK    1  A    between atoms: C1_2  and  C2_3 
ROOT
ATOM      1  C2  UNL d   1       1.793  -3.200  -0.828  0.00  0.00    -0.081 A 
ATOM      2  C3  UNL d   1       1.116  -2.882   0.355  0.00  0.00     0.006 A 
ATOM      3  C4  UNL d   1       1.553  -3.393   1.580  0.00  0.00     0.002 A 
ATOM      4  C5  UNL d   1       2.677  -4.223   1.643  0.00  0.00    -0.080 A 
ATOM      5  C6  UNL d   1       3.174  -4.753   2.955  0.00  0.00     0.076 C 
ATOM      6  C7  UNL d   1       3.343  -4.555   0.458  0.00  0.00     0.002 A 
ATOM      7  C8  UNL d   1       2.907  -4.045  -0.766  0.00  0.00     0.006 A 
ENDROOT
BRANCH   1   8
ATOM      8  C1  UNL d   1       1.364  -2.599  -2.142  0.00  0.00     0.054 C 
ATOM      9  C   UNL d   1       0.596  -1.302  -1.932  0.00  0.00     0.018 C 
ENDBRANCH   1   8
TORSDOF 1
ENDMDL
