MODEL 1
REMARK minimizedAffinity 18.7163754
REMARK minimizedRMSD -1
REMARK  0 active torsions:
REMARK  status: ('A' for Active; 'I' for Inactive)
ROOT
ATOM      1  C   UNL d   1      -1.471   4.111   0.982  0.00  0.00     0.124 A 
ATOM      2  C1  UNL d   1      -1.793   4.394   2.302  0.00  0.00     0.062 A 
ATOM      3  C2  UNL d   1      -1.048   3.838   3.338  0.00  0.00     0.162 A 
ATOM      4  C3  UNL d   1       0.027   2.994   3.058  0.00  0.00    -0.034 A 
ATOM      5  C4  UNL d   1       0.343   2.714   1.727  0.00  0.00     0.162 A 
ATOM      6  C5  UNL d   1      -0.404   3.272   0.696  0.00  0.00     0.062 A 
ATOM      7  F   UNL d   1      -0.092   2.998  -0.579  0.00  0.00    -0.097 F 
ATOM      8  F1  UNL d   1       1.370   1.907   1.423  0.00  0.00    -0.096 F 
ATOM      9  I   UNL d   1       1.143   2.161   4.604  0.00  0.00    -0.060 I 
ATOM     10  F2  UNL d   1      -1.381   4.128   4.604  0.00  0.00    -0.096 F 
ATOM     11  F3  UNL d   1      -2.824   5.204   2.581  0.00  0.00    -0.097 F 
ATOM     12  F4  UNL d   1      -2.190   4.647  -0.013  0.00  0.00    -0.092 F 
ENDROOT
TORSDOF 0
ENDMDL
