MODEL 1
REMARK minimizedAffinity 17.4483128
REMARK minimizedRMSD -1
REMARK  0 active torsions:
REMARK  status: ('A' for Active; 'I' for Inactive)
ROOT
ATOM      1  C   UNL d   1       2.602  -0.372  -1.670  0.00  0.00     0.124 A 
ATOM      2  C1  UNL d   1       2.476   0.317  -0.471  0.00  0.00     0.062 A 
ATOM      3  C2  UNL d   1       3.429   1.262  -0.104  0.00  0.00     0.162 A 
ATOM      4  C3  UNL d   1       4.518   1.525  -0.936  0.00  0.00    -0.034 A 
ATOM      5  C4  UNL d   1       4.638   0.827  -2.139  0.00  0.00     0.162 A 
ATOM      6  C5  UNL d   1       3.683  -0.117  -2.502  0.00  0.00     0.062 A 
ATOM      7  F   UNL d   1       3.807  -0.782  -3.660  0.00  0.00    -0.097 F 
ATOM      8  F1  UNL d   1       5.672   1.055  -2.963  0.00  0.00    -0.096 F 
ATOM      9  I   UNL d   1       5.945   2.937  -0.390  0.00  0.00    -0.060 I 
ATOM     10  F2  UNL d   1       3.282   1.913   1.060  0.00  0.00    -0.096 F 
ATOM     11  F3  UNL d   1       1.434   0.071   0.335  0.00  0.00    -0.097 F 
ATOM     12  F4  UNL d   1       1.684  -1.282  -2.020  0.00  0.00    -0.092 F 
ENDROOT
TORSDOF 0
ENDMDL
