MODEL 1
REMARK minimizedAffinity 16.9349003
REMARK minimizedRMSD -1
REMARK  0 active torsions:
REMARK  status: ('A' for Active; 'I' for Inactive)
ROOT
ATOM      1  C   UNL d   1       3.132   4.449   4.899  0.00  0.00     0.124 A 
ATOM      2  C1  UNL d   1       3.997   4.518   3.816  0.00  0.00     0.062 A 
ATOM      3  C2  UNL d   1       3.751   3.761   2.674  0.00  0.00     0.162 A 
ATOM      4  C3  UNL d   1       2.634   2.929   2.609  0.00  0.00    -0.034 A 
ATOM      5  C4  UNL d   1       1.768   2.864   3.703  0.00  0.00     0.162 A 
ATOM      6  C5  UNL d   1       2.019   3.623   4.841  0.00  0.00     0.062 A 
ATOM      7  F   UNL d   1       1.182   3.555   5.887  0.00  0.00    -0.097 F 
ATOM      8  F1  UNL d   1       0.685   2.074   3.673  0.00  0.00    -0.096 F 
ATOM      9  I   UNL d   1       2.262   1.795   0.903  0.00  0.00    -0.060 I 
ATOM     10  F2  UNL d   1       4.604   3.847   1.642  0.00  0.00    -0.096 F 
ATOM     11  F3  UNL d   1       5.074   5.315   3.869  0.00  0.00    -0.097 F 
ATOM     12  F4  UNL d   1       3.372   5.178   5.996  0.00  0.00    -0.092 F 
ENDROOT
TORSDOF 0
ENDMDL
