MODEL 1
REMARK minimizedAffinity 8.7477541
REMARK minimizedRMSD -1
REMARK  0 active torsions:
REMARK  status: ('A' for Active; 'I' for Inactive)
ROOT
ATOM      1  C   UNL d   1      -1.504   2.313  -0.370  0.00  0.00     0.124 A 
ATOM      2  C1  UNL d   1      -0.583   2.981   0.425  0.00  0.00     0.062 A 
ATOM      3  C2  UNL d   1       0.736   2.541   0.488  0.00  0.00     0.162 A 
ATOM      4  C3  UNL d   1       1.143   1.428  -0.248  0.00  0.00    -0.034 A 
ATOM      5  C4  UNL d   1       0.211   0.762  -1.045  0.00  0.00     0.162 A 
ATOM      6  C5  UNL d   1      -1.107   1.205  -1.104  0.00  0.00     0.062 A 
ATOM      7  F   UNL d   1      -1.995   0.559  -1.873  0.00  0.00    -0.097 F 
ATOM      8  F1  UNL d   1       0.568  -0.312  -1.766  0.00  0.00    -0.096 F 
ATOM      9  I   UNL d   1       3.115   0.768  -0.157  0.00  0.00    -0.060 I 
ATOM     10  F2  UNL d   1       1.605   3.206   1.265  0.00  0.00    -0.096 F 
ATOM     11  F3  UNL d   1      -0.965   4.051   1.136  0.00  0.00    -0.097 F 
ATOM     12  F4  UNL d   1      -2.773   2.738  -0.428  0.00  0.00    -0.092 F 
ENDROOT
TORSDOF 0
ENDMDL
