MODEL 1
REMARK minimizedAffinity 9.46773624
REMARK minimizedRMSD -1
REMARK  0 active torsions:
REMARK  status: ('A' for Active; 'I' for Inactive)
ROOT
ATOM      1  C   UNL d   1      -2.152   1.326  -0.654  0.00  0.00     0.124 A 
ATOM      2  C1  UNL d   1      -1.200   2.131  -0.043  0.00  0.00     0.062 A 
ATOM      3  C2  UNL d   1       0.155   1.884  -0.239  0.00  0.00     0.162 A 
ATOM      4  C3  UNL d   1       0.568   0.827  -1.050  0.00  0.00    -0.034 A 
ATOM      5  C4  UNL d   1      -0.395   0.021  -1.660  0.00  0.00     0.162 A 
ATOM      6  C5  UNL d   1      -1.748   0.272  -1.461  0.00  0.00     0.062 A 
ATOM      7  F   UNL d   1      -2.666  -0.507  -2.051  0.00  0.00    -0.097 F 
ATOM      8  F1  UNL d   1      -0.033  -1.004  -2.446  0.00  0.00    -0.096 F 
ATOM      9  I   UNL d   1       2.594   0.454  -1.345  0.00  0.00    -0.060 I 
ATOM     10  F2  UNL d   1       1.053   2.679   0.363  0.00  0.00    -0.096 F 
ATOM     11  F3  UNL d   1      -1.587   3.150   0.738  0.00  0.00    -0.097 F 
ATOM     12  F4  UNL d   1      -3.456   1.566  -0.463  0.00  0.00    -0.092 F 
ENDROOT
TORSDOF 0
ENDMDL
