MODEL 1
REMARK minimizedAffinity 13.7181206
REMARK minimizedRMSD -1
REMARK  0 active torsions:
REMARK  status: ('A' for Active; 'I' for Inactive)
ROOT
ATOM      1  C   UNL d   1      -1.850   1.836  -0.764  0.00  0.00     0.124 A 
ATOM      2  C1  UNL d   1      -1.272   2.680   0.174  0.00  0.00     0.062 A 
ATOM      3  C2  UNL d   1       0.083   2.571   0.473  0.00  0.00     0.162 A 
ATOM      4  C3  UNL d   1       0.870   1.615  -0.168  0.00  0.00    -0.034 A 
ATOM      5  C4  UNL d   1       0.281   0.769  -1.110  0.00  0.00     0.162 A 
ATOM      6  C5  UNL d   1      -1.073   0.882  -1.405  0.00  0.00     0.062 A 
ATOM      7  F   UNL d   1      -1.630   0.066  -2.311  0.00  0.00    -0.097 F 
ATOM      8  F1  UNL d   1       1.009  -0.162  -1.745  0.00  0.00    -0.096 F 
ATOM      9  I   UNL d   1       2.896   1.449   0.276  0.00  0.00    -0.060 I 
ATOM     10  F2  UNL d   1       0.615   3.400   1.384  0.00  0.00    -0.096 F 
ATOM     11  F3  UNL d   1      -2.021   3.603   0.795  0.00  0.00    -0.097 F 
ATOM     12  F4  UNL d   1      -3.155   1.943  -1.049  0.00  0.00    -0.092 F 
ENDROOT
TORSDOF 0
ENDMDL
