MODEL 1
REMARK minimizedAffinity 9.84365749
REMARK minimizedRMSD -1
REMARK  0 active torsions:
REMARK  status: ('A' for Active; 'I' for Inactive)
ROOT
ATOM      1  C   UNL d   1      -1.924   1.188  -1.429  0.00  0.00     0.124 A 
ATOM      2  C1  UNL d   1      -0.998   0.277  -1.919  0.00  0.00     0.062 A 
ATOM      3  C2  UNL d   1       0.300   0.260  -1.416  0.00  0.00     0.162 A 
ATOM      4  C3  UNL d   1       0.679   1.156  -0.417  0.00  0.00    -0.034 A 
ATOM      5  C4  UNL d   1      -0.257   2.069   0.070  0.00  0.00     0.162 A 
ATOM      6  C5  UNL d   1      -1.553   2.083  -0.435  0.00  0.00     0.062 A 
ATOM      7  F   UNL d   1      -2.447   2.963   0.039  0.00  0.00    -0.097 F 
ATOM      8  F1  UNL d   1       0.074   2.945   1.031  0.00  0.00    -0.096 F 
ATOM      9  I   UNL d   1       2.619   1.133   0.337  0.00  0.00    -0.060 I 
ATOM     10  F2  UNL d   1       1.174  -0.630  -1.908  0.00  0.00    -0.096 F 
ATOM     11  F3  UNL d   1      -1.354  -0.588  -2.879  0.00  0.00    -0.097 F 
ATOM     12  F4  UNL d   1      -3.172   1.203  -1.915  0.00  0.00    -0.092 F 
ENDROOT
TORSDOF 0
ENDMDL
