MODEL 1
REMARK minimizedAffinity -5.60389137
REMARK minimizedRMSD -1
REMARK  0 active torsions:
REMARK  status: ('A' for Active; 'I' for Inactive)
ROOT
ATOM      1  C   UNL d   1       1.508  -0.012   0.739  0.00  0.00     0.078 C 
ATOM      2  C1  UNL d   1       0.169  -0.181   1.392  0.00  0.00    -0.077 A 
ATOM      3  C2  UNL d   1       0.044  -0.195   2.787  0.00  0.00    -0.001 A 
ATOM      4  C3  UNL d   1      -1.207  -0.363   3.381  0.00  0.00     0.003 A 
ATOM      5  C4  UNL d   1      -2.343  -0.521   2.589  0.00  0.00    -0.005 A 
ATOM      6  C5  UNL d   1      -2.228  -0.511   1.201  0.00  0.00     0.003 A 
ATOM      7  C6  UNL d   1      -0.977  -0.342   0.604  0.00  0.00    -0.001 A 
ENDROOT
TORSDOF 0
ENDMDL
