MODEL 1
REMARK minimizedAffinity 0.116516739
REMARK minimizedRMSD -1
REMARK  0 active torsions:
REMARK  status: ('A' for Active; 'I' for Inactive)
ROOT
ATOM      1  C   UNL d   1       0.090   0.848  -1.756  0.00  0.00     0.078 C 
ATOM      2  C1  UNL d   1       0.716  -0.203  -2.624  0.00  0.00    -0.077 A 
ATOM      3  C2  UNL d   1      -0.072  -1.136  -3.308  0.00  0.00    -0.001 A 
ATOM      4  C3  UNL d   1       0.524  -2.115  -4.104  0.00  0.00     0.003 A 
ATOM      5  C4  UNL d   1       1.911  -2.171  -4.223  0.00  0.00    -0.005 A 
ATOM      6  C5  UNL d   1       2.704  -1.248  -3.544  0.00  0.00     0.003 A 
ATOM      7  C6  UNL d   1       2.109  -0.269  -2.747  0.00  0.00    -0.001 A 
ENDROOT
TORSDOF 0
ENDMDL
