MODEL 1
REMARK minimizedAffinity -5.51072168
REMARK minimizedRMSD -1
REMARK  0 active torsions:
REMARK  status: ('A' for Active; 'I' for Inactive)
ROOT
ATOM      1  C   UNL d   1      -0.681  -1.096   3.267  0.00  0.00     0.078 C 
ATOM      2  C1  UNL d   1      -0.238  -0.488   1.970  0.00  0.00    -0.077 A 
ATOM      3  C2  UNL d   1       0.913   0.306   1.902  0.00  0.00    -0.001 A 
ATOM      4  C3  UNL d   1       1.308   0.874   0.690  0.00  0.00     0.003 A 
ATOM      5  C4  UNL d   1       0.557   0.655  -0.463  0.00  0.00    -0.005 A 
ATOM      6  C5  UNL d   1      -0.591  -0.132  -0.405  0.00  0.00     0.003 A 
ATOM      7  C6  UNL d   1      -0.988  -0.701   0.807  0.00  0.00    -0.001 A 
ENDROOT
TORSDOF 0
ENDMDL
