MODEL 1
REMARK minimizedAffinity -4.11851645
REMARK minimizedRMSD -1
REMARK  0 active torsions:
REMARK  status: ('A' for Active; 'I' for Inactive)
ROOT
ATOM      1  C   UNL d   1       0.231   0.142  -1.494  0.00  0.00     0.078 C 
ATOM      2  C1  UNL d   1       0.147  -0.054  -0.010  0.00  0.00    -0.077 A 
ATOM      3  C2  UNL d   1       1.110   0.495   0.846  0.00  0.00    -0.001 A 
ATOM      4  C3  UNL d   1       1.024   0.296   2.225  0.00  0.00     0.003 A 
ATOM      5  C4  UNL d   1      -0.022  -0.453   2.760  0.00  0.00    -0.005 A 
ATOM      6  C5  UNL d   1      -0.983  -1.005   1.916  0.00  0.00     0.003 A 
ATOM      7  C6  UNL d   1      -0.899  -0.807   0.537  0.00  0.00    -0.001 A 
ENDROOT
TORSDOF 0
ENDMDL
