MODEL 1
REMARK minimizedAffinity 2.06885386
REMARK minimizedRMSD -1
REMARK  0 active torsions:
REMARK  status: ('A' for Active; 'I' for Inactive)
ROOT
ATOM      1  C   UNL d   1       5.241   2.193  -5.395  0.00  0.00     0.078 C 
ATOM      2  C1  UNL d   1       4.284   1.115  -4.983  0.00  0.00    -0.077 A 
ATOM      3  C2  UNL d   1       4.575  -0.235  -5.213  0.00  0.00    -0.001 A 
ATOM      4  C3  UNL d   1       3.670  -1.228  -4.833  0.00  0.00     0.003 A 
ATOM      5  C4  UNL d   1       2.467  -0.880  -4.221  0.00  0.00    -0.005 A 
ATOM      6  C5  UNL d   1       2.168   0.460  -3.990  0.00  0.00     0.003 A 
ATOM      7  C6  UNL d   1       3.071   1.454  -4.369  0.00  0.00    -0.001 A 
ENDROOT
TORSDOF 0
ENDMDL
