MODEL 1
REMARK minimizedAffinity -3.08529544
REMARK minimizedRMSD -1
REMARK  0 active torsions:
REMARK  status: ('A' for Active; 'I' for Inactive)
ROOT
ATOM      1  C   UNL d   1       0.232   0.338  -1.276  0.00  0.00     0.078 C 
ATOM      2  C1  UNL d   1       0.057   0.249   0.211  0.00  0.00    -0.077 A 
ATOM      3  C2  UNL d   1      -1.107  -0.294   0.769  0.00  0.00    -0.001 A 
ATOM      4  C3  UNL d   1      -1.260  -0.360   2.155  0.00  0.00     0.003 A 
ATOM      5  C4  UNL d   1      -0.254   0.115   2.994  0.00  0.00    -0.005 A 
ATOM      6  C5  UNL d   1       0.907   0.659   2.448  0.00  0.00     0.003 A 
ATOM      7  C6  UNL d   1       1.062   0.727   1.062  0.00  0.00    -0.001 A 
ENDROOT
TORSDOF 0
ENDMDL
