MODEL 1
REMARK minimizedAffinity -0.753369451
REMARK minimizedRMSD -1
REMARK  0 active torsions:
REMARK  status: ('A' for Active; 'I' for Inactive)
ROOT
ATOM      1  C   UNL d   1      -0.926  -0.546   3.000  0.00  0.00     0.078 C 
ATOM      2  C1  UNL d   1      -0.484  -0.246   1.599  0.00  0.00    -0.077 A 
ATOM      3  C2  UNL d   1      -1.397  -0.256   0.537  0.00  0.00    -0.001 A 
ATOM      4  C3  UNL d   1      -0.970   0.016  -0.764  0.00  0.00     0.003 A 
ATOM      5  C4  UNL d   1       0.372   0.299  -1.015  0.00  0.00    -0.005 A 
ATOM      6  C5  UNL d   1       1.287   0.309   0.035  0.00  0.00     0.003 A 
ATOM      7  C6  UNL d   1       0.862   0.037   1.336  0.00  0.00    -0.001 A 
ENDROOT
TORSDOF 0
ENDMDL
