MODEL 1
REMARK minimizedAffinity -1.38485432
REMARK minimizedRMSD -1
REMARK  0 active torsions:
REMARK  status: ('A' for Active; 'I' for Inactive)
ROOT
ATOM      1  C   UNL d   1      -0.441   0.193  -0.525  0.00  0.00     0.078 C 
ATOM      2  C1  UNL d   1       0.074  -0.463  -1.771  0.00  0.00    -0.077 A 
ATOM      3  C2  UNL d   1       0.903   0.231  -2.661  0.00  0.00    -0.001 A 
ATOM      4  C3  UNL d   1       1.368  -0.389  -3.822  0.00  0.00     0.003 A 
ATOM      5  C4  UNL d   1       1.008  -1.705  -4.104  0.00  0.00    -0.005 A 
ATOM      6  C5  UNL d   1       0.182  -2.403  -3.226  0.00  0.00     0.003 A 
ATOM      7  C6  UNL d   1      -0.284  -1.784  -2.064  0.00  0.00    -0.001 A 
ENDROOT
TORSDOF 0
ENDMDL
