MODEL 1
REMARK minimizedAffinity -0.777827561
REMARK minimizedRMSD -1
REMARK  0 active torsions:
REMARK  status: ('A' for Active; 'I' for Inactive)
ROOT
ATOM      1  C   UNL d   1       0.666   0.780  -0.967  0.00  0.00     0.078 C 
ATOM      2  C1  UNL d   1       0.935  -0.215  -2.056  0.00  0.00    -0.077 A 
ATOM      3  C2  UNL d   1      -0.111  -0.757  -2.812  0.00  0.00    -0.001 A 
ATOM      4  C3  UNL d   1       0.154  -1.690  -3.816  0.00  0.00     0.003 A 
ATOM      5  C4  UNL d   1       1.464  -2.089  -4.072  0.00  0.00    -0.005 A 
ATOM      6  C5  UNL d   1       2.512  -1.557  -3.323  0.00  0.00     0.003 A 
ATOM      7  C6  UNL d   1       2.249  -0.624  -2.318  0.00  0.00    -0.001 A 
ENDROOT
TORSDOF 0
ENDMDL
