MODEL 1
REMARK minimizedAffinity -4.56928301
REMARK minimizedRMSD -1
REMARK  0 active torsions:
REMARK  status: ('A' for Active; 'I' for Inactive)
ROOT
ATOM      1  C   UNL d   1       0.336  -0.001  -1.280  0.00  0.00     0.078 C 
ATOM      2  C1  UNL d   1       0.171  -0.126   0.205  0.00  0.00    -0.077 A 
ATOM      3  C2  UNL d   1      -0.976  -0.710   0.757  0.00  0.00    -0.001 A 
ATOM      4  C3  UNL d   1      -1.120  -0.811   2.142  0.00  0.00     0.003 A 
ATOM      5  C4  UNL d   1      -0.122  -0.329   2.986  0.00  0.00    -0.005 A 
ATOM      6  C5  UNL d   1       1.022   0.255   2.446  0.00  0.00     0.003 A 
ATOM      7  C6  UNL d   1       1.168   0.357   1.062  0.00  0.00    -0.001 A 
ENDROOT
TORSDOF 0
ENDMDL
