MODEL 1
REMARK minimizedAffinity -3.71004581
REMARK minimizedRMSD -1
REMARK  0 active torsions:
REMARK  status: ('A' for Active; 'I' for Inactive)
ROOT
ATOM      1  C   UNL d   1       1.228  -0.051   1.089  0.00  0.00     0.078 C 
ATOM      2  C1  UNL d   1      -0.211  -0.141   1.501  0.00  0.00    -0.077 A 
ATOM      3  C2  UNL d   1      -1.223  -0.332   0.552  0.00  0.00    -0.001 A 
ATOM      4  C3  UNL d   1      -2.559  -0.404   0.949  0.00  0.00     0.003 A 
ATOM      5  C4  UNL d   1      -2.896  -0.286   2.296  0.00  0.00    -0.005 A 
ATOM      6  C5  UNL d   1      -1.896  -0.094   3.248  0.00  0.00     0.003 A 
ATOM      7  C6  UNL d   1      -0.560  -0.021   2.852  0.00  0.00    -0.001 A 
ENDROOT
TORSDOF 0
ENDMDL
