MODEL 1
REMARK minimizedAffinity -4.76308823
REMARK minimizedRMSD -1
REMARK  0 active torsions:
REMARK  status: ('A' for Active; 'I' for Inactive)
ROOT
ATOM      1  C   UNL d   1       0.451   0.310  -1.281  0.00  0.00     0.078 C 
ATOM      2  C1  UNL d   1       0.331   0.196   0.209  0.00  0.00    -0.077 A 
ATOM      3  C2  UNL d   1       1.362   0.630   1.051  0.00  0.00    -0.001 A 
ATOM      4  C3  UNL d   1       1.240   0.508   2.436  0.00  0.00     0.003 A 
ATOM      5  C4  UNL d   1       0.090  -0.049   2.992  0.00  0.00    -0.005 A 
ATOM      6  C5  UNL d   1      -0.940  -0.486   2.162  0.00  0.00     0.003 A 
ATOM      7  C6  UNL d   1      -0.821  -0.365   0.776  0.00  0.00    -0.001 A 
ENDROOT
TORSDOF 0
ENDMDL
