MODEL 1
REMARK minimizedAffinity -2.75365472
REMARK minimizedRMSD -1
REMARK  0 active torsions:
REMARK  status: ('A' for Active; 'I' for Inactive)
ROOT
ATOM      1  C   UNL d   1       0.662  -0.157  -1.321  0.00  0.00     0.078 C 
ATOM      2  C1  UNL d   1       0.509   0.175   0.133  0.00  0.00    -0.077 A 
ATOM      3  C2  UNL d   1       1.608   0.579   0.900  0.00  0.00    -0.001 A 
ATOM      4  C3  UNL d   1       1.453   0.875   2.255  0.00  0.00     0.003 A 
ATOM      5  C4  UNL d   1       0.200   0.769   2.856  0.00  0.00    -0.005 A 
ATOM      6  C5  UNL d   1      -0.900   0.365   2.101  0.00  0.00     0.003 A 
ATOM      7  C6  UNL d   1      -0.746   0.069   0.746  0.00  0.00    -0.001 A 
ENDROOT
TORSDOF 0
ENDMDL
