MODEL 1
REMARK minimizedAffinity -3.73611975
REMARK minimizedRMSD -1
REMARK  0 active torsions:
REMARK  status: ('A' for Active; 'I' for Inactive)
ROOT
ATOM      1  C   UNL d   1      -0.581   0.191  -0.274  0.00  0.00     0.078 C 
ATOM      2  C1  UNL d   1       0.197  -0.264  -1.472  0.00  0.00    -0.077 A 
ATOM      3  C2  UNL d   1      -0.047  -1.513  -2.057  0.00  0.00    -0.001 A 
ATOM      4  C3  UNL d   1       0.692  -1.928  -3.166  0.00  0.00     0.003 A 
ATOM      5  C4  UNL d   1       1.679  -1.102  -3.699  0.00  0.00    -0.005 A 
ATOM      6  C5  UNL d   1       1.930   0.141  -3.122  0.00  0.00     0.003 A 
ATOM      7  C6  UNL d   1       1.192   0.559  -2.013  0.00  0.00    -0.001 A 
ENDROOT
TORSDOF 0
ENDMDL
