MODEL 1
REMARK minimizedAffinity 2.13663077
REMARK minimizedRMSD -1
REMARK  0 active torsions:
REMARK  status: ('A' for Active; 'I' for Inactive)
ROOT
ATOM      1  N1  IND d   1       2.955   5.997   1.463  0.00  0.00    -0.196 N 
ATOM      2  C2  IND d   1       3.629   5.049   2.181  0.00  0.00     0.054 A 
ATOM      3  C3  IND d   1       2.924   3.896   2.216  0.00  0.00    -0.031 A 
ATOM      4  C4  IND d   1       0.689   3.310   1.081  0.00  0.00     0.051 A 
ATOM      5  C5  IND d   1      -0.324   3.861   0.349  0.00  0.00    -0.031 A 
ATOM      6  C6  IND d   1      -0.295   5.179  -0.060  0.00  0.00     0.015 A 
ATOM      7  C7  IND d   1       0.760   5.994   0.240  0.00  0.00    -0.016 A 
ATOM      8  C8  IND d   1       1.787   5.440   0.989  0.00  0.00    -0.047 A 
ATOM      9  C9  IND d   1       1.743   4.115   1.443  0.00  0.00    -0.096 A 
ATOM     10  HN1 IND d   1       3.216   6.805   1.330  0.00  0.00     0.298 HD
ENDROOT
TORSDOF 0
ENDMDL
