MODEL 1
REMARK minimizedAffinity 20.0961342
REMARK minimizedRMSD -1
REMARK  0 active torsions:
REMARK  status: ('A' for Active; 'I' for Inactive)
ROOT
ATOM      1  N1  IND d   1       6.000  -3.054  -2.030  0.00  0.00    -0.196 N 
ATOM      2  C2  IND d   1       5.997  -1.786  -2.539  0.00  0.00     0.054 A 
ATOM      3  C3  IND d   1       5.144  -1.001  -1.843  0.00  0.00    -0.031 A 
ATOM      4  C4  IND d   1       3.726  -1.565   0.231  0.00  0.00     0.051 A 
ATOM      5  C5  IND d   1       3.369  -2.606   1.041  0.00  0.00    -0.031 A 
ATOM      6  C6  IND d   1       3.882  -3.875   0.867  0.00  0.00     0.015 A 
ATOM      7  C7  IND d   1       4.785  -4.148  -0.121  0.00  0.00    -0.016 A 
ATOM      8  C8  IND d   1       5.145  -3.095  -0.950  0.00  0.00    -0.047 A 
ATOM      9  C9  IND d   1       4.595  -1.815  -0.804  0.00  0.00    -0.096 A 
ATOM     10  HN1 IND d   1       6.458  -3.716  -2.333  0.00  0.00     0.298 HD
ENDROOT
TORSDOF 0
ENDMDL
