MODEL 1
REMARK minimizedAffinity 14.149353
REMARK minimizedRMSD -1
REMARK  0 active torsions:
REMARK  status: ('A' for Active; 'I' for Inactive)
ROOT
ATOM      1  N1  IND d   1       5.676  -3.752  -3.393  0.00  0.00    -0.196 N 
ATOM      2  C2  IND d   1       4.885  -4.865  -3.324  0.00  0.00     0.054 A 
ATOM      3  C3  IND d   1       4.155  -4.854  -2.186  0.00  0.00    -0.031 A 
ATOM      4  C4  IND d   1       4.023  -3.058  -0.346  0.00  0.00     0.051 A 
ATOM      5  C5  IND d   1       4.587  -1.878   0.050  0.00  0.00    -0.031 A 
ATOM      6  C6  IND d   1       5.560  -1.248  -0.698  0.00  0.00     0.015 A 
ATOM      7  C7  IND d   1       5.999  -1.771  -1.881  0.00  0.00    -0.016 A 
ATOM      8  C8  IND d   1       5.434  -2.973  -2.283  0.00  0.00    -0.047 A 
ATOM      9  C9  IND d   1       4.477  -3.639  -1.507  0.00  0.00    -0.096 A 
ATOM     10  HN1 IND d   1       6.230  -3.569  -4.024  0.00  0.00     0.298 HD
ENDROOT
TORSDOF 0
ENDMDL
