MODEL 1
REMARK minimizedAffinity 16.4757614
REMARK minimizedRMSD -1
REMARK  0 active torsions:
REMARK  status: ('A' for Active; 'I' for Inactive)
ROOT
ATOM      1  N1  IND d   1       2.933   3.942   2.379  0.00  0.00    -0.196 N 
ATOM      2  C2  IND d   1       3.551   5.161   2.380  0.00  0.00     0.054 A 
ATOM      3  C3  IND d   1       2.939   5.999   1.513  0.00  0.00    -0.031 A 
ATOM      4  C4  IND d   1       0.845   5.613   0.067  0.00  0.00     0.051 A 
ATOM      5  C5  IND d   1      -0.048   4.645  -0.299  0.00  0.00    -0.031 A 
ATOM      6  C6  IND d   1       0.007   3.368   0.221  0.00  0.00     0.015 A 
ATOM      7  C7  IND d   1       0.954   3.014   1.140  0.00  0.00    -0.016 A 
ATOM      8  C8  IND d   1       1.866   3.992   1.509  0.00  0.00    -0.047 A 
ATOM      9  C9  IND d   1       1.842   5.277   0.952  0.00  0.00    -0.096 A 
ATOM     10  HN1 IND d   1       3.170   3.259   2.844  0.00  0.00     0.298 HD
ENDROOT
TORSDOF 0
ENDMDL
