MODEL 1
REMARK minimizedAffinity 12.5542212
REMARK minimizedRMSD -1
REMARK  0 active torsions:
REMARK  status: ('A' for Active; 'I' for Inactive)
ROOT
ATOM      1  N1  IND d   1       6.000  -1.954  -4.298  0.00  0.00    -0.196 N 
ATOM      2  C2  IND d   1       5.983  -3.200  -4.859  0.00  0.00     0.054 A 
ATOM      3  C3  IND d   1       5.878  -4.147  -3.899  0.00  0.00    -0.031 A 
ATOM      4  C4  IND d   1       5.619  -3.872  -1.353  0.00  0.00     0.051 A 
ATOM      5  C5  IND d   1       5.617  -2.926  -0.366  0.00  0.00    -0.031 A 
ATOM      6  C6  IND d   1       5.743  -1.581  -0.645  0.00  0.00     0.015 A 
ATOM      7  C7  IND d   1       5.864  -1.128  -1.928  0.00  0.00    -0.016 A 
ATOM      8  C8  IND d   1       5.873  -2.086  -2.932  0.00  0.00    -0.047 A 
ATOM      9  C9  IND d   1       5.789  -3.456  -2.652  0.00  0.00    -0.096 A 
ATOM     10  HN1 IND d   1       6.077  -1.212  -4.726  0.00  0.00     0.298 HD
ENDROOT
TORSDOF 0
ENDMDL
