MODEL 1
REMARK minimizedAffinity 10.0825033
REMARK minimizedRMSD -1
REMARK  0 active torsions:
REMARK  status: ('A' for Active; 'I' for Inactive)
ROOT
ATOM      1  N1  IND d   1      -0.826   2.609   0.735  0.00  0.00    -0.196 N 
ATOM      2  C2  IND d   1       0.261   1.858   1.086  0.00  0.00     0.054 A 
ATOM      3  C3  IND d   1       1.402   2.537   0.835  0.00  0.00    -0.031 A 
ATOM      4  C4  IND d   1       1.719   4.933  -0.053  0.00  0.00     0.051 A 
ATOM      5  C5  IND d   1       1.021   5.999  -0.548  0.00  0.00    -0.031 A 
ATOM      6  C6  IND d   1      -0.356   5.990  -0.641  0.00  0.00     0.015 A 
ATOM      7  C7  IND d   1      -1.090   4.915  -0.228  0.00  0.00    -0.016 A 
ATOM      8  C8  IND d   1      -0.385   3.828   0.268  0.00  0.00    -0.047 A 
ATOM      9  C9  IND d   1       1.014   3.814   0.325  0.00  0.00    -0.096 A 
ATOM     10  HN1 IND d   1      -1.648   2.361   0.795  0.00  0.00     0.298 HD
ENDROOT
TORSDOF 0
ENDMDL
