MODEL 1
REMARK minimizedAffinity 18.6310139
REMARK minimizedRMSD -1
REMARK  0 active torsions:
REMARK  status: ('A' for Active; 'I' for Inactive)
ROOT
ATOM      1  N1  IND d   1       3.766  -5.090  -3.921  0.00  0.00    -0.196 N 
ATOM      2  C2  IND d   1       3.299  -5.974  -2.988  0.00  0.00     0.054 A 
ATOM      3  C3  IND d   1       3.788  -5.669  -1.765  0.00  0.00    -0.031 A 
ATOM      4  C4  IND d   1       5.287  -3.703  -1.046  0.00  0.00     0.051 A 
ATOM      5  C5  IND d   1       5.998  -2.651  -1.550  0.00  0.00    -0.031 A 
ATOM      6  C6  IND d   1       6.000  -2.350  -2.897  0.00  0.00     0.015 A 
ATOM      7  C7  IND d   1       5.278  -3.087  -3.792  0.00  0.00    -0.016 A 
ATOM      8  C8  IND d   1       4.559  -4.161  -3.285  0.00  0.00    -0.047 A 
ATOM      9  C9  IND d   1       4.588  -4.496  -1.925  0.00  0.00    -0.096 A 
ATOM     10  HN1 IND d   1       3.592  -5.111  -4.763  0.00  0.00     0.298 HD
ENDROOT
TORSDOF 0
ENDMDL
