MODEL 1
REMARK minimizedAffinity 20.4612312
REMARK minimizedRMSD -1
REMARK  0 active torsions:
REMARK  status: ('A' for Active; 'I' for Inactive)
ROOT
ATOM      1  N1  IND d   1       5.994  -1.767  -4.140  0.00  0.00    -0.196 N 
ATOM      2  C2  IND d   1       5.817  -2.872  -4.926  0.00  0.00     0.054 A 
ATOM      3  C3  IND d   1       5.612  -3.966  -4.159  0.00  0.00    -0.031 A 
ATOM      4  C4  IND d   1       5.427  -4.159  -1.599  0.00  0.00     0.051 A 
ATOM      5  C5  IND d   1       5.556  -3.428  -0.451  0.00  0.00    -0.031 A 
ATOM      6  C6  IND d   1       5.840  -2.078  -0.475  0.00  0.00     0.015 A 
ATOM      7  C7  IND d   1       5.996  -1.403  -1.653  0.00  0.00    -0.016 A 
ATOM      8  C8  IND d   1       5.873  -2.144  -2.820  0.00  0.00    -0.047 A 
ATOM      9  C9  IND d   1       5.627  -3.523  -2.801  0.00  0.00    -0.096 A 
ATOM     10  HN1 IND d   1       6.155  -0.971  -4.422  0.00  0.00     0.298 HD
ENDROOT
TORSDOF 0
ENDMDL
