MODEL 1
REMARK minimizedAffinity -0.591136098
REMARK minimizedRMSD -1
REMARK  1 active torsions:
REMARK  status: ('A' for Active; 'I' for Inactive)
REMARK    1  A    between atoms: C1_2  and  C2_3 
ROOT
ATOM      1  C2  UNL d   1      -0.895  -0.070   0.390  0.00  0.00    -0.076 A 
ATOM      2  C3  UNL d   1      -0.859   1.063  -0.441  0.00  0.00     0.004 A 
ATOM      3  C4  UNL d   1      -0.038   1.101  -1.567  0.00  0.00    -0.003 A 
ATOM      4  C5  UNL d   1       0.759   0.006  -1.880  0.00  0.00     0.000 A 
ATOM      5  C6  UNL d   1       0.722  -1.134  -1.077  0.00  0.00     0.000 A 
ATOM      6  C7  UNL d   1      -0.112  -1.194   0.053  0.00  0.00    -0.073 A 
ATOM      7  C8  UNL d   1      -0.107  -2.445   0.887  0.00  0.00     0.078 C 
ENDROOT
BRANCH   1   8
ATOM      8  C1  UNL d   1      -1.784  -0.043   1.613  0.00  0.00     0.053 C 
ATOM      9  C   UNL d   1      -3.255  -0.223   1.269  0.00  0.00     0.018 C 
ENDBRANCH   1   8
TORSDOF 1
ENDMDL
