MODEL 1
REMARK minimizedAffinity -4.25400543
REMARK minimizedRMSD -1
REMARK  1 active torsions:
REMARK  status: ('A' for Active; 'I' for Inactive)
REMARK    1  A    between atoms: C1_2  and  C2_3 
ROOT
ATOM      1  C2  UNL d   1       0.347  -1.051  -1.140  0.00  0.00    -0.076 A 
ATOM      2  C3  UNL d   1       0.509  -2.447  -1.131  0.00  0.00     0.004 A 
ATOM      3  C4  UNL d   1       1.557  -3.053  -1.823  0.00  0.00    -0.003 A 
ATOM      4  C5  UNL d   1       2.459  -2.271  -2.536  0.00  0.00     0.000 A 
ATOM      5  C6  UNL d   1       2.324  -0.883  -2.542  0.00  0.00     0.000 A 
ATOM      6  C7  UNL d   1       1.283  -0.256  -1.835  0.00  0.00    -0.073 A 
ATOM      7  C8  UNL d   1       1.181   1.244  -1.881  0.00  0.00     0.078 C 
ENDROOT
BRANCH   1   8
ATOM      8  C1  UNL d   1      -0.824  -0.453  -0.393  0.00  0.00     0.053 C 
ATOM      9  C   UNL d   1      -0.543  -0.285   1.092  0.00  0.00     0.018 C 
ENDBRANCH   1   8
TORSDOF 1
ENDMDL
