MODEL 1
REMARK minimizedAffinity -0.397019774
REMARK minimizedRMSD -1
REMARK  1 active torsions:
REMARK  status: ('A' for Active; 'I' for Inactive)
REMARK    1  A    between atoms: C1_2  and  C2_3 
ROOT
ATOM      1  C2  UNL d   1      -1.242   0.332   0.726  0.00  0.00    -0.076 A 
ATOM      2  C3  UNL d   1      -0.640  -0.935   0.820  0.00  0.00     0.004 A 
ATOM      3  C4  UNL d   1       0.351  -1.327  -0.078  0.00  0.00    -0.003 A 
ATOM      4  C5  UNL d   1       0.757  -0.458  -1.085  0.00  0.00     0.000 A 
ATOM      5  C6  UNL d   1       0.183   0.809  -1.182  0.00  0.00     0.000 A 
ATOM      6  C7  UNL d   1      -0.805   1.227  -0.275  0.00  0.00    -0.073 A 
ATOM      7  C8  UNL d   1      -1.394   2.602  -0.430  0.00  0.00     0.078 C 
ENDROOT
BRANCH   1   8
ATOM      8  C1  UNL d   1      -2.330   0.692   1.712  0.00  0.00     0.053 C 
ATOM      9  C   UNL d   1      -3.613  -0.090   1.474  0.00  0.00     0.018 C 
ENDBRANCH   1   8
TORSDOF 1
ENDMDL
