MODEL 1
REMARK minimizedAffinity -4.17185831
REMARK minimizedRMSD -1
REMARK  1 active torsions:
REMARK  status: ('A' for Active; 'I' for Inactive)
REMARK    1  A    between atoms: C1_2  and  C2_3 
ROOT
ATOM      1  C2  UNL d   1       0.150  -0.624  -0.097  0.00  0.00    -0.076 A 
ATOM      2  C3  UNL d   1       0.790   0.616   0.078  0.00  0.00     0.004 A 
ATOM      3  C4  UNL d   1       1.527   1.194  -0.954  0.00  0.00    -0.003 A 
ATOM      4  C5  UNL d   1       1.637   0.543  -2.177  0.00  0.00     0.000 A 
ATOM      5  C6  UNL d   1       0.994  -0.679  -2.374  0.00  0.00     0.000 A 
ATOM      6  C7  UNL d   1       0.233  -1.268  -1.350  0.00  0.00    -0.073 A 
ATOM      7  C8  UNL d   1      -0.433  -2.590  -1.615  0.00  0.00     0.078 C 
ENDROOT
BRANCH   1   8
ATOM      8  C1  UNL d   1      -0.613  -1.215   1.067  0.00  0.00     0.053 C 
ATOM      9  C   UNL d   1      -1.865  -0.421   1.406  0.00  0.00     0.018 C 
ENDBRANCH   1   8
TORSDOF 1
ENDMDL
