MODEL 1
REMARK minimizedAffinity -4.69709778
REMARK minimizedRMSD -1
REMARK  1 active torsions:
REMARK  status: ('A' for Active; 'I' for Inactive)
REMARK    1  A    between atoms: C1_2  and  C2_3 
ROOT
ATOM      1  C2  UNL d   1       0.510  -0.254  -0.307  0.00  0.00    -0.076 A 
ATOM      2  C3  UNL d   1       0.455  -1.449  -1.045  0.00  0.00     0.004 A 
ATOM      3  C4  UNL d   1       0.991  -1.525  -2.330  0.00  0.00    -0.003 A 
ATOM      4  C5  UNL d   1       1.593  -0.407  -2.896  0.00  0.00     0.000 A 
ATOM      5  C6  UNL d   1       1.673   0.782  -2.172  0.00  0.00     0.000 A 
ATOM      6  C7  UNL d   1       1.152   0.870  -0.870  0.00  0.00    -0.073 A 
ATOM      7  C8  UNL d   1       1.260   2.179  -0.136  0.00  0.00     0.078 C 
ENDROOT
BRANCH   1   8
ATOM      8  C1  UNL d   1      -0.113  -0.224   1.070  0.00  0.00     0.053 C 
ATOM      9  C   UNL d   1      -1.547   0.282   1.050  0.00  0.00     0.018 C 
ENDBRANCH   1   8
TORSDOF 1
ENDMDL
