MODEL 1
REMARK minimizedAffinity -1.12995756
REMARK minimizedRMSD -1
REMARK  1 active torsions:
REMARK  status: ('A' for Active; 'I' for Inactive)
REMARK    1  A    between atoms: C1_2  and  C2_3 
ROOT
ATOM      1  C2  UNL d   1      -0.120  -0.388  -0.185  0.00  0.00    -0.076 A 
ATOM      2  C3  UNL d   1      -0.106  -1.084   1.037  0.00  0.00     0.004 A 
ATOM      3  C4  UNL d   1       0.061  -2.467   1.073  0.00  0.00    -0.003 A 
ATOM      4  C5  UNL d   1       0.219  -3.177  -0.112  0.00  0.00     0.000 A 
ATOM      5  C6  UNL d   1       0.226  -2.502  -1.332  0.00  0.00     0.000 A 
ATOM      6  C7  UNL d   1       0.074  -1.105  -1.385  0.00  0.00    -0.073 A 
ATOM      7  C8  UNL d   1       0.084  -0.429  -2.728  0.00  0.00     0.078 C 
ENDROOT
BRANCH   1   8
ATOM      8  C1  UNL d   1      -0.332   1.109  -0.164  0.00  0.00     0.053 C 
ATOM      9  C   UNL d   1       0.867   1.860   0.394  0.00  0.00     0.018 C 
ENDBRANCH   1   8
TORSDOF 1
ENDMDL
