MODEL 1
REMARK minimizedAffinity -4.54261923
REMARK minimizedRMSD -1
REMARK  1 active torsions:
REMARK  status: ('A' for Active; 'I' for Inactive)
REMARK    1  A    between atoms: C1_2  and  C2_3 
ROOT
ATOM      1  C2  UNL d   1      -0.150  -0.118   0.110  0.00  0.00    -0.076 A 
ATOM      2  C3  UNL d   1       0.008   1.248  -0.182  0.00  0.00     0.004 A 
ATOM      3  C4  UNL d   1       0.656   1.662  -1.345  0.00  0.00    -0.003 A 
ATOM      4  C5  UNL d   1       1.154   0.717  -2.235  0.00  0.00     0.000 A 
ATOM      5  C6  UNL d   1       0.990  -0.642  -1.969  0.00  0.00     0.000 A 
ATOM      6  C7  UNL d   1       0.326  -1.076  -0.810  0.00  0.00    -0.073 A 
ATOM      7  C8  UNL d   1       0.183  -2.554  -0.570  0.00  0.00     0.078 C 
ENDROOT
BRANCH   1   8
ATOM      8  C1  UNL d   1      -0.837  -0.507   1.400  0.00  0.00     0.053 C 
ATOM      9  C   UNL d   1      -2.325  -0.196   1.385  0.00  0.00     0.018 C 
ENDBRANCH   1   8
TORSDOF 1
ENDMDL
