MODEL 1
REMARK minimizedAffinity -1.66367388
REMARK minimizedRMSD -1
REMARK  1 active torsions:
REMARK  status: ('A' for Active; 'I' for Inactive)
REMARK    1  A    between atoms: C1_2  and  C2_3 
ROOT
ATOM      1  C2  UNL d   1       0.547  -0.014  -0.850  0.00  0.00    -0.076 A 
ATOM      2  C3  UNL d   1       0.032   1.253  -0.524  0.00  0.00     0.004 A 
ATOM      3  C4  UNL d   1      -1.011   1.390   0.390  0.00  0.00    -0.003 A 
ATOM      4  C5  UNL d   1      -1.555   0.262   0.995  0.00  0.00     0.000 A 
ATOM      5  C6  UNL d   1      -1.045  -1.001   0.697  0.00  0.00     0.000 A 
ATOM      6  C7  UNL d   1       0.017  -1.155  -0.211  0.00  0.00    -0.073 A 
ATOM      7  C8  UNL d   1       0.525  -2.542  -0.499  0.00  0.00     0.078 C 
ENDROOT
BRANCH   1   8
ATOM      8  C1  UNL d   1       1.661  -0.103  -1.869  0.00  0.00     0.053 C 
ATOM      9  C   UNL d   1       2.806   0.851  -1.566  0.00  0.00     0.018 C 
ENDBRANCH   1   8
TORSDOF 1
ENDMDL
