MODEL 1
REMARK minimizedAffinity -3.76661205
REMARK minimizedRMSD -1
REMARK  1 active torsions:
REMARK  status: ('A' for Active; 'I' for Inactive)
REMARK    1  A    between atoms: C1_2  and  C2_3 
ROOT
ATOM      1  C2  UNL d   1       0.557   0.107  -1.615  0.00  0.00    -0.076 A 
ATOM      2  C3  UNL d   1       0.544   1.326  -0.915  0.00  0.00     0.004 A 
ATOM      3  C4  UNL d   1      -0.038   1.422   0.348  0.00  0.00    -0.003 A 
ATOM      4  C5  UNL d   1      -0.614   0.300   0.933  0.00  0.00     0.000 A 
ATOM      5  C6  UNL d   1      -0.594  -0.922   0.261  0.00  0.00     0.000 A 
ATOM      6  C7  UNL d   1       0.003  -1.039  -1.007  0.00  0.00    -0.073 A 
ATOM      7  C8  UNL d   1      -0.009  -2.380  -1.689  0.00  0.00     0.078 C 
ENDROOT
BRANCH   1   8
ATOM      8  C1  UNL d   1       1.178   0.070  -2.993  0.00  0.00     0.053 C 
ATOM      9  C   UNL d   1       2.643   0.477  -2.984  0.00  0.00     0.018 C 
ENDBRANCH   1   8
TORSDOF 1
ENDMDL
