MODEL 1
REMARK minimizedAffinity -2.82469773
REMARK minimizedRMSD -1
REMARK  1 active torsions:
REMARK  status: ('A' for Active; 'I' for Inactive)
REMARK    1  A    between atoms: C1_2  and  C2_3 
ROOT
ATOM      1  C2  UNL d   1       0.817  -0.074  -1.338  0.00  0.00    -0.076 A 
ATOM      2  C3  UNL d   1       0.707   1.202  -0.756  0.00  0.00     0.004 A 
ATOM      3  C4  UNL d   1       0.137   1.368   0.505  0.00  0.00    -0.003 A 
ATOM      4  C5  UNL d   1      -0.330   0.262   1.206  0.00  0.00     0.000 A 
ATOM      5  C6  UNL d   1      -0.213  -1.012   0.652  0.00  0.00     0.000 A 
ATOM      6  C7  UNL d   1       0.373  -1.199  -0.611  0.00  0.00    -0.073 A 
ATOM      7  C8  UNL d   1       0.468  -2.595  -1.163  0.00  0.00     0.078 C 
ENDROOT
BRANCH   1   8
ATOM      8  C1  UNL d   1       1.419  -0.190  -2.720  0.00  0.00     0.053 C 
ATOM      9  C   UNL d   1       2.780   0.480  -2.821  0.00  0.00     0.018 C 
ENDBRANCH   1   8
TORSDOF 1
ENDMDL
