MODEL 1
REMARK minimizedAffinity -2.73793578
REMARK minimizedRMSD -1
REMARK  1 active torsions:
REMARK  status: ('A' for Active; 'I' for Inactive)
REMARK    1  A    between atoms: C1_2  and  C2_3 
ROOT
ATOM      1  C2  UNL d   1      -0.434   0.364   0.171  0.00  0.00    -0.076 A 
ATOM      2  C3  UNL d   1      -0.633  -0.756  -0.655  0.00  0.00     0.004 A 
ATOM      3  C4  UNL d   1       0.085  -0.911  -1.840  0.00  0.00    -0.003 A 
ATOM      4  C5  UNL d   1       1.016   0.051  -2.217  0.00  0.00     0.000 A 
ATOM      5  C6  UNL d   1       1.239   1.160  -1.401  0.00  0.00     0.000 A 
ATOM      6  C7  UNL d   1       0.535   1.323  -0.195  0.00  0.00    -0.073 A 
ATOM      7  C8  UNL d   1       0.811   2.541   0.643  0.00  0.00     0.078 C 
ENDROOT
BRANCH   1   8
ATOM      8  C1  UNL d   1      -1.262   0.492   1.429  0.00  0.00     0.053 C 
ATOM      9  C   UNL d   1      -2.756   0.486   1.147  0.00  0.00     0.018 C 
ENDBRANCH   1   8
TORSDOF 1
ENDMDL
