MODEL 1
REMARK minimizedAffinity -2.97516608
REMARK minimizedRMSD -1
REMARK  1 active torsions:
REMARK  status: ('A' for Active; 'I' for Inactive)
REMARK    1  A    between atoms: C1_2  and  C2_3 
ROOT
ATOM      1  C2  UNL d   1       0.166  -0.202   0.251  0.00  0.00    -0.076 A 
ATOM      2  C3  UNL d   1       0.101  -1.356  -0.549  0.00  0.00     0.004 A 
ATOM      3  C4  UNL d   1       0.605  -1.358  -1.848  0.00  0.00    -0.003 A 
ATOM      4  C5  UNL d   1       1.183  -0.206  -2.369  0.00  0.00     0.000 A 
ATOM      5  C6  UNL d   1       1.272   0.943  -1.584  0.00  0.00     0.000 A 
ATOM      6  C7  UNL d   1       0.784   0.957  -0.266  0.00  0.00    -0.073 A 
ATOM      7  C8  UNL d   1       0.901   2.225   0.534  0.00  0.00     0.078 C 
ENDROOT
BRANCH   1   8
ATOM      8  C1  UNL d   1      -0.422  -0.251   1.643  0.00  0.00     0.053 C 
ATOM      9  C   UNL d   1      -1.889   0.146   1.670  0.00  0.00     0.018 C 
ENDBRANCH   1   8
TORSDOF 1
ENDMDL
