MODEL 1
REMARK minimizedAffinity 3.77478027
REMARK minimizedRMSD -1
REMARK  0 active torsions:
REMARK  status: ('A' for Active; 'I' for Inactive)
ROOT
ATOM      1  C4' PXY d   1       1.905   2.965  -6.000  0.00  0.00     0.077 C 
ATOM      2  C1' PXY d   1      -0.067   0.827  -1.005  0.00  0.00     0.077 C 
ATOM      3  C1  PXY d   1       0.438   1.394  -2.317  0.00  0.00    -0.082 A 
ATOM      4  C2  PXY d   1       1.458   0.814  -2.930  0.00  0.00     0.003 A 
ATOM      5  C3  PXY d   1       1.948   1.332  -4.101  0.00  0.00     0.003 A 
ATOM      6  C4  PXY d   1       1.355   2.423  -4.678  0.00  0.00    -0.082 A 
ATOM      7  C5  PXY d   1       0.308   3.013  -4.065  0.00  0.00     0.003 A 
ATOM      8  C6  PXY d   1      -0.149   2.497  -2.855  0.00  0.00     0.003 A 
ENDROOT
TORSDOF 0
ENDMDL
