MODEL 1
REMARK minimizedAffinity -1.50229192
REMARK minimizedRMSD -1
REMARK  0 active torsions:
REMARK  status: ('A' for Active; 'I' for Inactive)
ROOT
ATOM      1  C4' PXY d   1       3.278  -0.092   2.280  0.00  0.00     0.077 C 
ATOM      2  C1' PXY d   1      -2.490  -0.246   2.625  0.00  0.00     0.077 C 
ATOM      3  C1  PXY d   1      -0.978  -0.197   2.525  0.00  0.00    -0.082 A 
ATOM      4  C2  PXY d   1      -0.259  -1.207   2.988  0.00  0.00     0.003 A 
ATOM      5  C3  PXY d   1       1.110  -1.165   2.935  0.00  0.00     0.003 A 
ATOM      6  C4  PXY d   1       1.749  -0.103   2.352  0.00  0.00    -0.082 A 
ATOM      7  C5  PXY d   1       1.022   0.926   1.867  0.00  0.00     0.003 A 
ATOM      8  C6  PXY d   1      -0.366   0.883   1.969  0.00  0.00     0.003 A 
ENDROOT
TORSDOF 0
ENDMDL
