MODEL 1
REMARK minimizedAffinity 6.37360811
REMARK minimizedRMSD -1
REMARK  0 active torsions:
REMARK  status: ('A' for Active; 'I' for Inactive)
ROOT
ATOM      1  C4' PXY d   1      -3.740   0.424   1.085  0.00  0.00     0.077 C 
ATOM      2  C1' PXY d   1      -0.159  -2.747  -2.161  0.00  0.00     0.077 C 
ATOM      3  C1  PXY d   1      -1.093  -1.905  -1.315  0.00  0.00    -0.082 A 
ATOM      4  C2  PXY d   1      -1.621  -2.417  -0.215  0.00  0.00     0.003 A 
ATOM      5  C3  PXY d   1      -2.492  -1.680   0.545  0.00  0.00     0.003 A 
ATOM      6  C4  PXY d   1      -2.785  -0.387   0.205  0.00  0.00    -0.082 A 
ATOM      7  C5  PXY d   1      -2.242   0.147  -0.910  0.00  0.00     0.003 A 
ATOM      8  C6  PXY d   1      -1.392  -0.631  -1.690  0.00  0.00     0.003 A 
ENDROOT
TORSDOF 0
ENDMDL
