MODEL 1
REMARK minimizedAffinity 0.197112337
REMARK minimizedRMSD -1
REMARK  0 active torsions:
REMARK  status: ('A' for Active; 'I' for Inactive)
ROOT
ATOM      1  C4' PXY d   1      -4.250   0.681   1.871  0.00  0.00     0.077 C 
ATOM      2  C1' PXY d   1       1.477  -0.004   2.266  0.00  0.00     0.077 C 
ATOM      3  C1  PXY d   1      -0.024   0.182   2.151  0.00  0.00    -0.082 A 
ATOM      4  C2  PXY d   1      -0.777   0.102   3.236  0.00  0.00     0.003 A 
ATOM      5  C3  PXY d   1      -2.139   0.236   3.145  0.00  0.00     0.003 A 
ATOM      6  C4  PXY d   1      -2.730   0.509   1.941  0.00  0.00    -0.082 A 
ATOM      7  C5  PXY d   1      -1.967   0.603   0.831  0.00  0.00     0.003 A 
ATOM      8  C6  PXY d   1      -0.591   0.422   0.938  0.00  0.00     0.003 A 
ENDROOT
TORSDOF 0
ENDMDL
