MODEL 1
REMARK minimizedAffinity 1.56073487
REMARK minimizedRMSD -1
REMARK  0 active torsions:
REMARK  status: ('A' for Active; 'I' for Inactive)
ROOT
ATOM      1  C4' PXY d   1      -1.694   0.859  -1.585  0.00  0.00     0.077 C 
ATOM      2  C1' PXY d   1       0.522  -0.039   3.678  0.00  0.00     0.077 C 
ATOM      3  C1  PXY d   1      -0.050   0.205   2.295  0.00  0.00    -0.082 A 
ATOM      4  C2  PXY d   1      -1.334  -0.020   2.069  0.00  0.00     0.003 A 
ATOM      5  C3  PXY d   1      -1.860   0.165   0.816  0.00  0.00     0.003 A 
ATOM      6  C4  PXY d   1      -1.076   0.636  -0.202  0.00  0.00    -0.082 A 
ATOM      7  C5  PXY d   1       0.233   0.878   0.023  0.00  0.00     0.003 A 
ATOM      8  C6  PXY d   1       0.757   0.645   1.291  0.00  0.00     0.003 A 
ENDROOT
TORSDOF 0
ENDMDL
