MODEL 1
REMARK minimizedAffinity -5.81954765
REMARK minimizedRMSD -1
REMARK  0 active torsions:
REMARK  status: ('A' for Active; 'I' for Inactive)
ROOT
ATOM      1  C4' PXY d   1      -2.994  -1.435   5.997  0.00  0.00     0.077 C 
ATOM      2  C1' PXY d   1       0.115   0.259   1.427  0.00  0.00     0.077 C 
ATOM      3  C1  PXY d   1      -0.711  -0.179   2.621  0.00  0.00    -0.082 A 
ATOM      4  C2  PXY d   1      -0.105  -0.508   3.750  0.00  0.00     0.003 A 
ATOM      5  C3  PXY d   1      -0.834  -0.937   4.829  0.00  0.00     0.003 A 
ATOM      6  C4  PXY d   1      -2.201  -0.978   4.769  0.00  0.00    -0.082 A 
ATOM      7  C5  PXY d   1      -2.828  -0.633   3.624  0.00  0.00     0.003 A 
ATOM      8  C6  PXY d   1      -2.067  -0.240   2.527  0.00  0.00     0.003 A 
ENDROOT
TORSDOF 0
ENDMDL
