MODEL 1
REMARK minimizedAffinity -1.96874857
REMARK minimizedRMSD -1
REMARK  0 active torsions:
REMARK  status: ('A' for Active; 'I' for Inactive)
ROOT
ATOM      1  C4' PXY d   1      -4.366   1.380   1.099  0.00  0.00     0.077 C 
ATOM      2  C1' PXY d   1      -0.522  -1.936   3.862  0.00  0.00     0.077 C 
ATOM      3  C1  PXY d   1      -1.520  -1.060   3.132  0.00  0.00    -0.082 A 
ATOM      4  C2  PXY d   1      -2.753  -0.945   3.598  0.00  0.00     0.003 A 
ATOM      5  C3  PXY d   1      -3.678  -0.182   2.933  0.00  0.00     0.003 A 
ATOM      6  C4  PXY d   1      -3.322   0.514   1.808  0.00  0.00    -0.082 A 
ATOM      7  C5  PXY d   1      -2.063   0.410   1.333  0.00  0.00     0.003 A 
ATOM      8  C6  PXY d   1      -1.151  -0.402   2.000  0.00  0.00     0.003 A 
ENDROOT
TORSDOF 0
ENDMDL
