MODEL 1
REMARK minimizedAffinity 2.09565926
REMARK minimizedRMSD -1
REMARK  0 active torsions:
REMARK  status: ('A' for Active; 'I' for Inactive)
ROOT
ATOM      1  C4' PXY d   1       1.150  -0.701   2.825  0.00  0.00     0.077 C 
ATOM      2  C1' PXY d   1      -4.228   1.063   1.648  0.00  0.00     0.077 C 
ATOM      3  C1  PXY d   1      -2.819   0.604   1.969  0.00  0.00    -0.082 A 
ATOM      4  C2  PXY d   1      -1.927   0.499   0.997  0.00  0.00     0.003 A 
ATOM      5  C3  PXY d   1      -0.658   0.056   1.265  0.00  0.00     0.003 A 
ATOM      6  C4  PXY d   1      -0.281  -0.233   2.549  0.00  0.00    -0.082 A 
ATOM      7  C5  PXY d   1      -1.182  -0.118   3.548  0.00  0.00     0.003 A 
ATOM      8  C6  PXY d   1      -2.477   0.295   3.249  0.00  0.00     0.003 A 
ENDROOT
TORSDOF 0
ENDMDL
