MODEL 1
REMARK minimizedAffinity 6.25850534
REMARK minimizedRMSD -1
REMARK  0 active torsions:
REMARK  status: ('A' for Active; 'I' for Inactive)
ROOT
ATOM      1  C4' PXY d   1      -0.528  -0.650  -1.488  0.00  0.00     0.077 C 
ATOM      2  C1' PXY d   1      -3.395   1.144   3.200  0.00  0.00     0.077 C 
ATOM      3  C1  PXY d   1      -2.654   0.669   1.966  0.00  0.00    -0.082 A 
ATOM      4  C2  PXY d   1      -1.363   0.392   2.044  0.00  0.00     0.003 A 
ATOM      5  C3  PXY d   1      -0.671  -0.008   0.930  0.00  0.00     0.003 A 
ATOM      6  C4  PXY d   1      -1.318  -0.177  -0.265  0.00  0.00    -0.082 A 
ATOM      7  C5  PXY d   1      -2.638   0.093  -0.350  0.00  0.00     0.003 A 
ATOM      8  C6  PXY d   1      -3.314   0.538   0.783  0.00  0.00     0.003 A 
ENDROOT
TORSDOF 0
ENDMDL
