MODEL 1
REMARK minimizedAffinity 5.80162668
REMARK minimizedRMSD -1
REMARK  0 active torsions:
REMARK  status: ('A' for Active; 'I' for Inactive)
ROOT
ATOM      1  C4' PXY d   1      -3.485   3.363   3.050  0.00  0.00     0.077 C 
ATOM      2  C1' PXY d   1       0.897  -0.406   3.112  0.00  0.00     0.077 C 
ATOM      3  C1  PXY d   1      -0.258   0.576   3.086  0.00  0.00    -0.082 A 
ATOM      4  C2  PXY d   1      -0.087   1.800   3.559  0.00  0.00     0.003 A 
ATOM      5  C3  PXY d   1      -1.129   2.690   3.572  0.00  0.00     0.003 A 
ATOM      6  C4  PXY d   1      -2.345   2.342   3.047  0.00  0.00    -0.082 A 
ATOM      7  C5  PXY d   1      -2.524   1.098   2.553  0.00  0.00     0.003 A 
ATOM      8  C6  PXY d   1      -1.465   0.196   2.587  0.00  0.00     0.003 A 
ENDROOT
TORSDOF 0
ENDMDL
