MODEL 1
REMARK minimizedAffinity 5.34905386
REMARK minimizedRMSD -1
REMARK  0 active torsions:
REMARK  status: ('A' for Active; 'I' for Inactive)
ROOT
ATOM      1  C4' PXY d   1       5.980  -3.704   5.965  0.00  0.00     0.077 C 
ATOM      2  C1' PXY d   1       5.997   0.246   1.745  0.00  0.00     0.077 C 
ATOM      3  C1  PXY d   1       5.998  -0.781   2.860  0.00  0.00    -0.082 A 
ATOM      4  C2  PXY d   1       5.998  -2.070   2.561  0.00  0.00     0.003 A 
ATOM      5  C3  PXY d   1       5.967  -3.012   3.557  0.00  0.00     0.003 A 
ATOM      6  C4  PXY d   1       5.989  -2.632   4.872  0.00  0.00    -0.082 A 
ATOM      7  C5  PXY d   1       5.999  -1.319   5.185  0.00  0.00     0.003 A 
ATOM      8  C6  PXY d   1       5.989  -0.378   4.159  0.00  0.00     0.003 A 
ENDROOT
TORSDOF 0
ENDMDL
