MODEL 1
REMARK minimizedAffinity 7.17769957
REMARK minimizedRMSD -1
REMARK  0 active torsions:
REMARK  status: ('A' for Active; 'I' for Inactive)
ROOT
ATOM      1  C4' PXY d   1       6.000   3.004  -4.335  0.00  0.00     0.077 C 
ATOM      2  C1' PXY d   1       0.512   4.627  -3.520  0.00  0.00     0.077 C 
ATOM      3  C1  PXY d   1       1.949   4.191  -3.726  0.00  0.00    -0.082 A 
ATOM      4  C2  PXY d   1       2.850   5.075  -4.126  0.00  0.00     0.003 A 
ATOM      5  C3  PXY d   1       4.147   4.691  -4.347  0.00  0.00     0.003 A 
ATOM      6  C4  PXY d   1       4.539   3.401  -4.106  0.00  0.00    -0.082 A 
ATOM      7  C5  PXY d   1       3.629   2.496  -3.688  0.00  0.00     0.003 A 
ATOM      8  C6  PXY d   1       2.308   2.897  -3.508  0.00  0.00     0.003 A 
ENDROOT
TORSDOF 0
ENDMDL
