MODEL 1
REMARK minimizedAffinity 2.11097383
REMARK minimizedRMSD -1
REMARK  0 active torsions:
REMARK  status: ('A' for Active; 'I' for Inactive)
ROOT
ATOM      1  C4' PXY d   1      -2.712   1.617   2.148  0.00  0.00     0.077 C 
ATOM      2  C1' PXY d   1      -2.204  -1.546  -2.663  0.00  0.00     0.077 C 
ATOM      3  C1  PXY d   1      -2.349  -0.713  -1.405  0.00  0.00    -0.082 A 
ATOM      4  C2  PXY d   1      -1.268  -0.258  -0.794  0.00  0.00     0.003 A 
ATOM      5  C3  PXY d   1      -1.380   0.470   0.363  0.00  0.00     0.003 A 
ATOM      6  C4  PXY d   1      -2.613   0.780   0.870  0.00  0.00    -0.082 A 
ATOM      7  C5  PXY d   1      -3.722   0.329   0.245  0.00  0.00     0.003 A 
ATOM      8  C6  PXY d   1      -3.585  -0.443  -0.905  0.00  0.00     0.003 A 
ENDROOT
TORSDOF 0
ENDMDL
