MODEL 1
REMARK minimizedAffinity 7.07824802
REMARK minimizedRMSD -1
REMARK  0 active torsions:
REMARK  status: ('A' for Active; 'I' for Inactive)
ROOT
ATOM      1  C4' PXY d   1      -4.081  -0.040   0.953  0.00  0.00     0.077 C 
ATOM      2  C1' PXY d   1       0.268  -2.441  -2.003  0.00  0.00     0.077 C 
ATOM      3  C1  PXY d   1      -0.878  -1.823  -1.227  0.00  0.00    -0.082 A 
ATOM      4  C2  PXY d   1      -1.168  -0.543  -1.396  0.00  0.00     0.003 A 
ATOM      5  C3  PXY d   1      -2.180   0.040  -0.678  0.00  0.00     0.003 A 
ATOM      6  C4  PXY d   1      -2.938  -0.708   0.183  0.00  0.00    -0.082 A 
ATOM      7  C5  PXY d   1      -2.656  -2.017   0.353  0.00  0.00     0.003 A 
ATOM      8  C6  PXY d   1      -1.598  -2.580  -0.355  0.00  0.00     0.003 A 
ENDROOT
TORSDOF 0
ENDMDL
