MODEL 1
REMARK minimizedAffinity 17.4463081
REMARK minimizedRMSD -1
REMARK  0 active torsions:
REMARK  status: ('A' for Active; 'I' for Inactive)
ROOT
ATOM      1  C4' PXY d   1       1.488   2.250  -0.008  0.00  0.00     0.077 C 
ATOM      2  C1' PXY d   1      -2.337   0.645   4.018  0.00  0.00     0.077 C 
ATOM      3  C1  PXY d   1      -1.333   1.054   2.958  0.00  0.00    -0.082 A 
ATOM      4  C2  PXY d   1      -0.582   2.126   3.147  0.00  0.00     0.003 A 
ATOM      5  C3  PXY d   1       0.308   2.528   2.184  0.00  0.00     0.003 A 
ATOM      6  C4  PXY d   1       0.468   1.795   1.039  0.00  0.00    -0.082 A 
ATOM      7  C5  PXY d   1      -0.287   0.693   0.844  0.00  0.00     0.003 A 
ATOM      8  C6  PXY d   1      -1.214   0.325   1.815  0.00  0.00     0.003 A 
ENDROOT
TORSDOF 0
ENDMDL
