MODEL 1
REMARK minimizedAffinity 5.73897982
REMARK minimizedRMSD -1
REMARK  0 active torsions:
REMARK  status: ('A' for Active; 'I' for Inactive)
ROOT
ATOM      1  C4' PXY d   1      -0.756   0.219   3.172  0.00  0.00     0.077 C 
ATOM      2  C1' PXY d   1      -3.464  -0.456  -1.890  0.00  0.00     0.077 C 
ATOM      3  C1  PXY d   1      -2.763  -0.270  -0.559  0.00  0.00    -0.082 A 
ATOM      4  C2  PXY d   1      -1.472  -0.545  -0.455  0.00  0.00     0.003 A 
ATOM      5  C3  PXY d   1      -0.830  -0.413   0.749  0.00  0.00     0.003 A 
ATOM      6  C4  PXY d   1      -1.503   0.056   1.846  0.00  0.00    -0.082 A 
ATOM      7  C5  PXY d   1      -2.817   0.348   1.745  0.00  0.00     0.003 A 
ATOM      8  C6  PXY d   1      -3.460   0.168   0.524  0.00  0.00     0.003 A 
ENDROOT
TORSDOF 0
ENDMDL
