MODEL 1
REMARK minimizedAffinity 8.49785519
REMARK minimizedRMSD -1
REMARK  0 active torsions:
REMARK  status: ('A' for Active; 'I' for Inactive)
ROOT
ATOM      1  C4' PXY d   1      -3.950  -0.121   0.700  0.00  0.00     0.077 C 
ATOM      2  C1' PXY d   1      -0.009  -3.146  -2.255  0.00  0.00     0.077 C 
ATOM      3  C1  PXY d   1      -1.037  -2.341  -1.483  0.00  0.00    -0.082 A 
ATOM      4  C2  PXY d   1      -1.713  -2.915  -0.501  0.00  0.00     0.003 A 
ATOM      5  C3  PXY d   1      -2.668  -2.211   0.186  0.00  0.00     0.003 A 
ATOM      6  C4  PXY d   1      -2.897  -0.892  -0.100  0.00  0.00    -0.082 A 
ATOM      7  C5  PXY d   1      -2.203  -0.297  -1.094  0.00  0.00     0.003 A 
ATOM      8  C6  PXY d   1      -1.267  -1.040  -1.806  0.00  0.00     0.003 A 
ENDROOT
TORSDOF 0
ENDMDL
