MODEL 1
REMARK minimizedAffinity 8.15064144
REMARK minimizedRMSD -1
REMARK  0 active torsions:
REMARK  status: ('A' for Active; 'I' for Inactive)
ROOT
ATOM      1  C4' PXY d   1      -0.058  -2.459  -2.560  0.00  0.00     0.077 C 
ATOM      2  C1' PXY d   1      -4.466  -0.249   0.457  0.00  0.00     0.077 C 
ATOM      3  C1  PXY d   1      -3.309  -0.839  -0.326  0.00  0.00    -0.082 A 
ATOM      4  C2  PXY d   1      -2.553  -0.049  -1.070  0.00  0.00     0.003 A 
ATOM      5  C3  PXY d   1      -1.523  -0.570  -1.810  0.00  0.00     0.003 A 
ATOM      6  C4  PXY d   1      -1.231  -1.906  -1.745  0.00  0.00    -0.082 A 
ATOM      7  C5  PXY d   1      -1.991  -2.717  -0.979  0.00  0.00     0.003 A 
ATOM      8  C6  PXY d   1      -3.058  -2.175  -0.269  0.00  0.00     0.003 A 
ENDROOT
TORSDOF 0
ENDMDL
