MODEL 1
REMARK minimizedAffinity 3.14414549
REMARK minimizedRMSD -1
REMARK  0 active torsions:
REMARK  status: ('A' for Active; 'I' for Inactive)
ROOT
ATOM      1  C4' PXY d   1       5.207   3.079  -6.000  0.00  0.00     0.077 C 
ATOM      2  C1' PXY d   1       0.205   4.608  -3.538  0.00  0.00     0.077 C 
ATOM      3  C1  PXY d   1       1.518   4.197  -4.176  0.00  0.00    -0.082 A 
ATOM      4  C2  PXY d   1       2.277   5.110  -4.758  0.00  0.00     0.003 A 
ATOM      5  C3  PXY d   1       3.451   4.751  -5.367  0.00  0.00     0.003 A 
ATOM      6  C4  PXY d   1       3.879   3.450  -5.335  0.00  0.00    -0.082 A 
ATOM      7  C5  PXY d   1       3.115   2.514  -4.734  0.00  0.00     0.003 A 
ATOM      8  C6  PXY d   1       1.906   2.893  -4.157  0.00  0.00     0.003 A 
ENDROOT
TORSDOF 0
ENDMDL
