MODEL 1
REMARK minimizedAffinity 3.68328428
REMARK minimizedRMSD -1
REMARK  0 active torsions:
REMARK  status: ('A' for Active; 'I' for Inactive)
ROOT
ATOM      1  C   UNL d   1      -1.766  -2.427  -3.650  0.00  0.00     0.078 C 
ATOM      2  C1  UNL d   1      -1.844  -2.614  -2.165  0.00  0.00    -0.077 A 
ATOM      3  C2  UNL d   1      -3.076  -2.801  -1.525  0.00  0.00    -0.001 A 
ATOM      4  C3  UNL d   1      -3.135  -2.964  -0.140  0.00  0.00     0.003 A 
ATOM      5  C4  UNL d   1      -1.966  -2.941   0.617  0.00  0.00    -0.005 A 
ATOM      6  C5  UNL d   1      -0.736  -2.753  -0.010  0.00  0.00     0.003 A 
ATOM      7  C6  UNL d   1      -0.675  -2.589  -1.395  0.00  0.00    -0.001 A 
ENDROOT
TORSDOF 0
ENDMDL
