MODEL 1
REMARK minimizedAffinity 1.24051213
REMARK minimizedRMSD -1
REMARK  0 active torsions:
REMARK  status: ('A' for Active; 'I' for Inactive)
ROOT
ATOM      1  C   UNL d   1      -4.701  -4.557  -2.997  0.00  0.00     0.078 C 
ATOM      2  C1  UNL d   1      -3.443  -3.760  -2.822  0.00  0.00    -0.077 A 
ATOM      3  C2  UNL d   1      -3.035  -3.326  -1.555  0.00  0.00    -0.001 A 
ATOM      4  C3  UNL d   1      -1.866  -2.577  -1.408  0.00  0.00     0.003 A 
ATOM      5  C4  UNL d   1      -1.097  -2.254  -2.524  0.00  0.00    -0.005 A 
ATOM      6  C5  UNL d   1      -1.496  -2.679  -3.789  0.00  0.00     0.003 A 
ATOM      7  C6  UNL d   1      -2.664  -3.429  -3.938  0.00  0.00    -0.001 A 
ENDROOT
TORSDOF 0
ENDMDL
