MODEL 1
REMARK minimizedAffinity -1.49166989
REMARK minimizedRMSD -1
REMARK  0 active torsions:
REMARK  status: ('A' for Active; 'I' for Inactive)
ROOT
ATOM      1  C   UNL d   1       5.997   2.582   0.860  0.00  0.00     0.078 C 
ATOM      2  C1  UNL d   1       4.757   1.770   1.087  0.00  0.00    -0.077 A 
ATOM      3  C2  UNL d   1       4.833   0.399   1.361  0.00  0.00    -0.001 A 
ATOM      4  C3  UNL d   1       3.670  -0.347   1.561  0.00  0.00     0.003 A 
ATOM      5  C4  UNL d   1       2.423   0.269   1.486  0.00  0.00    -0.005 A 
ATOM      6  C5  UNL d   1       2.337   1.633   1.211  0.00  0.00     0.003 A 
ATOM      7  C6  UNL d   1       3.499   2.380   1.011  0.00  0.00    -0.001 A 
ENDROOT
TORSDOF 0
ENDMDL
