MODEL 1
REMARK minimizedAffinity -1.88521624
REMARK minimizedRMSD -1
REMARK  0 active torsions:
REMARK  status: ('A' for Active; 'I' for Inactive)
ROOT
ATOM      1  C   UNL d   1      -1.734  -2.500   0.989  0.00  0.00     0.078 C 
ATOM      2  C1  UNL d   1      -1.419  -2.829  -0.439  0.00  0.00    -0.077 A 
ATOM      3  C2  UNL d   1      -2.411  -2.782  -1.426  0.00  0.00    -0.001 A 
ATOM      4  C3  UNL d   1      -2.106  -3.101  -2.750  0.00  0.00     0.003 A 
ATOM      5  C4  UNL d   1      -0.808  -3.469  -3.100  0.00  0.00    -0.005 A 
ATOM      6  C5  UNL d   1       0.186  -3.520  -2.124  0.00  0.00     0.003 A 
ATOM      7  C6  UNL d   1      -0.118  -3.202  -0.800  0.00  0.00    -0.001 A 
ENDROOT
TORSDOF 0
ENDMDL
