MODEL 1
REMARK minimizedAffinity -3.58978581
REMARK minimizedRMSD -1
REMARK  0 active torsions:
REMARK  status: ('A' for Active; 'I' for Inactive)
ROOT
ATOM      1  C   UNL d   1       1.879   1.700   0.650  0.00  0.00     0.078 C 
ATOM      2  C1  UNL d   1       3.317   1.313   0.826  0.00  0.00    -0.077 A 
ATOM      3  C2  UNL d   1       4.344   2.244   0.626  0.00  0.00    -0.001 A 
ATOM      4  C3  UNL d   1       5.679   1.868   0.784  0.00  0.00     0.003 A 
ATOM      5  C4  UNL d   1       5.999   0.560   1.141  0.00  0.00    -0.005 A 
ATOM      6  C5  UNL d   1       4.985  -0.374   1.340  0.00  0.00     0.003 A 
ATOM      7  C6  UNL d   1       3.650   0.000   1.183  0.00  0.00    -0.001 A 
ENDROOT
TORSDOF 0
ENDMDL
