MODEL 1
REMARK minimizedAffinity 3.72652578
REMARK minimizedRMSD -1
REMARK  0 active torsions:
REMARK  status: ('A' for Active; 'I' for Inactive)
ROOT
ATOM      1  C   UNL d   1       1.505   1.463   2.233  0.00  0.00     0.078 C 
ATOM      2  C1  UNL d   1       2.358   0.940   1.115  0.00  0.00    -0.077 A 
ATOM      3  C2  UNL d   1       3.615   0.379   1.370  0.00  0.00    -0.001 A 
ATOM      4  C3  UNL d   1       4.402  -0.095   0.319  0.00  0.00     0.003 A 
ATOM      5  C4  UNL d   1       3.941  -0.011  -0.993  0.00  0.00    -0.005 A 
ATOM      6  C5  UNL d   1       2.692   0.547  -1.256  0.00  0.00     0.003 A 
ATOM      7  C6  UNL d   1       1.904   1.022  -0.207  0.00  0.00    -0.001 A 
ENDROOT
TORSDOF 0
ENDMDL
