MODEL 1
REMARK minimizedAffinity -0.255974501
REMARK minimizedRMSD -1
REMARK  0 active torsions:
REMARK  status: ('A' for Active; 'I' for Inactive)
ROOT
ATOM      1  C   UNL d   1       2.778   2.230  -2.114  0.00  0.00     0.078 C 
ATOM      2  C1  UNL d   1       2.981   1.347  -0.919  0.00  0.00    -0.077 A 
ATOM      3  C2  UNL d   1       3.886   0.280  -0.956  0.00  0.00    -0.001 A 
ATOM      4  C3  UNL d   1       4.057  -0.540   0.160  0.00  0.00     0.003 A 
ATOM      5  C4  UNL d   1       3.326  -0.302   1.322  0.00  0.00    -0.005 A 
ATOM      6  C5  UNL d   1       2.421   0.757   1.368  0.00  0.00     0.003 A 
ATOM      7  C6  UNL d   1       2.248   1.578   0.252  0.00  0.00    -0.001 A 
ENDROOT
TORSDOF 0
ENDMDL
