MODEL 1
REMARK minimizedAffinity 3.83008337
REMARK minimizedRMSD -1
REMARK  0 active torsions:
REMARK  status: ('A' for Active; 'I' for Inactive)
ROOT
ATOM      1  C   UNL d   1       1.618   1.581   2.128  0.00  0.00     0.078 C 
ATOM      2  C1  UNL d   1       2.800   0.788   1.656  0.00  0.00    -0.077 A 
ATOM      3  C2  UNL d   1       2.970   0.485   0.299  0.00  0.00    -0.001 A 
ATOM      4  C3  UNL d   1       4.070  -0.262  -0.125  0.00  0.00     0.003 A 
ATOM      5  C4  UNL d   1       5.008  -0.714   0.801  0.00  0.00    -0.005 A 
ATOM      6  C5  UNL d   1       4.847  -0.419   2.153  0.00  0.00     0.003 A 
ATOM      7  C6  UNL d   1       3.747   0.328   2.579  0.00  0.00    -0.001 A 
ENDROOT
TORSDOF 0
ENDMDL
