MODEL 1
REMARK minimizedAffinity -3.30134368
REMARK minimizedRMSD -1
REMARK  0 active torsions:
REMARK  status: ('A' for Active; 'I' for Inactive)
ROOT
ATOM      1  C   UNL d   1       4.626   2.332   1.149  0.00  0.00     0.078 C 
ATOM      2  C1  UNL d   1       4.833   3.593   1.933  0.00  0.00    -0.077 A 
ATOM      3  C2  UNL d   1       4.092   4.748   1.652  0.00  0.00    -0.001 A 
ATOM      4  C3  UNL d   1       4.302   5.918   2.383  0.00  0.00     0.003 A 
ATOM      5  C4  UNL d   1       5.254   5.945   3.400  0.00  0.00    -0.005 A 
ATOM      6  C5  UNL d   1       5.998   4.803   3.686  0.00  0.00     0.003 A 
ATOM      7  C6  UNL d   1       5.789   3.632   2.956  0.00  0.00    -0.001 A 
ENDROOT
TORSDOF 0
ENDMDL
