MODEL 1
REMARK minimizedAffinity -1.38943207
REMARK minimizedRMSD -1
REMARK  0 active torsions:
REMARK  status: ('A' for Active; 'I' for Inactive)
ROOT
ATOM      1  C   UNL d   1      -1.134  -3.458   1.028  0.00  0.00     0.078 C 
ATOM      2  C1  UNL d   1      -1.041  -3.366  -0.466  0.00  0.00    -0.077 A 
ATOM      3  C2  UNL d   1      -2.081  -2.809  -1.221  0.00  0.00    -0.001 A 
ATOM      4  C3  UNL d   1      -1.984  -2.739  -2.612  0.00  0.00     0.003 A 
ATOM      5  C4  UNL d   1      -0.850  -3.224  -3.260  0.00  0.00    -0.005 A 
ATOM      6  C5  UNL d   1       0.189  -3.782  -2.517  0.00  0.00     0.003 A 
ATOM      7  C6  UNL d   1       0.094  -3.853  -1.126  0.00  0.00    -0.001 A 
ENDROOT
TORSDOF 0
ENDMDL
