MODEL 1
REMARK minimizedAffinity 3.8149159
REMARK minimizedRMSD -1
REMARK  0 active torsions:
REMARK  status: ('A' for Active; 'I' for Inactive)
ROOT
ATOM      1  C   UNL d   1      -2.640  -2.980  -2.586  0.00  0.00     0.078 C 
ATOM      2  C1  UNL d   1      -3.786  -3.943  -2.506  0.00  0.00    -0.077 A 
ATOM      3  C2  UNL d   1      -4.935  -3.763  -3.287  0.00  0.00    -0.001 A 
ATOM      4  C3  UNL d   1      -5.999  -4.662  -3.195  0.00  0.00     0.003 A 
ATOM      5  C4  UNL d   1      -5.925  -5.746  -2.322  0.00  0.00    -0.005 A 
ATOM      6  C5  UNL d   1      -4.788  -5.931  -1.540  0.00  0.00     0.003 A 
ATOM      7  C6  UNL d   1      -3.723  -5.034  -1.630  0.00  0.00    -0.001 A 
ENDROOT
TORSDOF 0
ENDMDL
