MODEL 1
REMARK minimizedAffinity 2.24596953
REMARK minimizedRMSD -1
REMARK  0 active torsions:
REMARK  status: ('A' for Active; 'I' for Inactive)
ROOT
ATOM      1  C   UNL d   1      -2.493  -2.277  -2.744  0.00  0.00     0.078 C 
ATOM      2  C1  UNL d   1      -2.435  -2.927  -1.395  0.00  0.00    -0.077 A 
ATOM      3  C2  UNL d   1      -1.349  -2.711  -0.536  0.00  0.00    -0.001 A 
ATOM      4  C3  UNL d   1      -1.303  -3.331   0.713  0.00  0.00     0.003 A 
ATOM      5  C4  UNL d   1      -2.339  -4.173   1.115  0.00  0.00    -0.005 A 
ATOM      6  C5  UNL d   1      -3.422  -4.395   0.267  0.00  0.00     0.003 A 
ATOM      7  C6  UNL d   1      -3.470  -3.776  -0.983  0.00  0.00    -0.001 A 
ENDROOT
TORSDOF 0
ENDMDL
