MODEL 1
REMARK minimizedAffinity 7.45852375
REMARK minimizedRMSD -1
REMARK  0 active torsions:
REMARK  status: ('A' for Active; 'I' for Inactive)
ROOT
ATOM      1  C   UNL d   1       4.101   1.448  -3.166  0.00  0.00     0.078 C 
ATOM      2  C1  UNL d   1       3.832   1.120  -1.728  0.00  0.00    -0.077 A 
ATOM      3  C2  UNL d   1       2.804   1.758  -1.023  0.00  0.00    -0.001 A 
ATOM      4  C3  UNL d   1       2.572   1.450   0.319  0.00  0.00     0.003 A 
ATOM      5  C4  UNL d   1       3.364   0.504   0.967  0.00  0.00    -0.005 A 
ATOM      6  C5  UNL d   1       4.391  -0.134   0.274  0.00  0.00     0.003 A 
ATOM      7  C6  UNL d   1       4.625   0.173  -1.067  0.00  0.00    -0.001 A 
ENDROOT
TORSDOF 0
ENDMDL
