MODEL 1
REMARK minimizedAffinity 7.50507212
REMARK minimizedRMSD -1
REMARK  0 active torsions:
REMARK  status: ('A' for Active; 'I' for Inactive)
ROOT
ATOM      1  C   UNL d   1      -3.558  -2.786  -2.519  0.00  0.00     0.078 C 
ATOM      2  C1  UNL d   1      -2.246  -2.908  -1.804  0.00  0.00    -0.077 A 
ATOM      3  C2  UNL d   1      -2.031  -2.269  -0.577  0.00  0.00    -0.001 A 
ATOM      4  C3  UNL d   1      -0.801  -2.383   0.073  0.00  0.00     0.003 A 
ATOM      5  C4  UNL d   1       0.224  -3.134  -0.497  0.00  0.00    -0.005 A 
ATOM      6  C5  UNL d   1       0.021  -3.772  -1.719  0.00  0.00     0.003 A 
ATOM      7  C6  UNL d   1      -1.209  -3.659  -2.370  0.00  0.00    -0.001 A 
ENDROOT
TORSDOF 0
ENDMDL
