MODEL 1
REMARK minimizedAffinity -1.707497
REMARK minimizedRMSD -1
REMARK  0 active torsions:
REMARK  status: ('A' for Active; 'I' for Inactive)
ROOT
ATOM      1  C   UNL d   1       0.509  -3.334  -0.705  0.00  0.00     0.078 C 
ATOM      2  C1  UNL d   1      -0.714  -3.168  -1.557  0.00  0.00    -0.077 A 
ATOM      3  C2  UNL d   1      -0.617  -3.097  -2.952  0.00  0.00    -0.001 A 
ATOM      4  C3  UNL d   1      -1.762  -2.933  -3.732  0.00  0.00     0.003 A 
ATOM      5  C4  UNL d   1      -3.013  -2.835  -3.126  0.00  0.00    -0.005 A 
ATOM      6  C5  UNL d   1      -3.120  -2.902  -1.738  0.00  0.00     0.003 A 
ATOM      7  C6  UNL d   1      -1.975  -3.067  -0.957  0.00  0.00    -0.001 A 
ENDROOT
TORSDOF 0
ENDMDL
