MODEL 1
REMARK minimizedAffinity 0.831232131
REMARK minimizedRMSD -1
REMARK  0 active torsions:
REMARK  status: ('A' for Active; 'I' for Inactive)
ROOT
ATOM      1  C   UNL d   1       1.273   1.125   3.752  0.00  0.00     0.078 C 
ATOM      2  C1  UNL d   1       2.163   0.875   2.571  0.00  0.00    -0.077 A 
ATOM      3  C2  UNL d   1       1.875   1.434   1.320  0.00  0.00    -0.001 A 
ATOM      4  C3  UNL d   1       2.707   1.185   0.227  0.00  0.00     0.003 A 
ATOM      5  C4  UNL d   1       3.831   0.375   0.374  0.00  0.00    -0.005 A 
ATOM      6  C5  UNL d   1       4.125  -0.187   1.615  0.00  0.00     0.003 A 
ATOM      7  C6  UNL d   1       3.294   0.061   2.709  0.00  0.00    -0.001 A 
ENDROOT
TORSDOF 0
ENDMDL
