MODEL 1
REMARK minimizedAffinity 2.38348222
REMARK minimizedRMSD -1
REMARK  0 active torsions:
REMARK  status: ('A' for Active; 'I' for Inactive)
ROOT
ATOM      1  C   UNL d   1      -1.552  -2.676   0.298  0.00  0.00     0.078 C 
ATOM      2  C1  UNL d   1      -1.570  -2.910  -1.184  0.00  0.00    -0.077 A 
ATOM      3  C2  UNL d   1      -2.689  -2.572  -1.954  0.00  0.00    -0.001 A 
ATOM      4  C3  UNL d   1      -2.695  -2.804  -3.330  0.00  0.00     0.003 A 
ATOM      5  C4  UNL d   1      -1.584  -3.376  -3.948  0.00  0.00    -0.005 A 
ATOM      6  C5  UNL d   1      -0.467  -3.717  -3.189  0.00  0.00     0.003 A 
ATOM      7  C6  UNL d   1      -0.459  -3.486  -1.813  0.00  0.00    -0.001 A 
ENDROOT
TORSDOF 0
ENDMDL
