MODEL 1
REMARK minimizedAffinity 1.78640246
REMARK minimizedRMSD -1
REMARK  0 active torsions:
REMARK  status: ('A' for Active; 'I' for Inactive)
ROOT
ATOM      1  C   UNL d   1      -1.518  -2.719  -4.325  0.00  0.00     0.078 C 
ATOM      2  C1  UNL d   1      -1.406  -2.823  -2.833  0.00  0.00    -0.077 A 
ATOM      3  C2  UNL d   1      -0.242  -3.314  -2.230  0.00  0.00    -0.001 A 
ATOM      4  C3  UNL d   1      -0.156  -3.414  -0.840  0.00  0.00     0.003 A 
ATOM      5  C4  UNL d   1      -1.230  -3.026  -0.042  0.00  0.00    -0.005 A 
ATOM      6  C5  UNL d   1      -2.394  -2.539  -0.634  0.00  0.00     0.003 A 
ATOM      7  C6  UNL d   1      -2.482  -2.438  -2.023  0.00  0.00    -0.001 A 
ENDROOT
TORSDOF 0
ENDMDL
