MODEL 1
REMARK minimizedAffinity 4.87759686
REMARK minimizedRMSD -1
REMARK  0 active torsions:
REMARK  status: ('A' for Active; 'I' for Inactive)
ROOT
ATOM      1  C   UNL d   1      -1.358  -2.642   0.802  0.00  0.00     0.078 C 
ATOM      2  C1  UNL d   1      -1.524  -2.993  -0.647  0.00  0.00    -0.077 A 
ATOM      3  C2  UNL d   1      -2.615  -2.519  -1.384  0.00  0.00    -0.001 A 
ATOM      4  C3  UNL d   1      -2.761  -2.862  -2.729  0.00  0.00     0.003 A 
ATOM      5  C4  UNL d   1      -1.821  -3.682  -3.348  0.00  0.00    -0.005 A 
ATOM      6  C5  UNL d   1      -0.732  -4.161  -2.622  0.00  0.00     0.003 A 
ATOM      7  C6  UNL d   1      -0.584  -3.819  -1.277  0.00  0.00    -0.001 A 
ENDROOT
TORSDOF 0
ENDMDL
