MODEL 1
REMARK minimizedAffinity 11.946641
REMARK minimizedRMSD -1
REMARK  0 active torsions:
REMARK  status: ('A' for Active; 'I' for Inactive)
ROOT
ATOM      1  C   UNL d   1       1.369  -0.222  -3.304  0.00  0.00     0.020 A 
ATOM      2  C1  UNL d   1       1.377  -1.615  -3.367  0.00  0.00     0.020 A 
ATOM      3  C2  UNL d   1       1.951  -2.357  -2.333  0.00  0.00     0.034 A 
ATOM      4  C3  UNL d   1       2.519  -1.707  -1.231  0.00  0.00     0.017 A 
ATOM      5  C4  UNL d   1       2.511  -0.309  -1.169  0.00  0.00     0.017 A 
ATOM      6  C5  UNL d   1       1.934   0.429  -2.207  0.00  0.00     0.034 A 
ATOM      7 Cl   UNL d   1       3.192   0.564   0.158  0.00  0.00    -0.070 Cl
ATOM      8 Cl1  UNL d   1       3.211  -2.688   0.011  0.00  0.00    -0.070 Cl
ENDROOT
TORSDOF 0
ENDMDL
