MODEL 1
REMARK minimizedAffinity 8.13790035
REMARK minimizedRMSD -1
REMARK  0 active torsions:
REMARK  status: ('A' for Active; 'I' for Inactive)
ROOT
ATOM      1  C   UNL d   1       1.666  -0.868  -1.417  0.00  0.00     0.020 A 
ATOM      2  C1  UNL d   1       2.760  -1.236  -0.635  0.00  0.00     0.020 A 
ATOM      3  C2  UNL d   1       3.028  -2.587  -0.402  0.00  0.00     0.034 A 
ATOM      4  C3  UNL d   1       2.203  -3.574  -0.953  0.00  0.00     0.017 A 
ATOM      5  C4  UNL d   1       1.106  -3.203  -1.739  0.00  0.00     0.017 A 
ATOM      6  C5  UNL d   1       0.841  -1.849  -1.968  0.00  0.00     0.034 A 
ATOM      7 Cl   UNL d   1       0.042  -4.363  -2.452  0.00  0.00    -0.070 Cl
ATOM      8 Cl1  UNL d   1       2.595  -5.224  -0.625  0.00  0.00    -0.070 Cl
ENDROOT
TORSDOF 0
ENDMDL
