MODEL 1
REMARK minimizedAffinity 5.85012484
REMARK minimizedRMSD -1
REMARK  0 active torsions:
REMARK  status: ('A' for Active; 'I' for Inactive)
ROOT
ATOM      1  C   UNL d   1       2.208  -0.266  -1.425  0.00  0.00     0.020 A 
ATOM      2  C1  UNL d   1       1.256  -1.261  -1.647  0.00  0.00     0.020 A 
ATOM      3  C2  UNL d   1       1.511  -2.573  -1.244  0.00  0.00     0.034 A 
ATOM      4  C3  UNL d   1       2.720  -2.895  -0.616  0.00  0.00     0.017 A 
ATOM      5  C4  UNL d   1       3.674  -1.895  -0.393  0.00  0.00     0.017 A 
ATOM      6  C5  UNL d   1       3.414  -0.583  -0.799  0.00  0.00     0.034 A 
ATOM      7 Cl   UNL d   1       5.189  -2.215   0.376  0.00  0.00    -0.070 Cl
ATOM      8 Cl1  UNL d   1       2.968  -4.538  -0.143  0.00  0.00    -0.070 Cl
ENDROOT
TORSDOF 0
ENDMDL
