MODEL 1
REMARK minimizedAffinity 11.1532536
REMARK minimizedRMSD -1
REMARK  0 active torsions:
REMARK  status: ('A' for Active; 'I' for Inactive)
ROOT
ATOM      1  C   UNL d   1       2.954  -2.346  -6.000  0.00  0.00     0.020 A 
ATOM      2  C1  UNL d   1       3.607  -3.455  -5.462  0.00  0.00     0.020 A 
ATOM      3  C2  UNL d   1       3.490  -3.742  -4.101  0.00  0.00     0.034 A 
ATOM      4  C3  UNL d   1       2.719  -2.919  -3.272  0.00  0.00     0.017 A 
ATOM      5  C4  UNL d   1       2.064  -1.807  -3.812  0.00  0.00     0.017 A 
ATOM      6  C5  UNL d   1       2.184  -1.524  -5.176  0.00  0.00     0.034 A 
ATOM      7 Cl   UNL d   1       1.094  -0.745  -2.853  0.00  0.00    -0.070 Cl
ATOM      8 Cl1  UNL d   1       2.618  -3.334  -1.598  0.00  0.00    -0.070 Cl
ENDROOT
TORSDOF 0
ENDMDL
