MODEL 1
REMARK minimizedAffinity 6.58269787
REMARK minimizedRMSD -1
REMARK  0 active torsions:
REMARK  status: ('A' for Active; 'I' for Inactive)
ROOT
ATOM      1  C   UNL d   1       1.008  -2.992  -1.199  0.00  0.00     0.020 A 
ATOM      2  C1  UNL d   1       0.646  -1.657  -1.375  0.00  0.00     0.020 A 
ATOM      3  C2  UNL d   1       1.628  -0.665  -1.406  0.00  0.00     0.034 A 
ATOM      4  C3  UNL d   1       2.978  -1.006  -1.260  0.00  0.00     0.017 A 
ATOM      5  C4  UNL d   1       3.340  -2.346  -1.084  0.00  0.00     0.017 A 
ATOM      6  C5  UNL d   1       2.352  -3.336  -1.054  0.00  0.00     0.034 A 
ATOM      7 Cl   UNL d   1       4.985  -2.845  -0.898  0.00  0.00    -0.070 Cl
ATOM      8 Cl1  UNL d   1       4.140   0.272  -1.309  0.00  0.00    -0.070 Cl
ENDROOT
TORSDOF 0
ENDMDL
