MODEL 1
REMARK minimizedAffinity 11.4386053
REMARK minimizedRMSD -1
REMARK  0 active torsions:
REMARK  status: ('A' for Active; 'I' for Inactive)
ROOT
ATOM      1  C   UNL d   1       3.001  -1.328  -0.839  0.00  0.00     0.020 A 
ATOM      2  C1  UNL d   1       1.885  -0.703  -1.394  0.00  0.00     0.020 A 
ATOM      3  C2  UNL d   1       0.765  -1.458  -1.746  0.00  0.00     0.034 A 
ATOM      4  C3  UNL d   1       0.757  -2.843  -1.544  0.00  0.00     0.017 A 
ATOM      5  C4  UNL d   1       1.878  -3.470  -0.987  0.00  0.00     0.017 A 
ATOM      6  C5  UNL d   1       2.997  -2.709  -0.636  0.00  0.00     0.034 A 
ATOM      7 Cl   UNL d   1       1.943  -5.174  -0.708  0.00  0.00    -0.070 Cl
ATOM      8 Cl1  UNL d   1      -0.662  -3.714  -2.003  0.00  0.00    -0.070 Cl
ENDROOT
TORSDOF 0
ENDMDL
