MODEL 1
REMARK minimizedAffinity 5.93920994
REMARK minimizedRMSD -1
REMARK  0 active torsions:
REMARK  status: ('A' for Active; 'I' for Inactive)
ROOT
ATOM      1  C   UNL d   1      -0.148  -2.269   0.426  0.00  0.00     0.020 A 
ATOM      2  C1  UNL d   1      -0.269  -1.753  -0.864  0.00  0.00     0.020 A 
ATOM      3  C2  UNL d   1       0.671  -2.088  -1.841  0.00  0.00     0.034 A 
ATOM      4  C3  UNL d   1       1.736  -2.940  -1.530  0.00  0.00     0.017 A 
ATOM      5  C4  UNL d   1       1.857  -3.457  -0.235  0.00  0.00     0.017 A 
ATOM      6  C5  UNL d   1       0.913  -3.119   0.740  0.00  0.00     0.034 A 
ATOM      7 Cl   UNL d   1       3.145  -4.515   0.225  0.00  0.00    -0.070 Cl
ATOM      8 Cl1  UNL d   1       2.862  -3.312  -2.787  0.00  0.00    -0.070 Cl
ENDROOT
TORSDOF 0
ENDMDL
