MODEL 1
REMARK minimizedAffinity 9.70410824
REMARK minimizedRMSD -1
REMARK  0 active torsions:
REMARK  status: ('A' for Active; 'I' for Inactive)
ROOT
ATOM      1  C   UNL d   1      -0.624   0.075   2.377  0.00  0.00     0.020 A 
ATOM      2  C1  UNL d   1      -0.471   1.236   3.134  0.00  0.00     0.020 A 
ATOM      3  C2  UNL d   1      -1.595   1.906   3.620  0.00  0.00     0.034 A 
ATOM      4  C3  UNL d   1      -2.878   1.416   3.349  0.00  0.00     0.017 A 
ATOM      5  C4  UNL d   1      -3.031   0.251   2.589  0.00  0.00     0.017 A 
ATOM      6  C5  UNL d   1      -1.901  -0.416   2.105  0.00  0.00     0.034 A 
ATOM      7 Cl   UNL d   1      -4.581  -0.414   2.213  0.00  0.00    -0.070 Cl
ATOM      8 Cl1  UNL d   1      -4.224   2.296   3.982  0.00  0.00    -0.070 Cl
ENDROOT
TORSDOF 0
ENDMDL
