MODEL 1
REMARK minimizedAffinity 12.8709726
REMARK minimizedRMSD -1
REMARK  0 active torsions:
REMARK  status: ('A' for Active; 'I' for Inactive)
ROOT
ATOM      1  C   UNL d   1       2.590   1.258  -1.158  0.00  0.00     0.020 A 
ATOM      2  C1  UNL d   1       1.857   1.272  -2.345  0.00  0.00     0.020 A 
ATOM      3  C2  UNL d   1       1.426   0.072  -2.914  0.00  0.00     0.034 A 
ATOM      4  C3  UNL d   1       1.728  -1.148  -2.297  0.00  0.00     0.017 A 
ATOM      5  C4  UNL d   1       2.463  -1.161  -1.107  0.00  0.00     0.017 A 
ATOM      6  C5  UNL d   1       2.892   0.043  -0.541  0.00  0.00     0.034 A 
ATOM      7 Cl   UNL d   1       2.873  -2.627  -0.287  0.00  0.00    -0.070 Cl
ATOM      8 Cl1  UNL d   1       1.163  -2.593  -3.057  0.00  0.00    -0.070 Cl
ENDROOT
TORSDOF 0
ENDMDL
