MODEL 1
REMARK minimizedAffinity 2.63722634
REMARK minimizedRMSD -1
REMARK  0 active torsions:
REMARK  status: ('A' for Active; 'I' for Inactive)
ROOT
ATOM      1  C   UNL d   1      -0.661  -0.229   1.858  0.00  0.00     0.020 A 
ATOM      2  C1  UNL d   1      -0.357   0.919   2.590  0.00  0.00     0.020 A 
ATOM      3  C2  UNL d   1      -1.379   1.644   3.207  0.00  0.00     0.034 A 
ATOM      4  C3  UNL d   1      -2.709   1.223   3.094  0.00  0.00     0.017 A 
ATOM      5  C4  UNL d   1      -3.013   0.071   2.359  0.00  0.00     0.017 A 
ATOM      6  C5  UNL d   1      -1.986  -0.651   1.743  0.00  0.00     0.034 A 
ATOM      7 Cl   UNL d   1      -4.630  -0.511   2.174  0.00  0.00    -0.070 Cl
ATOM      8 Cl1  UNL d   1      -3.921   2.167   3.883  0.00  0.00    -0.070 Cl
ENDROOT
TORSDOF 0
ENDMDL
