MODEL 1
REMARK minimizedAffinity 4.46952963
REMARK minimizedRMSD -1
REMARK  0 active torsions:
REMARK  status: ('A' for Active; 'I' for Inactive)
ROOT
ATOM      1  C   UNL d   1      -2.664  -5.726  -5.476  0.00  0.00     0.020 A 
ATOM      2  C1  UNL d   1      -3.962  -5.907  -5.952  0.00  0.00     0.020 A 
ATOM      3  C2  UNL d   1      -4.845  -4.826  -6.000  0.00  0.00     0.034 A 
ATOM      4  C3  UNL d   1      -4.432  -3.560  -5.570  0.00  0.00     0.017 A 
ATOM      5  C4  UNL d   1      -3.129  -3.380  -5.092  0.00  0.00     0.017 A 
ATOM      6  C5  UNL d   1      -2.249  -4.465  -5.047  0.00  0.00     0.034 A 
ATOM      7 Cl   UNL d   1      -2.546  -1.847  -4.545  0.00  0.00    -0.070 Cl
ATOM      8 Cl1  UNL d   1      -5.576  -2.268  -5.657  0.00  0.00    -0.070 Cl
ENDROOT
TORSDOF 0
ENDMDL
