MODEL 1
REMARK minimizedAffinity 9.28275967
REMARK minimizedRMSD -1
REMARK  0 active torsions:
REMARK  status: ('A' for Active; 'I' for Inactive)
ROOT
ATOM      1  C   UNL d   1       1.127  -1.364  -2.313  0.00  0.00     0.020 A 
ATOM      2  C1  UNL d   1      -0.190  -1.822  -2.313  0.00  0.00     0.020 A 
ATOM      3  C2  UNL d   1      -0.724  -2.410  -3.462  0.00  0.00     0.034 A 
ATOM      4  C3  UNL d   1       0.058  -2.540  -4.615  0.00  0.00     0.017 A 
ATOM      5  C4  UNL d   1       1.379  -2.079  -4.614  0.00  0.00     0.017 A 
ATOM      6  C5  UNL d   1       1.910  -1.492  -3.461  0.00  0.00     0.034 A 
ATOM      7 Cl   UNL d   1       2.406  -2.205  -5.999  0.00  0.00    -0.070 Cl
ATOM      8 Cl1  UNL d   1      -0.668  -3.276  -6.000  0.00  0.00    -0.070 Cl
ENDROOT
TORSDOF 0
ENDMDL
