MODEL 1
REMARK minimizedAffinity 5.33910751
REMARK minimizedRMSD -1
REMARK  0 active torsions:
REMARK  status: ('A' for Active; 'I' for Inactive)
ROOT
ATOM      1  C   UNL d   1       1.123  -1.411  -1.497  0.00  0.00     0.020 A 
ATOM      2  C1  UNL d   1       0.266  -2.508  -1.583  0.00  0.00     0.020 A 
ATOM      3  C2  UNL d   1       0.731  -3.784  -1.258  0.00  0.00     0.034 A 
ATOM      4  C3  UNL d   1       2.055  -3.967  -0.844  0.00  0.00     0.017 A 
ATOM      5  C4  UNL d   1       2.915  -2.865  -0.757  0.00  0.00     0.017 A 
ATOM      6  C5  UNL d   1       2.444  -1.590  -1.085  0.00  0.00     0.034 A 
ATOM      7 Cl   UNL d   1       4.562  -3.012  -0.255  0.00  0.00    -0.070 Cl
ATOM      8 Cl1  UNL d   1       2.562  -5.573  -0.457  0.00  0.00    -0.070 Cl
ENDROOT
TORSDOF 0
ENDMDL
