MODEL 1
REMARK minimizedAffinity 10.7077122
REMARK minimizedRMSD -1
REMARK  0 active torsions:
REMARK  status: ('A' for Active; 'I' for Inactive)
ROOT
ATOM      1  C   UNL d   1       2.701  -0.742  -0.195  0.00  0.00     0.020 A 
ATOM      2  C1  UNL d   1       2.432  -1.669  -1.200  0.00  0.00     0.020 A 
ATOM      3  C2  UNL d   1       2.057  -1.231  -2.472  0.00  0.00     0.034 A 
ATOM      4  C3  UNL d   1       1.949   0.138  -2.741  0.00  0.00     0.017 A 
ATOM      5  C4  UNL d   1       2.219   1.069  -1.731  0.00  0.00     0.017 A 
ATOM      6  C5  UNL d   1       2.594   0.624  -0.459  0.00  0.00     0.034 A 
ATOM      7 Cl   UNL d   1       2.107   2.774  -1.987  0.00  0.00    -0.070 Cl
ATOM      8 Cl1  UNL d   1       1.480   0.609  -4.336  0.00  0.00    -0.070 Cl
ENDROOT
TORSDOF 0
ENDMDL
