MODEL 1
REMARK minimizedAffinity 8.50511837
REMARK minimizedRMSD -1
REMARK  0 active torsions:
REMARK  status: ('A' for Active; 'I' for Inactive)
ROOT
ATOM      1  C   UNL d   1       1.875  -0.302  -2.875  0.00  0.00     0.020 A 
ATOM      2  C1  UNL d   1       2.341   0.992  -2.645  0.00  0.00     0.020 A 
ATOM      3  C2  UNL d   1       3.220   1.241  -1.590  0.00  0.00     0.034 A 
ATOM      4  C3  UNL d   1       3.637   0.194  -0.759  0.00  0.00     0.017 A 
ATOM      5  C4  UNL d   1       3.169  -1.104  -0.990  0.00  0.00     0.017 A 
ATOM      6  C5  UNL d   1       2.289  -1.348  -2.048  0.00  0.00     0.034 A 
ATOM      7 Cl   UNL d   1       3.638  -2.447  -0.008  0.00  0.00    -0.070 Cl
ATOM      8 Cl1  UNL d   1       4.726   0.574   0.528  0.00  0.00    -0.070 Cl
ENDROOT
TORSDOF 0
ENDMDL
