MODEL 1
REMARK minimizedAffinity 3.3116374
REMARK minimizedRMSD -1
REMARK  0 active torsions:
REMARK  status: ('A' for Active; 'I' for Inactive)
ROOT
ATOM      1  C   UNL d   1       1.435  -3.023   0.069  0.00  0.00     0.020 A 
ATOM      2  C1  UNL d   1       2.628  -2.573  -0.495  0.00  0.00     0.020 A 
ATOM      3  C2  UNL d   1       2.628  -2.013  -1.775  0.00  0.00     0.034 A 
ATOM      4  C3  UNL d   1       1.433  -1.903  -2.494  0.00  0.00     0.017 A 
ATOM      5  C4  UNL d   1       0.236  -2.355  -1.927  0.00  0.00     0.017 A 
ATOM      6  C5  UNL d   1       0.242  -2.914  -0.646  0.00  0.00     0.034 A 
ATOM      7 Cl   UNL d   1      -1.279  -2.253  -2.754  0.00  0.00    -0.070 Cl
ATOM      8 Cl1  UNL d   1       1.506  -1.201  -4.071  0.00  0.00    -0.070 Cl
ENDROOT
TORSDOF 0
ENDMDL
