MODEL 1
REMARK minimizedAffinity 3.02988911
REMARK minimizedRMSD -1
REMARK  0 active torsions:
REMARK  status: ('A' for Active; 'I' for Inactive)
ROOT
ATOM      1  C   UNL d   1       1.477   0.198  -4.514  0.00  0.00     0.124 A 
ATOM      2  C1  UNL d   1       0.218  -0.384  -4.473  0.00  0.00     0.062 A 
ATOM      3  C2  UNL d   1      -0.476  -0.467  -3.270  0.00  0.00     0.162 A 
ATOM      4  C3  UNL d   1       0.088   0.034  -2.096  0.00  0.00    -0.034 A 
ATOM      5  C4  UNL d   1       1.355   0.617  -2.145  0.00  0.00     0.162 A 
ATOM      6  C5  UNL d   1       2.045   0.698  -3.350  0.00  0.00     0.062 A 
ATOM      7  F   UNL d   1       3.261   1.260  -3.388  0.00  0.00    -0.097 F 
ATOM      8  F1  UNL d   1       1.927   1.109  -1.036  0.00  0.00    -0.096 F 
ATOM      9  I   UNL d   1      -0.947  -0.089  -0.294  0.00  0.00    -0.060 I 
ATOM     10  F2  UNL d   1      -1.691  -1.035  -3.260  0.00  0.00    -0.096 F 
ATOM     11  F3  UNL d   1      -0.332  -0.868  -5.596  0.00  0.00    -0.097 F 
ATOM     12  F4  UNL d   1       2.143   0.276  -5.674  0.00  0.00    -0.092 F 
ENDROOT
TORSDOF 0
ENDMDL
