MODEL 1
REMARK minimizedAffinity -3.57938647
REMARK minimizedRMSD -1
REMARK  0 active torsions:
REMARK  status: ('A' for Active; 'I' for Inactive)
ROOT
ATOM      1  C   UNL d   1      -0.465   0.444   3.290  0.00  0.00     0.124 A 
ATOM      2  C1  UNL d   1       0.869   0.392   2.909  0.00  0.00     0.062 A 
ATOM      3  C2  UNL d   1       1.209   0.145   1.582  0.00  0.00     0.162 A 
ATOM      4  C3  UNL d   1       0.213  -0.050   0.625  0.00  0.00    -0.034 A 
ATOM      5  C4  UNL d   1      -1.127   0.003   1.016  0.00  0.00     0.162 A 
ATOM      6  C5  UNL d   1      -1.461   0.249   2.343  0.00  0.00     0.062 A 
ATOM      7  F   UNL d   1      -2.750   0.299   2.709  0.00  0.00    -0.097 F 
ATOM      8  F1  UNL d   1      -2.109  -0.181   0.122  0.00  0.00    -0.096 F 
ATOM      9  I   UNL d   1       0.717  -0.420  -1.360  0.00  0.00    -0.060 I 
ATOM     10  F2  UNL d   1       2.505   0.101   1.243  0.00  0.00    -0.096 F 
ATOM     11  F3  UNL d   1       1.833   0.579   3.822  0.00  0.00    -0.097 F 
ATOM     12  F4  UNL d   1      -0.789   0.681   4.568  0.00  0.00    -0.092 F 
ENDROOT
TORSDOF 0
ENDMDL
