MODEL 1
REMARK minimizedAffinity -3.43578529
REMARK minimizedRMSD -1
REMARK  0 active torsions:
REMARK  status: ('A' for Active; 'I' for Inactive)
ROOT
ATOM      1  C   UNL d   1      -0.725  -0.195   1.653  0.00  0.00     0.124 A 
ATOM      2  C1  UNL d   1       0.479  -0.658   1.139  0.00  0.00     0.062 A 
ATOM      3  C2  UNL d   1       0.773  -0.492  -0.211  0.00  0.00     0.162 A 
ATOM      4  C3  UNL d   1      -0.137   0.140  -1.058  0.00  0.00    -0.034 A 
ATOM      5  C4  UNL d   1      -1.346   0.602  -0.534  0.00  0.00     0.162 A 
ATOM      6  C5  UNL d   1      -1.636   0.435   0.816  0.00  0.00     0.062 A 
ATOM      7  F   UNL d   1      -2.799   0.882   1.311  0.00  0.00    -0.097 F 
ATOM      8  F1  UNL d   1      -2.244   1.215  -1.320  0.00  0.00    -0.096 F 
ATOM      9  I   UNL d   1       0.299   0.390  -3.077  0.00  0.00    -0.060 I 
ATOM     10  F2  UNL d   1       1.944  -0.949  -0.680  0.00  0.00    -0.096 F 
ATOM     11  F3  UNL d   1       1.360  -1.267   1.945  0.00  0.00    -0.097 F 
ATOM     12  F4  UNL d   1      -1.006  -0.356   2.952  0.00  0.00    -0.092 F 
ENDROOT
TORSDOF 0
ENDMDL
