MODEL 1
REMARK minimizedAffinity -2.39532876
REMARK minimizedRMSD -1
REMARK  0 active torsions:
REMARK  status: ('A' for Active; 'I' for Inactive)
ROOT
ATOM      1  C   UNL d   1      -0.617   0.685   3.240  0.00  0.00     0.124 A 
ATOM      2  C1  UNL d   1      -1.584   0.483   2.265  0.00  0.00     0.062 A 
ATOM      3  C2  UNL d   1      -1.211   0.134   0.971  0.00  0.00     0.162 A 
ATOM      4  C3  UNL d   1       0.137  -0.017   0.643  0.00  0.00    -0.034 A 
ATOM      5  C4  UNL d   1       1.104   0.190   1.629  0.00  0.00     0.162 A 
ATOM      6  C5  UNL d   1       0.726   0.539   2.921  0.00  0.00     0.062 A 
ATOM      7  F   UNL d   1       1.662   0.734   3.861  0.00  0.00    -0.097 F 
ATOM      8  F1  UNL d   1       2.409   0.054   1.348  0.00  0.00    -0.096 F 
ATOM      9  I   UNL d   1       0.699  -0.539  -1.291  0.00  0.00    -0.060 I 
ATOM     10  F2  UNL d   1      -2.167  -0.056   0.049  0.00  0.00    -0.096 F 
ATOM     11  F3  UNL d   1      -2.882   0.625   2.571  0.00  0.00    -0.097 F 
ATOM     12  F4  UNL d   1      -0.978   1.022   4.485  0.00  0.00    -0.092 F 
ENDROOT
TORSDOF 0
ENDMDL
