MODEL 1
REMARK minimizedAffinity 3.71459222
REMARK minimizedRMSD -1
REMARK  0 active torsions:
REMARK  status: ('A' for Active; 'I' for Inactive)
ROOT
ATOM      1  C   UNL d   1       0.913  -0.942  -1.448  0.00  0.00     0.124 A 
ATOM      2  C1  UNL d   1      -0.221  -0.158  -1.608  0.00  0.00     0.062 A 
ATOM      3  C2  UNL d   1      -0.831   0.425  -0.502  0.00  0.00     0.162 A 
ATOM      4  C3  UNL d   1      -0.309   0.228   0.776  0.00  0.00    -0.034 A 
ATOM      5  C4  UNL d   1       0.832  -0.563   0.930  0.00  0.00     0.162 A 
ATOM      6  C5  UNL d   1       1.438  -1.144  -0.179  0.00  0.00     0.062 A 
ATOM      7  F   UNL d   1       2.534  -1.900  -0.021  0.00  0.00    -0.097 F 
ATOM      8  F1  UNL d   1       1.361  -0.773   2.145  0.00  0.00    -0.096 F 
ATOM      9  I   UNL d   1      -1.219   1.098   2.433  0.00  0.00    -0.060 I 
ATOM     10  F2  UNL d   1      -1.926   1.178  -0.687  0.00  0.00    -0.096 F 
ATOM     11  F3  UNL d   1      -0.731   0.037  -2.833  0.00  0.00    -0.097 F 
ATOM     12  F4  UNL d   1       1.498  -1.503  -2.514  0.00  0.00    -0.092 F 
ENDROOT
TORSDOF 0
ENDMDL
