MODEL 1
REMARK minimizedAffinity -3.75387979
REMARK minimizedRMSD -1
REMARK  0 active torsions:
REMARK  status: ('A' for Active; 'I' for Inactive)
ROOT
ATOM      1  C   UNL d   1      -0.084  -1.171  -0.854  0.00  0.00     0.124 A 
ATOM      2  C1  UNL d   1      -1.309  -0.664  -0.443  0.00  0.00     0.062 A 
ATOM      3  C2  UNL d   1      -1.385   0.166   0.671  0.00  0.00     0.162 A 
ATOM      4  C3  UNL d   1      -0.231   0.497   1.382  0.00  0.00    -0.034 A 
ATOM      5  C4  UNL d   1       0.997  -0.018   0.963  0.00  0.00     0.162 A 
ATOM      6  C5  UNL d   1       1.068  -0.847  -0.151  0.00  0.00     0.062 A 
ATOM      7  F   UNL d   1       2.252  -1.336  -0.546  0.00  0.00    -0.097 F 
ATOM      8  F1  UNL d   1       2.126   0.280   1.624  0.00  0.00    -0.096 F 
ATOM      9  I   UNL d   1      -0.340   1.739   3.049  0.00  0.00    -0.060 I 
ATOM     10  F2  UNL d   1      -2.582   0.642   1.046  0.00  0.00    -0.096 F 
ATOM     11  F3  UNL d   1      -2.423  -0.976  -1.120  0.00  0.00    -0.097 F 
ATOM     12  F4  UNL d   1      -0.014  -1.971  -1.926  0.00  0.00    -0.092 F 
ENDROOT
TORSDOF 0
ENDMDL
