MODEL 1
REMARK minimizedAffinity -3.34449387
REMARK minimizedRMSD -1
REMARK  0 active torsions:
REMARK  status: ('A' for Active; 'I' for Inactive)
ROOT
ATOM      1  C   UNL d   1       2.220  -1.089   0.591  0.00  0.00    -0.002 A 
ATOM      2  C1  UNL d   1       1.280  -2.109   0.567  0.00  0.00     0.010 A 
ATOM      3  C2  UNL d   1      -0.039  -1.850   0.187  0.00  0.00     0.041 A 
ATOM      4  C3  UNL d   1      -0.399  -0.537  -0.174  0.00  0.00    -0.075 A 
ATOM      5  S   UNL d   1      -1.954   0.015  -0.674  0.00  0.00     0.015 SA
ATOM      6  C4  UNL d   1      -1.406   1.617  -0.868  0.00  0.00     0.022 A 
ATOM      7  C5  UNL d   1      -0.071   1.746  -0.563  0.00  0.00     0.026 A 
ATOM      8  C6  UNL d   1       0.531   0.507  -0.158  0.00  0.00    -0.082 A 
ATOM      9  C7  UNL d   1       1.860   0.212   0.233  0.00  0.00     0.045 A 
ENDROOT
TORSDOF 0
ENDMDL
