MODEL 1
REMARK minimizedAffinity -2.37525892
REMARK minimizedRMSD -1
REMARK  0 active torsions:
REMARK  status: ('A' for Active; 'I' for Inactive)
ROOT
ATOM      1  C   UNL d   1      -0.593  -1.901   1.164  0.00  0.00    -0.002 A 
ATOM      2  C1  UNL d   1       0.448  -2.777   1.432  0.00  0.00     0.010 A 
ATOM      3  C2  UNL d   1       1.757  -2.458   1.066  0.00  0.00     0.041 A 
ATOM      4  C3  UNL d   1       2.005  -1.230   0.421  0.00  0.00    -0.075 A 
ATOM      5  S   UNL d   1       3.527  -0.627  -0.117  0.00  0.00     0.015 SA
ATOM      6  C4  UNL d   1       2.831   0.809  -0.716  0.00  0.00     0.022 A 
ATOM      7  C5  UNL d   1       1.471   0.844  -0.518  0.00  0.00     0.026 A 
ATOM      8  C6  UNL d   1       0.972  -0.330   0.141  0.00  0.00    -0.082 A 
ATOM      9  C7  UNL d   1      -0.344  -0.683   0.524  0.00  0.00     0.045 A 
ENDROOT
TORSDOF 0
ENDMDL
