MODEL 1
REMARK minimizedAffinity -1.75788808
REMARK minimizedRMSD -1
REMARK  0 active torsions:
REMARK  status: ('A' for Active; 'I' for Inactive)
ROOT
ATOM      1  C   UNL d   1       2.922  -1.278   0.401  0.00  0.00    -0.002 A 
ATOM      2  C1  UNL d   1       2.074  -2.189   1.015  0.00  0.00     0.010 A 
ATOM      3  C2  UNL d   1       0.694  -1.981   1.022  0.00  0.00     0.041 A 
ATOM      4  C3  UNL d   1       0.174  -0.833   0.392  0.00  0.00    -0.075 A 
ATOM      5  S   UNL d   1      -1.483  -0.373   0.273  0.00  0.00     0.015 SA
ATOM      6  C4  UNL d   1      -1.105   1.043  -0.597  0.00  0.00     0.022 A 
ATOM      7  C5  UNL d   1       0.248   1.177  -0.800  0.00  0.00     0.026 A 
ATOM      8  C6  UNL d   1       1.007   0.098  -0.234  0.00  0.00    -0.082 A 
ATOM      9  C7  UNL d   1       2.403  -0.140  -0.223  0.00  0.00     0.045 A 
ENDROOT
TORSDOF 0
ENDMDL
