MODEL 1
REMARK minimizedAffinity 1.89911175
REMARK minimizedRMSD -1
REMARK  0 active torsions:
REMARK  status: ('A' for Active; 'I' for Inactive)
ROOT
ATOM      1  C   UNL d   1       2.381  -2.069   1.673  0.00  0.00    -0.002 A 
ATOM      2  C1  UNL d   1       3.388  -1.150   1.418  0.00  0.00     0.010 A 
ATOM      3  C2  UNL d   1       3.134  -0.013   0.647  0.00  0.00     0.041 A 
ATOM      4  C3  UNL d   1       1.837   0.186   0.135  0.00  0.00    -0.075 A 
ATOM      5  S   UNL d   1       1.294   1.506  -0.833  0.00  0.00     0.015 SA
ATOM      6  C4  UNL d   1      -0.288   0.880  -0.930  0.00  0.00     0.022 A 
ATOM      7  C5  UNL d   1      -0.417  -0.306  -0.247  0.00  0.00     0.026 A 
ATOM      8  C6  UNL d   1       0.806  -0.725   0.379  0.00  0.00    -0.082 A 
ATOM      9  C7  UNL d   1       1.096  -1.868   1.162  0.00  0.00     0.045 A 
ENDROOT
TORSDOF 0
ENDMDL
