MODEL 1
REMARK minimizedAffinity -2.27558613
REMARK minimizedRMSD -1
REMARK  0 active torsions:
REMARK  status: ('A' for Active; 'I' for Inactive)
ROOT
ATOM      1  C   UNL d   1       2.661  -1.698   0.788  0.00  0.00    -0.002 A 
ATOM      2  C1  UNL d   1       1.732  -2.723   0.675  0.00  0.00     0.010 A 
ATOM      3  C2  UNL d   1       0.422  -2.453   0.275  0.00  0.00     0.041 A 
ATOM      4  C3  UNL d   1       0.058  -1.123  -0.014  0.00  0.00    -0.075 A 
ATOM      5  S   UNL d   1      -1.488  -0.555  -0.522  0.00  0.00     0.015 SA
ATOM      6  C4  UNL d   1      -0.952   1.060  -0.602  0.00  0.00     0.022 A 
ATOM      7  C5  UNL d   1       0.372   1.182  -0.252  0.00  0.00     0.026 A 
ATOM      8  C6  UNL d   1       0.976  -0.074   0.092  0.00  0.00    -0.082 A 
ATOM      9  C7  UNL d   1       2.296  -0.380   0.501  0.00  0.00     0.045 A 
ENDROOT
TORSDOF 0
ENDMDL
