MODEL 1
REMARK minimizedAffinity -2.52485847
REMARK minimizedRMSD -1
REMARK  0 active torsions:
REMARK  status: ('A' for Active; 'I' for Inactive)
ROOT
ATOM      1  C   UNL d   1       2.855  -0.702   0.588  0.00  0.00    -0.002 A 
ATOM      2  C1  UNL d   1       2.056  -1.755   1.009  0.00  0.00     0.010 A 
ATOM      3  C2  UNL d   1       0.677  -1.731   0.793  0.00  0.00     0.041 A 
ATOM      4  C3  UNL d   1       0.109  -0.620   0.139  0.00  0.00    -0.075 A 
ATOM      5  S   UNL d   1      -1.556  -0.373  -0.234  0.00  0.00     0.015 SA
ATOM      6  C4  UNL d   1      -1.245   1.137  -0.962  0.00  0.00     0.022 A 
ATOM      7  C5  UNL d   1       0.090   1.460  -0.929  0.00  0.00     0.026 A 
ATOM      8  C6  UNL d   1       0.893   0.453  -0.295  0.00  0.00    -0.082 A 
ATOM      9  C7  UNL d   1       2.288   0.399  -0.060  0.00  0.00     0.045 A 
ENDROOT
TORSDOF 0
ENDMDL
