MODEL 1
REMARK minimizedAffinity -1.83048809
REMARK minimizedRMSD -1
REMARK  0 active torsions:
REMARK  status: ('A' for Active; 'I' for Inactive)
ROOT
ATOM      1  C   UNL d   1       1.462  -1.190   0.500  0.00  0.00    -0.002 A 
ATOM      2  C1  UNL d   1       0.254  -1.777   0.848  0.00  0.00     0.010 A 
ATOM      3  C2  UNL d   1      -0.956  -1.163   0.517  0.00  0.00     0.041 A 
ATOM      4  C3  UNL d   1      -0.930   0.062  -0.178  0.00  0.00    -0.075 A 
ATOM      5  S   UNL d   1      -2.287   0.996  -0.689  0.00  0.00     0.015 SA
ATOM      6  C4  UNL d   1      -1.295   2.196  -1.383  0.00  0.00     0.022 A 
ATOM      7  C5  UNL d   1       0.042   1.907  -1.237  0.00  0.00     0.026 A 
ATOM      8  C6  UNL d   1       0.274   0.673  -0.541  0.00  0.00    -0.082 A 
ATOM      9  C7  UNL d   1       1.483   0.026  -0.190  0.00  0.00     0.045 A 
ENDROOT
TORSDOF 0
ENDMDL
