MODEL 1
REMARK minimizedAffinity -3.59147215
REMARK minimizedRMSD -1
REMARK  0 active torsions:
REMARK  status: ('A' for Active; 'I' for Inactive)
ROOT
ATOM      1  C   UNL d   1       1.768  -2.447   1.055  0.00  0.00    -0.002 A 
ATOM      2  C1  UNL d   1       2.519  -1.470   0.418  0.00  0.00     0.010 A 
ATOM      3  C2  UNL d   1       1.912  -0.310  -0.068  0.00  0.00     0.041 A 
ATOM      4  C3  UNL d   1       0.523  -0.147   0.100  0.00  0.00    -0.075 A 
ATOM      5  S   UNL d   1      -0.436   1.191  -0.413  0.00  0.00     0.015 SA
ATOM      6  C4  UNL d   1      -1.866   0.498   0.203  0.00  0.00     0.022 A 
ATOM      7  C5  UNL d   1      -1.636  -0.725   0.789  0.00  0.00     0.026 A 
ATOM      8  C6  UNL d   1      -0.255  -1.116   0.740  0.00  0.00    -0.082 A 
ATOM      9  C7  UNL d   1       0.390  -2.281   1.221  0.00  0.00     0.045 A 
ENDROOT
TORSDOF 0
ENDMDL
