MODEL 1
REMARK minimizedAffinity 0.466885984
REMARK minimizedRMSD -1
REMARK  0 active torsions:
REMARK  status: ('A' for Active; 'I' for Inactive)
ROOT
ATOM      1  C   UNL d   1       0.786  -2.874   2.306  0.00  0.00    -0.002 A 
ATOM      2  C1  UNL d   1      -0.352  -2.559   3.035  0.00  0.00     0.010 A 
ATOM      3  C2  UNL d   1      -1.210  -1.544   2.609  0.00  0.00     0.041 A 
ATOM      4  C3  UNL d   1      -0.905  -0.846   1.424  0.00  0.00    -0.075 A 
ATOM      5  S   UNL d   1      -1.811   0.435   0.709  0.00  0.00     0.015 SA
ATOM      6  C4  UNL d   1      -0.710   0.593  -0.582  0.00  0.00     0.022 A 
ATOM      7  C5  UNL d   1       0.329  -0.301  -0.486  0.00  0.00     0.026 A 
ATOM      8  C6  UNL d   1       0.234  -1.145   0.672  0.00  0.00    -0.082 A 
ATOM      9  C7  UNL d   1       1.086  -2.179   1.131  0.00  0.00     0.045 A 
ENDROOT
TORSDOF 0
ENDMDL
