MODEL 1
REMARK minimizedAffinity -6.14044714
REMARK minimizedRMSD -1
REMARK  0 active torsions:
REMARK  status: ('A' for Active; 'I' for Inactive)
ROOT
ATOM      1  O1  BZF d   1       0.178   1.222  -1.042  0.00  0.00    -0.204 OA
ATOM      2  C2  BZF d   1      -0.411   2.289  -1.693  0.00  0.00     0.174 A 
ATOM      3  C3  BZF d   1      -1.103   3.056  -0.825  0.00  0.00    -0.012 A 
ATOM      4  C3A BZF d   1      -0.861   2.480   0.462  0.00  0.00    -0.107 A 
ATOM      5  C4  BZF d   1      -1.263   2.804   1.726  0.00  0.00     0.055 A 
ATOM      6  C5  BZF d   1      -0.911   1.995   2.759  0.00  0.00    -0.016 A 
ATOM      7  C6  BZF d   1      -0.162   0.853   2.564  0.00  0.00     0.022 A 
ATOM      8  C7  BZF d   1       0.265   0.493   1.329  0.00  0.00     0.029 A 
ATOM      9  C7A BZF d   1      -0.062   1.327   0.287  0.00  0.00     0.058 A 
ENDROOT
TORSDOF 0
ENDMDL
