MODEL 1
REMARK minimizedAffinity -4.78893709
REMARK minimizedRMSD -1
REMARK  0 active torsions:
REMARK  status: ('A' for Active; 'I' for Inactive)
ROOT
ATOM      1  O1  BZF d   1       0.156   0.449  -0.596  0.00  0.00    -0.204 OA
ATOM      2  C2  BZF d   1       0.370  -0.497   0.388  0.00  0.00     0.174 A 
ATOM      3  C3  BZF d   1       0.051  -0.005   1.603  0.00  0.00    -0.012 A 
ATOM      4  C3A BZF d   1      -0.476   1.301   1.353  0.00  0.00    -0.107 A 
ATOM      5  C4  BZF d   1      -0.978   2.281   2.160  0.00  0.00     0.055 A 
ATOM      6  C5  BZF d   1      -1.342   3.469   1.610  0.00  0.00    -0.016 A 
ATOM      7  C6  BZF d   1      -1.211   3.713   0.258  0.00  0.00     0.022 A 
ATOM      8  C7  BZF d   1      -0.723   2.770  -0.584  0.00  0.00     0.029 A 
ATOM      9  C7A BZF d   1      -0.386   1.557  -0.035  0.00  0.00     0.058 A 
ENDROOT
TORSDOF 0
ENDMDL
