MODEL 1
REMARK minimizedAffinity 0.541937709
REMARK minimizedRMSD -1
REMARK  0 active torsions:
REMARK  status: ('A' for Active; 'I' for Inactive)
ROOT
ATOM      1  O1  BZF d   1      -0.596  -1.520  -0.137  0.00  0.00    -0.204 OA
ATOM      2  C2  BZF d   1      -0.425  -0.986  -1.399  0.00  0.00     0.174 A 
ATOM      3  C3  BZF d   1       0.158   0.228  -1.329  0.00  0.00    -0.012 A 
ATOM      4  C3A BZF d   1       0.448   0.427   0.058  0.00  0.00    -0.107 A 
ATOM      5  C4  BZF d   1       1.041   1.439   0.757  0.00  0.00     0.055 A 
ATOM      6  C5  BZF d   1       1.105   1.357   2.112  0.00  0.00    -0.016 A 
ATOM      7  C6  BZF d   1       0.582   0.281   2.800  0.00  0.00     0.022 A 
ATOM      8  C7  BZF d   1      -0.011  -0.749   2.149  0.00  0.00     0.029 A 
ATOM      9  C7A BZF d   1      -0.048  -0.684   0.777  0.00  0.00     0.058 A 
ENDROOT
TORSDOF 0
ENDMDL
