MODEL 1
REMARK minimizedAffinity -5.79814672
REMARK minimizedRMSD -1
REMARK  0 active torsions:
REMARK  status: ('A' for Active; 'I' for Inactive)
ROOT
ATOM      1  O1  BZF d   1      -0.774   0.549  -0.910  0.00  0.00    -0.204 OA
ATOM      2  C2  BZF d   1       0.037  -0.552  -1.103  0.00  0.00     0.174 A 
ATOM      3  C3  BZF d   1       0.786  -0.793  -0.008  0.00  0.00    -0.012 A 
ATOM      4  C3A BZF d   1       0.353   0.166   0.962  0.00  0.00    -0.107 A 
ATOM      5  C4  BZF d   1       0.712   0.421   2.255  0.00  0.00     0.055 A 
ATOM      6  C5  BZF d   1       0.149   1.476   2.900  0.00  0.00    -0.016 A 
ATOM      7  C6  BZF d   1      -0.770   2.299   2.282  0.00  0.00     0.022 A 
ATOM      8  C7  BZF d   1      -1.161   2.083   1.003  0.00  0.00     0.029 A 
ATOM      9  C7A BZF d   1      -0.618   0.997   0.359  0.00  0.00     0.058 A 
ENDROOT
TORSDOF 0
ENDMDL
