MODEL 1
REMARK minimizedAffinity -5.29438353
REMARK minimizedRMSD -1
REMARK  0 active torsions:
REMARK  status: ('A' for Active; 'I' for Inactive)
ROOT
ATOM      1  O1  BZF d   1       0.121   1.461   2.587  0.00  0.00    -0.204 OA
ATOM      2  C2  BZF d   1       1.102   0.655   3.131  0.00  0.00     0.174 A 
ATOM      3  C3  BZF d   1       1.466  -0.309   2.260  0.00  0.00    -0.012 A 
ATOM      4  C3A BZF d   1       0.727  -0.036   1.066  0.00  0.00    -0.107 A 
ATOM      5  C4  BZF d   1       0.669  -0.635  -0.160  0.00  0.00     0.055 A 
ATOM      6  C5  BZF d   1      -0.210  -0.165  -1.084  0.00  0.00    -0.016 A 
ATOM      7  C6  BZF d   1      -1.048   0.897  -0.814  0.00  0.00     0.022 A 
ATOM      8  C7  BZF d   1      -1.024   1.526   0.386  0.00  0.00     0.029 A 
ATOM      9  C7A BZF d   1      -0.114   1.074   1.310  0.00  0.00     0.058 A 
ENDROOT
TORSDOF 0
ENDMDL
