MODEL 1
REMARK minimizedAffinity 4.87406921
REMARK minimizedRMSD -1
REMARK  0 active torsions:
REMARK  status: ('A' for Active; 'I' for Inactive)
ROOT
ATOM      1  O1  BZF d   1       0.747   0.691   0.373  0.00  0.00    -0.204 OA
ATOM      2  C2  BZF d   1       1.088  -0.527  -0.183  0.00  0.00     0.174 A 
ATOM      3  C3  BZF d   1       1.414  -1.417   0.776  0.00  0.00    -0.012 A 
ATOM      4  C3A BZF d   1       1.180  -0.739   2.014  0.00  0.00    -0.107 A 
ATOM      5  C4  BZF d   1       1.306  -1.105   3.323  0.00  0.00     0.055 A 
ATOM      6  C5  BZF d   1       1.067  -0.183   4.293  0.00  0.00    -0.016 A 
ATOM      7  C6  BZF d   1       0.706   1.113   3.989  0.00  0.00     0.022 A 
ATOM      8  C7  BZF d   1       0.564   1.522   2.705  0.00  0.00     0.029 A 
ATOM      9  C7A BZF d   1       0.773   0.584   1.724  0.00  0.00     0.058 A 
ENDROOT
TORSDOF 0
ENDMDL
