MODEL 1
REMARK minimizedAffinity -1.77417982
REMARK minimizedRMSD -1
REMARK  0 active torsions:
REMARK  status: ('A' for Active; 'I' for Inactive)
ROOT
ATOM      1  O1  BZF d   1       1.164  -0.393  -0.005  0.00  0.00    -0.204 OA
ATOM      2  C2  BZF d   1       1.407  -0.292   1.351  0.00  0.00     0.174 A 
ATOM      3  C3  BZF d   1       0.373   0.305   1.978  0.00  0.00    -0.012 A 
ATOM      4  C3A BZF d   1      -0.615   0.511   0.964  0.00  0.00    -0.107 A 
ATOM      5  C4  BZF d   1      -1.870   1.049   0.971  0.00  0.00     0.055 A 
ATOM      6  C5  BZF d   1      -2.543   1.170  -0.203  0.00  0.00    -0.016 A 
ATOM      7  C6  BZF d   1      -1.991   0.769  -1.402  0.00  0.00     0.022 A 
ATOM      8  C7  BZF d   1      -0.751   0.225  -1.458  0.00  0.00     0.029 A 
ATOM      9  C7A BZF d   1      -0.081   0.071  -0.269  0.00  0.00     0.058 A 
ENDROOT
TORSDOF 0
ENDMDL
