MODEL 1
REMARK minimizedAffinity -5.24961185
REMARK minimizedRMSD -1
REMARK  0 active torsions:
REMARK  status: ('A' for Active; 'I' for Inactive)
ROOT
ATOM      1  O1  BZF d   1       0.660   0.658  -1.299  0.00  0.00    -0.204 OA
ATOM      2  C2  BZF d   1       0.042   1.535  -2.168  0.00  0.00     0.174 A 
ATOM      3  C3  BZF d   1      -0.832   2.324  -1.510  0.00  0.00    -0.012 A 
ATOM      4  C3A BZF d   1      -0.687   1.977  -0.130  0.00  0.00    -0.107 A 
ATOM      5  C4  BZF d   1      -1.275   2.426   1.018  0.00  0.00     0.055 A 
ATOM      6  C5  BZF d   1      -0.964   1.827   2.198  0.00  0.00    -0.016 A 
ATOM      7  C6  BZF d   1      -0.076   0.774   2.265  0.00  0.00     0.022 A 
ATOM      8  C7  BZF d   1       0.536   0.296   1.154  0.00  0.00     0.029 A 
ATOM      9  C7A BZF d   1       0.250   0.922  -0.035  0.00  0.00     0.058 A 
ENDROOT
TORSDOF 0
ENDMDL
