MODEL 1
REMARK minimizedAffinity 5.71819019
REMARK minimizedRMSD -1
REMARK  0 active torsions:
REMARK  status: ('A' for Active; 'I' for Inactive)
ROOT
ATOM      1  C2' OXE d   1       0.153   2.297   0.742  0.00  0.00     0.078 C 
ATOM      2  C1' OXE d   1      -0.928  -0.151   1.591  0.00  0.00     0.078 C 
ATOM      3  C1  OXE d   1      -0.301  -0.096   0.220  0.00  0.00    -0.078 A 
ATOM      4  C2  OXE d   1       0.184   1.117  -0.206  0.00  0.00    -0.078 A 
ATOM      5  C3  OXE d   1       0.822   1.210  -1.439  0.00  0.00     0.003 A 
ATOM      6  C4  OXE d   1       0.837   0.117  -2.314  0.00  0.00    -0.002 A 
ATOM      7  C5  OXE d   1       0.313  -1.118  -1.916  0.00  0.00    -0.002 A 
ATOM      8  C6  OXE d   1      -0.220  -1.252  -0.639  0.00  0.00     0.003 A 
ENDROOT
TORSDOF 0
ENDMDL
