MODEL 1
REMARK minimizedAffinity -3.40382648
REMARK minimizedRMSD -1
REMARK  0 active torsions:
REMARK  status: ('A' for Active; 'I' for Inactive)
ROOT
ATOM      1  C2' OXE d   1      -1.836   0.028   1.821  0.00  0.00     0.078 C 
ATOM      2  C1' OXE d   1      -0.721  -2.314   0.747  0.00  0.00     0.078 C 
ATOM      3  C1  OXE d   1      -0.438  -1.012   0.040  0.00  0.00    -0.078 A 
ATOM      4  C2  OXE d   1      -1.026   0.123   0.546  0.00  0.00    -0.078 A 
ATOM      5  C3  OXE d   1      -0.755   1.358  -0.036  0.00  0.00     0.003 A 
ATOM      6  C4  OXE d   1      -0.013   1.436  -1.221  0.00  0.00    -0.002 A 
ATOM      7  C5  OXE d   1       0.562   0.287  -1.775  0.00  0.00    -0.002 A 
ATOM      8  C6  OXE d   1       0.395  -0.936  -1.134  0.00  0.00     0.003 A 
ENDROOT
TORSDOF 0
ENDMDL
