MODEL 1
REMARK minimizedAffinity -0.644089878
REMARK minimizedRMSD -1
REMARK  0 active torsions:
REMARK  status: ('A' for Active; 'I' for Inactive)
ROOT
ATOM      1  C2' OXE d   1      -1.232  -2.917   0.637  0.00  0.00     0.078 C 
ATOM      2  C1' OXE d   1      -0.930  -0.465   1.969  0.00  0.00     0.078 C 
ATOM      3  C1  OXE d   1      -0.389  -0.574   0.566  0.00  0.00    -0.078 A 
ATOM      4  C2  OXE d   1      -0.499  -1.792  -0.061  0.00  0.00    -0.078 A 
ATOM      5  C3  OXE d   1      -0.065  -1.932  -1.376  0.00  0.00     0.003 A 
ATOM      6  C4  OXE d   1       0.621  -0.889  -2.011  0.00  0.00    -0.002 A 
ATOM      7  C5  OXE d   1       0.779   0.347  -1.376  0.00  0.00    -0.002 A 
ATOM      8  C6  OXE d   1       0.244   0.534  -0.106  0.00  0.00     0.003 A 
ENDROOT
TORSDOF 0
ENDMDL
