MODEL 1
REMARK minimizedAffinity 4.09762764
REMARK minimizedRMSD -1
REMARK  0 active torsions:
REMARK  status: ('A' for Active; 'I' for Inactive)
ROOT
ATOM      1  C2' OXE d   1      -0.228   2.134   1.034  0.00  0.00     0.078 C 
ATOM      2  C1' OXE d   1       0.061   0.267  -1.042  0.00  0.00     0.078 C 
ATOM      3  C1  OXE d   1      -0.642  -0.182   0.215  0.00  0.00    -0.078 A 
ATOM      4  C2  OXE d   1      -0.738   0.725   1.244  0.00  0.00    -0.078 A 
ATOM      5  C3  OXE d   1      -1.424   0.380   2.404  0.00  0.00     0.003 A 
ATOM      6  C4  OXE d   1      -1.884  -0.929   2.594  0.00  0.00    -0.002 A 
ATOM      7  C5  OXE d   1      -1.762  -1.879   1.575  0.00  0.00    -0.002 A 
ATOM      8  C6  OXE d   1      -1.182  -1.510   0.365  0.00  0.00     0.003 A 
ENDROOT
TORSDOF 0
ENDMDL
