MODEL 1
REMARK minimizedAffinity 4.86466074
REMARK minimizedRMSD -1
REMARK  0 active torsions:
REMARK  status: ('A' for Active; 'I' for Inactive)
ROOT
ATOM      1  C2' OXE d   1       2.552   0.430  -1.190  0.00  0.00     0.078 C 
ATOM      2  C1' OXE d   1       0.732   0.654   0.935  0.00  0.00     0.078 C 
ATOM      3  C1  OXE d   1       1.782   1.727   0.792  0.00  0.00    -0.078 A 
ATOM      4  C2  OXE d   1       2.697   1.585  -0.223  0.00  0.00    -0.078 A 
ATOM      5  C3  OXE d   1       3.653   2.575  -0.433  0.00  0.00     0.003 A 
ATOM      6  C4  OXE d   1       3.787   3.634   0.473  0.00  0.00    -0.002 A 
ATOM      7  C5  OXE d   1       2.890   3.777   1.537  0.00  0.00    -0.002 A 
ATOM      8  C6  OXE d   1       1.858   2.857   1.686  0.00  0.00     0.003 A 
ENDROOT
TORSDOF 0
ENDMDL
