MODEL 1
REMARK minimizedAffinity 1.41974592
REMARK minimizedRMSD -1
REMARK  0 active torsions:
REMARK  status: ('A' for Active; 'I' for Inactive)
ROOT
ATOM      1  C2' OXE d   1       0.231   1.109   0.455  0.00  0.00     0.078 C 
ATOM      2  C1' OXE d   1       0.377  -0.527  -1.822  0.00  0.00     0.078 C 
ATOM      3  C1  OXE d   1      -0.237  -1.111  -0.574  0.00  0.00    -0.078 A 
ATOM      4  C2  OXE d   1      -0.262  -0.319   0.549  0.00  0.00    -0.078 A 
ATOM      5  C3  OXE d   1      -0.867  -0.790   1.711  0.00  0.00     0.003 A 
ATOM      6  C4  OXE d   1      -1.311  -2.115   1.792  0.00  0.00    -0.002 A 
ATOM      7  C5  OXE d   1      -1.258  -2.951   0.672  0.00  0.00    -0.002 A 
ATOM      8  C6  OXE d   1      -0.765  -2.453  -0.528  0.00  0.00     0.003 A 
ENDROOT
TORSDOF 0
ENDMDL
