MODEL 1
REMARK minimizedAffinity -5.67840958
REMARK minimizedRMSD -1
REMARK  0 active torsions:
REMARK  status: ('A' for Active; 'I' for Inactive)
ROOT
ATOM      1  C2' OXE d   1      -0.899  -2.734   0.624  0.00  0.00     0.078 C 
ATOM      2  C1' OXE d   1      -1.542  -0.206   1.659  0.00  0.00     0.078 C 
ATOM      3  C1  OXE d   1      -0.576  -0.267   0.502  0.00  0.00    -0.078 A 
ATOM      4  C2  OXE d   1      -0.230  -1.512   0.033  0.00  0.00    -0.078 A 
ATOM      5  C3  OXE d   1       0.615  -1.623  -1.067  0.00  0.00     0.003 A 
ATOM      6  C4  OXE d   1       1.237  -0.488  -1.601  0.00  0.00    -0.002 A 
ATOM      7  C5  OXE d   1       0.930   0.786  -1.112  0.00  0.00    -0.002 A 
ATOM      8  C6  OXE d   1      -0.005   0.917  -0.091  0.00  0.00     0.003 A 
ENDROOT
TORSDOF 0
ENDMDL
