MODEL 1
REMARK minimizedAffinity 0.0117558027
REMARK minimizedRMSD -1
REMARK  0 active torsions:
REMARK  status: ('A' for Active; 'I' for Inactive)
ROOT
ATOM      1  C2' OXE d   1       0.646   1.002   0.731  0.00  0.00     0.078 C 
ATOM      2  C1' OXE d   1       0.824  -0.178  -1.810  0.00  0.00     0.078 C 
ATOM      3  C1  OXE d   1       0.219  -0.995  -0.696  0.00  0.00    -0.078 A 
ATOM      4  C2  OXE d   1       0.179  -0.427   0.554  0.00  0.00    -0.078 A 
ATOM      5  C3  OXE d   1      -0.419  -1.116   1.605  0.00  0.00     0.003 A 
ATOM      6  C4  OXE d   1      -0.839  -2.441   1.436  0.00  0.00    -0.002 A 
ATOM      7  C5  OXE d   1      -0.771  -3.053   0.180  0.00  0.00    -0.002 A 
ATOM      8  C6  OXE d   1      -0.284  -2.330  -0.904  0.00  0.00     0.003 A 
ENDROOT
TORSDOF 0
ENDMDL
