MODEL 1
REMARK minimizedAffinity 0.057518594
REMARK minimizedRMSD -1
REMARK  0 active torsions:
REMARK  status: ('A' for Active; 'I' for Inactive)
ROOT
ATOM      1  C2' OXE d   1       5.585  -1.468   6.000  0.00  0.00     0.078 C 
ATOM      2  C1' OXE d   1       3.219  -2.976   5.928  0.00  0.00     0.078 C 
ATOM      3  C1  OXE d   1       4.042  -2.898   4.666  0.00  0.00    -0.078 A 
ATOM      4  C2  OXE d   1       5.174  -2.119   4.697  0.00  0.00    -0.078 A 
ATOM      5  C3  OXE d   1       5.999  -2.057   3.578  0.00  0.00     0.003 A 
ATOM      6  C4  OXE d   1       5.606  -2.655   2.374  0.00  0.00    -0.002 A 
ATOM      7  C5  OXE d   1       4.437  -3.419   2.309  0.00  0.00    -0.002 A 
ATOM      8  C6  OXE d   1       3.667  -3.586   3.456  0.00  0.00     0.003 A 
ENDROOT
TORSDOF 0
ENDMDL
