MODEL 1
REMARK minimizedAffinity -1.76911294
REMARK minimizedRMSD -1
REMARK  0 active torsions:
REMARK  status: ('A' for Active; 'I' for Inactive)
ROOT
ATOM      1  C2' OXE d   1       0.734  -3.230   0.802  0.00  0.00     0.078 C 
ATOM      2  C1' OXE d   1       2.202  -1.335  -0.659  0.00  0.00     0.078 C 
ATOM      3  C1  OXE d   1       0.788  -0.982  -0.270  0.00  0.00    -0.078 A 
ATOM      4  C2  OXE d   1       0.061  -1.934   0.404  0.00  0.00    -0.078 A 
ATOM      5  C3  OXE d   1      -1.229  -1.639   0.834  0.00  0.00     0.003 A 
ATOM      6  C4  OXE d   1      -1.847  -0.442   0.454  0.00  0.00    -0.002 A 
ATOM      7  C5  OXE d   1      -1.138   0.525  -0.268  0.00  0.00    -0.002 A 
ATOM      8  C6  OXE d   1       0.191   0.288  -0.600  0.00  0.00     0.003 A 
ENDROOT
TORSDOF 0
ENDMDL
