MODEL 1
REMARK minimizedAffinity -6.21325636
REMARK minimizedRMSD -1
REMARK  0 active torsions:
REMARK  status: ('A' for Active; 'I' for Inactive)
ROOT
ATOM      1  C2' OXE d   1       0.450   0.751  -0.421  0.00  0.00     0.078 C 
ATOM      2  C1' OXE d   1      -0.906  -0.649   1.600  0.00  0.00     0.078 C 
ATOM      3  C1  OXE d   1      -0.465  -1.423   0.383  0.00  0.00    -0.078 A 
ATOM      4  C2  OXE d   1       0.157  -0.720  -0.622  0.00  0.00    -0.078 A 
ATOM      5  C3  OXE d   1       0.632  -1.395  -1.743  0.00  0.00     0.003 A 
ATOM      6  C4  OXE d   1       0.348  -2.754  -1.925  0.00  0.00    -0.002 A 
ATOM      7  C5  OXE d   1      -0.318  -3.480  -0.932  0.00  0.00    -0.002 A 
ATOM      8  C6  OXE d   1      -0.693  -2.840   0.244  0.00  0.00     0.003 A 
ENDROOT
TORSDOF 0
ENDMDL
