MODEL 1
REMARK minimizedAffinity -0.532371461
REMARK minimizedRMSD -1
REMARK  0 active torsions:
REMARK  status: ('A' for Active; 'I' for Inactive)
ROOT
ATOM      1  C2' OXE d   1      -1.498  -2.763   0.853  0.00  0.00     0.078 C 
ATOM      2  C1' OXE d   1      -0.781  -3.143  -1.834  0.00  0.00     0.078 C 
ATOM      3  C1  OXE d   1      -0.459  -1.812  -1.202  0.00  0.00    -0.078 A 
ATOM      4  C2  OXE d   1      -0.855  -1.619   0.100  0.00  0.00    -0.078 A 
ATOM      5  C3  OXE d   1      -0.535  -0.429   0.748  0.00  0.00     0.003 A 
ATOM      6  C4  OXE d   1       0.050   0.628   0.041  0.00  0.00    -0.002 A 
ATOM      7  C5  OXE d   1       0.426   0.466  -1.296  0.00  0.00    -0.002 A 
ATOM      8  C6  OXE d   1       0.218  -0.760  -1.919  0.00  0.00     0.003 A 
ENDROOT
TORSDOF 0
ENDMDL
