MODEL 1
REMARK minimizedAffinity -4.3263936
REMARK minimizedRMSD -1
REMARK  0 active torsions:
REMARK  status: ('A' for Active; 'I' for Inactive)
ROOT
ATOM      1  C2' OXE d   1      -0.116  -3.560  -0.704  0.00  0.00     0.078 C 
ATOM      2  C1' OXE d   1      -1.360  -2.211   1.421  0.00  0.00     0.078 C 
ATOM      3  C1  OXE d   1      -0.767  -1.380   0.312  0.00  0.00    -0.078 A 
ATOM      4  C2  OXE d   1      -0.119  -2.046  -0.701  0.00  0.00    -0.078 A 
ATOM      5  C3  OXE d   1       0.398  -1.330  -1.777  0.00  0.00     0.003 A 
ATOM      6  C4  OXE d   1       0.400   0.070  -1.761  0.00  0.00    -0.002 A 
ATOM      7  C5  OXE d   1      -0.219   0.769  -0.720  0.00  0.00    -0.002 A 
ATOM      8  C6  OXE d   1      -0.843   0.060   0.301  0.00  0.00     0.003 A 
ENDROOT
TORSDOF 0
ENDMDL
