MODEL 1
REMARK minimizedAffinity 6.9455657
REMARK minimizedRMSD -1
REMARK  0 active torsions:
REMARK  status: ('A' for Active; 'I' for Inactive)
ROOT
ATOM      1  C2' OXE d   1      -2.930  -2.183   1.507  0.00  0.00     0.078 C 
ATOM      2  C1' OXE d   1      -3.376   0.428   2.438  0.00  0.00     0.078 C 
ATOM      3  C1  OXE d   1      -1.997   0.088   1.930  0.00  0.00    -0.078 A 
ATOM      4  C2  OXE d   1      -1.775  -1.205   1.520  0.00  0.00    -0.078 A 
ATOM      5  C3  OXE d   1      -0.536  -1.558   0.991  0.00  0.00     0.003 A 
ATOM      6  C4  OXE d   1       0.529  -0.650   1.016  0.00  0.00    -0.002 A 
ATOM      7  C5  OXE d   1       0.336   0.660   1.467  0.00  0.00    -0.002 A 
ATOM      8  C6  OXE d   1      -0.930   1.057   1.886  0.00  0.00     0.003 A 
ENDROOT
TORSDOF 0
ENDMDL
