MODEL 1
REMARK minimizedAffinity 2.3248868
REMARK minimizedRMSD -1
REMARK  0 active torsions:
REMARK  status: ('A' for Active; 'I' for Inactive)
ROOT
ATOM      1  C2' OXE d   1       1.032   0.710   3.155  0.00  0.00     0.078 C 
ATOM      2  C1' OXE d   1       1.142   3.122   1.723  0.00  0.00     0.078 C 
ATOM      3  C1  OXE d   1       0.469   1.944   1.065  0.00  0.00    -0.078 A 
ATOM      4  C2  OXE d   1       0.461   0.755   1.754  0.00  0.00    -0.078 A 
ATOM      5  C3  OXE d   1      -0.195  -0.349   1.216  0.00  0.00     0.003 A 
ATOM      6  C4  OXE d   1      -0.712  -0.302  -0.084  0.00  0.00    -0.002 A 
ATOM      7  C5  OXE d   1      -0.678   0.888  -0.819  0.00  0.00    -0.002 A 
ATOM      8  C6  OXE d   1      -0.131   2.029  -0.243  0.00  0.00     0.003 A 
ENDROOT
TORSDOF 0
ENDMDL
