MODEL 1
REMARK minimizedAffinity -1.25436163
REMARK minimizedRMSD -1
REMARK  0 active torsions:
REMARK  status: ('A' for Active; 'I' for Inactive)
ROOT
ATOM      1  C2' OXE d   1       1.843  -0.910  -1.137  0.00  0.00     0.078 C 
ATOM      2  C1' OXE d   1      -0.676   0.274  -0.780  0.00  0.00     0.078 C 
ATOM      3  C1  OXE d   1      -0.499  -1.152  -0.324  0.00  0.00    -0.078 A 
ATOM      4  C2  OXE d   1       0.724  -1.739  -0.545  0.00  0.00    -0.078 A 
ATOM      5  C3  OXE d   1       0.958  -3.035  -0.093  0.00  0.00     0.003 A 
ATOM      6  C4  OXE d   1      -0.086  -3.798   0.444  0.00  0.00    -0.002 A 
ATOM      7  C5  OXE d   1      -1.350  -3.232   0.641  0.00  0.00    -0.002 A 
ATOM      8  C6  OXE d   1      -1.561  -1.900   0.303  0.00  0.00     0.003 A 
ENDROOT
TORSDOF 0
ENDMDL
