MODEL 1
REMARK minimizedAffinity -6.27264977
REMARK minimizedRMSD -1
REMARK  0 active torsions:
REMARK  status: ('A' for Active; 'I' for Inactive)
ROOT
ATOM      1  C2' OXE d   1      -0.678  -0.714   0.987  0.00  0.00     0.078 C 
ATOM      2  C1' OXE d   1       0.300   0.748  -1.200  0.00  0.00     0.078 C 
ATOM      3  C1  OXE d   1       0.485  -0.749  -1.215  0.00  0.00    -0.078 A 
ATOM      4  C2  OXE d   1       0.045  -1.451  -0.119  0.00  0.00    -0.078 A 
ATOM      5  C3  OXE d   1       0.141  -2.840  -0.106  0.00  0.00     0.003 A 
ATOM      6  C4  OXE d   1       0.820  -3.513  -1.130  0.00  0.00    -0.002 A 
ATOM      7  C5  OXE d   1       1.311  -2.812  -2.236  0.00  0.00    -0.002 A 
ATOM      8  C6  OXE d   1       1.115  -1.438  -2.314  0.00  0.00     0.003 A 
ENDROOT
TORSDOF 0
ENDMDL
