MODEL 1
REMARK minimizedAffinity -4.8280406
REMARK minimizedRMSD -1
REMARK  0 active torsions:
REMARK  status: ('A' for Active; 'I' for Inactive)
ROOT
ATOM      1  C2' OXE d   1      -0.131   3.796  -0.281  0.00  0.00     0.078 C 
ATOM      2  C1' OXE d   1       2.220   2.913   0.973  0.00  0.00     0.078 C 
ATOM      3  C1  OXE d   1       1.450   1.918   0.142  0.00  0.00    -0.078 A 
ATOM      4  C2  OXE d   1       0.276   2.346  -0.430  0.00  0.00    -0.078 A 
ATOM      5  C3  OXE d   1      -0.445   1.484  -1.252  0.00  0.00     0.003 A 
ATOM      6  C4  OXE d   1      -0.066   0.141  -1.376  0.00  0.00    -0.002 A 
ATOM      7  C5  OXE d   1       1.105  -0.325  -0.770  0.00  0.00    -0.002 A 
ATOM      8  C6  OXE d   1       1.895   0.559  -0.044  0.00  0.00     0.003 A 
ENDROOT
TORSDOF 0
ENDMDL
