MODEL 1
REMARK minimizedAffinity -4.63035488
REMARK minimizedRMSD -1
REMARK  0 active torsions:
REMARK  status: ('A' for Active; 'I' for Inactive)
ROOT
ATOM      1  C   UNL d   1       2.225   0.043   0.761  0.00  0.00     0.077 C 
ATOM      2  C1  UNL d   1       1.832  -1.373   0.460  0.00  0.00    -0.074 A 
ATOM      3  C2  UNL d   1       0.488  -1.731   0.317  0.00  0.00    -0.005 A 
ATOM      4  C3  UNL d   1       0.138  -3.050   0.028  0.00  0.00     0.006 A 
ATOM      5  C4  UNL d   1       1.127  -4.022  -0.123  0.00  0.00    -0.005 A 
ATOM      6  C5  UNL d   1       2.477  -3.682   0.015  0.00  0.00    -0.074 A 
ATOM      7  C6  UNL d   1       3.554  -4.713  -0.153  0.00  0.00     0.077 C 
ATOM      8  C7  UNL d   1       2.821  -2.353   0.300  0.00  0.00    -0.001 A 
ENDROOT
TORSDOF 0
ENDMDL
