MODEL 1
REMARK minimizedAffinity -0.70657146
REMARK minimizedRMSD -1
REMARK  0 active torsions:
REMARK  status: ('A' for Active; 'I' for Inactive)
ROOT
ATOM      1  C   UNL d   1       0.164  -1.710   0.566  0.00  0.00     0.077 C 
ATOM      2  C1  UNL d   1      -0.707  -0.595   1.064  0.00  0.00    -0.074 A 
ATOM      3  C2  UNL d   1      -0.412   0.069   2.259  0.00  0.00    -0.005 A 
ATOM      4  C3  UNL d   1      -1.226   1.111   2.704  0.00  0.00     0.006 A 
ATOM      5  C4  UNL d   1      -2.341   1.499   1.960  0.00  0.00    -0.005 A 
ATOM      6  C5  UNL d   1      -2.650   0.848   0.762  0.00  0.00    -0.074 A 
ATOM      7  C6  UNL d   1      -3.839   1.259  -0.056  0.00  0.00     0.077 C 
ATOM      8  C7  UNL d   1      -1.824  -0.194   0.317  0.00  0.00    -0.001 A 
ENDROOT
TORSDOF 0
ENDMDL
