MODEL 1
REMARK minimizedAffinity -5.04848051
REMARK minimizedRMSD -1
REMARK  0 active torsions:
REMARK  status: ('A' for Active; 'I' for Inactive)
ROOT
ATOM      1  C   UNL d   1       3.496  -4.974   0.043  0.00  0.00     0.077 C 
ATOM      2  C1  UNL d   1       2.459  -3.894  -0.045  0.00  0.00    -0.074 A 
ATOM      3  C2  UNL d   1       1.182  -4.162  -0.547  0.00  0.00    -0.005 A 
ATOM      4  C3  UNL d   1       0.226  -3.149  -0.615  0.00  0.00     0.006 A 
ATOM      5  C4  UNL d   1       0.536  -1.860  -0.182  0.00  0.00    -0.005 A 
ATOM      6  C5  UNL d   1       1.808  -1.572   0.324  0.00  0.00    -0.074 A 
ATOM      7  C6  UNL d   1       2.155  -0.194   0.802  0.00  0.00     0.077 C 
ATOM      8  C7  UNL d   1       2.761  -2.597   0.395  0.00  0.00    -0.001 A 
ENDROOT
TORSDOF 0
ENDMDL
