MODEL 1
REMARK minimizedAffinity -0.63214606
REMARK minimizedRMSD -1
REMARK  0 active torsions:
REMARK  status: ('A' for Active; 'I' for Inactive)
ROOT
ATOM      1  C   UNL d   1       1.841  -4.280  -0.082  0.00  0.00     0.077 C 
ATOM      2  C1  UNL d   1       1.181  -2.987   0.298  0.00  0.00    -0.074 A 
ATOM      3  C2  UNL d   1      -0.210  -2.895   0.406  0.00  0.00    -0.005 A 
ATOM      4  C3  UNL d   1      -0.809  -1.689   0.770  0.00  0.00     0.006 A 
ATOM      5  C4  UNL d   1      -0.024  -0.565   1.029  0.00  0.00    -0.005 A 
ATOM      6  C5  UNL d   1       1.369  -0.638   0.927  0.00  0.00    -0.074 A 
ATOM      7  C6  UNL d   1       2.228   0.558   1.212  0.00  0.00     0.077 C 
ATOM      8  C7  UNL d   1       1.963  -1.856   0.568  0.00  0.00    -0.001 A 
ENDROOT
TORSDOF 0
ENDMDL
