MODEL 1
REMARK minimizedAffinity 5.2849865
REMARK minimizedRMSD -1
REMARK  0 active torsions:
REMARK  status: ('A' for Active; 'I' for Inactive)
ROOT
ATOM      1  C   UNL d   1       3.766  -4.435  -0.536  0.00  0.00     0.077 C 
ATOM      2  C1  UNL d   1       2.561  -3.616  -0.180  0.00  0.00    -0.074 A 
ATOM      3  C2  UNL d   1       1.273  -4.151  -0.278  0.00  0.00    -0.005 A 
ATOM      4  C3  UNL d   1       0.163  -3.380   0.066  0.00  0.00     0.006 A 
ATOM      5  C4  UNL d   1       0.329  -2.068   0.512  0.00  0.00    -0.005 A 
ATOM      6  C5  UNL d   1       1.610  -1.516   0.618  0.00  0.00    -0.074 A 
ATOM      7  C6  UNL d   1       1.807  -0.112   1.105  0.00  0.00     0.077 C 
ATOM      8  C7  UNL d   1       2.721  -2.300   0.277  0.00  0.00    -0.001 A 
ENDROOT
TORSDOF 0
ENDMDL
