MODEL 1
REMARK minimizedAffinity -1.10078573
REMARK minimizedRMSD -1
REMARK  0 active torsions:
REMARK  status: ('A' for Active; 'I' for Inactive)
ROOT
ATOM      1  C   UNL d   1      -1.026  -0.187   1.872  0.00  0.00     0.077 C 
ATOM      2  C1  UNL d   1       0.002  -1.137   1.334  0.00  0.00    -0.074 A 
ATOM      3  C2  UNL d   1       0.019  -2.478   1.730  0.00  0.00    -0.005 A 
ATOM      4  C3  UNL d   1       0.976  -3.352   1.213  0.00  0.00     0.006 A 
ATOM      5  C4  UNL d   1       1.923  -2.895   0.296  0.00  0.00    -0.005 A 
ATOM      6  C5  UNL d   1       1.921  -1.557  -0.112  0.00  0.00    -0.074 A 
ATOM      7  C6  UNL d   1       2.926  -1.051  -1.104  0.00  0.00     0.077 C 
ATOM      8  C7  UNL d   1       0.953  -0.687   0.406  0.00  0.00    -0.001 A 
ENDROOT
TORSDOF 0
ENDMDL
