MODEL 1
REMARK minimizedAffinity -4.20487213
REMARK minimizedRMSD -1
REMARK  0 active torsions:
REMARK  status: ('A' for Active; 'I' for Inactive)
ROOT
ATOM      1  C   UNL d   1       3.196  -0.711   1.075  0.00  0.00     0.077 C 
ATOM      2  C1  UNL d   1       1.852  -1.319   0.804  0.00  0.00    -0.074 A 
ATOM      3  C2  UNL d   1       1.740  -2.587   0.223  0.00  0.00    -0.005 A 
ATOM      4  C3  UNL d   1       0.484  -3.143  -0.014  0.00  0.00     0.006 A 
ATOM      5  C4  UNL d   1      -0.672  -2.439   0.326  0.00  0.00    -0.005 A 
ATOM      6  C5  UNL d   1      -0.580  -1.170   0.908  0.00  0.00    -0.074 A 
ATOM      7  C6  UNL d   1      -1.812  -0.404   1.288  0.00  0.00     0.077 C 
ATOM      8  C7  UNL d   1       0.687  -0.621   1.150  0.00  0.00    -0.001 A 
ENDROOT
TORSDOF 0
ENDMDL
