MODEL 1
REMARK minimizedAffinity -3.09803247
REMARK minimizedRMSD -1
REMARK  0 active torsions:
REMARK  status: ('A' for Active; 'I' for Inactive)
ROOT
ATOM      1  C   UNL d   1       2.878  -4.034  -0.169  0.00  0.00     0.077 C 
ATOM      2  C1  UNL d   1       1.854  -2.969   0.091  0.00  0.00    -0.074 A 
ATOM      3  C2  UNL d   1       2.210  -1.616   0.099  0.00  0.00    -0.005 A 
ATOM      4  C3  UNL d   1       1.245  -0.636   0.333  0.00  0.00     0.006 A 
ATOM      5  C4  UNL d   1      -0.083  -0.999   0.561  0.00  0.00    -0.005 A 
ATOM      6  C5  UNL d   1      -0.458  -2.346   0.555  0.00  0.00    -0.074 A 
ATOM      7  C6  UNL d   1      -1.883  -2.752   0.789  0.00  0.00     0.077 C 
ATOM      8  C7  UNL d   1       0.516  -3.324   0.313  0.00  0.00    -0.001 A 
ENDROOT
TORSDOF 0
ENDMDL
