MODEL 1
REMARK minimizedAffinity -3.05131054
REMARK minimizedRMSD -1
REMARK  0 active torsions:
REMARK  status: ('A' for Active; 'I' for Inactive)
ROOT
ATOM      1  C   UNL d   1       1.761  -3.523  -0.823  0.00  0.00     0.077 C 
ATOM      2  C1  UNL d   1       1.426  -2.285  -0.047  0.00  0.00    -0.074 A 
ATOM      3  C2  UNL d   1       2.435  -1.479   0.491  0.00  0.00    -0.005 A 
ATOM      4  C3  UNL d   1       2.108  -0.325   1.203  0.00  0.00     0.006 A 
ATOM      5  C4  UNL d   1       0.772   0.035   1.383  0.00  0.00    -0.005 A 
ATOM      6  C5  UNL d   1      -0.250  -0.758   0.852  0.00  0.00    -0.074 A 
ATOM      7  C6  UNL d   1      -1.691  -0.381   1.029  0.00  0.00     0.077 C 
ATOM      8  C7  UNL d   1       0.086  -1.913   0.132  0.00  0.00    -0.001 A 
ENDROOT
TORSDOF 0
ENDMDL
