MODEL 1
REMARK minimizedAffinity 2.21903229
REMARK minimizedRMSD -1
REMARK  0 active torsions:
REMARK  status: ('A' for Active; 'I' for Inactive)
ROOT
ATOM      1  C   UNL d   1       1.941   0.503   2.180  0.00  0.00     0.077 C 
ATOM      2  C1  UNL d   1       1.070  -0.446   1.411  0.00  0.00    -0.074 A 
ATOM      3  C2  UNL d   1      -0.259  -0.124   1.118  0.00  0.00    -0.005 A 
ATOM      4  C3  UNL d   1      -1.054  -1.012   0.393  0.00  0.00     0.006 A 
ATOM      5  C4  UNL d   1      -0.529  -2.229  -0.044  0.00  0.00    -0.005 A 
ATOM      6  C5  UNL d   1       0.798  -2.567   0.239  0.00  0.00    -0.074 A 
ATOM      7  C6  UNL d   1       1.381  -3.867  -0.232  0.00  0.00     0.077 C 
ATOM      8  C7  UNL d   1       1.593  -1.667   0.961  0.00  0.00    -0.001 A 
ENDROOT
TORSDOF 0
ENDMDL
