MODEL 1
REMARK minimizedAffinity -1.29118538
REMARK minimizedRMSD -1
REMARK  0 active torsions:
REMARK  status: ('A' for Active; 'I' for Inactive)
ROOT
ATOM      1  C   UNL d   1       3.597  -3.932  -0.327  0.00  0.00     0.077 C 
ATOM      2  C1  UNL d   1       2.424  -3.066   0.025  0.00  0.00    -0.074 A 
ATOM      3  C2  UNL d   1       1.128  -3.416  -0.367  0.00  0.00    -0.005 A 
ATOM      4  C3  UNL d   1       0.046  -2.606  -0.024  0.00  0.00     0.006 A 
ATOM      5  C4  UNL d   1       0.248  -1.439   0.714  0.00  0.00    -0.005 A 
ATOM      6  C5  UNL d   1       1.537  -1.073   1.116  0.00  0.00    -0.074 A 
ATOM      7  C6  UNL d   1       1.770   0.173   1.918  0.00  0.00     0.077 C 
ATOM      8  C7  UNL d   1       2.618  -1.896   0.773  0.00  0.00    -0.001 A 
ENDROOT
TORSDOF 0
ENDMDL
