MODEL 1
REMARK minimizedAffinity 0.0444158278
REMARK minimizedRMSD -1
REMARK  0 active torsions:
REMARK  status: ('A' for Active; 'I' for Inactive)
ROOT
ATOM      1  C   UNL d   1      -1.918  -0.187   0.723  0.00  0.00     0.077 C 
ATOM      2  C1  UNL d   1      -0.509  -0.681   0.863  0.00  0.00    -0.074 A 
ATOM      3  C2  UNL d   1       0.554   0.214   1.020  0.00  0.00    -0.005 A 
ATOM      4  C3  UNL d   1       1.858  -0.261   1.159  0.00  0.00     0.006 A 
ATOM      5  C4  UNL d   1       2.112  -1.633   1.141  0.00  0.00    -0.005 A 
ATOM      6  C5  UNL d   1       1.062  -2.543   0.985  0.00  0.00    -0.074 A 
ATOM      7  C6  UNL d   1       1.316  -4.021   0.974  0.00  0.00     0.077 C 
ATOM      8  C7  UNL d   1      -0.247  -2.058   0.854  0.00  0.00    -0.001 A 
ENDROOT
TORSDOF 0
ENDMDL
