MODEL 1
REMARK minimizedAffinity 1.66919518
REMARK minimizedRMSD -1
REMARK  0 active torsions:
REMARK  status: ('A' for Active; 'I' for Inactive)
ROOT
ATOM      1  C   UNL d   1       0.893  -0.058   1.933  0.00  0.00     0.077 C 
ATOM      2  C1  UNL d   1       0.722  -1.314   1.131  0.00  0.00    -0.074 A 
ATOM      3  C2  UNL d   1      -0.430  -1.528   0.366  0.00  0.00    -0.005 A 
ATOM      4  C3  UNL d   1      -0.571  -2.696  -0.382  0.00  0.00     0.006 A 
ATOM      5  C4  UNL d   1       0.436  -3.662  -0.373  0.00  0.00    -0.005 A 
ATOM      6  C5  UNL d   1       1.595  -3.466   0.385  0.00  0.00    -0.074 A 
ATOM      7  C6  UNL d   1       2.691  -4.489   0.398  0.00  0.00     0.077 C 
ATOM      8  C7  UNL d   1       1.732  -2.286   1.129  0.00  0.00    -0.001 A 
ENDROOT
TORSDOF 0
ENDMDL
