MODEL 1
REMARK minimizedAffinity -0.935768783
REMARK minimizedRMSD -1
REMARK  0 active torsions:
REMARK  status: ('A' for Active; 'I' for Inactive)
ROOT
ATOM      1  C   UNL d   1      -1.577  -1.825   1.579  0.00  0.00     0.077 C 
ATOM      2  C1  UNL d   1      -0.222  -1.858   0.937  0.00  0.00    -0.074 A 
ATOM      3  C2  UNL d   1       0.390  -0.683   0.487  0.00  0.00    -0.005 A 
ATOM      4  C3  UNL d   1       1.655  -0.729  -0.099  0.00  0.00     0.006 A 
ATOM      5  C4  UNL d   1       2.320  -1.947  -0.240  0.00  0.00    -0.005 A 
ATOM      6  C5  UNL d   1       1.725  -3.132   0.205  0.00  0.00    -0.074 A 
ATOM      7  C6  UNL d   1       2.431  -4.448   0.069  0.00  0.00     0.077 C 
ATOM      8  C7  UNL d   1       0.457  -3.077   0.799  0.00  0.00    -0.001 A 
ENDROOT
TORSDOF 0
ENDMDL
