MODEL 1
REMARK minimizedAffinity -3.64956474
REMARK minimizedRMSD -1
REMARK  0 active torsions:
REMARK  status: ('A' for Active; 'I' for Inactive)
ROOT
ATOM      1  C   UNL d   1      -1.289  -1.942   1.234  0.00  0.00     0.077 C 
ATOM      2  C1  UNL d   1       0.156  -1.821   0.849  0.00  0.00    -0.074 A 
ATOM      3  C2  UNL d   1       0.781  -0.572   0.783  0.00  0.00    -0.005 A 
ATOM      4  C3  UNL d   1       2.127  -0.477   0.433  0.00  0.00     0.006 A 
ATOM      5  C4  UNL d   1       2.862  -1.628   0.146  0.00  0.00    -0.005 A 
ATOM      6  C5  UNL d   1       2.255  -2.886   0.208  0.00  0.00    -0.074 A 
ATOM      7  C6  UNL d   1       3.032  -4.134  -0.089  0.00  0.00     0.077 C 
ATOM      8  C7  UNL d   1       0.903  -2.974   0.567  0.00  0.00    -0.001 A 
ENDROOT
TORSDOF 0
ENDMDL
