MODEL 1
REMARK minimizedAffinity 1.79261672
REMARK minimizedRMSD -1
REMARK  0 active torsions:
REMARK  status: ('A' for Active; 'I' for Inactive)
ROOT
ATOM      1  C   UNL d   1       3.922  -2.038  -0.059  0.00  0.00     0.077 C 
ATOM      2  C1  UNL d   1       2.485  -2.286   0.291  0.00  0.00    -0.074 A 
ATOM      3  C2  UNL d   1       1.954  -3.579   0.276  0.00  0.00    -0.005 A 
ATOM      4  C3  UNL d   1       0.618  -3.796   0.613  0.00  0.00     0.006 A 
ATOM      5  C4  UNL d   1      -0.199  -2.722   0.969  0.00  0.00    -0.005 A 
ATOM      6  C5  UNL d   1       0.314  -1.421   0.991  0.00  0.00    -0.074 A 
ATOM      7  C6  UNL d   1      -0.548  -0.258   1.381  0.00  0.00     0.077 C 
ATOM      8  C7  UNL d   1       1.660  -1.213   0.657  0.00  0.00    -0.001 A 
ENDROOT
TORSDOF 0
ENDMDL
