MODEL 1
REMARK minimizedAffinity -1.87444627
REMARK minimizedRMSD -1
REMARK  0 active torsions:
REMARK  status: ('A' for Active; 'I' for Inactive)
ROOT
ATOM      1  C4' PXY d   1       1.431  -5.973  -5.290  0.00  0.00     0.077 C 
ATOM      2  C1' PXY d   1      -3.218  -5.989  -1.854  0.00  0.00     0.077 C 
ATOM      3  C1  PXY d   1      -2.006  -5.990  -2.764  0.00  0.00    -0.082 A 
ATOM      4  C2  PXY d   1      -0.792  -6.000  -2.238  0.00  0.00     0.003 A 
ATOM      5  C3  PXY d   1       0.315  -5.969  -3.047  0.00  0.00     0.003 A 
ATOM      6  C4  PXY d   1       0.178  -5.981  -4.409  0.00  0.00    -0.082 A 
ATOM      7  C5  PXY d   1      -1.057  -5.982  -4.954  0.00  0.00     0.003 A 
ATOM      8  C6  PXY d   1      -2.168  -5.973  -4.115  0.00  0.00     0.003 A 
ENDROOT
TORSDOF 0
ENDMDL
