MODEL 1
REMARK minimizedAffinity 2.85195255
REMARK minimizedRMSD -1
REMARK  0 active torsions:
REMARK  status: ('A' for Active; 'I' for Inactive)
ROOT
ATOM      1  C4' PXY d   1       1.163   1.317   0.049  0.00  0.00     0.077 C 
ATOM      2  C1' PXY d   1       1.255  -3.606   3.077  0.00  0.00     0.077 C 
ATOM      3  C1  PXY d   1       1.226  -2.322   2.273  0.00  0.00    -0.082 A 
ATOM      4  C2  PXY d   1       2.003  -1.311   2.627  0.00  0.00     0.003 A 
ATOM      5  C3  PXY d   1       1.966  -0.131   1.929  0.00  0.00     0.003 A 
ATOM      6  C4  PXY d   1       1.165  -0.002   0.826  0.00  0.00    -0.082 A 
ATOM      7  C5  PXY d   1       0.378  -1.033   0.452  0.00  0.00     0.003 A 
ATOM      8  C6  PXY d   1       0.400  -2.208   1.198  0.00  0.00     0.003 A 
ENDROOT
TORSDOF 0
ENDMDL
