MODEL 1
REMARK minimizedAffinity 3.39149117
REMARK minimizedRMSD -1
REMARK  0 active torsions:
REMARK  status: ('A' for Active; 'I' for Inactive)
ROOT
ATOM      1  C4' PXY d   1       3.288   0.780  -0.634  0.00  0.00     0.077 C 
ATOM      2  C1' PXY d   1       0.991  -1.960   3.908  0.00  0.00     0.077 C 
ATOM      3  C1  PXY d   1       1.585  -1.247   2.709  0.00  0.00    -0.082 A 
ATOM      4  C2  PXY d   1       2.827  -0.795   2.766  0.00  0.00     0.003 A 
ATOM      5  C3  PXY d   1       3.369  -0.120   1.703  0.00  0.00     0.003 A 
ATOM      6  C4  PXY d   1       2.650   0.047   0.549  0.00  0.00    -0.082 A 
ATOM      7  C5  PXY d   1       1.386  -0.421   0.479  0.00  0.00     0.003 A 
ATOM      8  C6  PXY d   1       0.840  -1.067   1.585  0.00  0.00     0.003 A 
ENDROOT
TORSDOF 0
ENDMDL
