MODEL 1
REMARK minimizedAffinity 3.53732491
REMARK minimizedRMSD -1
REMARK  0 active torsions:
REMARK  status: ('A' for Active; 'I' for Inactive)
ROOT
ATOM      1  C4' PXY d   1      -6.000   1.929  -1.639  0.00  0.00     0.077 C 
ATOM      2  C1' PXY d   1      -3.181  -2.678   0.420  0.00  0.00     0.077 C 
ATOM      3  C1  PXY d   1      -3.918  -1.474  -0.132  0.00  0.00    -0.082 A 
ATOM      4  C2  PXY d   1      -3.963  -0.355   0.572  0.00  0.00     0.003 A 
ATOM      5  C3  PXY d   1      -4.653   0.733   0.103  0.00  0.00     0.003 A 
ATOM      6  C4  PXY d   1      -5.259   0.692  -1.125  0.00  0.00    -0.082 A 
ATOM      7  C5  PXY d   1      -5.208  -0.443  -1.854  0.00  0.00     0.003 A 
ATOM      8  C6  PXY d   1      -4.538  -1.549  -1.341  0.00  0.00     0.003 A 
ENDROOT
TORSDOF 0
ENDMDL
