MODEL 1
REMARK minimizedAffinity 1.3608309
REMARK minimizedRMSD -1
REMARK  0 active torsions:
REMARK  status: ('A' for Active; 'I' for Inactive)
ROOT
ATOM      1  C4' PXY d   1      -3.465  -5.297  -2.036  0.00  0.00     0.077 C 
ATOM      2  C1' PXY d   1       1.345  -5.527  -5.234  0.00  0.00     0.077 C 
ATOM      3  C1  PXY d   1       0.076  -5.467  -4.406  0.00  0.00    -0.082 A 
ATOM      4  C2  PXY d   1       0.102  -4.903  -3.209  0.00  0.00     0.003 A 
ATOM      5  C3  PXY d   1      -1.028  -4.870  -2.434  0.00  0.00     0.003 A 
ATOM      6  C4  PXY d   1      -2.210  -5.371  -2.910  0.00  0.00    -0.082 A 
ATOM      7  C5  PXY d   1      -2.247  -5.938  -4.135  0.00  0.00     0.003 A 
ATOM      8  C6  PXY d   1      -1.079  -5.999  -4.889  0.00  0.00     0.003 A 
ENDROOT
TORSDOF 0
ENDMDL
