MODEL 1
REMARK minimizedAffinity 4.67785978
REMARK minimizedRMSD -1
REMARK  0 active torsions:
REMARK  status: ('A' for Active; 'I' for Inactive)
ROOT
ATOM      1  C4' PXY d   1       1.206   1.110   0.200  0.00  0.00     0.077 C 
ATOM      2  C1' PXY d   1       1.266  -3.798   3.253  0.00  0.00     0.077 C 
ATOM      3  C1  PXY d   1       1.256  -2.505   2.462  0.00  0.00    -0.082 A 
ATOM      4  C2  PXY d   1       0.428  -2.371   1.439  0.00  0.00     0.003 A 
ATOM      5  C3  PXY d   1       0.427  -1.220   0.694  0.00  0.00     0.003 A 
ATOM      6  C4  PXY d   1       1.245  -0.175   1.032  0.00  0.00    -0.082 A 
ATOM      7  C5  PXY d   1       2.085  -0.300   2.081  0.00  0.00     0.003 A 
ATOM      8  C6  PXY d   1       2.099  -1.492   2.800  0.00  0.00     0.003 A 
ENDROOT
TORSDOF 0
ENDMDL
