MODEL 1
REMARK minimizedAffinity 7.60830021
REMARK minimizedRMSD -1
REMARK  0 active torsions:
REMARK  status: ('A' for Active; 'I' for Inactive)
ROOT
ATOM      1  C4' PXY d   1       0.911   0.671  -1.523  0.00  0.00     0.077 C 
ATOM      2  C1' PXY d   1       1.329  -1.859   3.658  0.00  0.00     0.077 C 
ATOM      3  C1  PXY d   1       1.230  -1.188   2.302  0.00  0.00    -0.082 A 
ATOM      4  C2  PXY d   1       0.075  -1.188   1.655  0.00  0.00     0.003 A 
ATOM      5  C3  PXY d   1      -0.024  -0.614   0.414  0.00  0.00     0.003 A 
ATOM      6  C4  PXY d   1       1.055   0.014  -0.147  0.00  0.00    -0.082 A 
ATOM      7  C5  PXY d   1       2.234   0.027   0.511  0.00  0.00     0.003 A 
ATOM      8  C6  PXY d   1       2.325  -0.598   1.751  0.00  0.00     0.003 A 
ENDROOT
TORSDOF 0
ENDMDL
