MODEL 1
REMARK minimizedAffinity 3.90276575
REMARK minimizedRMSD -1
REMARK  0 active torsions:
REMARK  status: ('A' for Active; 'I' for Inactive)
ROOT
ATOM      1  C4' PXY d   1      -2.544  -5.985  -3.050  0.00  0.00     0.077 C 
ATOM      2  C1' PXY d   1       2.427  -5.946  -6.000  0.00  0.00     0.077 C 
ATOM      3  C1  PXY d   1       1.117  -5.951  -5.236  0.00  0.00    -0.082 A 
ATOM      4  C2  PXY d   1       1.132  -5.963  -3.913  0.00  0.00     0.003 A 
ATOM      5  C3  PXY d   1      -0.043  -6.000  -3.207  0.00  0.00     0.003 A 
ATOM      6  C4  PXY d   1      -1.246  -5.970  -3.862  0.00  0.00    -0.082 A 
ATOM      7  C5  PXY d   1      -1.269  -5.947  -5.211  0.00  0.00     0.003 A 
ATOM      8  C6  PXY d   1      -0.065  -5.951  -5.910  0.00  0.00     0.003 A 
ENDROOT
TORSDOF 0
ENDMDL
