MODEL 1
REMARK minimizedAffinity -1.53951073
REMARK minimizedRMSD -1
REMARK  0 active torsions:
REMARK  status: ('A' for Active; 'I' for Inactive)
ROOT
ATOM      1  C4' PXY d   1      -3.216  -5.963  -2.197  0.00  0.00     0.077 C 
ATOM      2  C1' PXY d   1       1.197  -6.000  -5.930  0.00  0.00     0.077 C 
ATOM      3  C1  PXY d   1       0.047  -5.996  -4.942  0.00  0.00    -0.082 A 
ATOM      4  C2  PXY d   1      -1.198  -5.996  -5.388  0.00  0.00     0.003 A 
ATOM      5  C3  PXY d   1      -2.250  -5.959  -4.508  0.00  0.00     0.003 A 
ATOM      6  C4  PXY d   1      -2.024  -5.977  -3.158  0.00  0.00    -0.082 A 
ATOM      7  C5  PXY d   1      -0.756  -5.988  -2.695  0.00  0.00     0.003 A 
ATOM      8  C6  PXY d   1       0.297  -5.983  -3.604  0.00  0.00     0.003 A 
ENDROOT
TORSDOF 0
ENDMDL
