MODEL 1
REMARK minimizedAffinity 4.08908367
REMARK minimizedRMSD -1
REMARK  0 active torsions:
REMARK  status: ('A' for Active; 'I' for Inactive)
ROOT
ATOM      1  C4' PXY d   1      -2.956  -5.980  -4.563  0.00  0.00     0.077 C 
ATOM      2  C1' PXY d   1       2.821  -5.907  -4.380  0.00  0.00     0.077 C 
ATOM      3  C1  PXY d   1       1.306  -5.932  -4.416  0.00  0.00    -0.082 A 
ATOM      4  C2  PXY d   1       0.679  -5.914  -5.581  0.00  0.00     0.003 A 
ATOM      5  C3  PXY d   1      -0.691  -5.904  -5.632  0.00  0.00     0.003 A 
ATOM      6  C4  PXY d   1      -1.428  -5.965  -4.479  0.00  0.00    -0.082 A 
ATOM      7  C5  PXY d   1      -0.795  -5.994  -3.286  0.00  0.00     0.003 A 
ATOM      8  C6  PXY d   1       0.596  -5.963  -3.256  0.00  0.00     0.003 A 
ENDROOT
TORSDOF 0
ENDMDL
