MODEL 1
REMARK minimizedAffinity -1.93454659
REMARK minimizedRMSD -1
REMARK  0 active torsions:
REMARK  status: ('A' for Active; 'I' for Inactive)
ROOT
ATOM      1  C4' PXY d   1      -4.442  -6.000  -2.988  0.00  0.00     0.077 C 
ATOM      2  C1' PXY d   1       1.161  -5.980  -4.406  0.00  0.00     0.077 C 
ATOM      3  C1  PXY d   1      -0.305  -5.990  -4.022  0.00  0.00    -0.082 A 
ATOM      4  C2  PXY d   1      -1.229  -5.999  -4.969  0.00  0.00     0.003 A 
ATOM      5  C3  PXY d   1      -2.560  -5.977  -4.641  0.00  0.00     0.003 A 
ATOM      6  C4  PXY d   1      -2.950  -5.999  -3.328  0.00  0.00    -0.082 A 
ATOM      7  C5  PXY d   1      -2.013  -6.000  -2.356  0.00  0.00     0.003 A 
ATOM      8  C6  PXY d   1      -0.668  -5.981  -2.711  0.00  0.00     0.003 A 
ENDROOT
TORSDOF 0
ENDMDL
