MODEL 1
REMARK minimizedAffinity 3.60227084
REMARK minimizedRMSD -1
REMARK  0 active torsions:
REMARK  status: ('A' for Active; 'I' for Inactive)
ROOT
ATOM      1  C4' PXY d   1      -2.847  -0.014   0.046  0.00  0.00     0.077 C 
ATOM      2  C1' PXY d   1       2.744  -0.906   1.212  0.00  0.00     0.077 C 
ATOM      3  C1  PXY d   1       1.277  -0.684   0.902  0.00  0.00    -0.082 A 
ATOM      4  C2  PXY d   1       0.843   0.535   0.626  0.00  0.00     0.003 A 
ATOM      5  C3  PXY d   1      -0.486   0.758   0.375  0.00  0.00     0.003 A 
ATOM      6  C4  PXY d   1      -1.372  -0.286   0.355  0.00  0.00    -0.082 A 
ATOM      7  C5  PXY d   1      -0.936  -1.534   0.626  0.00  0.00     0.003 A 
ATOM      8  C6  PXY d   1       0.411  -1.733   0.918  0.00  0.00     0.003 A 
ENDROOT
TORSDOF 0
ENDMDL
