MODEL 1
REMARK minimizedAffinity -0.247558534
REMARK minimizedRMSD -1
REMARK  0 active torsions:
REMARK  status: ('A' for Active; 'I' for Inactive)
ROOT
ATOM      1  C4' PXY d   1       1.199  -5.983  -5.982  0.00  0.00     0.077 C 
ATOM      2  C1' PXY d   1      -2.869  -5.996  -1.874  0.00  0.00     0.077 C 
ATOM      3  C1  PXY d   1      -1.810  -5.998  -2.960  0.00  0.00    -0.082 A 
ATOM      4  C2  PXY d   1      -0.530  -6.000  -2.625  0.00  0.00     0.003 A 
ATOM      5  C3  PXY d   1       0.440  -5.969  -3.594  0.00  0.00     0.003 A 
ATOM      6  C4  PXY d   1       0.096  -5.991  -4.919  0.00  0.00    -0.082 A 
ATOM      7  C5  PXY d   1      -1.208  -5.999  -5.269  0.00  0.00     0.003 A 
ATOM      8  C6  PXY d   1      -2.177  -5.989  -4.270  0.00  0.00     0.003 A 
ENDROOT
TORSDOF 0
ENDMDL
