MODEL 1
REMARK minimizedAffinity -1.53776515
REMARK minimizedRMSD -1
REMARK  0 active torsions:
REMARK  status: ('A' for Active; 'I' for Inactive)
ROOT
ATOM      1  C4' PXY d   1      -3.622  -5.988  -2.995  0.00  0.00     0.077 C 
ATOM      2  C1' PXY d   1       1.774  -5.585  -5.026  0.00  0.00     0.077 C 
ATOM      3  C1  PXY d   1       0.364  -5.698  -4.483  0.00  0.00    -0.082 A 
ATOM      4  C2  PXY d   1      -0.665  -5.601  -5.310  0.00  0.00     0.003 A 
ATOM      5  C3  PXY d   1      -1.948  -5.669  -4.831  0.00  0.00     0.003 A 
ATOM      6  C4  PXY d   1      -2.180  -5.890  -3.500  0.00  0.00    -0.082 A 
ATOM      7  C5  PXY d   1      -1.136  -6.000  -2.652  0.00  0.00     0.003 A 
ATOM      8  C6  PXY d   1       0.158  -5.887  -3.151  0.00  0.00     0.003 A 
ENDROOT
TORSDOF 0
ENDMDL
