MODEL 1
REMARK minimizedAffinity 4.84060192
REMARK minimizedRMSD -1
REMARK  0 active torsions:
REMARK  status: ('A' for Active; 'I' for Inactive)
ROOT
ATOM      1  C4' PXY d   1       1.911  -0.506   1.271  0.00  0.00     0.077 C 
ATOM      2  C1' PXY d   1      -3.840  -0.004   0.979  0.00  0.00     0.077 C 
ATOM      3  C1  PXY d   1      -2.333  -0.148   1.060  0.00  0.00    -0.082 A 
ATOM      4  C2  PXY d   1      -1.580   0.930   1.203  0.00  0.00     0.003 A 
ATOM      5  C3  PXY d   1      -0.213   0.821   1.246  0.00  0.00     0.003 A 
ATOM      6  C4  PXY d   1       0.385  -0.409   1.194  0.00  0.00    -0.082 A 
ATOM      7  C5  PXY d   1      -0.377  -1.515   1.058  0.00  0.00     0.003 A 
ATOM      8  C6  PXY d   1      -1.760  -1.379   0.975  0.00  0.00     0.003 A 
ENDROOT
TORSDOF 0
ENDMDL
