MODEL 1
REMARK minimizedAffinity 2.46598935
REMARK minimizedRMSD -1
REMARK  0 active torsions:
REMARK  status: ('A' for Active; 'I' for Inactive)
ROOT
ATOM      1  C4' PXY d   1       1.851  -5.973  -4.886  0.00  0.00     0.077 C 
ATOM      2  C1' PXY d   1      -3.535  -5.999  -2.787  0.00  0.00     0.077 C 
ATOM      3  C1  PXY d   1      -2.127  -5.997  -3.349  0.00  0.00    -0.082 A 
ATOM      4  C2  PXY d   1      -1.093  -5.993  -2.523  0.00  0.00     0.003 A 
ATOM      5  C3  PXY d   1       0.187  -5.960  -3.013  0.00  0.00     0.003 A 
ATOM      6  C4  PXY d   1       0.412  -5.984  -4.364  0.00  0.00    -0.082 A 
ATOM      7  C5  PXY d   1      -0.637  -5.998  -5.213  0.00  0.00     0.003 A 
ATOM      8  C6  PXY d   1      -1.929  -5.991  -4.695  0.00  0.00     0.003 A 
ENDROOT
TORSDOF 0
ENDMDL
