MODEL 1
REMARK minimizedAffinity -1.67908311
REMARK minimizedRMSD -1
REMARK  0 active torsions:
REMARK  status: ('A' for Active; 'I' for Inactive)
ROOT
ATOM      1  C4' PXY d   1       1.266  -5.982  -4.481  0.00  0.00     0.077 C 
ATOM      2  C1' PXY d   1      -4.182  -5.994  -2.550  0.00  0.00     0.077 C 
ATOM      3  C1  PXY d   1      -2.757  -5.996  -3.067  0.00  0.00    -0.082 A 
ATOM      4  C2  PXY d   1      -1.750  -6.000  -2.210  0.00  0.00     0.003 A 
ATOM      5  C3  PXY d   1      -0.455  -5.969  -2.660  0.00  0.00     0.003 A 
ATOM      6  C4  PXY d   1      -0.188  -5.989  -4.003  0.00  0.00    -0.082 A 
ATOM      7  C5  PXY d   1      -1.211  -5.997  -4.885  0.00  0.00     0.003 A 
ATOM      8  C6  PXY d   1      -2.518  -5.986  -4.407  0.00  0.00     0.003 A 
ENDROOT
TORSDOF 0
ENDMDL
