MODEL 1
REMARK minimizedAffinity 0.0107221603
REMARK minimizedRMSD -1
REMARK  0 active torsions:
REMARK  status: ('A' for Active; 'I' for Inactive)
ROOT
ATOM      1  C4' PXY d   1       1.532  -5.987  -4.985  0.00  0.00     0.077 C 
ATOM      2  C1' PXY d   1      -3.560  -5.991  -2.249  0.00  0.00     0.077 C 
ATOM      3  C1  PXY d   1      -2.230  -5.995  -2.977  0.00  0.00    -0.082 A 
ATOM      4  C2  PXY d   1      -1.104  -5.998  -2.283  0.00  0.00     0.003 A 
ATOM      5  C3  PXY d   1       0.107  -5.970  -2.925  0.00  0.00     0.003 A 
ATOM      6  C4  PXY d   1       0.167  -5.992  -4.292  0.00  0.00    -0.082 A 
ATOM      7  C5  PXY d   1      -0.977  -6.000  -5.008  0.00  0.00     0.003 A 
ATOM      8  C6  PXY d   1      -2.197  -5.987  -4.337  0.00  0.00     0.003 A 
ENDROOT
TORSDOF 0
ENDMDL
