MODEL 1
REMARK minimizedAffinity 5.01095343
REMARK minimizedRMSD -1
REMARK  0 active torsions:
REMARK  status: ('A' for Active; 'I' for Inactive)
ROOT
ATOM      1  C4' PXY d   1      -2.421  -2.109   0.747  0.00  0.00     0.077 C 
ATOM      2  C1' PXY d   1      -6.000   1.529  -1.969  0.00  0.00     0.077 C 
ATOM      3  C1  PXY d   1      -5.059   0.584  -1.248  0.00  0.00    -0.082 A 
ATOM      4  C2  PXY d   1      -4.501  -0.416  -1.911  0.00  0.00     0.003 A 
ATOM      5  C3  PXY d   1      -3.673  -1.299  -1.267  0.00  0.00     0.003 A 
ATOM      6  C4  PXY d   1      -3.370  -1.125   0.057  0.00  0.00    -0.082 A 
ATOM      7  C5  PXY d   1      -3.927  -0.101   0.738  0.00  0.00     0.003 A 
ATOM      8  C6  PXY d   1      -4.797   0.760   0.076  0.00  0.00     0.003 A 
ENDROOT
TORSDOF 0
ENDMDL
