MODEL 1
REMARK minimizedAffinity -0.169866398
REMARK minimizedRMSD -1
REMARK  0 active torsions:
REMARK  status: ('A' for Active; 'I' for Inactive)
ROOT
ATOM      1  C4' PXY d   1       1.534  -5.973  -5.823  0.00  0.00     0.077 C 
ATOM      2  C1' PXY d   1      -3.455  -6.000  -2.904  0.00  0.00     0.077 C 
ATOM      3  C1  PXY d   1      -2.153  -5.998  -3.679  0.00  0.00    -0.082 A 
ATOM      4  C2  PXY d   1      -1.002  -6.000  -3.026  0.00  0.00     0.003 A 
ATOM      5  C3  PXY d   1       0.185  -5.966  -3.712  0.00  0.00     0.003 A 
ATOM      6  C4  PXY d   1       0.194  -5.984  -5.081  0.00  0.00    -0.082 A 
ATOM      7  C5  PXY d   1      -0.975  -5.993  -5.755  0.00  0.00     0.003 A 
ATOM      8  C6  PXY d   1      -2.170  -5.985  -5.040  0.00  0.00     0.003 A 
ENDROOT
TORSDOF 0
ENDMDL
