MODEL 1
REMARK minimizedAffinity 5.77441025
REMARK minimizedRMSD -1
REMARK  1 active torsions:
REMARK  status: ('A' for Active; 'I' for Inactive)
REMARK    1  A    between atoms: C1_2  and  C2_3 
ROOT
ATOM      1  C2  UNL d   1      -0.466  -1.558   2.737  0.00  0.00    -0.076 A 
ATOM      2  C3  UNL d   1      -0.828  -1.775   1.396  0.00  0.00     0.004 A 
ATOM      3  C4  UNL d   1      -1.822  -1.011   0.788  0.00  0.00    -0.003 A 
ATOM      4  C5  UNL d   1      -2.472  -0.017   1.511  0.00  0.00     0.000 A 
ATOM      5  C6  UNL d   1      -2.114   0.224   2.837  0.00  0.00     0.000 A 
ATOM      6  C7  UNL d   1      -1.102  -0.526   3.460  0.00  0.00    -0.073 A 
ATOM      7  C8  UNL d   1      -0.760  -0.228   4.894  0.00  0.00     0.078 C 
ENDROOT
BRANCH   1   8
ATOM      8  C1  UNL d   1       0.601  -2.436   3.351  0.00  0.00     0.053 C 
ATOM      9  C   UNL d   1       2.004  -2.027   2.931  0.00  0.00     0.018 C 
ENDBRANCH   1   8
TORSDOF 1
ENDMDL
