MODEL 1
REMARK minimizedAffinity 15.29702
REMARK minimizedRMSD -1
REMARK  1 active torsions:
REMARK  status: ('A' for Active; 'I' for Inactive)
REMARK    1  A    between atoms: C1_2  and  C2_3 
ROOT
ATOM      1  C2  UNL d   1      -1.063  -0.547   3.363  0.00  0.00    -0.076 A 
ATOM      2  C3  UNL d   1      -0.358  -1.024   4.482  0.00  0.00     0.004 A 
ATOM      3  C4  UNL d   1       0.569  -2.058   4.358  0.00  0.00    -0.003 A 
ATOM      4  C5  UNL d   1       0.808  -2.630   3.113  0.00  0.00     0.000 A 
ATOM      5  C6  UNL d   1       0.130  -2.157   1.990  0.00  0.00     0.000 A 
ATOM      6  C7  UNL d   1      -0.796  -1.105   2.094  0.00  0.00    -0.073 A 
ATOM      7  C8  UNL d   1      -1.502  -0.639   0.851  0.00  0.00     0.078 C 
ENDROOT
BRANCH   1   8
ATOM      8  C1  UNL d   1      -2.076   0.557   3.562  0.00  0.00     0.053 C 
ATOM      9  C   UNL d   1      -2.863   0.399   4.855  0.00  0.00     0.018 C 
ENDBRANCH   1   8
TORSDOF 1
ENDMDL
