MODEL 1
REMARK minimizedAffinity 11.4576912
REMARK minimizedRMSD -1
REMARK  1 active torsions:
REMARK  status: ('A' for Active; 'I' for Inactive)
REMARK    1  A    between atoms: C1_2  and  C2_3 
ROOT
ATOM      1  C2  UNL d   1      -0.662  -1.112   2.745  0.00  0.00    -0.076 A 
ATOM      2  C3  UNL d   1      -0.939  -1.231   1.372  0.00  0.00     0.004 A 
ATOM      3  C4  UNL d   1      -1.991  -0.527   0.788  0.00  0.00    -0.003 A 
ATOM      4  C5  UNL d   1      -2.782   0.309   1.568  0.00  0.00     0.000 A 
ATOM      5  C6  UNL d   1      -2.511   0.453   2.928  0.00  0.00     0.000 A 
ATOM      6  C7  UNL d   1      -1.444  -0.237   3.529  0.00  0.00    -0.073 A 
ATOM      7  C8  UNL d   1      -1.201  -0.048   5.001  0.00  0.00     0.078 C 
ENDROOT
BRANCH   1   8
ATOM      8  C1  UNL d   1       0.474  -1.921   3.328  0.00  0.00     0.053 C 
ATOM      9  C   UNL d   1       1.203  -2.744   2.277  0.00  0.00     0.018 C 
ENDBRANCH   1   8
TORSDOF 1
ENDMDL
