MODEL 1
REMARK minimizedAffinity 4.00384331
REMARK minimizedRMSD -1
REMARK  1 active torsions:
REMARK  status: ('A' for Active; 'I' for Inactive)
REMARK    1  A    between atoms: C1_2  and  C2_3 
ROOT
ATOM      1  C2  UNL d   1       2.560   5.302  -2.623  0.00  0.00    -0.076 A 
ATOM      2  C3  UNL d   1       3.634   6.000  -2.045  0.00  0.00     0.004 A 
ATOM      3  C4  UNL d   1       4.880   5.396  -1.887  0.00  0.00    -0.003 A 
ATOM      4  C5  UNL d   1       5.072   4.084  -2.306  0.00  0.00     0.000 A 
ATOM      5  C6  UNL d   1       4.022   3.382  -2.898  0.00  0.00     0.000 A 
ATOM      6  C7  UNL d   1       2.764   3.982  -3.079  0.00  0.00    -0.073 A 
ATOM      7  C8  UNL d   1       1.666   3.177  -3.717  0.00  0.00     0.078 C 
ENDROOT
BRANCH   1   8
ATOM      8  C1  UNL d   1       1.224   6.000  -2.743  0.00  0.00     0.053 C 
ATOM      9  C   UNL d   1       0.690   5.995  -4.167  0.00  0.00     0.018 C 
ENDBRANCH   1   8
TORSDOF 1
ENDMDL
