MODEL 1
REMARK minimizedAffinity 5.74544096
REMARK minimizedRMSD -1
REMARK  1 active torsions:
REMARK  status: ('A' for Active; 'I' for Inactive)
REMARK    1  A    between atoms: C1_2  and  C2_3 
ROOT
ATOM      1  C2  UNL d   1      -5.702  -3.855   4.356  0.00  0.00    -0.076 A 
ATOM      2  C3  UNL d   1      -5.546  -3.228   3.108  0.00  0.00     0.004 A 
ATOM      3  C4  UNL d   1      -5.471  -3.975   1.934  0.00  0.00    -0.003 A 
ATOM      4  C5  UNL d   1      -5.553  -5.362   1.989  0.00  0.00     0.000 A 
ATOM      5  C6  UNL d   1      -5.726  -6.000   3.217  0.00  0.00     0.000 A 
ATOM      6  C7  UNL d   1      -5.819  -5.260   4.409  0.00  0.00    -0.073 A 
ATOM      7  C8  UNL d   1      -6.000  -6.000   5.706  0.00  0.00     0.078 C 
ENDROOT
BRANCH   1   8
ATOM      8  C1  UNL d   1      -5.749  -2.994   5.599  0.00  0.00     0.053 C 
ATOM      9  C   UNL d   1      -4.807  -1.803   5.518  0.00  0.00     0.018 C 
ENDBRANCH   1   8
TORSDOF 1
ENDMDL
