MODEL 1
REMARK minimizedAffinity 12.1240892
REMARK minimizedRMSD -1
REMARK  1 active torsions:
REMARK  status: ('A' for Active; 'I' for Inactive)
REMARK    1  A    between atoms: C1_2  and  C2_3 
ROOT
ATOM      1  C2  UNL d   1      -5.072  -3.620   2.594  0.00  0.00    -0.076 A 
ATOM      2  C3  UNL d   1      -5.275  -4.782   1.830  0.00  0.00     0.004 A 
ATOM      3  C4  UNL d   1      -5.734  -5.958   2.421  0.00  0.00    -0.003 A 
ATOM      4  C5  UNL d   1      -5.998  -5.990   3.786  0.00  0.00     0.000 A 
ATOM      5  C6  UNL d   1      -5.818  -4.842   4.556  0.00  0.00     0.000 A 
ATOM      6  C7  UNL d   1      -5.372  -3.644   3.973  0.00  0.00    -0.073 A 
ATOM      7  C8  UNL d   1      -5.190  -2.437   4.852  0.00  0.00     0.078 C 
ENDROOT
BRANCH   1   8
ATOM      8  C1  UNL d   1      -4.546  -2.382   1.903  0.00  0.00     0.053 C 
ATOM      9  C   UNL d   1      -3.029  -2.370   1.802  0.00  0.00     0.018 C 
ENDBRANCH   1   8
TORSDOF 1
ENDMDL
