MODEL 1
REMARK minimizedAffinity 13.2472448
REMARK minimizedRMSD -1
REMARK  1 active torsions:
REMARK  status: ('A' for Active; 'I' for Inactive)
REMARK    1  A    between atoms: C1_2  and  C2_3 
ROOT
ATOM      1  C2  UNL d   1       3.426   1.538  -1.254  0.00  0.00    -0.076 A 
ATOM      2  C3  UNL d   1       2.387   1.542  -2.201  0.00  0.00     0.004 A 
ATOM      3  C4  UNL d   1       2.385   2.448  -3.260  0.00  0.00    -0.003 A 
ATOM      4  C5  UNL d   1       3.423   3.365  -3.390  0.00  0.00     0.000 A 
ATOM      5  C6  UNL d   1       4.470   3.364  -2.470  0.00  0.00     0.000 A 
ATOM      6  C7  UNL d   1       4.496   2.447  -1.405  0.00  0.00    -0.073 A 
ATOM      7  C8  UNL d   1       5.647   2.494  -0.438  0.00  0.00     0.078 C 
ENDROOT
BRANCH   1   8
ATOM      8  C1  UNL d   1       3.361   0.551  -0.111  0.00  0.00     0.053 C 
ATOM      9  C   UNL d   1       2.257   0.880   0.882  0.00  0.00     0.018 C 
ENDBRANCH   1   8
TORSDOF 1
ENDMDL
