MODEL 1
REMARK minimizedAffinity 17.855772
REMARK minimizedRMSD -1
REMARK  1 active torsions:
REMARK  status: ('A' for Active; 'I' for Inactive)
REMARK    1  A    between atoms: C1_2  and  C2_3 
ROOT
ATOM      1  C2  UNL d   1      -0.376  -1.027   2.734  0.00  0.00    -0.076 A 
ATOM      2  C3  UNL d   1      -0.431  -1.583   1.444  0.00  0.00     0.004 A 
ATOM      3  C4  UNL d   1      -1.550  -1.405   0.633  0.00  0.00    -0.003 A 
ATOM      4  C5  UNL d   1      -2.633  -0.667   1.098  0.00  0.00     0.000 A 
ATOM      5  C6  UNL d   1      -2.589  -0.094   2.369  0.00  0.00     0.000 A 
ATOM      6  C7  UNL d   1      -1.461  -0.250   3.193  0.00  0.00    -0.073 A 
ATOM      7  C8  UNL d   1      -1.470   0.385   4.556  0.00  0.00     0.078 C 
ENDROOT
BRANCH   1   8
ATOM      8  C1  UNL d   1       0.853  -1.277   3.578  0.00  0.00     0.053 C 
ATOM      9  C   UNL d   1       1.562  -2.570   3.208  0.00  0.00     0.018 C 
ENDBRANCH   1   8
TORSDOF 1
ENDMDL
