MODEL 1
REMARK minimizedAffinity 6.38751841
REMARK minimizedRMSD -1
REMARK  1 active torsions:
REMARK  status: ('A' for Active; 'I' for Inactive)
REMARK    1  A    between atoms: C1_2  and  C2_3 
ROOT
ATOM      1  C2  UNL d   1      -5.370  -4.313   3.672  0.00  0.00    -0.076 A 
ATOM      2  C3  UNL d   1      -4.969  -3.011   3.323  0.00  0.00     0.004 A 
ATOM      3  C4  UNL d   1      -4.803  -2.027   4.296  0.00  0.00    -0.003 A 
ATOM      4  C5  UNL d   1      -5.035  -2.328   5.633  0.00  0.00     0.000 A 
ATOM      5  C6  UNL d   1      -5.415  -3.618   6.000  0.00  0.00     0.000 A 
ATOM      6  C7  UNL d   1      -5.572  -4.627   5.033  0.00  0.00    -0.073 A 
ATOM      7  C8  UNL d   1      -5.990  -6.000   5.484  0.00  0.00     0.078 C 
ENDROOT
BRANCH   1   8
ATOM      8  C1  UNL d   1      -5.560  -5.332   2.571  0.00  0.00     0.053 C 
ATOM      9  C   UNL d   1      -5.725  -4.688   1.203  0.00  0.00     0.018 C 
ENDBRANCH   1   8
TORSDOF 1
ENDMDL
