MODEL 1
REMARK minimizedAffinity 10.9381456
REMARK minimizedRMSD -1
REMARK  1 active torsions:
REMARK  status: ('A' for Active; 'I' for Inactive)
REMARK    1  A    between atoms: C1_2  and  C2_3 
ROOT
ATOM      1  C2  UNL d   1       2.049   2.451  -2.635  0.00  0.00    -0.076 A 
ATOM      2  C3  UNL d   1       1.483   1.710  -1.583  0.00  0.00     0.004 A 
ATOM      3  C4  UNL d   1       2.272   1.225  -0.541  0.00  0.00    -0.003 A 
ATOM      4  C5  UNL d   1       3.640   1.475  -0.534  0.00  0.00     0.000 A 
ATOM      5  C6  UNL d   1       4.215   2.224  -1.560  0.00  0.00     0.000 A 
ATOM      6  C7  UNL d   1       3.432   2.733  -2.609  0.00  0.00    -0.073 A 
ATOM      7  C8  UNL d   1       4.106   3.530  -3.693  0.00  0.00     0.078 C 
ENDROOT
BRANCH   1   8
ATOM      8  C1  UNL d   1       1.148   2.927  -3.752  0.00  0.00     0.053 C 
ATOM      9  C   UNL d   1       0.674   4.358  -3.548  0.00  0.00     0.018 C 
ENDBRANCH   1   8
TORSDOF 1
ENDMDL
