MODEL 1
REMARK minimizedAffinity 18.9760075
REMARK minimizedRMSD -1
REMARK  1 active torsions:
REMARK  status: ('A' for Active; 'I' for Inactive)
REMARK    1  A    between atoms: C1_2  and  C2_3 
ROOT
ATOM      1  C2  UNL d   1      -0.587  -1.474   2.089  0.00  0.00    -0.076 A 
ATOM      2  C3  UNL d   1      -0.422  -0.693   3.246  0.00  0.00     0.004 A 
ATOM      3  C4  UNL d   1      -0.302  -1.286   4.502  0.00  0.00    -0.003 A 
ATOM      4  C5  UNL d   1      -0.343  -2.671   4.621  0.00  0.00     0.000 A 
ATOM      5  C6  UNL d   1      -0.488  -3.462   3.482  0.00  0.00     0.000 A 
ATOM      6  C7  UNL d   1      -0.595  -2.881   2.207  0.00  0.00    -0.073 A 
ATOM      7  C8  UNL d   1      -0.755  -3.782   1.013  0.00  0.00     0.078 C 
ENDROOT
BRANCH   1   8
ATOM      8  C1  UNL d   1      -0.740  -0.774   0.758  0.00  0.00     0.053 C 
ATOM      9  C   UNL d   1      -1.967   0.124   0.709  0.00  0.00     0.018 C 
ENDBRANCH   1   8
TORSDOF 1
ENDMDL
