MODEL 1
REMARK minimizedAffinity 19.1632481
REMARK minimizedRMSD -1
REMARK  1 active torsions:
REMARK  status: ('A' for Active; 'I' for Inactive)
REMARK    1  A    between atoms: C1_2  and  C2_3 
ROOT
ATOM      1  C2  UNL d   1       0.231  -2.941   1.616  0.00  0.00    -0.076 A 
ATOM      2  C3  UNL d   1       0.710  -1.841   2.348  0.00  0.00     0.004 A 
ATOM      3  C4  UNL d   1      -0.001  -0.643   2.391  0.00  0.00    -0.003 A 
ATOM      4  C5  UNL d   1      -1.203  -0.526   1.702  0.00  0.00     0.000 A 
ATOM      5  C6  UNL d   1      -1.702  -1.613   0.985  0.00  0.00     0.000 A 
ATOM      6  C7  UNL d   1      -1.006  -2.833   0.945  0.00  0.00    -0.073 A 
ATOM      7  C8  UNL d   1      -1.587  -3.971   0.151  0.00  0.00     0.078 C 
ENDROOT
BRANCH   1   8
ATOM      8  C1  UNL d   1       1.060  -4.206   1.584  0.00  0.00     0.053 C 
ATOM      9  C   UNL d   1       2.349  -4.038   0.795  0.00  0.00     0.018 C 
ENDBRANCH   1   8
TORSDOF 1
ENDMDL
