MODEL 1
REMARK minimizedAffinity -4.65204334
REMARK minimizedRMSD -1
REMARK  1 active torsions:
REMARK  status: ('A' for Active; 'I' for Inactive)
REMARK    1  A    between atoms: N_2  and  C1_3 
ROOT
ATOM      1  C1  UNL d   1       1.487   2.898  -1.418  0.00  0.00     0.143 A 
ATOM      2  C2  UNL d   1       1.608   2.326  -0.147  0.00  0.00    -0.057 A 
ATOM      3  C3  UNL d   1       1.343   0.968   0.067  0.00  0.00     0.033 A 
ATOM      4  C4  UNL d   1       0.923   0.161  -0.985  0.00  0.00    -0.042 A 
ATOM      5  C5  UNL d   1       0.772   0.713  -2.252  0.00  0.00     0.033 A 
ATOM      6  C6  UNL d   1       1.045   2.068  -2.461  0.00  0.00    -0.057 A 
ENDROOT
BRANCH   1   7
ATOM      7  N   UNL d   1       1.641   4.262  -1.675  0.00  0.00    -0.732 N 
ATOM      8  C   UNL d   1       2.239   5.136  -0.689  0.00  0.00     0.284 C 
ATOM      9  H3  UNL d   1       1.942   4.446  -2.630  0.00  0.00     0.395 HD
ENDBRANCH   1   7
TORSDOF 1
ENDMDL
