MODEL 1
REMARK minimizedAffinity -2.28017449
REMARK minimizedRMSD -1
REMARK  1 active torsions:
REMARK  status: ('A' for Active; 'I' for Inactive)
REMARK    1  A    between atoms: N_2  and  C1_3 
ROOT
ATOM      1  C1  UNL d   1       1.290  -0.840  -0.709  0.00  0.00     0.143 A 
ATOM      2  C2  UNL d   1       1.781  -1.827   0.152  0.00  0.00    -0.057 A 
ATOM      3  C3  UNL d   1       1.453  -3.176  -0.029  0.00  0.00     0.033 A 
ATOM      4  C4  UNL d   1       0.602  -3.559  -1.060  0.00  0.00    -0.042 A 
ATOM      5  C5  UNL d   1       0.082  -2.592  -1.913  0.00  0.00     0.033 A 
ATOM      6  C6  UNL d   1       0.419  -1.247  -1.731  0.00  0.00    -0.057 A 
ENDROOT
BRANCH   1   7
ATOM      7  N   UNL d   1       1.500   0.529  -0.523  0.00  0.00    -0.732 N 
ATOM      8  C   UNL d   1       1.039   1.189   0.680  0.00  0.00     0.284 C 
ATOM      9  H3  UNL d   1       2.423   0.826  -0.832  0.00  0.00     0.395 HD
ENDBRANCH   1   7
TORSDOF 1
ENDMDL
