MODEL 1
REMARK minimizedAffinity 0.915542603
REMARK minimizedRMSD -1
REMARK  1 active torsions:
REMARK  status: ('A' for Active; 'I' for Inactive)
REMARK    1  A    between atoms: N_2  and  C1_3 
ROOT
ATOM      1  C1  UNL d   1       1.771   2.331  -1.514  0.00  0.00     0.143 A 
ATOM      2  C2  UNL d   1       1.816   1.954  -0.168  0.00  0.00    -0.057 A 
ATOM      3  C3  UNL d   1       1.394   0.685   0.246  0.00  0.00     0.033 A 
ATOM      4  C4  UNL d   1       0.890  -0.223  -0.680  0.00  0.00    -0.042 A 
ATOM      5  C5  UNL d   1       0.812   0.139  -2.020  0.00  0.00     0.033 A 
ATOM      6  C6  UNL d   1       1.242   1.405  -2.428  0.00  0.00    -0.057 A 
ENDROOT
BRANCH   1   7
ATOM      7  N   UNL d   1       2.083   3.612  -1.975  0.00  0.00    -0.732 N 
ATOM      8  C   UNL d   1       2.234   4.712  -1.047  0.00  0.00     0.284 C 
ATOM      9  H3  UNL d   1       2.776   3.599  -2.720  0.00  0.00     0.395 HD
ENDBRANCH   1   7
TORSDOF 1
ENDMDL
