MODEL 1
REMARK minimizedAffinity -2.83654094
REMARK minimizedRMSD -1
REMARK  1 active torsions:
REMARK  status: ('A' for Active; 'I' for Inactive)
REMARK    1  A    between atoms: N_2  and  C1_3 
ROOT
ATOM      1  C1  UNL d   1       2.009   2.847  -1.174  0.00  0.00     0.143 A 
ATOM      2  C2  UNL d   1       1.764   2.628   0.186  0.00  0.00    -0.057 A 
ATOM      3  C3  UNL d   1       1.258   1.405   0.645  0.00  0.00     0.033 A 
ATOM      4  C4  UNL d   1       0.959   0.388  -0.255  0.00  0.00    -0.042 A 
ATOM      5  C5  UNL d   1       1.171   0.593  -1.614  0.00  0.00     0.033 A 
ATOM      6  C6  UNL d   1       1.683   1.813  -2.065  0.00  0.00    -0.057 A 
ENDROOT
BRANCH   1   7
ATOM      7  N   UNL d   1       2.419   4.074  -1.702  0.00  0.00    -0.732 N 
ATOM      8  C   UNL d   1       2.702   5.194  -0.831  0.00  0.00     0.284 C 
ATOM      9  H3  UNL d   1       3.080   3.965  -2.468  0.00  0.00     0.395 HD
ENDBRANCH   1   7
TORSDOF 1
ENDMDL
