MODEL 1
REMARK minimizedAffinity -4.58760881
REMARK minimizedRMSD -1
REMARK  1 active torsions:
REMARK  status: ('A' for Active; 'I' for Inactive)
REMARK    1  A    between atoms: N_2  and  C1_3 
ROOT
ATOM      1  C1  UNL d   1       0.485   0.722   0.409  0.00  0.00     0.143 A 
ATOM      2  C2  UNL d   1       1.679   1.344   0.030  0.00  0.00    -0.057 A 
ATOM      3  C3  UNL d   1       2.242   1.127  -1.234  0.00  0.00     0.033 A 
ATOM      4  C4  UNL d   1       1.632   0.259  -2.133  0.00  0.00    -0.042 A 
ATOM      5  C5  UNL d   1       0.458  -0.390  -1.769  0.00  0.00     0.033 A 
ATOM      6  C6  UNL d   1      -0.102  -0.164  -0.508  0.00  0.00    -0.057 A 
ENDROOT
BRANCH   1   7
ATOM      7  N   UNL d   1      -0.072   0.820   1.686  0.00  0.00    -0.732 N 
ATOM      8  C   UNL d   1      -1.437   1.267   1.863  0.00  0.00     0.284 C 
ATOM      9  H3  UNL d   1       0.191   0.042   2.285  0.00  0.00     0.395 HD
ENDBRANCH   1   7
TORSDOF 1
ENDMDL
