MODEL 1
REMARK minimizedAffinity -1.84708476
REMARK minimizedRMSD -1
REMARK  1 active torsions:
REMARK  status: ('A' for Active; 'I' for Inactive)
REMARK    1  A    between atoms: N_2  and  C1_3 
ROOT
ATOM      1  C1  UNL d   1       1.486  -0.763  -0.465  0.00  0.00     0.143 A 
ATOM      2  C2  UNL d   1       0.791   0.104  -1.316  0.00  0.00    -0.057 A 
ATOM      3  C3  UNL d   1       0.810   1.489  -1.115  0.00  0.00     0.033 A 
ATOM      4  C4  UNL d   1       1.501   2.032  -0.037  0.00  0.00    -0.042 A 
ATOM      5  C5  UNL d   1       2.178   1.188   0.836  0.00  0.00     0.033 A 
ATOM      6  C6  UNL d   1       2.162  -0.194   0.626  0.00  0.00    -0.057 A 
ENDROOT
BRANCH   1   7
ATOM      7  N   UNL d   1       1.426  -2.156  -0.555  0.00  0.00    -0.732 N 
ATOM      8  C   UNL d   1       0.241  -2.811  -1.065  0.00  0.00     0.284 C 
ATOM      9  H3  UNL d   1       2.299  -2.562  -0.883  0.00  0.00     0.395 HD
ENDBRANCH   1   7
TORSDOF 1
ENDMDL
