MODEL 1
REMARK minimizedAffinity 3.61089993
REMARK minimizedRMSD -1
REMARK  1 active torsions:
REMARK  status: ('A' for Active; 'I' for Inactive)
REMARK    1  A    between atoms: N_2  and  C1_3 
ROOT
ATOM      1  C1  UNL d   1       1.891   2.500  -1.022  0.00  0.00     0.143 A 
ATOM      2  C2  UNL d   1       1.926   2.324   0.366  0.00  0.00    -0.057 A 
ATOM      3  C3  UNL d   1       1.517   1.121   0.956  0.00  0.00     0.033 A 
ATOM      4  C4  UNL d   1       1.038   0.080   0.167  0.00  0.00    -0.042 A 
ATOM      5  C5  UNL d   1       0.971   0.242  -1.212  0.00  0.00     0.033 A 
ATOM      6  C6  UNL d   1       1.387   1.443  -1.796  0.00  0.00    -0.057 A 
ENDROOT
BRANCH   1   7
ATOM      7  N   UNL d   1       2.191   3.705  -1.661  0.00  0.00    -0.732 N 
ATOM      8  C   UNL d   1       2.386   4.917  -0.894  0.00  0.00     0.284 C 
ATOM      9  H3  UNL d   1       2.852   3.586  -2.425  0.00  0.00     0.395 HD
ENDBRANCH   1   7
TORSDOF 1
ENDMDL
