MODEL 1
REMARK minimizedAffinity 5.78962374
REMARK minimizedRMSD -1
REMARK  1 active torsions:
REMARK  status: ('A' for Active; 'I' for Inactive)
REMARK    1  A    between atoms: N_2  and  C1_3 
ROOT
ATOM      1  C1  UNL d   1       1.249   2.145  -1.405  0.00  0.00     0.143 A 
ATOM      2  C2  UNL d   1       0.908   0.850  -1.810  0.00  0.00    -0.057 A 
ATOM      3  C3  UNL d   1       0.832  -0.202  -0.889  0.00  0.00     0.033 A 
ATOM      4  C4  UNL d   1       1.125   0.018   0.453  0.00  0.00    -0.042 A 
ATOM      5  C5  UNL d   1       1.491   1.292   0.873  0.00  0.00     0.033 A 
ATOM      6  C6  UNL d   1       1.559   2.340  -0.050  0.00  0.00    -0.057 A 
ENDROOT
BRANCH   1   7
ATOM      7  N   UNL d   1       1.438   3.211  -2.288  0.00  0.00    -0.732 N 
ATOM      8  C   UNL d   1       2.162   4.393  -1.873  0.00  0.00     0.284 C 
ATOM      9  H3  UNL d   1       1.657   2.900  -3.232  0.00  0.00     0.395 HD
ENDBRANCH   1   7
TORSDOF 1
ENDMDL
