MODEL 1
REMARK minimizedAffinity -5.52493715
REMARK minimizedRMSD -1
REMARK  0 active torsions:
REMARK  status: ('A' for Active; 'I' for Inactive)
ROOT
ATOM      1  C1  DEN d   1       0.481   0.693  -0.264  0.00  0.00     0.130 A 
ATOM      2  C2  DEN d   1      -0.578   1.333   0.511  0.00  0.00    -0.031 A 
ATOM      3  C3  DEN d   1      -1.435   0.272   1.078  0.00  0.00     0.027 A 
ATOM      4  C4  DEN d   1      -1.224  -2.287   0.834  0.00  0.00     0.027 A 
ATOM      5  C5  DEN d   1      -0.491  -3.303   0.262  0.00  0.00    -0.003 A 
ATOM      6  C6  DEN d   1       0.587  -3.060  -0.547  0.00  0.00     0.001 A 
ATOM      7  C7  DEN d   1       0.992  -1.770  -0.770  0.00  0.00     0.017 A 
ATOM      8  C8  DEN d   1       0.254  -0.740  -0.202  0.00  0.00    -0.094 A 
ATOM      9  C9  DEN d   1      -0.826  -1.006   0.622  0.00  0.00    -0.072 A 
ENDROOT
TORSDOF 0
ENDMDL
