MODEL 1
REMARK minimizedAffinity -3.82971334
REMARK minimizedRMSD -1
REMARK  0 active torsions:
REMARK  status: ('A' for Active; 'I' for Inactive)
ROOT
ATOM      1  C1  DEN d   1      -1.801   0.277   0.375  0.00  0.00     0.130 A 
ATOM      2  C2  DEN d   1      -0.969   1.390  -0.071  0.00  0.00    -0.031 A 
ATOM      3  C3  DEN d   1       0.383   0.866  -0.350  0.00  0.00     0.027 A 
ATOM      4  C4  DEN d   1       1.262  -1.550  -0.140  0.00  0.00     0.027 A 
ATOM      5  C5  DEN d   1       0.929  -2.839   0.212  0.00  0.00    -0.003 A 
ATOM      6  C6  DEN d   1      -0.318  -3.171   0.672  0.00  0.00     0.001 A 
ATOM      7  C7  DEN d   1      -1.291  -2.210   0.749  0.00  0.00     0.017 A 
ATOM      8  C8  DEN d   1      -0.960  -0.907   0.403  0.00  0.00    -0.094 A 
ATOM      9  C9  DEN d   1       0.302  -0.593  -0.071  0.00  0.00    -0.072 A 
ENDROOT
TORSDOF 0
ENDMDL
