MODEL 1
REMARK minimizedAffinity -3.6710279
REMARK minimizedRMSD -1
REMARK  0 active torsions:
REMARK  status: ('A' for Active; 'I' for Inactive)
ROOT
ATOM      1  C1  DEN d   1       1.221  -2.789   0.098  0.00  0.00     0.130 A 
ATOM      2  C2  DEN d   1       0.333  -3.373   1.100  0.00  0.00    -0.031 A 
ATOM      3  C3  DEN d   1      -0.680  -2.359   1.458  0.00  0.00     0.027 A 
ATOM      4  C4  DEN d   1      -0.961   0.042   0.560  0.00  0.00     0.027 A 
ATOM      5  C5  DEN d   1      -0.440   0.989  -0.294  0.00  0.00    -0.003 A 
ATOM      6  C6  DEN d   1       0.681   0.758  -1.045  0.00  0.00     0.001 A 
ATOM      7  C7  DEN d   1       1.293  -0.467  -0.992  0.00  0.00     0.017 A 
ATOM      8  C8  DEN d   1       0.779  -1.424  -0.127  0.00  0.00    -0.094 A 
ATOM      9  C9  DEN d   1      -0.363  -1.175   0.615  0.00  0.00    -0.072 A 
ENDROOT
TORSDOF 0
ENDMDL
