MODEL 1
REMARK minimizedAffinity -3.69824243
REMARK minimizedRMSD -1
REMARK  0 active torsions:
REMARK  status: ('A' for Active; 'I' for Inactive)
ROOT
ATOM      1  C1  DEN d   1       1.218  -1.962   0.444  0.00  0.00     0.130 A 
ATOM      2  C2  DEN d   1       0.136  -2.920   0.658  0.00  0.00    -0.031 A 
ATOM      3  C3  DEN d   1      -1.141  -2.177   0.643  0.00  0.00     0.027 A 
ATOM      4  C4  DEN d   1      -1.545   0.348   0.305  0.00  0.00     0.027 A 
ATOM      5  C5  DEN d   1      -0.934   1.565   0.098  0.00  0.00    -0.003 A 
ATOM      6  C6  DEN d   1       0.428   1.695   0.027  0.00  0.00     0.001 A 
ATOM      7  C7  DEN d   1       1.222   0.583   0.118  0.00  0.00     0.017 A 
ATOM      8  C8  DEN d   1       0.613  -0.647   0.334  0.00  0.00    -0.094 A 
ATOM      9  C9  DEN d   1      -0.765  -0.760   0.391  0.00  0.00    -0.072 A 
ENDROOT
TORSDOF 0
ENDMDL
