MODEL 1
REMARK minimizedAffinity -5.89978075
REMARK minimizedRMSD -1
REMARK  0 active torsions:
REMARK  status: ('A' for Active; 'I' for Inactive)
ROOT
ATOM      1  C1  DEN d   1      -0.759   0.766   0.778  0.00  0.00     0.130 A 
ATOM      2  C2  DEN d   1      -0.209   1.695  -0.206  0.00  0.00    -0.031 A 
ATOM      3  C3  DEN d   1       0.604   0.917  -1.163  0.00  0.00     0.027 A 
ATOM      4  C4  DEN d   1       1.057  -1.622  -1.219  0.00  0.00     0.027 A 
ATOM      5  C5  DEN d   1       0.815  -2.819  -0.583  0.00  0.00    -0.003 A 
ATOM      6  C6  DEN d   1       0.065  -2.901   0.560  0.00  0.00     0.001 A 
ATOM      7  C7  DEN d   1      -0.507  -1.769   1.079  0.00  0.00     0.017 A 
ATOM      8  C8  DEN d   1      -0.261  -0.557   0.448  0.00  0.00    -0.094 A 
ATOM      9  C9  DEN d   1       0.490  -0.497  -0.714  0.00  0.00    -0.072 A 
ENDROOT
TORSDOF 0
ENDMDL
