MODEL 1
REMARK minimizedAffinity -6.4212389
REMARK minimizedRMSD -1
REMARK  0 active torsions:
REMARK  status: ('A' for Active; 'I' for Inactive)
ROOT
ATOM      1  C1  DEN d   1      -0.751  -0.458   0.730  0.00  0.00     0.130 A 
ATOM      2  C2  DEN d   1      -0.594   0.801   0.007  0.00  0.00    -0.031 A 
ATOM      3  C3  DEN d   1       0.022   0.502  -1.302  0.00  0.00     0.027 A 
ATOM      4  C4  DEN d   1       0.740  -1.776  -2.275  0.00  0.00     0.027 A 
ATOM      5  C5  DEN d   1       0.816  -3.129  -2.027  0.00  0.00    -0.003 A 
ATOM      6  C6  DEN d   1       0.410  -3.677  -0.839  0.00  0.00     0.001 A 
ATOM      7  C7  DEN d   1      -0.132  -2.875   0.129  0.00  0.00     0.017 A 
ATOM      8  C8  DEN d   1      -0.206  -1.509  -0.111  0.00  0.00    -0.094 A 
ATOM      9  C9  DEN d   1       0.198  -0.975  -1.323  0.00  0.00    -0.072 A 
ENDROOT
TORSDOF 0
ENDMDL
