MODEL 1
REMARK minimizedAffinity -2.96321034
REMARK minimizedRMSD -1
REMARK  0 active torsions:
REMARK  status: ('A' for Active; 'I' for Inactive)
ROOT
ATOM      1  C1  DEN d   1      -1.308   0.689   0.418  0.00  0.00     0.130 A 
ATOM      2  C2  DEN d   1      -0.615   1.693  -0.385  0.00  0.00    -0.031 A 
ATOM      3  C3  DEN d   1       0.497   1.025  -1.090  0.00  0.00     0.027 A 
ATOM      4  C4  DEN d   1       1.208  -1.453  -1.020  0.00  0.00     0.027 A 
ATOM      5  C5  DEN d   1       0.931  -2.686  -0.471  0.00  0.00    -0.003 A 
ATOM      6  C6  DEN d   1      -0.082  -2.871   0.432  0.00  0.00     0.001 A 
ATOM      7  C7  DEN d   1      -0.884  -1.816   0.778  0.00  0.00     0.017 A 
ATOM      8  C8  DEN d   1      -0.606  -0.569   0.234  0.00  0.00    -0.094 A 
ATOM      9  C9  DEN d   1       0.415  -0.404  -0.686  0.00  0.00    -0.072 A 
ENDROOT
TORSDOF 0
ENDMDL
