MODEL 1
REMARK minimizedAffinity -2.84496093
REMARK minimizedRMSD -1
REMARK  0 active torsions:
REMARK  status: ('A' for Active; 'I' for Inactive)
ROOT
ATOM      1  C1  DEN d   1       0.926  -1.171  -1.674  0.00  0.00     0.130 A 
ATOM      2  C2  DEN d   1       0.639   0.259  -1.743  0.00  0.00    -0.031 A 
ATOM      3  C3  DEN d   1      -0.127   0.629  -0.535  0.00  0.00     0.027 A 
ATOM      4  C4  DEN d   1      -0.886  -0.864   1.426  0.00  0.00     0.027 A 
ATOM      5  C5  DEN d   1      -0.886  -2.149   1.924  0.00  0.00    -0.003 A 
ATOM      6  C6  DEN d   1      -0.317  -3.195   1.247  0.00  0.00     0.001 A 
ATOM      7  C7  DEN d   1       0.317  -2.967   0.054  0.00  0.00     0.017 A 
ATOM      8  C8  DEN d   1       0.315  -1.676  -0.458  0.00  0.00    -0.094 A 
ATOM      9  C9  DEN d   1      -0.255  -0.630   0.247  0.00  0.00    -0.072 A 
ENDROOT
TORSDOF 0
ENDMDL
