MODEL 1
REMARK minimizedAffinity -6.38440704
REMARK minimizedRMSD -1
REMARK  0 active torsions:
REMARK  status: ('A' for Active; 'I' for Inactive)
ROOT
ATOM      1  C1  DEN d   1      -0.015   0.069   0.889  0.00  0.00     0.130 A 
ATOM      2  C2  DEN d   1       0.068   1.179  -0.056  0.00  0.00    -0.031 A 
ATOM      3  C3  DEN d   1       0.258   0.615  -1.407  0.00  0.00     0.027 A 
ATOM      4  C4  DEN d   1       0.427  -1.856  -2.126  0.00  0.00     0.027 A 
ATOM      5  C5  DEN d   1       0.424  -3.158  -1.677  0.00  0.00    -0.003 A 
ATOM      6  C6  DEN d   1       0.310  -3.472  -0.348  0.00  0.00     0.001 A 
ATOM      7  C7  DEN d   1       0.149  -2.473   0.574  0.00  0.00     0.017 A 
ATOM      8  C8  DEN d   1       0.158  -1.157   0.130  0.00  0.00    -0.094 A 
ATOM      9  C9  DEN d   1       0.262  -0.860  -1.219  0.00  0.00    -0.072 A 
ENDROOT
TORSDOF 0
ENDMDL
