MODEL 1
REMARK minimizedAffinity -3.88648295
REMARK minimizedRMSD -1
REMARK  0 active torsions:
REMARK  status: ('A' for Active; 'I' for Inactive)
ROOT
ATOM      1  C1  DEN d   1       0.872   0.714   0.219  0.00  0.00     0.130 A 
ATOM      2  C2  DEN d   1      -0.414   1.356   0.474  0.00  0.00    -0.031 A 
ATOM      3  C3  DEN d   1      -1.428   0.296   0.647  0.00  0.00     0.027 A 
ATOM      4  C4  DEN d   1      -1.130  -2.265   0.550  0.00  0.00     0.027 A 
ATOM      5  C5  DEN d   1      -0.224  -3.282   0.350  0.00  0.00    -0.003 A 
ATOM      6  C6  DEN d   1       1.093  -3.041   0.061  0.00  0.00     0.001 A 
ATOM      7  C7  DEN d   1       1.551  -1.751   0.008  0.00  0.00     0.017 A 
ATOM      8  C8  DEN d   1       0.642  -0.720   0.202  0.00  0.00    -0.094 A 
ATOM      9  C9  DEN d   1      -0.682  -0.984   0.505  0.00  0.00    -0.072 A 
ENDROOT
TORSDOF 0
ENDMDL
