MODEL 1
REMARK minimizedAffinity -2.86250329
REMARK minimizedRMSD -1
REMARK  0 active torsions:
REMARK  status: ('A' for Active; 'I' for Inactive)
ROOT
ATOM      1  C1  DEN d   1       0.765  -2.373  -0.258  0.00  0.00     0.130 A 
ATOM      2  C2  DEN d   1       0.007  -3.196   0.681  0.00  0.00    -0.031 A 
ATOM      3  C3  DEN d   1      -0.997  -2.333   1.336  0.00  0.00     0.027 A 
ATOM      4  C4  DEN d   1      -1.451   0.182   0.987  0.00  0.00     0.027 A 
ATOM      5  C5  DEN d   1      -1.055   1.309   0.302  0.00  0.00    -0.003 A 
ATOM      6  C6  DEN d   1      -0.011   1.296  -0.585  0.00  0.00     0.001 A 
ATOM      7  C7  DEN d   1       0.644   0.121  -0.845  0.00  0.00     0.017 A 
ATOM      8  C8  DEN d   1       0.255  -1.018  -0.152  0.00  0.00    -0.094 A 
ATOM      9  C9  DEN d   1      -0.810  -0.987   0.731  0.00  0.00    -0.072 A 
ENDROOT
TORSDOF 0
ENDMDL
