MODEL 1
REMARK minimizedAffinity -3.3162117
REMARK minimizedRMSD -1
REMARK  0 active torsions:
REMARK  status: ('A' for Active; 'I' for Inactive)
ROOT
ATOM      1  C1  DEN d   1       1.146  -0.234  -1.850  0.00  0.00     0.130 A 
ATOM      2  C2  DEN d   1       0.655   1.141  -1.879  0.00  0.00    -0.031 A 
ATOM      3  C3  DEN d   1      -0.323   1.300  -0.785  0.00  0.00     0.027 A 
ATOM      4  C4  DEN d   1      -1.119  -0.440   0.945  0.00  0.00     0.027 A 
ATOM      5  C5  DEN d   1      -0.994  -1.747   1.362  0.00  0.00    -0.003 A 
ATOM      6  C6  DEN d   1      -0.179  -2.643   0.722  0.00  0.00     0.001 A 
ATOM      7  C7  DEN d   1       0.577  -2.231  -0.344  0.00  0.00     0.017 A 
ATOM      8  C8  DEN d   1       0.451  -0.917  -0.774  0.00  0.00    -0.094 A 
ATOM      9  C9  DEN d   1      -0.369  -0.023  -0.106  0.00  0.00    -0.072 A 
ENDROOT
TORSDOF 0
ENDMDL
