MODEL 1
REMARK minimizedAffinity -1.39388621
REMARK minimizedRMSD -1
REMARK  0 active torsions:
REMARK  status: ('A' for Active; 'I' for Inactive)
ROOT
ATOM      1  C1  DEN d   1      -1.362   0.634   0.741  0.00  0.00     0.130 A 
ATOM      2  C2  DEN d   1      -0.526   1.655   0.115  0.00  0.00    -0.031 A 
ATOM      3  C3  DEN d   1       0.670   0.989  -0.438  0.00  0.00     0.027 A 
ATOM      4  C4  DEN d   1       1.303  -1.511  -0.389  0.00  0.00     0.027 A 
ATOM      5  C5  DEN d   1       0.912  -2.760   0.040  0.00  0.00    -0.003 A 
ATOM      6  C6  DEN d   1      -0.238  -2.959   0.757  0.00  0.00     0.001 A 
ATOM      7  C7  DEN d   1      -1.061  -1.897   1.027  0.00  0.00     0.017 A 
ATOM      8  C8  DEN d   1      -0.670  -0.634   0.604  0.00  0.00    -0.094 A 
ATOM      9  C9  DEN d   1       0.490  -0.456  -0.130  0.00  0.00    -0.072 A 
ENDROOT
TORSDOF 0
ENDMDL
