MODEL 1
REMARK minimizedAffinity -3.67562175
REMARK minimizedRMSD -1
REMARK  0 active torsions:
REMARK  status: ('A' for Active; 'I' for Inactive)
ROOT
ATOM      1  C1  DEN d   1       1.480   1.187   0.348  0.00  0.00     0.130 A 
ATOM      2  C2  DEN d   1       0.607   2.342   0.162  0.00  0.00    -0.031 A 
ATOM      3  C3  DEN d   1      -0.792   1.873   0.229  0.00  0.00     0.027 A 
ATOM      4  C4  DEN d   1      -1.684  -0.517   0.607  0.00  0.00     0.027 A 
ATOM      5  C5  DEN d   1      -1.324  -1.832   0.806  0.00  0.00    -0.003 A 
ATOM      6  C6  DEN d   1      -0.015  -2.234   0.831  0.00  0.00     0.001 A 
ATOM      7  C7  DEN d   1       0.983  -1.305   0.700  0.00  0.00     0.017 A 
ATOM      8  C8  DEN d   1       0.628   0.021   0.493  0.00  0.00    -0.094 A 
ATOM      9  C9  DEN d   1      -0.701   0.410   0.482  0.00  0.00    -0.072 A 
ENDROOT
TORSDOF 0
ENDMDL
