MODEL 1
REMARK minimizedAffinity -0.677718937
REMARK minimizedRMSD -1
REMARK  0 active torsions:
REMARK  status: ('A' for Active; 'I' for Inactive)
ROOT
ATOM      1  C   UNL d   1      -4.821   4.872   1.086  0.00  0.00     0.020 A 
ATOM      2  C1  UNL d   1      -5.647   5.907   1.523  0.00  0.00     0.020 A 
ATOM      3  C2  UNL d   1      -5.999   5.999   2.871  0.00  0.00     0.034 A 
ATOM      4  C3  UNL d   1      -5.525   5.054   3.788  0.00  0.00     0.017 A 
ATOM      5  C4  UNL d   1      -4.696   4.015   3.349  0.00  0.00     0.017 A 
ATOM      6  C5  UNL d   1      -4.346   3.928   1.998  0.00  0.00     0.034 A 
ATOM      7 Cl   UNL d   1      -4.072   2.811   4.421  0.00  0.00    -0.070 Cl
ATOM      8 Cl1  UNL d   1      -6.000   5.228   5.440  0.00  0.00    -0.070 Cl
ENDROOT
TORSDOF 0
ENDMDL
