MODEL 1
REMARK minimizedAffinity 1.99262369
REMARK minimizedRMSD -1
REMARK  0 active torsions:
REMARK  status: ('A' for Active; 'I' for Inactive)
ROOT
ATOM      1  C   UNL d   1      -1.008  -1.480  -1.139  0.00  0.00     0.020 A 
ATOM      2  C1  UNL d   1      -1.363  -0.221  -1.620  0.00  0.00     0.020 A 
ATOM      3  C2  UNL d   1      -2.280   0.563  -0.915  0.00  0.00     0.034 A 
ATOM      4  C3  UNL d   1      -2.844   0.088   0.274  0.00  0.00     0.017 A 
ATOM      5  C4  UNL d   1      -2.487  -1.177   0.756  0.00  0.00     0.017 A 
ATOM      6  C5  UNL d   1      -1.569  -1.957   0.046  0.00  0.00     0.034 A 
ATOM      7 Cl   UNL d   1      -3.141  -1.831   2.216  0.00  0.00    -0.070 Cl
ATOM      8 Cl1  UNL d   1      -3.970   1.110   1.094  0.00  0.00    -0.070 Cl
ENDROOT
TORSDOF 0
ENDMDL
