MODEL 1
REMARK minimizedAffinity 1.29581285
REMARK minimizedRMSD -1
REMARK  0 active torsions:
REMARK  status: ('A' for Active; 'I' for Inactive)
ROOT
ATOM      1  C   UNL d   1      -5.418   2.915   5.976  0.00  0.00     0.020 A 
ATOM      2  C1  UNL d   1      -4.049   2.651   5.943  0.00  0.00     0.020 A 
ATOM      3  C2  UNL d   1      -3.260   3.186   4.923  0.00  0.00     0.034 A 
ATOM      4  C3  UNL d   1      -3.838   3.987   3.931  0.00  0.00     0.017 A 
ATOM      5  C4  UNL d   1      -5.212   4.251   3.966  0.00  0.00     0.017 A 
ATOM      6  C5  UNL d   1      -5.998   3.713   4.990  0.00  0.00     0.034 A 
ATOM      7 Cl   UNL d   1      -5.998   5.230   2.778  0.00  0.00    -0.070 Cl
ATOM      8 Cl1  UNL d   1      -2.802   4.615   2.700  0.00  0.00    -0.070 Cl
ENDROOT
TORSDOF 0
ENDMDL
