MODEL 1
REMARK minimizedAffinity 10.9008074
REMARK minimizedRMSD -1
REMARK  0 active torsions:
REMARK  status: ('A' for Active; 'I' for Inactive)
ROOT
ATOM      1  C   UNL d   1       1.133   0.086   3.754  0.00  0.00     0.020 A 
ATOM      2  C1  UNL d   1       0.820   1.247   4.459  0.00  0.00     0.020 A 
ATOM      3  C2  UNL d   1       1.801   2.217   4.677  0.00  0.00     0.034 A 
ATOM      4  C3  UNL d   1       3.100   2.027   4.191  0.00  0.00     0.017 A 
ATOM      5  C4  UNL d   1       3.413   0.860   3.484  0.00  0.00     0.017 A 
ATOM      6  C5  UNL d   1       2.427  -0.107   3.268  0.00  0.00     0.034 A 
ATOM      7 Cl   UNL d   1       4.993   0.555   2.853  0.00  0.00    -0.070 Cl
ATOM      8 Cl1  UNL d   1       4.262   3.267   4.498  0.00  0.00    -0.070 Cl
ENDROOT
TORSDOF 0
ENDMDL
