MODEL 1
REMARK minimizedAffinity 0.808364213
REMARK minimizedRMSD -1
REMARK  0 active torsions:
REMARK  status: ('A' for Active; 'I' for Inactive)
ROOT
ATOM      1  C   UNL d   1      -3.602   3.016   3.555  0.00  0.00     0.020 A 
ATOM      2  C1  UNL d   1      -4.457   3.274   2.484  0.00  0.00     0.020 A 
ATOM      3  C2  UNL d   1      -4.818   2.241   1.616  0.00  0.00     0.034 A 
ATOM      4  C3  UNL d   1      -4.325   0.947   1.818  0.00  0.00     0.017 A 
ATOM      5  C4  UNL d   1      -3.468   0.690   2.893  0.00  0.00     0.017 A 
ATOM      6  C5  UNL d   1      -3.109   1.727   3.760  0.00  0.00     0.034 A 
ATOM      7 Cl   UNL d   1      -2.819  -0.882   3.207  0.00  0.00    -0.070 Cl
ATOM      8 Cl1  UNL d   1      -4.815  -0.282   0.705  0.00  0.00    -0.070 Cl
ENDROOT
TORSDOF 0
ENDMDL
