MODEL 1
REMARK minimizedAffinity -2.47941232
REMARK minimizedRMSD -1
REMARK  0 active torsions:
REMARK  status: ('A' for Active; 'I' for Inactive)
ROOT
ATOM      1  C   UNL d   1      -5.346   5.422   2.090  0.00  0.00     0.020 A 
ATOM      2  C1  UNL d   1      -5.295   4.035   1.962  0.00  0.00     0.020 A 
ATOM      3  C2  UNL d   1      -5.460   3.223   3.087  0.00  0.00     0.034 A 
ATOM      4  C3  UNL d   1      -5.678   3.799   4.344  0.00  0.00     0.017 A 
ATOM      5  C4  UNL d   1      -5.730   5.192   4.471  0.00  0.00     0.017 A 
ATOM      6  C5  UNL d   1      -5.563   5.999   3.342  0.00  0.00     0.034 A 
ATOM      7 Cl   UNL d   1      -5.995   5.975   5.989  0.00  0.00    -0.070 Cl
ATOM      8 Cl1  UNL d   1      -5.875   2.736   5.692  0.00  0.00    -0.070 Cl
ENDROOT
TORSDOF 0
ENDMDL
