MODEL 1
REMARK minimizedAffinity 8.6665926
REMARK minimizedRMSD -1
REMARK  0 active torsions:
REMARK  status: ('A' for Active; 'I' for Inactive)
ROOT
ATOM      1  C   UNL d   1       2.872   2.232   3.509  0.00  0.00     0.020 A 
ATOM      2  C1  UNL d   1       2.424   2.101   4.823  0.00  0.00     0.020 A 
ATOM      3  C2  UNL d   1       1.939   0.872   5.275  0.00  0.00     0.034 A 
ATOM      4  C3  UNL d   1       1.901  -0.230   4.414  0.00  0.00     0.017 A 
ATOM      5  C4  UNL d   1       2.350  -0.098   3.095  0.00  0.00     0.017 A 
ATOM      6  C5  UNL d   1       2.835   1.135   2.647  0.00  0.00     0.034 A 
ATOM      7 Cl   UNL d   1       2.333  -1.412   1.973  0.00  0.00    -0.070 Cl
ATOM      8 Cl1  UNL d   1       1.289  -1.720   5.041  0.00  0.00    -0.070 Cl
ENDROOT
TORSDOF 0
ENDMDL
