MODEL 1
REMARK minimizedAffinity 5.29727793
REMARK minimizedRMSD -1
REMARK  0 active torsions:
REMARK  status: ('A' for Active; 'I' for Inactive)
ROOT
ATOM      1  C   UNL d   1       1.729   0.372  -6.000  0.00  0.00     0.020 A 
ATOM      2  C1  UNL d   1       0.424   0.698  -5.634  0.00  0.00     0.020 A 
ATOM      3  C2  UNL d   1       0.000   0.509  -4.317  0.00  0.00     0.034 A 
ATOM      4  C3  UNL d   1       0.882  -0.009  -3.361  0.00  0.00     0.017 A 
ATOM      5  C4  UNL d   1       2.192  -0.336  -3.729  0.00  0.00     0.017 A 
ATOM      6  C5  UNL d   1       2.611  -0.144  -5.049  0.00  0.00     0.034 A 
ATOM      7 Cl   UNL d   1       3.337  -0.979  -2.606  0.00  0.00    -0.070 Cl
ATOM      8 Cl1  UNL d   1       0.290  -0.217  -1.751  0.00  0.00    -0.070 Cl
ENDROOT
TORSDOF 0
ENDMDL
