MODEL 1
REMARK minimizedAffinity 1.18351662
REMARK minimizedRMSD -1
REMARK  0 active torsions:
REMARK  status: ('A' for Active; 'I' for Inactive)
ROOT
ATOM      1  C   UNL d   1      -5.979   5.515   1.898  0.00  0.00     0.020 A 
ATOM      2  C1  UNL d   1      -5.971   4.141   1.662  0.00  0.00     0.020 A 
ATOM      3  C2  UNL d   1      -5.972   3.249   2.736  0.00  0.00     0.034 A 
ATOM      4  C3  UNL d   1      -5.980   3.729   4.051  0.00  0.00     0.017 A 
ATOM      5  C4  UNL d   1      -5.988   5.109   4.286  0.00  0.00     0.017 A 
ATOM      6  C5  UNL d   1      -5.987   5.998   3.207  0.00  0.00     0.034 A 
ATOM      7 Cl   UNL d   1      -5.998   5.777   5.880  0.00  0.00    -0.070 Cl
ATOM      8 Cl1  UNL d   1      -5.980   2.569   5.331  0.00  0.00    -0.070 Cl
ENDROOT
TORSDOF 0
ENDMDL
