MODEL 1
REMARK minimizedAffinity -1.72924125
REMARK minimizedRMSD -1
REMARK  0 active torsions:
REMARK  status: ('A' for Active; 'I' for Inactive)
ROOT
ATOM      1  C   UNL d   1      -5.768   6.000   4.015  0.00  0.00     0.020 A 
ATOM      2  C1  UNL d   1      -5.712   5.894   5.404  0.00  0.00     0.020 A 
ATOM      3  C2  UNL d   1      -5.276   4.707   5.996  0.00  0.00     0.034 A 
ATOM      4  C3  UNL d   1      -4.895   3.621   5.200  0.00  0.00     0.017 A 
ATOM      5  C4  UNL d   1      -4.951   3.728   3.805  0.00  0.00     0.017 A 
ATOM      6  C5  UNL d   1      -5.388   4.919   3.217  0.00  0.00     0.034 A 
ATOM      7 Cl   UNL d   1      -4.497   2.432   2.757  0.00  0.00    -0.070 Cl
ATOM      8 Cl1  UNL d   1      -4.366   2.184   6.000  0.00  0.00    -0.070 Cl
ENDROOT
TORSDOF 0
ENDMDL
