MODEL 1
REMARK minimizedAffinity -3.21413898
REMARK minimizedRMSD -1
REMARK  0 active torsions:
REMARK  status: ('A' for Active; 'I' for Inactive)
ROOT
ATOM      1  C   UNL d   1      -5.328   4.044   1.912  0.00  0.00     0.020 A 
ATOM      2  C1  UNL d   1      -5.323   5.429   2.071  0.00  0.00     0.020 A 
ATOM      3  C2  UNL d   1      -5.529   5.988   3.334  0.00  0.00     0.034 A 
ATOM      4  C3  UNL d   1      -5.741   5.162   4.443  0.00  0.00     0.017 A 
ATOM      5  C4  UNL d   1      -5.746   3.771   4.283  0.00  0.00     0.017 A 
ATOM      6  C5  UNL d   1      -5.539   3.217   3.016  0.00  0.00     0.034 A 
ATOM      7 Cl   UNL d   1      -6.000   2.687   5.605  0.00  0.00    -0.070 Cl
ATOM      8 Cl1  UNL d   1      -5.988   5.921   5.975  0.00  0.00    -0.070 Cl
ENDROOT
TORSDOF 0
ENDMDL
