MODEL 1
REMARK minimizedAffinity 0.491670996
REMARK minimizedRMSD -1
REMARK  0 active torsions:
REMARK  status: ('A' for Active; 'I' for Inactive)
ROOT
ATOM      1  C   UNL d   1      -5.789   5.858   2.734  0.00  0.00     0.020 A 
ATOM      2  C1  UNL d   1      -5.850   6.000   4.120  0.00  0.00     0.020 A 
ATOM      3  C2  UNL d   1      -5.914   4.868   4.935  0.00  0.00     0.034 A 
ATOM      4  C3  UNL d   1      -5.917   3.589   4.366  0.00  0.00     0.017 A 
ATOM      5  C4  UNL d   1      -5.855   3.448   2.975  0.00  0.00     0.017 A 
ATOM      6  C5  UNL d   1      -5.791   4.585   2.163  0.00  0.00     0.034 A 
ATOM      7 Cl   UNL d   1      -5.853   1.904   2.199  0.00  0.00    -0.070 Cl
ATOM      8 Cl1  UNL d   1      -5.997   2.234   5.434  0.00  0.00    -0.070 Cl
ENDROOT
TORSDOF 0
ENDMDL
