MODEL 1
REMARK minimizedAffinity 1.03039396
REMARK minimizedRMSD -1
REMARK  0 active torsions:
REMARK  status: ('A' for Active; 'I' for Inactive)
ROOT
ATOM      1  C   UNL d   1      -5.540   5.243   1.032  0.00  0.00     0.020 A 
ATOM      2  C1  UNL d   1      -5.997   5.846   2.204  0.00  0.00     0.020 A 
ATOM      3  C2  UNL d   1      -6.000   5.129   3.402  0.00  0.00     0.034 A 
ATOM      4  C3  UNL d   1      -5.545   3.806   3.433  0.00  0.00     0.017 A 
ATOM      5  C4  UNL d   1      -5.087   3.201   2.256  0.00  0.00     0.017 A 
ATOM      6  C5  UNL d   1      -5.086   3.924   1.059  0.00  0.00     0.034 A 
ATOM      7 Cl   UNL d   1      -4.511   1.572   2.215  0.00  0.00    -0.070 Cl
ATOM      8 Cl1  UNL d   1      -5.577   2.980   4.950  0.00  0.00    -0.070 Cl
ENDROOT
TORSDOF 0
ENDMDL
