MODEL 1
REMARK minimizedAffinity -3.12624216
REMARK minimizedRMSD -1
REMARK  0 active torsions:
REMARK  status: ('A' for Active; 'I' for Inactive)
ROOT
ATOM      1  C   UNL d   1      -5.244   4.781   1.451  0.00  0.00     0.020 A 
ATOM      2  C1  UNL d   1      -5.698   5.957   2.047  0.00  0.00     0.020 A 
ATOM      3  C2  UNL d   1      -5.925   6.000   3.424  0.00  0.00     0.034 A 
ATOM      4  C3  UNL d   1      -5.699   4.864   4.210  0.00  0.00     0.017 A 
ATOM      5  C4  UNL d   1      -5.243   3.684   3.611  0.00  0.00     0.017 A 
ATOM      6  C5  UNL d   1      -5.018   3.647   2.232  0.00  0.00     0.034 A 
ATOM      7 Cl   UNL d   1      -4.941   2.242   4.515  0.00  0.00    -0.070 Cl
ATOM      8 Cl1  UNL d   1      -6.000   4.989   5.907  0.00  0.00    -0.070 Cl
ENDROOT
TORSDOF 0
ENDMDL
