MODEL 1
REMARK minimizedAffinity -2.68187904
REMARK minimizedRMSD -1
REMARK  0 active torsions:
REMARK  status: ('A' for Active; 'I' for Inactive)
ROOT
ATOM      1  C   UNL d   1      -5.981   4.760   2.086  0.00  0.00     0.020 A 
ATOM      2  C1  UNL d   1      -5.990   3.366   2.056  0.00  0.00     0.020 A 
ATOM      3  C2  UNL d   1      -5.985   2.642   3.250  0.00  0.00     0.034 A 
ATOM      4  C3  UNL d   1      -5.970   3.311   4.480  0.00  0.00     0.017 A 
ATOM      5  C4  UNL d   1      -5.961   4.711   4.509  0.00  0.00     0.017 A 
ATOM      6  C5  UNL d   1      -5.966   5.431   3.310  0.00  0.00     0.034 A 
ATOM      7 Cl   UNL d   1      -5.943   5.607   5.986  0.00  0.00    -0.070 Cl
ATOM      8 Cl1  UNL d   1      -5.965   2.352   5.917  0.00  0.00    -0.070 Cl
ENDROOT
TORSDOF 0
ENDMDL
