MODEL 1
REMARK minimizedAffinity -3.30779576
REMARK minimizedRMSD -1
REMARK  0 active torsions:
REMARK  status: ('A' for Active; 'I' for Inactive)
ROOT
ATOM      1  C   UNL d   1      -4.192   4.841   1.901  0.00  0.00     0.020 A 
ATOM      2  C1  UNL d   1      -5.460   5.325   2.220  0.00  0.00     0.020 A 
ATOM      3  C2  UNL d   1      -6.000   5.090   3.486  0.00  0.00     0.034 A 
ATOM      4  C3  UNL d   1      -5.271   4.369   4.439  0.00  0.00     0.017 A 
ATOM      5  C4  UNL d   1      -3.998   3.883   4.119  0.00  0.00     0.017 A 
ATOM      6  C5  UNL d   1      -3.463   4.122   2.849  0.00  0.00     0.034 A 
ATOM      7 Cl   UNL d   1      -3.039   2.986   5.242  0.00  0.00    -0.070 Cl
ATOM      8 Cl1  UNL d   1      -6.000   4.116   5.985  0.00  0.00    -0.070 Cl
ENDROOT
TORSDOF 0
ENDMDL
