MODEL 1
REMARK minimizedAffinity -2.07656074
REMARK minimizedRMSD -1
REMARK  0 active torsions:
REMARK  status: ('A' for Active; 'I' for Inactive)
ROOT
ATOM      1  C   UNL d   1      -5.628   4.738   3.379  0.00  0.00     0.020 A 
ATOM      2  C1  UNL d   1      -6.000   5.820   2.581  0.00  0.00     0.020 A 
ATOM      3  C2  UNL d   1      -5.998   5.696   1.190  0.00  0.00     0.034 A 
ATOM      4  C3  UNL d   1      -5.623   4.487   0.592  0.00  0.00     0.017 A 
ATOM      5  C4  UNL d   1      -5.250   3.401   1.393  0.00  0.00     0.017 A 
ATOM      6  C5  UNL d   1      -5.254   3.531   2.786  0.00  0.00     0.034 A 
ATOM      7 Cl   UNL d   1      -4.776   1.878   0.728  0.00  0.00    -0.070 Cl
ATOM      8 Cl1  UNL d   1      -5.644   4.404  -1.133  0.00  0.00    -0.070 Cl
ENDROOT
TORSDOF 0
ENDMDL
