MODEL 1
REMARK minimizedAffinity 2.97276068
REMARK minimizedRMSD -1
REMARK  2 active torsions:
REMARK  status: ('A' for Active; 'I' for Inactive)
REMARK    1  A    between atoms: C1_2  and  C2_3 
REMARK    2  A    between atoms: C2_3  and  C3_4 
ROOT
ATOM      1  C3  UNL d   1       3.444  -5.998  -3.060  0.00  0.00    -0.075 A 
ATOM      2  C4  UNL d   1       4.846  -6.000  -3.037  0.00  0.00     0.002 A 
ATOM      3  C5  UNL d   1       5.574  -5.980  -4.228  0.00  0.00     0.002 A 
ATOM      4  C6  UNL d   1       4.911  -5.969  -5.453  0.00  0.00    -0.004 A 
ATOM      5  C7  UNL d   1       3.518  -5.984  -5.487  0.00  0.00     0.002 A 
ATOM      6  C8  UNL d   1       2.787  -5.999  -4.298  0.00  0.00     0.002 A 
ENDROOT
BRANCH   1   7
ATOM      7  C2  UNL d   1       2.650  -5.989  -1.775  0.00  0.00     0.056 C 
BRANCH   7   8
ATOM      8  C1  UNL d   1       3.407  -5.401  -0.579  0.00  0.00     0.007 C 
ATOM      9  C   UNL d   1       2.950  -5.969   0.758  0.00  0.00     0.009 C 
ENDBRANCH   7   8
ENDBRANCH   1   7
TORSDOF 2
ENDMDL
