MODEL 1
REMARK minimizedAffinity -0.280953944
REMARK minimizedRMSD -1
REMARK  2 active torsions:
REMARK  status: ('A' for Active; 'I' for Inactive)
REMARK    1  A    between atoms: C1_2  and  C2_3 
REMARK    2  A    between atoms: C2_3  and  C3_4 
ROOT
ATOM      1  C3  UNL d   1       2.785  -5.304   1.802  0.00  0.00    -0.075 A 
ATOM      2  C4  UNL d   1       3.185  -5.885   3.014  0.00  0.00     0.002 A 
ATOM      3  C5  UNL d   1       2.915  -5.250   4.227  0.00  0.00     0.002 A 
ATOM      4  C6  UNL d   1       2.252  -4.025   4.242  0.00  0.00    -0.004 A 
ATOM      5  C7  UNL d   1       1.864  -3.431   3.043  0.00  0.00     0.002 A 
ATOM      6  C8  UNL d   1       2.130  -4.066   1.829  0.00  0.00     0.002 A 
ENDROOT
BRANCH   1   7
ATOM      7  C2  UNL d   1       3.049  -6.000   0.488  0.00  0.00     0.056 C 
BRANCH   7   8
ATOM      8  C1  UNL d   1       4.522  -5.999   0.066  0.00  0.00     0.007 C 
ATOM      9  C   UNL d   1       4.714  -5.994  -1.445  0.00  0.00     0.009 C 
ENDBRANCH   7   8
ENDBRANCH   1   7
TORSDOF 2
ENDMDL
