MODEL 1
REMARK minimizedAffinity -1.28574693
REMARK minimizedRMSD -1
REMARK  2 active torsions:
REMARK  status: ('A' for Active; 'I' for Inactive)
REMARK    1  A    between atoms: C1_2  and  C2_3 
REMARK    2  A    between atoms: C2_3  and  C3_4 
ROOT
ATOM      1  C3  UNL d   1       3.573  -5.938  -3.492  0.00  0.00    -0.075 A 
ATOM      2  C4  UNL d   1       4.973  -5.898  -3.555  0.00  0.00     0.002 A 
ATOM      3  C5  UNL d   1       5.625  -5.817  -4.786  0.00  0.00     0.002 A 
ATOM      4  C6  UNL d   1       4.887  -5.787  -5.967  0.00  0.00    -0.004 A 
ATOM      5  C7  UNL d   1       3.496  -5.844  -5.917  0.00  0.00     0.002 A 
ATOM      6  C8  UNL d   1       2.841  -5.920  -4.686  0.00  0.00     0.002 A 
ENDROOT
BRANCH   1   7
ATOM      7  C2  UNL d   1       2.861  -5.996  -2.161  0.00  0.00     0.056 C 
BRANCH   7   8
ATOM      8  C1  UNL d   1       3.801  -5.998  -0.951  0.00  0.00     0.007 C 
ATOM      9  C   UNL d   1       3.063  -5.998   0.382  0.00  0.00     0.009 C 
ENDBRANCH   7   8
ENDBRANCH   1   7
TORSDOF 2
ENDMDL
