MODEL 1
REMARK minimizedAffinity 2.59387088
REMARK minimizedRMSD -1
REMARK  2 active torsions:
REMARK  status: ('A' for Active; 'I' for Inactive)
REMARK    1  A    between atoms: C1_2  and  C2_3 
REMARK    2  A    between atoms: C2_3  and  C3_4 
ROOT
ATOM      1  C3  UNL d   1       4.106  -5.790  -2.884  0.00  0.00    -0.075 A 
ATOM      2  C4  UNL d   1       5.453  -5.792  -3.274  0.00  0.00     0.002 A 
ATOM      3  C5  UNL d   1       5.799  -5.883  -4.622  0.00  0.00     0.002 A 
ATOM      4  C6  UNL d   1       4.807  -5.984  -5.595  0.00  0.00    -0.004 A 
ATOM      5  C7  UNL d   1       3.466  -6.000  -5.217  0.00  0.00     0.002 A 
ATOM      6  C8  UNL d   1       3.116  -5.904  -3.869  0.00  0.00     0.002 A 
ENDROOT
BRANCH   1   7
ATOM      7  C2  UNL d   1       3.723  -5.662  -1.428  0.00  0.00     0.056 C 
BRANCH   7   8
ATOM      8  C1  UNL d   1       2.257  -5.997  -1.137  0.00  0.00     0.007 C 
ATOM      9  C   UNL d   1       1.885  -5.838   0.331  0.00  0.00     0.009 C 
ENDBRANCH   7   8
ENDBRANCH   1   7
TORSDOF 2
ENDMDL
