MODEL 1
REMARK minimizedAffinity -0.716047645
REMARK minimizedRMSD -1
REMARK  2 active torsions:
REMARK  status: ('A' for Active; 'I' for Inactive)
REMARK    1  A    between atoms: C1_2  and  C2_3 
REMARK    2  A    between atoms: C2_3  and  C3_4 
ROOT
ATOM      1  C3  UNL d   1       3.902  -5.765  -3.335  0.00  0.00    -0.075 A 
ATOM      2  C4  UNL d   1       4.827  -5.762  -4.389  0.00  0.00     0.002 A 
ATOM      3  C5  UNL d   1       4.394  -5.863  -5.712  0.00  0.00     0.002 A 
ATOM      4  C6  UNL d   1       3.036  -5.979  -5.997  0.00  0.00    -0.004 A 
ATOM      5  C7  UNL d   1       2.109  -6.000  -4.957  0.00  0.00     0.002 A 
ATOM      6  C8  UNL d   1       2.538  -5.894  -3.633  0.00  0.00     0.002 A 
ENDROOT
BRANCH   1   7
ATOM      7  C2  UNL d   1       4.361  -5.626  -1.904  0.00  0.00     0.056 C 
BRANCH   7   8
ATOM      8  C1  UNL d   1       3.295  -6.000  -0.868  0.00  0.00     0.007 C 
ATOM      9  C   UNL d   1       3.817  -5.985   0.563  0.00  0.00     0.009 C 
ENDBRANCH   7   8
ENDBRANCH   1   7
TORSDOF 2
ENDMDL
