MODEL 1
REMARK minimizedAffinity 4.55769348
REMARK minimizedRMSD -1
REMARK  2 active torsions:
REMARK  status: ('A' for Active; 'I' for Inactive)
REMARK    1  A    between atoms: C1_2  and  C2_3 
REMARK    2  A    between atoms: C2_3  and  C3_4 
ROOT
ATOM      1  C3  UNL d   1       2.907  -5.932  -3.234  0.00  0.00    -0.075 A 
ATOM      2  C4  UNL d   1       4.211  -5.989  -3.746  0.00  0.00     0.002 A 
ATOM      3  C5  UNL d   1       4.437  -5.907  -5.120  0.00  0.00     0.002 A 
ATOM      4  C6  UNL d   1       3.364  -5.778  -5.999  0.00  0.00    -0.004 A 
ATOM      5  C7  UNL d   1       2.063  -5.737  -5.503  0.00  0.00     0.002 A 
ATOM      6  C8  UNL d   1       1.834  -5.815  -4.128  0.00  0.00     0.002 A 
ENDROOT
BRANCH   1   7
ATOM      7  C2  UNL d   1       2.657  -5.991  -1.746  0.00  0.00     0.056 C 
BRANCH   7   8
ATOM      8  C1  UNL d   1       3.804  -5.429  -0.899  0.00  0.00     0.007 C 
ATOM      9  C   UNL d   1       3.683  -5.773   0.580  0.00  0.00     0.009 C 
ENDBRANCH   7   8
ENDBRANCH   1   7
TORSDOF 2
ENDMDL
