MODEL 1
REMARK minimizedAffinity 0.628958225
REMARK minimizedRMSD -1
REMARK  2 active torsions:
REMARK  status: ('A' for Active; 'I' for Inactive)
REMARK    1  A    between atoms: C1_2  and  C2_3 
REMARK    2  A    between atoms: C2_3  and  C3_4 
ROOT
ATOM      1  C3  UNL d   1       2.829  -5.989  -3.120  0.00  0.00    -0.075 A 
ATOM      2  C4  UNL d   1       4.193  -6.000  -3.443  0.00  0.00     0.002 A 
ATOM      3  C5  UNL d   1       4.606  -5.997  -4.776  0.00  0.00     0.002 A 
ATOM      4  C6  UNL d   1       3.662  -5.994  -5.800  0.00  0.00    -0.004 A 
ATOM      5  C7  UNL d   1       2.304  -6.000  -5.491  0.00  0.00     0.002 A 
ATOM      6  C8  UNL d   1       1.888  -5.998  -4.159  0.00  0.00     0.002 A 
ENDROOT
BRANCH   1   7
ATOM      7  C2  UNL d   1       2.376  -5.962  -1.680  0.00  0.00     0.056 C 
BRANCH   7   8
ATOM      8  C1  UNL d   1       3.371  -5.293  -0.726  0.00  0.00     0.007 C 
ATOM      9  C   UNL d   1       3.460  -5.982   0.629  0.00  0.00     0.009 C 
ENDBRANCH   7   8
ENDBRANCH   1   7
TORSDOF 2
ENDMDL
