MODEL 1
REMARK minimizedAffinity 0.664833426
REMARK minimizedRMSD -1
REMARK  2 active torsions:
REMARK  status: ('A' for Active; 'I' for Inactive)
REMARK    1  A    between atoms: C1_2  and  C2_3 
REMARK    2  A    between atoms: C2_3  and  C3_4 
ROOT
ATOM      1  C3  UNL d   1       3.246  -5.927  -2.063  0.00  0.00    -0.075 A 
ATOM      2  C4  UNL d   1       4.323  -5.887  -1.166  0.00  0.00     0.002 A 
ATOM      3  C5  UNL d   1       4.099  -5.905   0.211  0.00  0.00     0.002 A 
ATOM      4  C6  UNL d   1       2.798  -5.953   0.707  0.00  0.00    -0.004 A 
ATOM      5  C7  UNL d   1       1.720  -5.976  -0.175  0.00  0.00     0.002 A 
ATOM      6  C8  UNL d   1       1.942  -5.962  -1.553  0.00  0.00     0.002 A 
ENDROOT
BRANCH   1   7
ATOM      7  C2  UNL d   1       3.483  -5.937  -3.555  0.00  0.00     0.056 C 
BRANCH   7   8
ATOM      8  C1  UNL d   1       2.200  -5.989  -4.390  0.00  0.00     0.007 C 
ATOM      9  C   UNL d   1       2.460  -5.998  -5.890  0.00  0.00     0.009 C 
ENDBRANCH   7   8
ENDBRANCH   1   7
TORSDOF 2
ENDMDL
