MODEL 1
REMARK minimizedAffinity -4.06117058
REMARK minimizedRMSD -1
REMARK  0 active torsions:
REMARK  status: ('A' for Active; 'I' for Inactive)
ROOT
ATOM      1  C2' OXE d   1       1.121  -0.769  -1.176  0.00  0.00     0.078 C 
ATOM      2  C1' OXE d   1       2.142  -0.284   1.394  0.00  0.00     0.078 C 
ATOM      3  C1  OXE d   1       0.731   0.161   1.102  0.00  0.00    -0.078 A 
ATOM      4  C2  OXE d   1       0.256  -0.038  -0.172  0.00  0.00    -0.078 A 
ATOM      5  C3  OXE d   1      -1.058   0.304  -0.479  0.00  0.00     0.003 A 
ATOM      6  C4  OXE d   1      -1.849   0.988   0.452  0.00  0.00    -0.002 A 
ATOM      7  C5  OXE d   1      -1.370   1.237   1.743  0.00  0.00    -0.002 A 
ATOM      8  C6  OXE d   1      -0.101   0.793   2.096  0.00  0.00     0.003 A 
ENDROOT
TORSDOF 0
ENDMDL
