MODEL 1
REMARK minimizedAffinity -4.38867569
REMARK minimizedRMSD -1
REMARK  0 active torsions:
REMARK  status: ('A' for Active; 'I' for Inactive)
ROOT
ATOM      1  C2' OXE d   1       2.114   0.430   2.037  0.00  0.00     0.078 C 
ATOM      2  C1' OXE d   1      -0.511   1.250   2.599  0.00  0.00     0.078 C 
ATOM      3  C1  OXE d   1      -0.251   0.585   1.270  0.00  0.00    -0.078 A 
ATOM      4  C2  OXE d   1       1.045   0.230   0.984  0.00  0.00    -0.078 A 
ATOM      5  C3  OXE d   1       1.331  -0.436  -0.204  0.00  0.00     0.003 A 
ATOM      6  C4  OXE d   1       0.338  -0.609  -1.176  0.00  0.00    -0.002 A 
ATOM      7  C5  OXE d   1      -0.981  -0.218  -0.922  0.00  0.00    -0.002 A 
ATOM      8  C6  OXE d   1      -1.300   0.341   0.311  0.00  0.00     0.003 A 
ENDROOT
TORSDOF 0
ENDMDL
