MODEL 1
REMARK minimizedAffinity -5.46012497
REMARK minimizedRMSD -1
REMARK  0 active torsions:
REMARK  status: ('A' for Active; 'I' for Inactive)
ROOT
ATOM      1  C2' OXE d   1       0.641  -0.383  -0.761  0.00  0.00     0.078 C 
ATOM      2  C1' OXE d   1       1.989  -0.404   1.701  0.00  0.00     0.078 C 
ATOM      3  C1  OXE d   1       0.541   0.015   1.696  0.00  0.00    -0.078 A 
ATOM      4  C2  OXE d   1      -0.098   0.067   0.481  0.00  0.00    -0.078 A 
ATOM      5  C3  OXE d   1      -1.450   0.395   0.425  0.00  0.00     0.003 A 
ATOM      6  C4  OXE d   1      -2.123   0.820   1.577  0.00  0.00    -0.002 A 
ATOM      7  C5  OXE d   1      -1.480   0.813   2.819  0.00  0.00    -0.002 A 
ATOM      8  C6  OXE d   1      -0.164   0.373   2.902  0.00  0.00     0.003 A 
ENDROOT
TORSDOF 0
ENDMDL
