MODEL 1
REMARK minimizedAffinity -3.7689755
REMARK minimizedRMSD -1
REMARK  0 active torsions:
REMARK  status: ('A' for Active; 'I' for Inactive)
ROOT
ATOM      1  C2' OXE d   1       0.078  -0.620  -1.259  0.00  0.00     0.078 C 
ATOM      2  C1' OXE d   1      -2.592   0.044  -0.702  0.00  0.00     0.078 C 
ATOM      3  C1  OXE d   1      -1.569   0.271   0.384  0.00  0.00    -0.078 A 
ATOM      4  C2  OXE d   1      -0.273  -0.101   0.118  0.00  0.00    -0.078 A 
ATOM      5  C3  OXE d   1       0.720   0.137   1.065  0.00  0.00     0.003 A 
ATOM      6  C4  OXE d   1       0.385   0.608   2.340  0.00  0.00    -0.002 A 
ATOM      7  C5  OXE d   1      -0.936   0.956   2.645  0.00  0.00    -0.002 A 
ATOM      8  C6  OXE d   1      -1.915   0.833   1.666  0.00  0.00     0.003 A 
ENDROOT
TORSDOF 0
ENDMDL
