MODEL 1
REMARK minimizedAffinity -4.42656946
REMARK minimizedRMSD -1
REMARK  0 active torsions:
REMARK  status: ('A' for Active; 'I' for Inactive)
ROOT
ATOM      1  C2' OXE d   1       0.796  -0.372  -1.109  0.00  0.00     0.078 C 
ATOM      2  C1' OXE d   1       1.932  -0.067   1.440  0.00  0.00     0.078 C 
ATOM      3  C1  OXE d   1       0.519   0.421   1.236  0.00  0.00    -0.078 A 
ATOM      4  C2  OXE d   1      -0.012   0.311  -0.026  0.00  0.00    -0.078 A 
ATOM      5  C3  OXE d   1      -1.330   0.695  -0.256  0.00  0.00     0.003 A 
ATOM      6  C4  OXE d   1      -2.067   1.335   0.748  0.00  0.00    -0.002 A 
ATOM      7  C5  OXE d   1      -1.530   1.494   2.031  0.00  0.00    -0.002 A 
ATOM      8  C6  OXE d   1      -0.257   1.005   2.302  0.00  0.00     0.003 A 
ENDROOT
TORSDOF 0
ENDMDL
