MODEL 1
REMARK minimizedAffinity -1.84527886
REMARK minimizedRMSD -1
REMARK  0 active torsions:
REMARK  status: ('A' for Active; 'I' for Inactive)
ROOT
ATOM      1  C2' OXE d   1      -1.577  -0.990  -0.548  0.00  0.00     0.078 C 
ATOM      2  C1' OXE d   1       0.426   0.445   0.796  0.00  0.00     0.078 C 
ATOM      3  C1  OXE d   1       0.613   0.190  -0.678  0.00  0.00    -0.078 A 
ATOM      4  C2  OXE d   1      -0.350  -0.553  -1.318  0.00  0.00    -0.078 A 
ATOM      5  C3  OXE d   1      -0.253  -0.771  -2.690  0.00  0.00     0.003 A 
ATOM      6  C4  OXE d   1       0.890  -0.372  -3.393  0.00  0.00    -0.002 A 
ATOM      7  C5  OXE d   1       1.901   0.352  -2.751  0.00  0.00    -0.002 A 
ATOM      8  C6  OXE d   1       1.758   0.678  -1.407  0.00  0.00     0.003 A 
ENDROOT
TORSDOF 0
ENDMDL
