MODEL 1
REMARK minimizedAffinity -3.97585058
REMARK minimizedRMSD -1
REMARK  0 active torsions:
REMARK  status: ('A' for Active; 'I' for Inactive)
ROOT
ATOM      1  C2' OXE d   1       0.590  -0.741  -0.376  0.00  0.00     0.078 C 
ATOM      2  C1' OXE d   1       2.182   0.165   1.751  0.00  0.00     0.078 C 
ATOM      3  C1  OXE d   1       0.698   0.427   1.821  0.00  0.00    -0.078 A 
ATOM      4  C2  OXE d   1      -0.067   0.022   0.754  0.00  0.00    -0.078 A 
ATOM      5  C3  OXE d   1      -1.448   0.190   0.793  0.00  0.00     0.003 A 
ATOM      6  C4  OXE d   1      -2.046   0.905   1.837  0.00  0.00    -0.002 A 
ATOM      7  C5  OXE d   1      -1.280   1.361   2.915  0.00  0.00    -0.002 A 
ATOM      8  C6  OXE d   1       0.085   1.094   2.943  0.00  0.00     0.003 A 
ENDROOT
TORSDOF 0
ENDMDL
