MODEL 1
REMARK minimizedAffinity -4.20181084
REMARK minimizedRMSD -1
REMARK  0 active torsions:
REMARK  status: ('A' for Active; 'I' for Inactive)
ROOT
ATOM      1  C2' OXE d   1      -0.592   1.407   2.756  0.00  0.00     0.078 C 
ATOM      2  C1' OXE d   1       1.870   0.357   1.910  0.00  0.00     0.078 C 
ATOM      3  C1  OXE d   1       0.681   0.185   0.998  0.00  0.00    -0.078 A 
ATOM      4  C2  OXE d   1      -0.529   0.660   1.441  0.00  0.00    -0.078 A 
ATOM      5  C3  OXE d   1      -1.647   0.576   0.615  0.00  0.00     0.003 A 
ATOM      6  C4  OXE d   1      -1.583  -0.125  -0.595  0.00  0.00    -0.002 A 
ATOM      7  C5  OXE d   1      -0.368  -0.652  -1.046  0.00  0.00    -0.002 A 
ATOM      8  C6  OXE d   1       0.780  -0.469  -0.283  0.00  0.00     0.003 A 
ENDROOT
TORSDOF 0
ENDMDL
