MODEL 1
REMARK minimizedAffinity 9.84218693
REMARK minimizedRMSD -1
REMARK  0 active torsions:
REMARK  status: ('A' for Active; 'I' for Inactive)
ROOT
ATOM      1  C2' OXE d   1      -2.558   1.118  -0.790  0.00  0.00     0.078 C 
ATOM      2  C1' OXE d   1      -3.514  -1.517  -0.636  0.00  0.00     0.078 C 
ATOM      3  C1  OXE d   1      -3.177  -0.814   0.656  0.00  0.00    -0.078 A 
ATOM      4  C2  OXE d   1      -2.666   0.458   0.568  0.00  0.00    -0.078 A 
ATOM      5  C3  OXE d   1      -2.390   1.172   1.731  0.00  0.00     0.003 A 
ATOM      6  C4  OXE d   1      -2.483   0.551   2.982  0.00  0.00    -0.002 A 
ATOM      7  C5  OXE d   1      -2.964  -0.758   3.091  0.00  0.00    -0.002 A 
ATOM      8  C6  OXE d   1      -3.355  -1.439   1.943  0.00  0.00     0.003 A 
ENDROOT
TORSDOF 0
ENDMDL
