MODEL 1
REMARK minimizedAffinity 5.74893713
REMARK minimizedRMSD -1
REMARK  0 active torsions:
REMARK  status: ('A' for Active; 'I' for Inactive)
ROOT
ATOM      1  C2' OXE d   1      -0.087  -0.846   3.927  0.00  0.00     0.078 C 
ATOM      2  C1' OXE d   1       1.420   0.043   1.732  0.00  0.00     0.078 C 
ATOM      3  C1  OXE d   1      -0.068   0.285   1.708  0.00  0.00    -0.078 A 
ATOM      4  C2  OXE d   1      -0.804  -0.195   2.765  0.00  0.00    -0.078 A 
ATOM      5  C3  OXE d   1      -2.173   0.050   2.819  0.00  0.00     0.003 A 
ATOM      6  C4  OXE d   1      -2.831   0.644   1.735  0.00  0.00    -0.002 A 
ATOM      7  C5  OXE d   1      -2.106   1.105   0.631  0.00  0.00    -0.002 A 
ATOM      8  C6  OXE d   1      -0.721   0.972   0.621  0.00  0.00     0.003 A 
ENDROOT
TORSDOF 0
ENDMDL
