MODEL 1
REMARK minimizedAffinity 12.5439625
REMARK minimizedRMSD -1
REMARK  0 active torsions:
REMARK  status: ('A' for Active; 'I' for Inactive)
ROOT
ATOM      1  C2' OXE d   1      -0.279  -0.336  -0.425  0.00  0.00     0.078 C 
ATOM      2  C1' OXE d   1      -0.331   1.881   1.296  0.00  0.00     0.078 C 
ATOM      3  C1  OXE d   1       1.013   1.398   0.811  0.00  0.00    -0.078 A 
ATOM      4  C2  OXE d   1       1.032   0.284   0.007  0.00  0.00    -0.078 A 
ATOM      5  C3  OXE d   1       2.241  -0.170  -0.513  0.00  0.00     0.003 A 
ATOM      6  C4  OXE d   1       3.450   0.404  -0.101  0.00  0.00    -0.002 A 
ATOM      7  C5  OXE d   1       3.455   1.514   0.750  0.00  0.00    -0.002 A 
ATOM      8  C6  OXE d   1       2.246   2.049   1.180  0.00  0.00     0.003 A 
ENDROOT
TORSDOF 0
ENDMDL
