MODEL 1
REMARK minimizedAffinity -0.344290406
REMARK minimizedRMSD -1
REMARK  0 active torsions:
REMARK  status: ('A' for Active; 'I' for Inactive)
ROOT
ATOM      1  C2' OXE d   1       2.033  -1.394   4.164  0.00  0.00     0.078 C 
ATOM      2  C1' OXE d   1       1.332  -0.179   1.732  0.00  0.00     0.078 C 
ATOM      3  C1  OXE d   1       0.221  -0.519   2.695  0.00  0.00    -0.078 A 
ATOM      4  C2  OXE d   1       0.569  -1.156   3.862  0.00  0.00    -0.078 A 
ATOM      5  C3  OXE d   1      -0.410  -1.442   4.808  0.00  0.00     0.003 A 
ATOM      6  C4  OXE d   1      -1.763  -1.228   4.517  0.00  0.00    -0.002 A 
ATOM      7  C5  OXE d   1      -2.142  -0.617   3.317  0.00  0.00    -0.002 A 
ATOM      8  C6  OXE d   1      -1.161  -0.218   2.415  0.00  0.00     0.003 A 
ENDROOT
TORSDOF 0
ENDMDL
