MODEL 1
REMARK minimizedAffinity 0.362205446
REMARK minimizedRMSD -1
REMARK  0 active torsions:
REMARK  status: ('A' for Active; 'I' for Inactive)
ROOT
ATOM      1  C2' OXE d   1       1.732  -1.064   3.873  0.00  0.00     0.078 C 
ATOM      2  C1' OXE d   1       1.411  -0.008   1.292  0.00  0.00     0.078 C 
ATOM      3  C1  OXE d   1       0.169  -0.242   2.116  0.00  0.00    -0.078 A 
ATOM      4  C2  OXE d   1       0.332  -0.803   3.360  0.00  0.00    -0.078 A 
ATOM      5  C3  OXE d   1      -0.775  -0.990   4.182  0.00  0.00     0.003 A 
ATOM      6  C4  OXE d   1      -2.067  -0.755   3.696  0.00  0.00    -0.002 A 
ATOM      7  C5  OXE d   1      -2.258  -0.221   2.417  0.00  0.00    -0.002 A 
ATOM      8  C6  OXE d   1      -1.150   0.080   1.632  0.00  0.00     0.003 A 
ENDROOT
TORSDOF 0
ENDMDL
