MODEL 1
REMARK minimizedAffinity -1.6114589
REMARK minimizedRMSD -1
REMARK  0 active torsions:
REMARK  status: ('A' for Active; 'I' for Inactive)
ROOT
ATOM      1  C2' OXE d   1       1.656  -1.276   3.830  0.00  0.00     0.078 C 
ATOM      2  C1' OXE d   1       1.410  -0.175   1.259  0.00  0.00     0.078 C 
ATOM      3  C1  OXE d   1       0.177  -0.219   2.127  0.00  0.00    -0.078 A 
ATOM      4  C2  OXE d   1       0.296  -0.802   3.365  0.00  0.00    -0.078 A 
ATOM      5  C3  OXE d   1      -0.797  -0.819   4.227  0.00  0.00     0.003 A 
ATOM      6  C4  OXE d   1      -2.054  -0.387   3.786  0.00  0.00    -0.002 A 
ATOM      7  C5  OXE d   1      -2.206   0.173   2.514  0.00  0.00    -0.002 A 
ATOM      8  C6  OXE d   1      -1.094   0.304   1.689  0.00  0.00     0.003 A 
ENDROOT
TORSDOF 0
ENDMDL
