MODEL 1
REMARK minimizedAffinity 1.48053598
REMARK minimizedRMSD -1
REMARK  0 active torsions:
REMARK  status: ('A' for Active; 'I' for Inactive)
ROOT
ATOM      1  C2' OXE d   1      -2.237  -2.734   5.999  0.00  0.00     0.078 C 
ATOM      2  C1' OXE d   1      -0.295  -0.708   5.924  0.00  0.00     0.078 C 
ATOM      3  C1  OXE d   1      -1.292  -0.769   4.794  0.00  0.00    -0.078 A 
ATOM      4  C2  OXE d   1      -2.209  -1.792   4.815  0.00  0.00    -0.078 A 
ATOM      5  C3  OXE d   1      -3.186  -1.863   3.825  0.00  0.00     0.003 A 
ATOM      6  C4  OXE d   1      -3.147  -0.993   2.728  0.00  0.00    -0.002 A 
ATOM      7  C5  OXE d   1      -2.196   0.031   2.667  0.00  0.00    -0.002 A 
ATOM      8  C6  OXE d   1      -1.290   0.183   3.711  0.00  0.00     0.003 A 
ENDROOT
TORSDOF 0
ENDMDL
