MODEL 1
REMARK minimizedAffinity 3.99007773
REMARK minimizedRMSD -1
REMARK  0 active torsions:
REMARK  status: ('A' for Active; 'I' for Inactive)
ROOT
ATOM      1  C2' OXE d   1       0.941   0.198   0.299  0.00  0.00     0.078 C 
ATOM      2  C1' OXE d   1      -1.766   0.713   0.836  0.00  0.00     0.078 C 
ATOM      3  C1  OXE d   1      -0.906   0.218   1.972  0.00  0.00    -0.078 A 
ATOM      4  C2  OXE d   1       0.406  -0.076   1.689  0.00  0.00    -0.078 A 
ATOM      5  C3  OXE d   1       1.257  -0.484   2.712  0.00  0.00     0.003 A 
ATOM      6  C4  OXE d   1       0.753  -0.744   3.992  0.00  0.00    -0.002 A 
ATOM      7  C5  OXE d   1      -0.589  -0.489   4.291  0.00  0.00    -0.002 A 
ATOM      8  C6  OXE d   1      -1.420   0.032   3.306  0.00  0.00     0.003 A 
ENDROOT
TORSDOF 0
ENDMDL
