MODEL 1
REMARK minimizedAffinity -2.12409472
REMARK minimizedRMSD -1
REMARK  0 active torsions:
REMARK  status: ('A' for Active; 'I' for Inactive)
ROOT
ATOM      1  C2' OXE d   1       1.295  -0.884   3.735  0.00  0.00     0.078 C 
ATOM      2  C1' OXE d   1       1.757  -0.281   1.032  0.00  0.00     0.078 C 
ATOM      3  C1  OXE d   1       0.348  -0.142   1.553  0.00  0.00    -0.078 A 
ATOM      4  C2  OXE d   1       0.122  -0.484   2.865  0.00  0.00    -0.078 A 
ATOM      5  C3  OXE d   1      -1.148  -0.323   3.411  0.00  0.00     0.003 A 
ATOM      6  C4  OXE d   1      -2.228   0.038   2.597  0.00  0.00    -0.002 A 
ATOM      7  C5  OXE d   1      -2.028   0.352   1.248  0.00  0.00    -0.002 A 
ATOM      8  C6  OXE d   1      -0.741   0.308   0.722  0.00  0.00     0.003 A 
ENDROOT
TORSDOF 0
ENDMDL
