MODEL 1
REMARK minimizedAffinity 8.21360302
REMARK minimizedRMSD -1
REMARK  0 active torsions:
REMARK  status: ('A' for Active; 'I' for Inactive)
ROOT
ATOM      1  C2' OXE d   1      -4.120   0.270  -1.234  0.00  0.00     0.078 C 
ATOM      2  C1' OXE d   1      -1.488  -0.114  -2.129  0.00  0.00     0.078 C 
ATOM      3  C1  OXE d   1      -1.711   0.041  -0.645  0.00  0.00    -0.078 A 
ATOM      4  C2  OXE d   1      -2.996   0.276  -0.221  0.00  0.00    -0.078 A 
ATOM      5  C3  OXE d   1      -3.265   0.372   1.142  0.00  0.00     0.003 A 
ATOM      6  C4  OXE d   1      -2.219   0.386   2.072  0.00  0.00    -0.002 A 
ATOM      7  C5  OXE d   1      -0.898   0.188   1.657  0.00  0.00    -0.002 A 
ATOM      8  C6  OXE d   1      -0.632  -0.028   0.309  0.00  0.00     0.003 A 
ENDROOT
TORSDOF 0
ENDMDL
