MODEL 1
REMARK minimizedAffinity 2.00487709
REMARK minimizedRMSD -1
REMARK  0 active torsions:
REMARK  status: ('A' for Active; 'I' for Inactive)
ROOT
ATOM      1  C2' OXE d   1      -2.219   0.043   2.638  0.00  0.00     0.078 C 
ATOM      2  C1' OXE d   1       0.262  -1.099   3.287  0.00  0.00     0.078 C 
ATOM      3  C1  OXE d   1       0.077  -0.567   1.888  0.00  0.00    -0.078 A 
ATOM      4  C2  OXE d   1      -1.155  -0.052   1.565  0.00  0.00    -0.078 A 
ATOM      5  C3  OXE d   1      -1.363   0.501   0.305  0.00  0.00     0.003 A 
ATOM      6  C4  OXE d   1      -0.377   0.400  -0.684  0.00  0.00    -0.002 A 
ATOM      7  C5  OXE d   1       0.871  -0.157  -0.388  0.00  0.00    -0.002 A 
ATOM      8  C6  OXE d   1       1.129  -0.605   0.902  0.00  0.00     0.003 A 
ENDROOT
TORSDOF 0
ENDMDL
