MODEL 1
REMARK minimizedAffinity -6.19169092
REMARK minimizedRMSD -1
REMARK  0 active torsions:
REMARK  status: ('A' for Active; 'I' for Inactive)
ROOT
ATOM      1  C   UNL d   1      -0.710   2.883   0.380  0.00  0.00     0.077 C 
ATOM      2  C1  UNL d   1      -0.223   1.465   0.336  0.00  0.00    -0.074 A 
ATOM      3  C2  UNL d   1      -1.118   0.403   0.174  0.00  0.00    -0.005 A 
ATOM      4  C3  UNL d   1      -0.649  -0.910   0.125  0.00  0.00     0.006 A 
ATOM      5  C4  UNL d   1       0.717  -1.173   0.237  0.00  0.00    -0.005 A 
ATOM      6  C5  UNL d   1       1.627  -0.123   0.398  0.00  0.00    -0.074 A 
ATOM      7  C6  UNL d   1       3.099  -0.388   0.510  0.00  0.00     0.077 C 
ATOM      8  C7  UNL d   1       1.149   1.194   0.439  0.00  0.00    -0.001 A 
ENDROOT
TORSDOF 0
ENDMDL
