MODEL 1
REMARK minimizedAffinity -4.90498543
REMARK minimizedRMSD -1
REMARK  0 active torsions:
REMARK  status: ('A' for Active; 'I' for Inactive)
ROOT
ATOM      1  C   UNL d   1      -0.305   3.294   0.371  0.00  0.00     0.077 C 
ATOM      2  C1  UNL d   1      -0.008   1.824   0.352  0.00  0.00    -0.074 A 
ATOM      3  C2  UNL d   1      -1.039   0.884   0.257  0.00  0.00    -0.005 A 
ATOM      4  C3  UNL d   1      -0.747  -0.480   0.231  0.00  0.00     0.006 A 
ATOM      5  C4  UNL d   1       0.577  -0.916   0.299  0.00  0.00    -0.005 A 
ATOM      6  C5  UNL d   1       1.621   0.009   0.393  0.00  0.00    -0.074 A 
ATOM      7  C6  UNL d   1       3.049  -0.443   0.458  0.00  0.00     0.077 C 
ATOM      8  C7  UNL d   1       1.320   1.378   0.412  0.00  0.00    -0.001 A 
ENDROOT
TORSDOF 0
ENDMDL
