MODEL 1
REMARK minimizedAffinity -3.04454494
REMARK minimizedRMSD -1
REMARK  0 active torsions:
REMARK  status: ('A' for Active; 'I' for Inactive)
ROOT
ATOM      1  C   UNL d   1      -1.247  -1.313  -0.162  0.00  0.00     0.077 C 
ATOM      2  C1  UNL d   1      -0.187  -0.345   0.272  0.00  0.00    -0.074 A 
ATOM      3  C2  UNL d   1      -0.491   1.001   0.498  0.00  0.00    -0.005 A 
ATOM      4  C3  UNL d   1       0.504   1.888   0.910  0.00  0.00     0.006 A 
ATOM      5  C4  UNL d   1       1.812   1.438   1.099  0.00  0.00    -0.005 A 
ATOM      6  C5  UNL d   1       2.134   0.095   0.879  0.00  0.00    -0.074 A 
ATOM      7  C6  UNL d   1       3.532  -0.407   1.087  0.00  0.00     0.077 C 
ATOM      8  C7  UNL d   1       1.127  -0.791   0.472  0.00  0.00    -0.001 A 
ENDROOT
TORSDOF 0
ENDMDL
