MODEL 1
REMARK minimizedAffinity -3.84760952
REMARK minimizedRMSD -1
REMARK  0 active torsions:
REMARK  status: ('A' for Active; 'I' for Inactive)
ROOT
ATOM      1  C   UNL d   1      -1.007  -2.194   1.140  0.00  0.00     0.077 C 
ATOM      2  C1  UNL d   1      -0.141  -1.040   0.730  0.00  0.00    -0.074 A 
ATOM      3  C2  UNL d   1      -0.705   0.155   0.272  0.00  0.00    -0.005 A 
ATOM      4  C3  UNL d   1       0.112   1.223  -0.096  0.00  0.00     0.006 A 
ATOM      5  C4  UNL d   1       1.500   1.107  -0.011  0.00  0.00    -0.005 A 
ATOM      6  C5  UNL d   1       2.083  -0.079   0.445  0.00  0.00    -0.074 A 
ATOM      7  C6  UNL d   1       3.572  -0.217   0.552  0.00  0.00     0.077 C 
ATOM      8  C7  UNL d   1       1.254  -1.146   0.820  0.00  0.00    -0.001 A 
ENDROOT
TORSDOF 0
ENDMDL
