MODEL 1
REMARK minimizedAffinity -2.32061553
REMARK minimizedRMSD -1
REMARK  0 active torsions:
REMARK  status: ('A' for Active; 'I' for Inactive)
ROOT
ATOM      1  C   UNL d   1       1.472   0.104  -0.168  0.00  0.00     0.077 C 
ATOM      2  C1  UNL d   1      -0.015   0.086  -0.360  0.00  0.00    -0.074 A 
ATOM      3  C2  UNL d   1      -0.881   0.354   0.705  0.00  0.00    -0.005 A 
ATOM      4  C3  UNL d   1      -2.261   0.343   0.510  0.00  0.00     0.006 A 
ATOM      5  C4  UNL d   1      -2.790   0.063  -0.751  0.00  0.00    -0.005 A 
ATOM      6  C5  UNL d   1      -1.940  -0.207  -1.829  0.00  0.00    -0.074 A 
ATOM      7  C6  UNL d   1      -2.491  -0.499  -3.192  0.00  0.00     0.077 C 
ATOM      8  C7  UNL d   1      -0.553  -0.186  -1.625  0.00  0.00    -0.001 A 
ENDROOT
TORSDOF 0
ENDMDL
