MODEL 1
REMARK minimizedAffinity -5.40942574
REMARK minimizedRMSD -1
REMARK  0 active torsions:
REMARK  status: ('A' for Active; 'I' for Inactive)
ROOT
ATOM      1  C   UNL d   1       4.030  -1.125   1.870  0.00  0.00     0.077 C 
ATOM      2  C1  UNL d   1       2.985  -0.342   1.132  0.00  0.00    -0.074 A 
ATOM      3  C2  UNL d   1       2.634   0.949   1.539  0.00  0.00    -0.005 A 
ATOM      4  C3  UNL d   1       1.667   1.669   0.837  0.00  0.00     0.006 A 
ATOM      5  C4  UNL d   1       1.042   1.106  -0.276  0.00  0.00    -0.005 A 
ATOM      6  C5  UNL d   1       1.381  -0.184  -0.698  0.00  0.00    -0.074 A 
ATOM      7  C6  UNL d   1       0.727  -0.800  -1.899  0.00  0.00     0.077 C 
ATOM      8  C7  UNL d   1       2.359  -0.898   0.008  0.00  0.00    -0.001 A 
ENDROOT
TORSDOF 0
ENDMDL
