MODEL 1
REMARK minimizedAffinity -2.37076402
REMARK minimizedRMSD -1
REMARK  0 active torsions:
REMARK  status: ('A' for Active; 'I' for Inactive)
ROOT
ATOM      1  C   UNL d   1      -1.026  -2.655   1.248  0.00  0.00     0.077 C 
ATOM      2  C1  UNL d   1      -0.216  -1.516   0.706  0.00  0.00    -0.074 A 
ATOM      3  C2  UNL d   1      -0.791  -0.563  -0.140  0.00  0.00    -0.005 A 
ATOM      4  C3  UNL d   1      -0.027   0.497  -0.629  0.00  0.00     0.006 A 
ATOM      5  C4  UNL d   1       1.318   0.613  -0.277  0.00  0.00    -0.005 A 
ATOM      6  C5  UNL d   1       1.911  -0.330   0.569  0.00  0.00    -0.074 A 
ATOM      7  C6  UNL d   1       3.353  -0.213   0.965  0.00  0.00     0.077 C 
ATOM      8  C7  UNL d   1       1.134  -1.387   1.061  0.00  0.00    -0.001 A 
ENDROOT
TORSDOF 0
ENDMDL
