MODEL 1
REMARK minimizedAffinity -3.99579024
REMARK minimizedRMSD -1
REMARK  0 active torsions:
REMARK  status: ('A' for Active; 'I' for Inactive)
ROOT
ATOM      1  C   UNL d   1       3.409  -0.278   0.764  0.00  0.00     0.077 C 
ATOM      2  C1  UNL d   1       2.101   0.372   0.424  0.00  0.00    -0.074 A 
ATOM      3  C2  UNL d   1       2.040   1.725   0.074  0.00  0.00    -0.005 A 
ATOM      4  C3  UNL d   1       0.817   2.313  -0.249  0.00  0.00     0.006 A 
ATOM      5  C4  UNL d   1      -0.355   1.556  -0.224  0.00  0.00    -0.005 A 
ATOM      6  C5  UNL d   1      -0.313   0.202   0.122  0.00  0.00    -0.074 A 
ATOM      7  C6  UNL d   1      -1.562  -0.628   0.144  0.00  0.00     0.077 C 
ATOM      8  C7  UNL d   1       0.920  -0.384   0.438  0.00  0.00    -0.001 A 
ENDROOT
TORSDOF 0
ENDMDL
