MODEL 1
REMARK minimizedAffinity -3.53072715
REMARK minimizedRMSD -1
REMARK  0 active torsions:
REMARK  status: ('A' for Active; 'I' for Inactive)
ROOT
ATOM      1  C   UNL d   1      -1.174  -1.889   0.602  0.00  0.00     0.077 C 
ATOM      2  C1  UNL d   1      -0.204  -0.749   0.512  0.00  0.00    -0.074 A 
ATOM      3  C2  UNL d   1      -0.654   0.569   0.382  0.00  0.00    -0.005 A 
ATOM      4  C3  UNL d   1       0.260   1.620   0.309  0.00  0.00     0.006 A 
ATOM      5  C4  UNL d   1       1.631   1.365   0.365  0.00  0.00    -0.005 A 
ATOM      6  C5  UNL d   1       2.099   0.054   0.496  0.00  0.00    -0.074 A 
ATOM      7  C6  UNL d   1       3.569  -0.237   0.568  0.00  0.00     0.077 C 
ATOM      8  C7  UNL d   1       1.175  -0.996   0.576  0.00  0.00    -0.001 A 
ENDROOT
TORSDOF 0
ENDMDL
