MODEL 1
REMARK minimizedAffinity -2.11117864
REMARK minimizedRMSD -1
REMARK  1 active torsions:
REMARK  status: ('A' for Active; 'I' for Inactive)
REMARK    1  A    between atoms: C1_2  and  C2_3 
ROOT
ATOM      1  C2  UNL d   1       1.835   1.724   0.169  0.00  0.00    -0.073 A 
ATOM      2  C3  UNL d   1       1.127   2.391  -0.838  0.00  0.00    -0.002 A 
ATOM      3  C4  UNL d   1       1.592   3.608  -1.339  0.00  0.00     0.004 A 
ATOM      4  C5  UNL d   1       2.771   4.165  -0.844  0.00  0.00    -0.004 A 
ATOM      5  C6  UNL d   1       3.499   3.508   0.153  0.00  0.00    -0.075 A 
ATOM      6  C7  UNL d   1       4.768   4.096   0.697  0.00  0.00     0.076 C 
ATOM      7  C8  UNL d   1       3.024   2.288   0.653  0.00  0.00     0.001 A 
ENDROOT
BRANCH   1   8
ATOM      8  C1  UNL d   1       1.340   0.407   0.708  0.00  0.00     0.053 C 
ATOM      9  C   UNL d   1       0.047  -0.033   0.040  0.00  0.00     0.018 C 
ENDBRANCH   1   8
TORSDOF 1
ENDMDL
