MODEL 1
REMARK minimizedAffinity -2.63097858
REMARK minimizedRMSD -1
REMARK  1 active torsions:
REMARK  status: ('A' for Active; 'I' for Inactive)
REMARK    1  A    between atoms: C1_2  and  C2_3 
ROOT
ATOM      1  C2  UNL d   1       1.668  -0.818  -3.970  0.00  0.00    -0.073 A 
ATOM      2  C3  UNL d   1       1.693  -2.064  -3.332  0.00  0.00    -0.002 A 
ATOM      3  C4  UNL d   1       0.594  -2.920  -3.414  0.00  0.00     0.004 A 
ATOM      4  C5  UNL d   1      -0.536  -2.544  -4.139  0.00  0.00    -0.004 A 
ATOM      5  C6  UNL d   1      -0.576  -1.309  -4.793  0.00  0.00    -0.075 A 
ATOM      6  C7  UNL d   1      -1.786  -0.889  -5.575  0.00  0.00     0.076 C 
ATOM      7  C8  UNL d   1       0.530  -0.453  -4.704  0.00  0.00     0.001 A 
ENDROOT
BRANCH   1   8
ATOM      8  C1  UNL d   1       2.854   0.107  -3.890  0.00  0.00     0.053 C 
ATOM      9  C   UNL d   1       4.040  -0.417  -4.684  0.00  0.00     0.018 C 
ENDBRANCH   1   8
TORSDOF 1
ENDMDL
