MODEL 1
REMARK minimizedAffinity -2.62449813
REMARK minimizedRMSD -1
REMARK  1 active torsions:
REMARK  status: ('A' for Active; 'I' for Inactive)
REMARK    1  A    between atoms: C1_2  and  C2_3 
ROOT
ATOM      1  C2  UNL d   1       1.966   1.918  -0.047  0.00  0.00    -0.073 A 
ATOM      2  C3  UNL d   1       2.924   1.316   0.777  0.00  0.00    -0.002 A 
ATOM      3  C4  UNL d   1       2.582   0.222   1.572  0.00  0.00     0.004 A 
ATOM      4  C5  UNL d   1       1.283  -0.286   1.546  0.00  0.00    -0.004 A 
ATOM      5  C6  UNL d   1       0.315   0.294   0.721  0.00  0.00    -0.075 A 
ATOM      6  C7  UNL d   1      -1.087  -0.239   0.684  0.00  0.00     0.076 C 
ATOM      7  C8  UNL d   1       0.665   1.395  -0.072  0.00  0.00     0.001 A 
ENDROOT
BRANCH   1   8
ATOM      8  C1  UNL d   1       2.332   3.097  -0.912  0.00  0.00     0.053 C 
ATOM      9  C   UNL d   1       3.318   4.026  -0.222  0.00  0.00     0.018 C 
ENDBRANCH   1   8
TORSDOF 1
ENDMDL
