MODEL 1
REMARK minimizedAffinity 0.108074844
REMARK minimizedRMSD -1
REMARK  1 active torsions:
REMARK  status: ('A' for Active; 'I' for Inactive)
REMARK    1  A    between atoms: C1_2  and  C2_3 
ROOT
ATOM      1  C2  UNL d   1       2.161  -0.306  -2.022  0.00  0.00    -0.073 A 
ATOM      2  C3  UNL d   1       3.531  -0.511  -2.222  0.00  0.00    -0.002 A 
ATOM      3  C4  UNL d   1       3.991  -1.710  -2.769  0.00  0.00     0.004 A 
ATOM      4  C5  UNL d   1       3.088  -2.710  -3.128  0.00  0.00    -0.004 A 
ATOM      5  C6  UNL d   1       1.714  -2.519  -2.947  0.00  0.00    -0.075 A 
ATOM      6  C7  UNL d   1       0.730  -3.586  -3.326  0.00  0.00     0.076 C 
ATOM      7  C8  UNL d   1       1.260  -1.314  -2.394  0.00  0.00     0.001 A 
ENDROOT
BRANCH   1   8
ATOM      8  C1  UNL d   1       1.659   0.989  -1.437  0.00  0.00     0.053 C 
ATOM      9  C   UNL d   1       2.568   1.507  -0.334  0.00  0.00     0.018 C 
ENDBRANCH   1   8
TORSDOF 1
ENDMDL
