MODEL 1
REMARK minimizedAffinity 1.8028779
REMARK minimizedRMSD -1
REMARK  1 active torsions:
REMARK  status: ('A' for Active; 'I' for Inactive)
REMARK    1  A    between atoms: C1_2  and  C2_3 
ROOT
ATOM      1  C2  UNL d   1       1.923  -0.147  -2.272  0.00  0.00    -0.073 A 
ATOM      2  C3  UNL d   1       1.175  -0.239  -1.093  0.00  0.00    -0.002 A 
ATOM      3  C4  UNL d   1       0.537  -1.433  -0.755  0.00  0.00     0.004 A 
ATOM      4  C5  UNL d   1       0.645  -2.547  -1.586  0.00  0.00    -0.004 A 
ATOM      5  C6  UNL d   1       1.398  -2.478  -2.763  0.00  0.00    -0.075 A 
ATOM      6  C7  UNL d   1       1.523  -3.667  -3.670  0.00  0.00     0.076 C 
ATOM      7  C8  UNL d   1       2.034  -1.275  -3.098  0.00  0.00     0.001 A 
ENDROOT
BRANCH   1   8
ATOM      8  C1  UNL d   1       2.619   1.139  -2.639  0.00  0.00     0.053 C 
ATOM      9  C   UNL d   1       2.256   2.273  -1.694  0.00  0.00     0.018 C 
ENDBRANCH   1   8
TORSDOF 1
ENDMDL
