MODEL 1
REMARK minimizedAffinity 1.59309506
REMARK minimizedRMSD -1
REMARK  1 active torsions:
REMARK  status: ('A' for Active; 'I' for Inactive)
REMARK    1  A    between atoms: C1_2  and  C2_3 
ROOT
ATOM      1  C2  UNL d   1      -4.783   2.373   3.599  0.00  0.00    -0.073 A 
ATOM      2  C3  UNL d   1      -4.869   1.832   4.886  0.00  0.00    -0.002 A 
ATOM      3  C4  UNL d   1      -3.740   1.288   5.499  0.00  0.00     0.004 A 
ATOM      4  C5  UNL d   1      -2.513   1.286   4.836  0.00  0.00    -0.004 A 
ATOM      5  C6  UNL d   1      -2.404   1.833   3.554  0.00  0.00    -0.075 A 
ATOM      6  C7  UNL d   1      -1.092   1.837   2.826  0.00  0.00     0.076 C 
ATOM      7  C8  UNL d   1      -3.543   2.375   2.943  0.00  0.00     0.001 A 
ENDROOT
BRANCH   1   8
ATOM      8  C1  UNL d   1      -5.998   2.968   2.935  0.00  0.00     0.053 C 
ATOM      9  C   UNL d   1      -5.998   4.487   3.001  0.00  0.00     0.018 C 
ENDBRANCH   1   8
TORSDOF 1
ENDMDL
