MODEL 1
REMARK minimizedAffinity 0.798427463
REMARK minimizedRMSD -1
REMARK  1 active torsions:
REMARK  status: ('A' for Active; 'I' for Inactive)
REMARK    1  A    between atoms: C1_2  and  C2_3 
ROOT
ATOM      1  C2  UNL d   1       2.477  -1.453  -2.619  0.00  0.00    -0.073 A 
ATOM      2  C3  UNL d   1       3.775  -1.225  -3.091  0.00  0.00    -0.002 A 
ATOM      3  C4  UNL d   1       4.357   0.037  -2.974  0.00  0.00     0.004 A 
ATOM      4  C5  UNL d   1       3.652   1.083  -2.377  0.00  0.00    -0.004 A 
ATOM      5  C6  UNL d   1       2.358   0.872  -1.888  0.00  0.00    -0.075 A 
ATOM      6  C7  UNL d   1       1.586   1.987  -1.246  0.00  0.00     0.076 C 
ATOM      7  C8  UNL d   1       1.780  -0.398  -2.013  0.00  0.00     0.001 A 
ENDROOT
BRANCH   1   8
ATOM      8  C1  UNL d   1       1.847  -2.816  -2.738  0.00  0.00     0.053 C 
ATOM      9  C   UNL d   1       0.689  -2.824  -3.723  0.00  0.00     0.018 C 
ENDBRANCH   1   8
TORSDOF 1
ENDMDL
