MODEL 1
REMARK minimizedAffinity 8.08389282
REMARK minimizedRMSD -1
REMARK  1 active torsions:
REMARK  status: ('A' for Active; 'I' for Inactive)
REMARK    1  A    between atoms: C1_2  and  C2_3 
ROOT
ATOM      1  C2  UNL d   1      -2.025   1.591   5.302  0.00  0.00    -0.073 A 
ATOM      2  C3  UNL d   1      -1.253   2.611   5.869  0.00  0.00    -0.002 A 
ATOM      3  C4  UNL d   1      -0.062   3.015   5.263  0.00  0.00     0.004 A 
ATOM      4  C5  UNL d   1       0.365   2.408   4.082  0.00  0.00    -0.004 A 
ATOM      5  C6  UNL d   1      -0.399   1.395   3.493  0.00  0.00    -0.075 A 
ATOM      6  C7  UNL d   1       0.048   0.731   2.224  0.00  0.00     0.076 C 
ATOM      7  C8  UNL d   1      -1.592   0.993   4.109  0.00  0.00     0.001 A 
ENDROOT
BRANCH   1   8
ATOM      8  C1  UNL d   1      -3.314   1.156   5.949  0.00  0.00     0.053 C 
ATOM      9  C   UNL d   1      -4.513   1.384   5.042  0.00  0.00     0.018 C 
ENDBRANCH   1   8
TORSDOF 1
ENDMDL
