MODEL 1
REMARK minimizedAffinity 1.62643611
REMARK minimizedRMSD -1
REMARK  1 active torsions:
REMARK  status: ('A' for Active; 'I' for Inactive)
REMARK    1  A    between atoms: C1_2  and  C2_3 
ROOT
ATOM      1  C2  UNL d   1       0.388  -5.514   2.343  0.00  0.00    -0.073 A 
ATOM      2  C3  UNL d   1       0.002  -4.600   3.330  0.00  0.00    -0.002 A 
ATOM      3  C4  UNL d   1       0.927  -4.148   4.272  0.00  0.00     0.004 A 
ATOM      4  C5  UNL d   1       2.246  -4.599   4.233  0.00  0.00    -0.004 A 
ATOM      5  C6  UNL d   1       2.654  -5.503   3.247  0.00  0.00    -0.075 A 
ATOM      6  C7  UNL d   1       4.069  -6.000   3.193  0.00  0.00     0.076 C 
ATOM      7  C8  UNL d   1       1.718  -5.954   2.306  0.00  0.00     0.001 A 
ENDROOT
BRANCH   1   8
ATOM      8  C1  UNL d   1      -0.606  -6.000   1.319  0.00  0.00     0.053 C 
ATOM      9  C   UNL d   1      -2.028  -5.995   1.858  0.00  0.00     0.018 C 
ENDBRANCH   1   8
TORSDOF 1
ENDMDL
