MODEL 1
REMARK minimizedAffinity -2.50637698
REMARK minimizedRMSD -1
REMARK  1 active torsions:
REMARK  status: ('A' for Active; 'I' for Inactive)
REMARK    1  A    between atoms: C1_2  and  C2_3 
ROOT
ATOM      1  C2  UNL d   1      -2.333  -5.256   1.359  0.00  0.00    -0.073 A 
ATOM      2  C3  UNL d   1      -2.269  -3.878   1.125  0.00  0.00    -0.002 A 
ATOM      3  C4  UNL d   1      -3.385  -3.193   0.644  0.00  0.00     0.004 A 
ATOM      4  C5  UNL d   1      -4.577  -3.875   0.399  0.00  0.00    -0.004 A 
ATOM      5  C6  UNL d   1      -4.664  -5.250   0.638  0.00  0.00    -0.075 A 
ATOM      6  C7  UNL d   1      -5.937  -6.000   0.377  0.00  0.00     0.076 C 
ATOM      7  C8  UNL d   1      -3.538  -5.932   1.118  0.00  0.00     0.001 A 
ENDROOT
BRANCH   1   8
ATOM      8  C1  UNL d   1      -1.132  -6.000   1.884  0.00  0.00     0.053 C 
ATOM      9  C   UNL d   1       0.008  -5.060   2.242  0.00  0.00     0.018 C 
ENDBRANCH   1   8
TORSDOF 1
ENDMDL
