MODEL 1
REMARK minimizedAffinity 6.097229
REMARK minimizedRMSD -1
REMARK  1 active torsions:
REMARK  status: ('A' for Active; 'I' for Inactive)
REMARK    1  A    between atoms: C1_2  and  C2_3 
ROOT
ATOM      1  C2  UNL d   1       4.626  -5.048   3.916  0.00  0.00    -0.077 A 
ATOM      2  C3  UNL d   1       5.831  -5.011   3.200  0.00  0.00     0.002 A 
ATOM      3  C4  UNL d   1       6.000  -4.109   2.147  0.00  0.00     0.002 A 
ATOM      4  C5  UNL d   1       4.970  -3.235   1.804  0.00  0.00    -0.004 A 
ATOM      5  C6  UNL d   1       3.767  -3.266   2.509  0.00  0.00     0.002 A 
ATOM      6  C7  UNL d   1       3.596  -4.167   3.560  0.00  0.00     0.002 A 
ENDROOT
BRANCH   1   7
ATOM      7  C1  UNL d   1       4.460  -5.986   5.083  0.00  0.00     0.055 C 
ATOM      8  C   UNL d   1       5.687  -5.974   5.982  0.00  0.00     0.019 C 
ENDBRANCH   1   7
TORSDOF 1
ENDMDL
