MODEL 1
REMARK minimizedAffinity -2.69118857
REMARK minimizedRMSD -1
REMARK  1 active torsions:
REMARK  status: ('A' for Active; 'I' for Inactive)
REMARK    1  A    between atoms: C1_2  and  C2_3 
ROOT
ATOM      1  C2  UNL d   1       5.418  -3.479   3.717  0.00  0.00    -0.077 A 
ATOM      2  C3  UNL d   1       4.706  -3.002   4.827  0.00  0.00     0.002 A 
ATOM      3  C4  UNL d   1       4.550  -3.800   5.962  0.00  0.00     0.002 A 
ATOM      4  C5  UNL d   1       5.106  -5.077   6.000  0.00  0.00    -0.004 A 
ATOM      5  C6  UNL d   1       5.814  -5.561   4.901  0.00  0.00     0.002 A 
ATOM      6  C7  UNL d   1       5.970  -4.765   3.765  0.00  0.00     0.002 A 
ENDROOT
BRANCH   1   7
ATOM      7  C1  UNL d   1       5.630  -2.601   2.512  0.00  0.00     0.055 C 
ATOM      8  C   UNL d   1       6.000  -3.424   1.286  0.00  0.00     0.019 C 
ENDBRANCH   1   7
TORSDOF 1
ENDMDL
