MODEL 1
REMARK minimizedAffinity -1.90625513
REMARK minimizedRMSD -1
REMARK  1 active torsions:
REMARK  status: ('A' for Active; 'I' for Inactive)
REMARK    1  A    between atoms: C1_2  and  C2_3 
ROOT
ATOM      1  C2  UNL d   1       5.741  -4.261   5.240  0.00  0.00    -0.077 A 
ATOM      2  C3  UNL d   1       5.862  -3.043   5.925  0.00  0.00     0.002 A 
ATOM      3  C4  UNL d   1       5.989  -1.846   5.218  0.00  0.00     0.002 A 
ATOM      4  C5  UNL d   1       5.991  -1.854   3.825  0.00  0.00    -0.004 A 
ATOM      5  C6  UNL d   1       5.873  -3.060   3.135  0.00  0.00     0.002 A 
ATOM      6  C7  UNL d   1       5.748  -4.258   3.840  0.00  0.00     0.002 A 
ENDROOT
BRANCH   1   7
ATOM      7  C1  UNL d   1       5.554  -5.548   6.000  0.00  0.00     0.055 C 
ATOM      8  C   UNL d   1       4.099  -5.994   5.985  0.00  0.00     0.019 C 
ENDBRANCH   1   7
TORSDOF 1
ENDMDL
