MODEL 1
REMARK minimizedAffinity -3.6619308
REMARK minimizedRMSD -1
REMARK  1 active torsions:
REMARK  status: ('A' for Active; 'I' for Inactive)
REMARK    1  A    between atoms: C1_2  and  C2_3 
ROOT
ATOM      1  C2  UNL d   1       5.584  -3.257   3.431  0.00  0.00    -0.077 A 
ATOM      2  C3  UNL d   1       5.250  -2.993   4.767  0.00  0.00     0.002 A 
ATOM      3  C4  UNL d   1       4.910  -4.038   5.629  0.00  0.00     0.002 A 
ATOM      4  C5  UNL d   1       4.904  -5.352   5.166  0.00  0.00    -0.004 A 
ATOM      5  C6  UNL d   1       5.232  -5.624   3.838  0.00  0.00     0.002 A 
ATOM      6  C7  UNL d   1       5.572  -4.581   2.975  0.00  0.00     0.002 A 
ENDROOT
BRANCH   1   7
ATOM      7  C1  UNL d   1       5.999  -2.137   2.513  0.00  0.00     0.055 C 
ATOM      8  C   UNL d   1       5.992  -2.583   1.058  0.00  0.00     0.019 C 
ENDBRANCH   1   7
TORSDOF 1
ENDMDL
