MODEL 1
REMARK minimizedAffinity 6.17033386
REMARK minimizedRMSD -1
REMARK  1 active torsions:
REMARK  status: ('A' for Active; 'I' for Inactive)
REMARK    1  A    between atoms: C1_2  and  C2_3 
ROOT
ATOM      1  C2  UNL d   1      -0.724   3.476   1.127  0.00  0.00    -0.077 A 
ATOM      2  C3  UNL d   1      -0.838   4.530   2.044  0.00  0.00     0.002 A 
ATOM      3  C4  UNL d   1       0.298   5.221   2.470  0.00  0.00     0.002 A 
ATOM      4  C5  UNL d   1       1.554   4.869   1.982  0.00  0.00    -0.004 A 
ATOM      5  C6  UNL d   1       1.678   3.820   1.071  0.00  0.00     0.002 A 
ATOM      6  C7  UNL d   1       0.544   3.127   0.645  0.00  0.00     0.002 A 
ENDROOT
BRANCH   1   7
ATOM      7  C1  UNL d   1      -1.953   2.761   0.629  0.00  0.00     0.055 C 
ATOM      8  C   UNL d   1      -2.432   3.342  -0.694  0.00  0.00     0.019 C 
ENDBRANCH   1   7
TORSDOF 1
ENDMDL
