MODEL 1
REMARK minimizedAffinity -0.935942352
REMARK minimizedRMSD -1
REMARK  1 active torsions:
REMARK  status: ('A' for Active; 'I' for Inactive)
REMARK    1  A    between atoms: C1_2  and  C2_3 
ROOT
ATOM      1  C2  UNL d   1       5.994  -3.038   3.340  0.00  0.00    -0.077 A 
ATOM      2  C3  UNL d   1       5.993  -4.439   3.319  0.00  0.00     0.002 A 
ATOM      3  C4  UNL d   1       5.987  -5.163   4.514  0.00  0.00     0.002 A 
ATOM      4  C5  UNL d   1       5.979  -4.494   5.736  0.00  0.00    -0.004 A 
ATOM      5  C6  UNL d   1       5.983  -3.100   5.766  0.00  0.00     0.002 A 
ATOM      6  C7  UNL d   1       5.989  -2.375   4.574  0.00  0.00     0.002 A 
ENDROOT
BRANCH   1   7
ATOM      7  C1  UNL d   1       5.950  -2.255   2.053  0.00  0.00     0.055 C 
ATOM      8  C   UNL d   1       5.992  -3.177   0.843  0.00  0.00     0.019 C 
ENDBRANCH   1   7
TORSDOF 1
ENDMDL
