MODEL 1
REMARK minimizedAffinity -3.12235975
REMARK minimizedRMSD -1
REMARK  1 active torsions:
REMARK  status: ('A' for Active; 'I' for Inactive)
REMARK    1  A    between atoms: C1_2  and  C2_3 
ROOT
ATOM      1  C2  UNL d   1       5.525  -4.669   3.727  0.00  0.00    -0.077 A 
ATOM      2  C3  UNL d   1       4.967  -5.184   4.905  0.00  0.00     0.002 A 
ATOM      3  C4  UNL d   1       4.489  -4.324   5.896  0.00  0.00     0.002 A 
ATOM      4  C5  UNL d   1       4.562  -2.944   5.717  0.00  0.00    -0.004 A 
ATOM      5  C6  UNL d   1       5.117  -2.422   4.549  0.00  0.00     0.002 A 
ATOM      6  C7  UNL d   1       5.596  -3.280   3.559  0.00  0.00     0.002 A 
ENDROOT
BRANCH   1   7
ATOM      7  C1  UNL d   1       5.995  -5.595   2.636  0.00  0.00     0.055 C 
ATOM      8  C   UNL d   1       6.000  -4.899   1.283  0.00  0.00     0.019 C 
ENDBRANCH   1   7
TORSDOF 1
ENDMDL
