MODEL 1
REMARK minimizedAffinity -2.89191127
REMARK minimizedRMSD -1
REMARK  1 active torsions:
REMARK  status: ('A' for Active; 'I' for Inactive)
REMARK    1  A    between atoms: C1_2  and  C2_3 
ROOT
ATOM      1  C2  UNL d   1       5.749  -5.157   3.386  0.00  0.00    -0.077 A 
ATOM      2  C3  UNL d   1       5.377  -3.823   3.607  0.00  0.00     0.002 A 
ATOM      3  C4  UNL d   1       5.217  -3.340   4.907  0.00  0.00     0.002 A 
ATOM      4  C5  UNL d   1       5.432  -4.182   5.996  0.00  0.00    -0.004 A 
ATOM      5  C6  UNL d   1       5.801  -5.510   5.787  0.00  0.00     0.002 A 
ATOM      6  C7  UNL d   1       5.960  -5.995   4.488  0.00  0.00     0.002 A 
ENDROOT
BRANCH   1   7
ATOM      7  C1  UNL d   1       5.970  -5.666   1.986  0.00  0.00     0.055 C 
ATOM      8  C   UNL d   1       5.997  -4.525   0.980  0.00  0.00     0.019 C 
ENDBRANCH   1   7
TORSDOF 1
ENDMDL
