MODEL 1
REMARK minimizedAffinity -3.20749235
REMARK minimizedRMSD -1
REMARK  1 active torsions:
REMARK  status: ('A' for Active; 'I' for Inactive)
REMARK    1  A    between atoms: C1_2  and  C2_3 
ROOT
ATOM      1  C2  UNL d   1       5.221  -3.268   4.722  0.00  0.00    -0.077 A 
ATOM      2  C3  UNL d   1       5.257  -4.628   5.058  0.00  0.00     0.002 A 
ATOM      3  C4  UNL d   1       5.644  -5.580   4.112  0.00  0.00     0.002 A 
ATOM      4  C5  UNL d   1       6.000  -5.180   2.826  0.00  0.00    -0.004 A 
ATOM      5  C6  UNL d   1       5.965  -3.830   2.481  0.00  0.00     0.002 A 
ATOM      6  C7  UNL d   1       5.578  -2.878   3.425  0.00  0.00     0.002 A 
ENDROOT
BRANCH   1   7
ATOM      7  C1  UNL d   1       4.852  -2.236   5.755  0.00  0.00     0.055 C 
ATOM      8  C   UNL d   1       5.996  -1.263   5.999  0.00  0.00     0.019 C 
ENDBRANCH   1   7
TORSDOF 1
ENDMDL
