MODEL 1
REMARK minimizedAffinity -3.52304912
REMARK minimizedRMSD -1
REMARK  1 active torsions:
REMARK  status: ('A' for Active; 'I' for Inactive)
REMARK    1  A    between atoms: C1_2  and  C2_3 
ROOT
ATOM      1  C2  UNL d   1       5.463  -3.701   4.473  0.00  0.00    -0.077 A 
ATOM      2  C3  UNL d   1       5.449  -4.621   3.415  0.00  0.00     0.002 A 
ATOM      3  C4  UNL d   1       5.670  -4.194   2.104  0.00  0.00     0.002 A 
ATOM      4  C5  UNL d   1       5.910  -2.847   1.840  0.00  0.00    -0.004 A 
ATOM      5  C6  UNL d   1       5.924  -1.924   2.885  0.00  0.00     0.002 A 
ATOM      6  C7  UNL d   1       5.703  -2.349   4.196  0.00  0.00     0.002 A 
ENDROOT
BRANCH   1   7
ATOM      7  C1  UNL d   1       5.275  -4.168   5.893  0.00  0.00     0.055 C 
ATOM      8  C   UNL d   1       5.402  -5.681   6.000  0.00  0.00     0.019 C 
ENDBRANCH   1   7
TORSDOF 1
ENDMDL
