MODEL 1
REMARK minimizedAffinity -2.85234594
REMARK minimizedRMSD -1
REMARK  1 active torsions:
REMARK  status: ('A' for Active; 'I' for Inactive)
REMARK    1  A    between atoms: C1_2  and  C2_3 
ROOT
ATOM      1  C2  UNL d   1       5.278  -3.849   4.798  0.00  0.00    -0.077 A 
ATOM      2  C3  UNL d   1       5.999  -4.894   5.394  0.00  0.00     0.002 A 
ATOM      3  C4  UNL d   1       5.328  -5.962   5.993  0.00  0.00     0.002 A 
ATOM      4  C5  UNL d   1       3.935  -5.997   6.000  0.00  0.00    -0.004 A 
ATOM      5  C6  UNL d   1       3.210  -4.961   5.412  0.00  0.00     0.002 A 
ATOM      6  C7  UNL d   1       3.878  -3.893   4.813  0.00  0.00     0.002 A 
ENDROOT
BRANCH   1   7
ATOM      7  C1  UNL d   1       6.000  -2.721   4.108  0.00  0.00     0.055 C 
ATOM      8  C   UNL d   1       5.992  -2.902   2.597  0.00  0.00     0.019 C 
ENDBRANCH   1   7
TORSDOF 1
ENDMDL
