MODEL 1
REMARK minimizedAffinity -3.66015816
REMARK minimizedRMSD -1
REMARK  1 active torsions:
REMARK  status: ('A' for Active; 'I' for Inactive)
REMARK    1  A    between atoms: C1_2  and  C2_3 
ROOT
ATOM      1  C2  UNL d   1       5.627  -4.383   3.236  0.00  0.00    -0.077 A 
ATOM      2  C3  UNL d   1       5.601  -5.273   4.318  0.00  0.00     0.002 A 
ATOM      3  C4  UNL d   1       5.213  -4.833   5.585  0.00  0.00     0.002 A 
ATOM      4  C5  UNL d   1       4.843  -3.504   5.780  0.00  0.00    -0.004 A 
ATOM      5  C6  UNL d   1       4.867  -2.611   4.710  0.00  0.00     0.002 A 
ATOM      6  C7  UNL d   1       5.257  -3.048   3.443  0.00  0.00     0.002 A 
ENDROOT
BRANCH   1   7
ATOM      7  C1  UNL d   1       5.999  -4.867   1.858  0.00  0.00     0.055 C 
ATOM      8  C   UNL d   1       6.000  -3.725   0.852  0.00  0.00     0.019 C 
ENDBRANCH   1   7
TORSDOF 1
ENDMDL
