MODEL 1
REMARK minimizedAffinity -3.10318112
REMARK minimizedRMSD -1
REMARK  1 active torsions:
REMARK  status: ('A' for Active; 'I' for Inactive)
REMARK    1  A    between atoms: C1_2  and  C2_3 
ROOT
ATOM      1  C2  UNL d   1       5.115  -4.493   4.467  0.00  0.00    -0.077 A 
ATOM      2  C3  UNL d   1       5.148  -3.186   4.973  0.00  0.00     0.002 A 
ATOM      3  C4  UNL d   1       5.590  -2.130   4.174  0.00  0.00     0.002 A 
ATOM      4  C5  UNL d   1       5.999  -2.369   2.863  0.00  0.00    -0.004 A 
ATOM      5  C6  UNL d   1       5.972  -3.666   2.351  0.00  0.00     0.002 A 
ATOM      6  C7  UNL d   1       5.531  -4.723   3.149  0.00  0.00     0.002 A 
ENDROOT
BRANCH   1   7
ATOM      7  C1  UNL d   1       4.592  -5.625   5.311  0.00  0.00     0.055 C 
ATOM      8  C   UNL d   1       3.151  -5.961   4.955  0.00  0.00     0.019 C 
ENDBRANCH   1   7
TORSDOF 1
ENDMDL
