MODEL 1
REMARK minimizedAffinity -3.03526092
REMARK minimizedRMSD -1
REMARK  1 active torsions:
REMARK  status: ('A' for Active; 'I' for Inactive)
REMARK    1  A    between atoms: C1_2  and  C2_3 
ROOT
ATOM      1  C2  UNL d   1       5.443  -4.401   4.937  0.00  0.00    -0.077 A 
ATOM      2  C3  UNL d   1       5.534  -4.758   3.584  0.00  0.00     0.002 A 
ATOM      3  C4  UNL d   1       5.810  -3.790   2.616  0.00  0.00     0.002 A 
ATOM      4  C5  UNL d   1       6.000  -2.462   2.990  0.00  0.00    -0.004 A 
ATOM      5  C6  UNL d   1       5.909  -2.097   4.333  0.00  0.00     0.002 A 
ATOM      6  C7  UNL d   1       5.633  -3.062   5.302  0.00  0.00     0.002 A 
ENDROOT
BRANCH   1   7
ATOM      7  C1  UNL d   1       5.195  -5.451   5.988  0.00  0.00     0.055 C 
ATOM      8  C   UNL d   1       3.778  -6.000   5.899  0.00  0.00     0.019 C 
ENDBRANCH   1   7
TORSDOF 1
ENDMDL
