MODEL 1
REMARK minimizedAffinity 7.16562986
REMARK minimizedRMSD -1
REMARK  0 active torsions:
REMARK  status: ('A' for Active; 'I' for Inactive)
ROOT
ATOM      1  C   UNL d   1       0.510  -1.337   3.186  0.00  0.00     0.078 C 
ATOM      2  C1  UNL d   1       0.468  -2.478   4.157  0.00  0.00    -0.077 A 
ATOM      3  C2  UNL d   1      -0.604  -3.379   4.166  0.00  0.00    -0.001 A 
ATOM      4  C3  UNL d   1      -0.634  -4.431   5.082  0.00  0.00     0.003 A 
ATOM      5  C4  UNL d   1       0.405  -4.593   5.997  0.00  0.00    -0.005 A 
ATOM      6  C5  UNL d   1       1.475  -3.701   5.997  0.00  0.00     0.003 A 
ATOM      7  C6  UNL d   1       1.507  -2.648   5.082  0.00  0.00    -0.001 A 
ENDROOT
TORSDOF 0
ENDMDL
