MODEL 1
REMARK minimizedAffinity 0.329374999
REMARK minimizedRMSD -1
REMARK  0 active torsions:
REMARK  status: ('A' for Active; 'I' for Inactive)
ROOT
ATOM      1  C   UNL d   1      -1.800  -3.522  -3.030  0.00  0.00     0.078 C 
ATOM      2  C1  UNL d   1      -1.079  -2.593  -2.099  0.00  0.00    -0.077 A 
ATOM      3  C2  UNL d   1      -1.328  -1.216  -2.118  0.00  0.00    -0.001 A 
ATOM      4  C3  UNL d   1      -0.642  -0.362  -1.253  0.00  0.00     0.003 A 
ATOM      5  C4  UNL d   1       0.299  -0.876  -0.363  0.00  0.00    -0.005 A 
ATOM      6  C5  UNL d   1       0.555  -2.246  -0.338  0.00  0.00     0.003 A 
ATOM      7  C6  UNL d   1      -0.130  -3.101  -1.202  0.00  0.00    -0.001 A 
ENDROOT
TORSDOF 0
ENDMDL
