MODEL 1
REMARK minimizedAffinity -2.93821478
REMARK minimizedRMSD -1
REMARK  0 active torsions:
REMARK  status: ('A' for Active; 'I' for Inactive)
ROOT
ATOM      1  C   UNL d   1       0.992  -0.642   3.397  0.00  0.00     0.078 C 
ATOM      2  C1  UNL d   1       0.741  -2.101   3.635  0.00  0.00    -0.077 A 
ATOM      3  C2  UNL d   1       0.223  -2.555   4.854  0.00  0.00    -0.001 A 
ATOM      4  C3  UNL d   1       0.004  -3.917   5.065  0.00  0.00     0.003 A 
ATOM      5  C4  UNL d   1       0.302  -4.837   4.061  0.00  0.00    -0.005 A 
ATOM      6  C5  UNL d   1       0.820  -4.396   2.846  0.00  0.00     0.003 A 
ATOM      7  C6  UNL d   1       1.039  -3.034   2.633  0.00  0.00    -0.001 A 
ENDROOT
TORSDOF 0
ENDMDL
