MODEL 1
REMARK minimizedAffinity 8.95016003
REMARK minimizedRMSD -1
REMARK  0 active torsions:
REMARK  status: ('A' for Active; 'I' for Inactive)
ROOT
ATOM      1  C   UNL d   1       5.558  -1.034   1.524  0.00  0.00     0.078 C 
ATOM      2  C1  UNL d   1       4.416  -1.255   0.576  0.00  0.00    -0.077 A 
ATOM      3  C2  UNL d   1       3.776  -2.498   0.495  0.00  0.00    -0.001 A 
ATOM      4  C3  UNL d   1       2.722  -2.692  -0.398  0.00  0.00     0.003 A 
ATOM      5  C4  UNL d   1       2.299  -1.648  -1.219  0.00  0.00    -0.005 A 
ATOM      6  C5  UNL d   1       2.931  -0.409  -1.147  0.00  0.00     0.003 A 
ATOM      7  C6  UNL d   1       3.986  -0.213  -0.254  0.00  0.00    -0.001 A 
ENDROOT
TORSDOF 0
ENDMDL
