MODEL 1
REMARK minimizedAffinity 5.92799997
REMARK minimizedRMSD -1
REMARK  1 active torsions:
REMARK  status: ('A' for Active; 'I' for Inactive)
REMARK    1  A    between atoms: C1_2  and  C2_3 
ROOT
ATOM      1  C2  UNL d   1       4.864  -5.921  -2.887  0.00  0.00    -0.081 A 
ATOM      2  C3  UNL d   1       3.521  -5.950  -3.282  0.00  0.00     0.006 A 
ATOM      3  C4  UNL d   1       2.502  -5.961  -2.326  0.00  0.00     0.002 A 
ATOM      4  C5  UNL d   1       2.809  -5.935  -0.961  0.00  0.00    -0.080 A 
ATOM      5  C6  UNL d   1       1.724  -5.916   0.074  0.00  0.00     0.076 C 
ATOM      6  C7  UNL d   1       4.151  -5.924  -0.567  0.00  0.00     0.002 A 
ATOM      7  C8  UNL d   1       5.170  -5.913  -1.522  0.00  0.00     0.006 A 
ENDROOT
BRANCH   1   8
ATOM      8  C1  UNL d   1       5.964  -5.844  -3.915  0.00  0.00     0.054 C 
ATOM      9  C   UNL d   1       5.414  -5.998  -5.326  0.00  0.00     0.018 C 
ENDBRANCH   1   8
TORSDOF 1
ENDMDL
