MODEL 1
REMARK minimizedAffinity 9.1571312
REMARK minimizedRMSD -1
REMARK  1 active torsions:
REMARK  status: ('A' for Active; 'I' for Inactive)
REMARK    1  A    between atoms: C1_2  and  C2_3 
ROOT
ATOM      1  C2  UNL d   1       1.164  -4.647   5.096  0.00  0.00    -0.081 A 
ATOM      2  C3  UNL d   1       0.719  -3.346   5.358  0.00  0.00     0.006 A 
ATOM      3  C4  UNL d   1       1.035  -2.301   4.486  0.00  0.00     0.002 A 
ATOM      4  C5  UNL d   1       1.793  -2.541   3.335  0.00  0.00    -0.080 A 
ATOM      5  C6  UNL d   1       2.114  -1.433   2.376  0.00  0.00     0.076 C 
ATOM      6  C7  UNL d   1       2.253  -3.838   3.083  0.00  0.00     0.002 A 
ATOM      7  C8  UNL d   1       1.938  -4.883   3.954  0.00  0.00     0.006 A 
ENDROOT
BRANCH   1   8
ATOM      8  C1  UNL d   1       0.771  -5.788   6.000  0.00  0.00     0.054 C 
ATOM      9  C   UNL d   1      -0.736  -5.999   6.000  0.00  0.00     0.018 C 
ENDBRANCH   1   8
TORSDOF 1
ENDMDL
