MODEL 1
REMARK minimizedAffinity 1.72437251
REMARK minimizedRMSD -1
REMARK  1 active torsions:
REMARK  status: ('A' for Active; 'I' for Inactive)
REMARK    1  A    between atoms: C1_2  and  C2_3 
ROOT
ATOM      1  C2  UNL d   1       4.052  -5.937  -1.958  0.00  0.00    -0.081 A 
ATOM      2  C3  UNL d   1       5.441  -5.949  -2.140  0.00  0.00     0.006 A 
ATOM      3  C4  UNL d   1       5.986  -5.980  -3.426  0.00  0.00     0.002 A 
ATOM      4  C5  UNL d   1       5.153  -5.993  -4.550  0.00  0.00    -0.080 A 
ATOM      5  C6  UNL d   1       5.726  -5.996  -5.936  0.00  0.00     0.076 C 
ATOM      6  C7  UNL d   1       3.766  -5.999  -4.367  0.00  0.00     0.002 A 
ATOM      7  C8  UNL d   1       3.220  -5.968  -3.082  0.00  0.00     0.006 A 
ENDROOT
BRANCH   1   8
ATOM      8  C1  UNL d   1       3.462  -5.838  -0.574  0.00  0.00     0.054 C 
ATOM      9  C   UNL d   1       4.535  -5.976   0.496  0.00  0.00     0.018 C 
ENDBRANCH   1   8
TORSDOF 1
ENDMDL
