MODEL 1
REMARK minimizedAffinity 4.02682257
REMARK minimizedRMSD -1
REMARK  1 active torsions:
REMARK  status: ('A' for Active; 'I' for Inactive)
REMARK    1  A    between atoms: C1_2  and  C2_3 
ROOT
ATOM      1  C2  UNL d   1       1.099  -4.698   4.476  0.00  0.00    -0.081 A 
ATOM      2  C3  UNL d   1       2.125  -5.019   5.374  0.00  0.00     0.006 A 
ATOM      3  C4  UNL d   1       3.363  -4.378   5.293  0.00  0.00     0.002 A 
ATOM      4  C5  UNL d   1       3.594  -3.400   4.320  0.00  0.00    -0.080 A 
ATOM      5  C6  UNL d   1       4.909  -2.683   4.242  0.00  0.00     0.076 C 
ATOM      6  C7  UNL d   1       2.576  -3.092   3.412  0.00  0.00     0.002 A 
ATOM      7  C8  UNL d   1       1.337  -3.733   3.491  0.00  0.00     0.006 A 
ENDROOT
BRANCH   1   8
ATOM      8  C1  UNL d   1      -0.258  -5.341   4.601  0.00  0.00     0.054 C 
ATOM      9  C   UNL d   1      -0.436  -5.999   5.962  0.00  0.00     0.018 C 
ENDBRANCH   1   8
TORSDOF 1
ENDMDL
