MODEL 1
REMARK minimizedAffinity 5.26142454
REMARK minimizedRMSD -1
REMARK  1 active torsions:
REMARK  status: ('A' for Active; 'I' for Inactive)
REMARK    1  A    between atoms: C1_2  and  C2_3 
ROOT
ATOM      1  C2  UNL d   1       2.311  -4.403   4.733  0.00  0.00    -0.081 A 
ATOM      2  C3  UNL d   1       3.418  -3.544   4.744  0.00  0.00     0.006 A 
ATOM      3  C4  UNL d   1       3.472  -2.448   3.879  0.00  0.00     0.002 A 
ATOM      4  C5  UNL d   1       2.420  -2.188   2.996  0.00  0.00    -0.080 A 
ATOM      5  C6  UNL d   1       2.452  -0.998   2.084  0.00  0.00     0.076 C 
ATOM      6  C7  UNL d   1       1.322  -3.055   2.972  0.00  0.00     0.002 A 
ATOM      7  C8  UNL d   1       1.267  -4.152   3.836  0.00  0.00     0.006 A 
ENDROOT
BRANCH   1   8
ATOM      8  C1  UNL d   1       2.220  -5.548   5.709  0.00  0.00     0.054 C 
ATOM      9  C   UNL d   1       0.779  -5.999   5.899  0.00  0.00     0.018 C 
ENDBRANCH   1   8
TORSDOF 1
ENDMDL
