MODEL 1
REMARK minimizedAffinity 7.4361515
REMARK minimizedRMSD -1
REMARK  1 active torsions:
REMARK  status: ('A' for Active; 'I' for Inactive)
REMARK    1  A    between atoms: C1_2  and  C2_3 
ROOT
ATOM      1  C2  UNL d   1       2.739   2.359   0.051  0.00  0.00    -0.081 A 
ATOM      2  C3  UNL d   1       3.388   1.162  -0.273  0.00  0.00     0.006 A 
ATOM      3  C4  UNL d   1       3.177   0.012   0.492  0.00  0.00     0.002 A 
ATOM      4  C5  UNL d   1       2.308   0.039   1.588  0.00  0.00    -0.080 A 
ATOM      5  C6  UNL d   1       2.049  -1.196   2.399  0.00  0.00     0.076 C 
ATOM      6  C7  UNL d   1       1.673   1.239   1.922  0.00  0.00     0.002 A 
ATOM      7  C8  UNL d   1       1.884   2.389   1.158  0.00  0.00     0.006 A 
ENDROOT
BRANCH   1   8
ATOM      8  C1  UNL d   1       2.915   3.584  -0.810  0.00  0.00     0.054 C 
ATOM      9  C   UNL d   1       1.651   4.432  -0.831  0.00  0.00     0.018 C 
ENDBRANCH   1   8
TORSDOF 1
ENDMDL
