MODEL 1
REMARK minimizedAffinity 5.29340315
REMARK minimizedRMSD -1
REMARK  1 active torsions:
REMARK  status: ('A' for Active; 'I' for Inactive)
REMARK    1  A    between atoms: C1_2  and  C2_3 
ROOT
ATOM      1  C2  UNL d   1      -4.940   1.762  -2.629  0.00  0.00    -0.081 A 
ATOM      2  C3  UNL d   1      -3.608   1.913  -2.222  0.00  0.00     0.006 A 
ATOM      3  C4  UNL d   1      -3.293   2.060  -0.869  0.00  0.00     0.002 A 
ATOM      4  C5  UNL d   1      -4.302   2.051   0.100  0.00  0.00    -0.080 A 
ATOM      5  C6  UNL d   1      -3.975   2.177   1.558  0.00  0.00     0.076 C 
ATOM      6  C7  UNL d   1      -5.634   1.918  -0.308  0.00  0.00     0.002 A 
ATOM      7  C8  UNL d   1      -5.950   1.771  -1.660  0.00  0.00     0.006 A 
ENDROOT
BRANCH   1   8
ATOM      8  C1  UNL d   1      -5.277   1.538  -4.081  0.00  0.00     0.054 C 
ATOM      9  C   UNL d   1      -5.818   2.806  -4.725  0.00  0.00     0.018 C 
ENDBRANCH   1   8
TORSDOF 1
ENDMDL
