MODEL 1
REMARK minimizedAffinity 7.01698208
REMARK minimizedRMSD -1
REMARK  1 active torsions:
REMARK  status: ('A' for Active; 'I' for Inactive)
REMARK    1  A    between atoms: N_2  and  C1_3 
ROOT
ATOM      1  C1  UNL d   1       5.264  -0.289  -4.952  0.00  0.00     0.143 A 
ATOM      2  C2  UNL d   1       4.298   0.087  -4.012  0.00  0.00    -0.057 A 
ATOM      3  C3  UNL d   1       3.669   1.336  -4.077  0.00  0.00     0.033 A 
ATOM      4  C4  UNL d   1       4.017   2.246  -5.070  0.00  0.00    -0.042 A 
ATOM      5  C5  UNL d   1       4.992   1.904  -6.000  0.00  0.00     0.033 A 
ATOM      6  C6  UNL d   1       5.612   0.652  -5.934  0.00  0.00    -0.057 A 
ENDROOT
BRANCH   1   7
ATOM      7  N   UNL d   1       5.995  -1.477  -4.882  0.00  0.00    -0.732 N 
ATOM      8  C   UNL d   1       5.994  -2.409  -5.989  0.00  0.00     0.284 C 
ATOM      9  H3  UNL d   1       6.907  -1.347  -4.450  0.00  0.00     0.395 HD
ENDBRANCH   1   7
TORSDOF 1
ENDMDL
