MODEL 1
REMARK minimizedAffinity 9.97070026
REMARK minimizedRMSD -1
REMARK  1 active torsions:
REMARK  status: ('A' for Active; 'I' for Inactive)
REMARK    1  A    between atoms: N_2  and  C1_3 
ROOT
ATOM      1  C1  UNL d   1      -3.525   1.853  -2.899  0.00  0.00     0.143 A 
ATOM      2  C2  UNL d   1      -2.405   2.506  -2.374  0.00  0.00    -0.057 A 
ATOM      3  C3  UNL d   1      -2.136   2.496  -1.000  0.00  0.00     0.033 A 
ATOM      4  C4  UNL d   1      -3.002   1.853  -0.121  0.00  0.00    -0.042 A 
ATOM      5  C5  UNL d   1      -4.134   1.218  -0.618  0.00  0.00     0.033 A 
ATOM      6  C6  UNL d   1      -4.394   1.226  -1.991  0.00  0.00    -0.057 A 
ENDROOT
BRANCH   1   7
ATOM      7  N   UNL d   1      -3.900   1.910  -4.244  0.00  0.00    -0.732 N 
ATOM      8  C   UNL d   1      -4.893   2.862  -4.692  0.00  0.00     0.284 C 
ATOM      9  H3  UNL d   1      -3.107   1.810  -4.873  0.00  0.00     0.395 HD
ENDBRANCH   1   7
TORSDOF 1
ENDMDL
