MODEL 1
REMARK minimizedAffinity 3.05644417
REMARK minimizedRMSD -1
REMARK  1 active torsions:
REMARK  status: ('A' for Active; 'I' for Inactive)
REMARK    1  A    between atoms: N_2  and  C1_3 
ROOT
ATOM      1  C1  UNL d   1       4.963  -0.844  -3.300  0.00  0.00     0.143 A 
ATOM      2  C2  UNL d   1       3.952  -0.016  -3.800  0.00  0.00    -0.057 A 
ATOM      3  C3  UNL d   1       3.946   0.395  -5.138  0.00  0.00     0.033 A 
ATOM      4  C4  UNL d   1       4.971   0.009  -5.996  0.00  0.00    -0.042 A 
ATOM      5  C5  UNL d   1       5.999  -0.793  -5.514  0.00  0.00     0.033 A 
ATOM      6  C6  UNL d   1       5.996  -1.206  -4.178  0.00  0.00    -0.057 A 
ENDROOT
BRANCH   1   7
ATOM      7  N   UNL d   1       5.078  -1.206  -1.955  0.00  0.00    -0.732 N 
ATOM      8  C   UNL d   1       4.429  -0.426  -0.924  0.00  0.00     0.284 C 
ATOM      9  H3  UNL d   1       5.015  -2.212  -1.818  0.00  0.00     0.395 HD
ENDBRANCH   1   7
TORSDOF 1
ENDMDL
