MODEL 1
REMARK minimizedAffinity -2.22613502
REMARK minimizedRMSD -1
REMARK  1 active torsions:
REMARK  status: ('A' for Active; 'I' for Inactive)
REMARK    1  A    between atoms: N_2  and  C1_3 
ROOT
ATOM      1  C1  UNL d   1       4.225  -2.618   2.906  0.00  0.00     0.143 A 
ATOM      2  C2  UNL d   1       3.113  -2.915   3.701  0.00  0.00    -0.057 A 
ATOM      3  C3  UNL d   1       1.832  -2.468   3.353  0.00  0.00     0.033 A 
ATOM      4  C4  UNL d   1       1.645  -1.690   2.216  0.00  0.00    -0.042 A 
ATOM      5  C5  UNL d   1       2.740  -1.361   1.424  0.00  0.00     0.033 A 
ATOM      6  C6  UNL d   1       4.015  -1.816   1.773  0.00  0.00    -0.057 A 
ENDROOT
BRANCH   1   7
ATOM      7  N   UNL d   1       5.538  -2.949   3.250  0.00  0.00    -0.732 N 
ATOM      8  C   UNL d   1       5.967  -2.923   4.632  0.00  0.00     0.284 C 
ATOM      9  H3  UNL d   1       5.889  -3.744   2.721  0.00  0.00     0.395 HD
ENDBRANCH   1   7
TORSDOF 1
ENDMDL
