MODEL 1
REMARK minimizedAffinity 12.491415
REMARK minimizedRMSD -1
REMARK  1 active torsions:
REMARK  status: ('A' for Active; 'I' for Inactive)
REMARK    1  A    between atoms: N_2  and  C1_3 
ROOT
ATOM      1  C1  UNL d   1       3.573  -5.190   4.907  0.00  0.00     0.143 A 
ATOM      2  C2  UNL d   1       3.677  -4.147   5.834  0.00  0.00    -0.057 A 
ATOM      3  C3  UNL d   1       4.874  -3.439   5.999  0.00  0.00     0.033 A 
ATOM      4  C4  UNL d   1       6.000  -3.782   5.258  0.00  0.00    -0.042 A 
ATOM      5  C5  UNL d   1       5.926  -4.831   4.348  0.00  0.00     0.033 A 
ATOM      6  C6  UNL d   1       4.727  -5.530   4.183  0.00  0.00    -0.057 A 
ENDROOT
BRANCH   1   7
ATOM      7  N   UNL d   1       2.440  -5.996   4.766  0.00  0.00    -0.732 N 
ATOM      8  C   UNL d   1       1.216  -5.676   5.469  0.00  0.00     0.284 C 
ATOM      9  H3  UNL d   1       2.301  -6.306   3.807  0.00  0.00     0.395 HD
ENDBRANCH   1   7
TORSDOF 1
ENDMDL
