MODEL 1
REMARK minimizedAffinity 15.2497787
REMARK minimizedRMSD -1
REMARK  1 active torsions:
REMARK  status: ('A' for Active; 'I' for Inactive)
REMARK    1  A    between atoms: N_2  and  C1_3 
ROOT
ATOM      1  C1  UNL d   1      -3.830   2.038  -1.977  0.00  0.00     0.143 A 
ATOM      2  C2  UNL d   1      -4.973   2.643  -1.444  0.00  0.00    -0.057 A 
ATOM      3  C3  UNL d   1      -5.999   3.114  -2.272  0.00  0.00     0.033 A 
ATOM      4  C4  UNL d   1      -5.886   3.014  -3.655  0.00  0.00    -0.042 A 
ATOM      5  C5  UNL d   1      -4.748   2.438  -4.208  0.00  0.00     0.033 A 
ATOM      6  C6  UNL d   1      -3.730   1.964  -3.375  0.00  0.00    -0.057 A 
ENDROOT
BRANCH   1   7
ATOM      7  N   UNL d   1      -2.732   1.639  -1.211  0.00  0.00    -0.732 N 
ATOM      8  C   UNL d   1      -2.606   2.054   0.169  0.00  0.00     0.284 C 
ATOM      9  H3  UNL d   1      -2.474   0.669  -1.378  0.00  0.00     0.395 HD
ENDBRANCH   1   7
TORSDOF 1
ENDMDL
