MODEL 1
REMARK minimizedAffinity 5.70434523
REMARK minimizedRMSD -1
REMARK  1 active torsions:
REMARK  status: ('A' for Active; 'I' for Inactive)
REMARK    1  A    between atoms: N_2  and  C1_3 
ROOT
ATOM      1  C1  UNL d   1      -4.738  -3.248  -5.004  0.00  0.00     0.143 A 
ATOM      2  C2  UNL d   1      -5.913  -3.849  -5.469  0.00  0.00    -0.057 A 
ATOM      3  C3  UNL d   1      -5.929  -5.187  -5.883  0.00  0.00     0.033 A 
ATOM      4  C4  UNL d   1      -4.761  -5.941  -5.866  0.00  0.00    -0.042 A 
ATOM      5  C5  UNL d   1      -3.576  -5.357  -5.431  0.00  0.00     0.033 A 
ATOM      6  C6  UNL d   1      -3.568  -4.023  -5.013  0.00  0.00    -0.057 A 
ENDROOT
BRANCH   1   7
ATOM      7  N   UNL d   1      -4.636  -1.895  -4.671  0.00  0.00    -0.732 N 
ATOM      8  C   UNL d   1      -3.342  -1.250  -4.598  0.00  0.00     0.284 C 
ATOM      9  H3  UNL d   1      -5.357  -1.331  -5.114  0.00  0.00     0.395 HD
ENDBRANCH   1   7
TORSDOF 1
ENDMDL
