MODEL 1
REMARK minimizedAffinity 11.0333929
REMARK minimizedRMSD -1
REMARK  1 active torsions:
REMARK  status: ('A' for Active; 'I' for Inactive)
REMARK    1  A    between atoms: C1_2  and  C2_3 
ROOT
ATOM      1  C2  UNL d   1      -0.488  -3.649  -5.653  0.00  0.00    -0.081 A 
ATOM      2  C3  UNL d   1       0.587  -4.477  -6.000  0.00  0.00     0.006 A 
ATOM      3  C4  UNL d   1       1.890  -4.141  -5.625  0.00  0.00     0.002 A 
ATOM      4  C5  UNL d   1       2.139  -2.977  -4.890  0.00  0.00    -0.080 A 
ATOM      5  C6  UNL d   1       3.529  -2.620  -4.455  0.00  0.00     0.076 C 
ATOM      6  C7  UNL d   1       1.068  -2.140  -4.559  0.00  0.00     0.002 A 
ATOM      7  C8  UNL d   1      -0.235  -2.475  -4.934  0.00  0.00     0.006 A 
ENDROOT
BRANCH   1   8
ATOM      8  C1  UNL d   1      -1.901  -4.041  -6.000  0.00  0.00     0.054 C 
ATOM      9  C   UNL d   1      -2.325  -5.299  -5.255  0.00  0.00     0.018 C 
ENDBRANCH   1   8
TORSDOF 1
ENDMDL
