MODEL 1
REMARK minimizedAffinity 15.5090199
REMARK minimizedRMSD -1
REMARK  1 active torsions:
REMARK  status: ('A' for Active; 'I' for Inactive)
REMARK    1  A    between atoms: C1_2  and  C2_3 
ROOT
ATOM      1  C2  UNL d   1      -0.134  -2.528  -4.399  0.00  0.00    -0.081 A 
ATOM      2  C3  UNL d   1       0.128  -3.265  -5.560  0.00  0.00     0.006 A 
ATOM      3  C4  UNL d   1      -0.772  -4.238  -6.000  0.00  0.00     0.002 A 
ATOM      4  C5  UNL d   1      -1.952  -4.486  -5.291  0.00  0.00    -0.080 A 
ATOM      5  C6  UNL d   1      -2.942  -5.507  -5.768  0.00  0.00     0.076 C 
ATOM      6  C7  UNL d   1      -2.206  -3.762  -4.120  0.00  0.00     0.002 A 
ATOM      7  C8  UNL d   1      -1.305  -2.789  -3.680  0.00  0.00     0.006 A 
ENDROOT
BRANCH   1   8
ATOM      8  C1  UNL d   1       0.804  -1.433  -3.958  0.00  0.00     0.054 C 
ATOM      9  C   UNL d   1       0.085  -0.095  -3.862  0.00  0.00     0.018 C 
ENDBRANCH   1   8
TORSDOF 1
ENDMDL
