MODEL 1
REMARK minimizedAffinity 12.6265221
REMARK minimizedRMSD -1
REMARK  1 active torsions:
REMARK  status: ('A' for Active; 'I' for Inactive)
REMARK    1  A    between atoms: C1_2  and  C2_3 
ROOT
ATOM      1  C2  UNL d   1       0.843  -1.234   2.834  0.00  0.00    -0.081 A 
ATOM      2  C3  UNL d   1       1.168   0.099   3.114  0.00  0.00     0.006 A 
ATOM      3  C4  UNL d   1       0.224   1.112   2.927  0.00  0.00     0.002 A 
ATOM      4  C5  UNL d   1      -1.061   0.809   2.464  0.00  0.00    -0.080 A 
ATOM      5  C6  UNL d   1      -2.092   1.883   2.288  0.00  0.00     0.076 C 
ATOM      6  C7  UNL d   1      -1.380  -0.520   2.168  0.00  0.00     0.002 A 
ATOM      7  C8  UNL d   1      -0.437  -1.534   2.354  0.00  0.00     0.006 A 
ENDROOT
BRANCH   1   8
ATOM      8  C1  UNL d   1       1.836  -2.337   3.097  0.00  0.00     0.054 C 
ATOM      9  C   UNL d   1       1.422  -3.182   4.293  0.00  0.00     0.018 C 
ENDBRANCH   1   8
TORSDOF 1
ENDMDL
