MODEL 1
REMARK minimizedAffinity 15.7439432
REMARK minimizedRMSD -1
REMARK  1 active torsions:
REMARK  status: ('A' for Active; 'I' for Inactive)
REMARK    1  A    between atoms: C1_2  and  C2_3 
ROOT
ATOM      1  C2  UNL d   1      -1.429  -3.639  -5.189  0.00  0.00    -0.081 A 
ATOM      2  C3  UNL d   1      -1.716  -3.055  -3.949  0.00  0.00     0.006 A 
ATOM      3  C4  UNL d   1      -1.028  -1.914  -3.527  0.00  0.00     0.002 A 
ATOM      4  C5  UNL d   1      -0.049  -1.335  -4.340  0.00  0.00    -0.080 A 
ATOM      5  C6  UNL d   1       0.676  -0.093  -3.912  0.00  0.00     0.076 C 
ATOM      6  C7  UNL d   1       0.251  -1.928  -5.572  0.00  0.00     0.002 A 
ATOM      7  C8  UNL d   1      -0.436  -3.068  -5.994  0.00  0.00     0.006 A 
ENDROOT
BRANCH   1   8
ATOM      8  C1  UNL d   1      -2.214  -4.830  -5.675  0.00  0.00     0.054 C 
ATOM      9  C   UNL d   1      -3.652  -4.451  -5.999  0.00  0.00     0.018 C 
ENDBRANCH   1   8
TORSDOF 1
ENDMDL
