MODEL 1
REMARK minimizedAffinity -4.48374796
REMARK minimizedRMSD -1
REMARK  0 active torsions:
REMARK  status: ('A' for Active; 'I' for Inactive)
ROOT
ATOM      1  C1  BNZ d   1      -2.248   0.607   1.773  0.00  0.00     0.000 A 
ATOM      2  C2  BNZ d   1      -2.155  -0.035   0.567  0.00  0.00     0.000 A 
ATOM      3  C3  BNZ d   1      -0.957  -0.130  -0.085  0.00  0.00     0.000 A 
ATOM      4  C4  BNZ d   1       0.136   0.452   0.450  0.00  0.00     0.000 A 
ATOM      5  C5  BNZ d   1       0.057   1.111   1.660  0.00  0.00     0.000 A 
ATOM      6  C6  BNZ d   1      -1.143   1.170   2.333  0.00  0.00     0.000 A 
ENDROOT
TORSDOF 0
ENDMDL
