MODEL 1
REMARK minimizedAffinity -4.00520611
REMARK minimizedRMSD -1
REMARK  0 active torsions:
REMARK  status: ('A' for Active; 'I' for Inactive)
ROOT
ATOM      1  C1  BNZ d   1      -2.067   0.410   1.999  0.00  0.00     0.000 A 
ATOM      2  C2  BNZ d   1      -1.116   1.109   2.692  0.00  0.00     0.000 A 
ATOM      3  C3  BNZ d   1       0.027   1.537   2.075  0.00  0.00     0.000 A 
ATOM      4  C4  BNZ d   1       0.234   1.231   0.778  0.00  0.00     0.000 A 
ATOM      5  C5  BNZ d   1      -0.712   0.519   0.068  0.00  0.00     0.000 A 
ATOM      6  C6  BNZ d   1      -1.878   0.124   0.682  0.00  0.00     0.000 A 
ENDROOT
TORSDOF 0
ENDMDL
