MODEL 1
REMARK minimizedAffinity -4.92392063
REMARK minimizedRMSD -1
REMARK  0 active torsions:
REMARK  status: ('A' for Active; 'I' for Inactive)
ROOT
ATOM      1  C1  BNZ d   1      -1.516   0.381   0.698  0.00  0.00     0.000 A 
ATOM      2  C2  BNZ d   1      -1.650   0.625   2.039  0.00  0.00     0.000 A 
ATOM      3  C3  BNZ d   1      -0.552   0.834   2.825  0.00  0.00     0.000 A 
ATOM      4  C4  BNZ d   1       0.678   0.759   2.279  0.00  0.00     0.000 A 
ATOM      5  C5  BNZ d   1       0.831   0.504   0.931  0.00  0.00     0.000 A 
ATOM      6  C6  BNZ d   1      -0.279   0.333   0.134  0.00  0.00     0.000 A 
ENDROOT
TORSDOF 0
ENDMDL
