MODEL 1
REMARK minimizedAffinity -4.57454729
REMARK minimizedRMSD -1
REMARK  0 active torsions:
REMARK  status: ('A' for Active; 'I' for Inactive)
ROOT
ATOM      1  C1  BNZ d   1      -0.442   0.331   0.301  0.00  0.00     0.000 A 
ATOM      2  C2  BNZ d   1       0.436   1.174   0.927  0.00  0.00     0.000 A 
ATOM      3  C3  BNZ d   1       0.292   1.477   2.252  0.00  0.00     0.000 A 
ATOM      4  C4  BNZ d   1      -0.752   0.969   2.938  0.00  0.00     0.000 A 
ATOM      5  C5  BNZ d   1      -1.651   0.124   2.319  0.00  0.00     0.000 A 
ATOM      6  C6  BNZ d   1      -1.481  -0.209   0.995  0.00  0.00     0.000 A 
ENDROOT
TORSDOF 0
ENDMDL
