MODEL 1
REMARK minimizedAffinity -5.64215231
REMARK minimizedRMSD -1
REMARK  0 active torsions:
REMARK  status: ('A' for Active; 'I' for Inactive)
ROOT
ATOM      1  C   UNL d   1      -2.047  -1.537   0.092  0.00  0.00     0.020 A 
ATOM      2  C1  UNL d   1      -0.866  -1.615   0.828  0.00  0.00     0.020 A 
ATOM      3  C2  UNL d   1       0.313  -1.067   0.316  0.00  0.00     0.034 A 
ATOM      4  C3  UNL d   1       0.312  -0.440  -0.935  0.00  0.00     0.017 A 
ATOM      5  C4  UNL d   1      -0.875  -0.363  -1.673  0.00  0.00     0.017 A 
ATOM      6  C5  UNL d   1      -2.052  -0.913  -1.156  0.00  0.00     0.034 A 
ATOM      7 Cl   UNL d   1      -0.954   0.395  -3.225  0.00  0.00    -0.070 Cl
ATOM      8 Cl1  UNL d   1       1.805   0.216  -1.507  0.00  0.00    -0.070 Cl
ENDROOT
TORSDOF 0
ENDMDL
