MODEL 1
REMARK minimizedAffinity -2.39069009
REMARK minimizedRMSD -1
REMARK  0 active torsions:
REMARK  status: ('A' for Active; 'I' for Inactive)
ROOT
ATOM      1  C   UNL d   1      -2.295  -1.858   0.226  0.00  0.00     0.020 A 
ATOM      2  C1  UNL d   1      -3.027  -1.603  -0.933  0.00  0.00     0.020 A 
ATOM      3  C2  UNL d   1      -2.635  -0.574  -1.793  0.00  0.00     0.034 A 
ATOM      4  C3  UNL d   1      -1.509   0.202  -1.495  0.00  0.00     0.017 A 
ATOM      5  C4  UNL d   1      -0.776  -0.055  -0.332  0.00  0.00     0.017 A 
ATOM      6  C5  UNL d   1      -1.172  -1.086   0.526  0.00  0.00     0.034 A 
ATOM      7 Cl   UNL d   1       0.625   0.860   0.102  0.00  0.00    -0.070 Cl
ATOM      8 Cl1  UNL d   1      -1.083   1.457  -2.604  0.00  0.00    -0.070 Cl
ENDROOT
TORSDOF 0
ENDMDL
