MODEL 1
REMARK minimizedAffinity -2.47926998
REMARK minimizedRMSD -1
REMARK  0 active torsions:
REMARK  status: ('A' for Active; 'I' for Inactive)
ROOT
ATOM      1  C   UNL d   1       0.140   0.387  -1.286  0.00  0.00     0.020 A 
ATOM      2  C1  UNL d   1       0.934   0.193  -0.157  0.00  0.00     0.020 A 
ATOM      3  C2  UNL d   1       0.424  -0.497   0.945  0.00  0.00     0.034 A 
ATOM      4  C3  UNL d   1      -0.884  -0.996   0.919  0.00  0.00     0.017 A 
ATOM      5  C4  UNL d   1      -1.680  -0.800  -0.215  0.00  0.00     0.017 A 
ATOM      6  C5  UNL d   1      -1.164  -0.109  -1.315  0.00  0.00     0.034 A 
ATOM      7 Cl   UNL d   1      -3.302  -1.386  -0.321  0.00  0.00    -0.070 Cl
ATOM      8 Cl1  UNL d   1      -1.449  -1.840   2.317  0.00  0.00    -0.070 Cl
ENDROOT
TORSDOF 0
ENDMDL
