MODEL 1
REMARK minimizedAffinity -1.96219492
REMARK minimizedRMSD -1
REMARK  0 active torsions:
REMARK  status: ('A' for Active; 'I' for Inactive)
ROOT
ATOM      1  C   UNL d   1      -2.130   0.141  -2.460  0.00  0.00     0.020 A 
ATOM      2  C1  UNL d   1      -2.954  -0.551  -1.573  0.00  0.00     0.020 A 
ATOM      3  C2  UNL d   1      -2.464  -0.943  -0.325  0.00  0.00     0.034 A 
ATOM      4  C3  UNL d   1      -1.146  -0.643   0.039  0.00  0.00     0.017 A 
ATOM      5  C4  UNL d   1      -0.320   0.051  -0.852  0.00  0.00     0.017 A 
ATOM      6  C5  UNL d   1      -0.816   0.441  -2.100  0.00  0.00     0.034 A 
ATOM      7 Cl   UNL d   1       1.317   0.457  -0.474  0.00  0.00    -0.070 Cl
ATOM      8 Cl1  UNL d   1      -0.606  -1.158   1.597  0.00  0.00    -0.070 Cl
ENDROOT
TORSDOF 0
ENDMDL
