MODEL 1
REMARK minimizedAffinity -3.90329599
REMARK minimizedRMSD -1
REMARK  0 active torsions:
REMARK  status: ('A' for Active; 'I' for Inactive)
ROOT
ATOM      1  C   UNL d   1      -2.184  -1.362  -2.128  0.00  0.00     0.020 A 
ATOM      2  C1  UNL d   1      -1.202  -0.503  -2.622  0.00  0.00     0.020 A 
ATOM      3  C2  UNL d   1      -0.250   0.039  -1.756  0.00  0.00     0.034 A 
ATOM      4  C3  UNL d   1      -0.276  -0.276  -0.393  0.00  0.00     0.017 A 
ATOM      5  C4  UNL d   1      -1.261  -1.139   0.101  0.00  0.00     0.017 A 
ATOM      6  C5  UNL d   1      -2.213  -1.679  -0.769  0.00  0.00     0.034 A 
ATOM      7 Cl   UNL d   1      -1.358  -1.575   1.771  0.00  0.00    -0.070 Cl
ATOM      8 Cl1  UNL d   1       0.933   0.430   0.619  0.00  0.00    -0.070 Cl
ENDROOT
TORSDOF 0
ENDMDL
