MODEL 1
REMARK minimizedAffinity -2.46204257
REMARK minimizedRMSD -1
REMARK  0 active torsions:
REMARK  status: ('A' for Active; 'I' for Inactive)
ROOT
ATOM      1  C   UNL d   1      -3.229  -2.574   0.762  0.00  0.00     0.020 A 
ATOM      2  C1  UNL d   1      -3.656  -1.339   0.276  0.00  0.00     0.020 A 
ATOM      3  C2  UNL d   1      -2.761  -0.269   0.204  0.00  0.00     0.034 A 
ATOM      4  C3  UNL d   1      -1.434  -0.433   0.619  0.00  0.00     0.017 A 
ATOM      5  C4  UNL d   1      -1.006  -1.673   1.106  0.00  0.00     0.017 A 
ATOM      6  C5  UNL d   1      -1.907  -2.741   1.176  0.00  0.00     0.034 A 
ATOM      7 Cl   UNL d   1       0.615  -1.951   1.636  0.00  0.00    -0.070 Cl
ATOM      8 Cl1  UNL d   1      -0.382   0.933   0.501  0.00  0.00    -0.070 Cl
ENDROOT
TORSDOF 0
ENDMDL
