MODEL 1
REMARK minimizedAffinity -4.3253231
REMARK minimizedRMSD -1
REMARK  0 active torsions:
REMARK  status: ('A' for Active; 'I' for Inactive)
ROOT
ATOM      1  C   UNL d   1      -2.520   0.061   0.786  0.00  0.00     0.020 A 
ATOM      2  C1  UNL d   1      -2.848  -0.697  -0.337  0.00  0.00     0.020 A 
ATOM      3  C2  UNL d   1      -1.986  -0.728  -1.435  0.00  0.00     0.034 A 
ATOM      4  C3  UNL d   1      -0.790  -0.000  -1.412  0.00  0.00     0.017 A 
ATOM      5  C4  UNL d   1      -0.462   0.760  -0.283  0.00  0.00     0.017 A 
ATOM      6  C5  UNL d   1      -1.329   0.788   0.813  0.00  0.00     0.034 A 
ATOM      7 Cl   UNL d   1       0.995   1.684  -0.181  0.00  0.00    -0.070 Cl
ATOM      8 Cl1  UNL d   1       0.229  -0.085  -2.804  0.00  0.00    -0.070 Cl
ENDROOT
TORSDOF 0
ENDMDL
