MODEL 1
REMARK minimizedAffinity -4.99107695
REMARK minimizedRMSD -1
REMARK  0 active torsions:
REMARK  status: ('A' for Active; 'I' for Inactive)
ROOT
ATOM      1  C   UNL d   1      -3.022  -1.524   0.578  0.00  0.00     0.020 A 
ATOM      2  C1  UNL d   1      -2.043  -0.612   0.971  0.00  0.00     0.020 A 
ATOM      3  C2  UNL d   1      -1.150  -0.097   0.029  0.00  0.00     0.034 A 
ATOM      4  C3  UNL d   1      -1.233  -0.494  -1.310  0.00  0.00     0.017 A 
ATOM      5  C4  UNL d   1      -2.216  -1.410  -1.704  0.00  0.00     0.017 A 
ATOM      6  C5  UNL d   1      -3.108  -1.922  -0.757  0.00  0.00     0.034 A 
ATOM      7 Cl   UNL d   1      -2.380  -1.947  -3.338  0.00  0.00    -0.070 Cl
ATOM      8 Cl1  UNL d   1      -0.096   0.183  -2.421  0.00  0.00    -0.070 Cl
ENDROOT
TORSDOF 0
ENDMDL
