MODEL 1
REMARK minimizedAffinity -3.91915202
REMARK minimizedRMSD -1
REMARK  0 active torsions:
REMARK  status: ('A' for Active; 'I' for Inactive)
ROOT
ATOM      1  C   UNL d   1       1.226   0.326  -0.448  0.00  0.00     0.020 A 
ATOM      2  C1  UNL d   1       0.433   0.630  -1.553  0.00  0.00     0.020 A 
ATOM      3  C2  UNL d   1      -0.806   0.008  -1.716  0.00  0.00     0.034 A 
ATOM      4  C3  UNL d   1      -1.256  -0.923  -0.772  0.00  0.00     0.017 A 
ATOM      5  C4  UNL d   1      -0.459  -1.228   0.338  0.00  0.00     0.017 A 
ATOM      6  C5  UNL d   1       0.781  -0.601   0.496  0.00  0.00     0.034 A 
ATOM      7 Cl   UNL d   1      -0.946  -2.365   1.545  0.00  0.00    -0.070 Cl
ATOM      8 Cl1  UNL d   1      -2.799  -1.654  -1.036  0.00  0.00    -0.070 Cl
ENDROOT
TORSDOF 0
ENDMDL
