MODEL 1
REMARK minimizedAffinity -2.28748846
REMARK minimizedRMSD -1
REMARK  0 active torsions:
REMARK  status: ('A' for Active; 'I' for Inactive)
ROOT
ATOM      1  C   UNL d   1      -2.572  -2.991  -1.462  0.00  0.00     0.020 A 
ATOM      2  C1  UNL d   1      -2.416  -1.895  -2.310  0.00  0.00     0.020 A 
ATOM      3  C2  UNL d   1      -1.801  -0.732  -1.842  0.00  0.00     0.034 A 
ATOM      4  C3  UNL d   1      -1.340  -0.663  -0.522  0.00  0.00     0.017 A 
ATOM      5  C4  UNL d   1      -1.497  -1.763   0.328  0.00  0.00     0.017 A 
ATOM      6  C5  UNL d   1      -2.114  -2.925  -0.146  0.00  0.00     0.034 A 
ATOM      7 Cl   UNL d   1      -0.954  -1.752   1.969  0.00  0.00    -0.070 Cl
ATOM      8 Cl1  UNL d   1      -0.588   0.807  -0.010  0.00  0.00    -0.070 Cl
ENDROOT
TORSDOF 0
ENDMDL
