MODEL 1
REMARK minimizedAffinity -4.31320667
REMARK minimizedRMSD -1
REMARK  0 active torsions:
REMARK  status: ('A' for Active; 'I' for Inactive)
ROOT
ATOM      1  C   UNL d   1       2.709   2.576   1.027  0.00  0.00     0.020 A 
ATOM      2  C1  UNL d   1       1.889   3.403   0.261  0.00  0.00     0.020 A 
ATOM      3  C2  UNL d   1       0.666   2.927  -0.216  0.00  0.00     0.034 A 
ATOM      4  C3  UNL d   1       0.260   1.619   0.072  0.00  0.00     0.017 A 
ATOM      5  C4  UNL d   1       1.084   0.789   0.841  0.00  0.00     0.017 A 
ATOM      6  C5  UNL d   1       2.308   1.271   1.316  0.00  0.00     0.034 A 
ATOM      7 Cl   UNL d   1       0.651  -0.836   1.239  0.00  0.00    -0.070 Cl
ATOM      8 Cl1  UNL d   1      -1.265   1.095  -0.549  0.00  0.00    -0.070 Cl
ENDROOT
TORSDOF 0
ENDMDL
