MODEL 1
REMARK minimizedAffinity -4.12871122
REMARK minimizedRMSD -1
REMARK  0 active torsions:
REMARK  status: ('A' for Active; 'I' for Inactive)
ROOT
ATOM      1  C   UNL d   1      -2.265  -1.968   0.540  0.00  0.00     0.020 A 
ATOM      2  C1  UNL d   1      -3.118  -1.515  -0.466  0.00  0.00     0.020 A 
ATOM      3  C2  UNL d   1      -2.713  -0.479  -1.310  0.00  0.00     0.034 A 
ATOM      4  C3  UNL d   1      -1.452   0.107  -1.151  0.00  0.00     0.017 A 
ATOM      5  C4  UNL d   1      -0.596  -0.349  -0.141  0.00  0.00     0.017 A 
ATOM      6  C5  UNL d   1      -1.007  -1.387   0.701  0.00  0.00     0.034 A 
ATOM      7 Cl   UNL d   1       0.975   0.325   0.117  0.00  0.00    -0.070 Cl
ATOM      8 Cl1  UNL d   1      -1.016   1.384  -2.231  0.00  0.00    -0.070 Cl
ENDROOT
TORSDOF 0
ENDMDL
