MODEL 1
REMARK minimizedAffinity -4.63160276
REMARK minimizedRMSD -1
REMARK  0 active torsions:
REMARK  status: ('A' for Active; 'I' for Inactive)
ROOT
ATOM      1  C   UNL d   1      -2.416  -1.853   0.379  0.00  0.00     0.020 A 
ATOM      2  C1  UNL d   1      -3.059  -1.440  -0.787  0.00  0.00     0.020 A 
ATOM      3  C2  UNL d   1      -2.466  -0.478  -1.608  0.00  0.00     0.034 A 
ATOM      4  C3  UNL d   1      -1.226   0.073  -1.264  0.00  0.00     0.017 A 
ATOM      5  C4  UNL d   1      -0.581  -0.342  -0.093  0.00  0.00     0.017 A 
ATOM      6  C5  UNL d   1      -1.180  -1.305   0.725  0.00  0.00     0.034 A 
ATOM      7 Cl   UNL d   1       0.950   0.292   0.397  0.00  0.00    -0.070 Cl
ATOM      8 Cl1  UNL d   1      -0.551   1.258  -2.326  0.00  0.00    -0.070 Cl
ENDROOT
TORSDOF 0
ENDMDL
