MODEL 1
REMARK minimizedAffinity -1.84427023
REMARK minimizedRMSD -1
REMARK  0 active torsions:
REMARK  status: ('A' for Active; 'I' for Inactive)
ROOT
ATOM      1  C   UNL d   1       0.264  -1.539   1.113  0.00  0.00     0.020 A 
ATOM      2  C1  UNL d   1      -0.922  -1.765   1.811  0.00  0.00     0.020 A 
ATOM      3  C2  UNL d   1      -1.891  -0.762   1.885  0.00  0.00     0.034 A 
ATOM      4  C3  UNL d   1      -1.676   0.472   1.260  0.00  0.00     0.017 A 
ATOM      5  C4  UNL d   1      -0.486   0.698   0.559  0.00  0.00     0.017 A 
ATOM      6  C5  UNL d   1       0.481  -0.310   0.488  0.00  0.00     0.034 A 
ATOM      7 Cl   UNL d   1      -0.149   2.194  -0.238  0.00  0.00    -0.070 Cl
ATOM      8 Cl1  UNL d   1      -2.917   1.666   1.392  0.00  0.00    -0.070 Cl
ENDROOT
TORSDOF 0
ENDMDL
