MODEL 1
REMARK minimizedAffinity -2.86100721
REMARK minimizedRMSD -1
REMARK  0 active torsions:
REMARK  status: ('A' for Active; 'I' for Inactive)
ROOT
ATOM      1  C   UNL d   1      -1.683   0.378   1.302  0.00  0.00     0.020 A 
ATOM      2  C1  UNL d   1      -2.904  -0.148   0.881  0.00  0.00     0.020 A 
ATOM      3  C2  UNL d   1      -3.015  -0.727  -0.385  0.00  0.00     0.034 A 
ATOM      4  C3  UNL d   1      -1.904  -0.782  -1.234  0.00  0.00     0.017 A 
ATOM      5  C4  UNL d   1      -0.679  -0.254  -0.811  0.00  0.00     0.017 A 
ATOM      6  C5  UNL d   1      -0.573   0.325   0.457  0.00  0.00     0.034 A 
ATOM      7 Cl   UNL d   1       0.736  -0.284  -1.803  0.00  0.00    -0.070 Cl
ATOM      8 Cl1  UNL d   1      -2.115  -1.512  -2.786  0.00  0.00    -0.070 Cl
ENDROOT
TORSDOF 0
ENDMDL
