MODEL 1
REMARK minimizedAffinity -3.64332557
REMARK minimizedRMSD -1
REMARK  0 active torsions:
REMARK  status: ('A' for Active; 'I' for Inactive)
ROOT
ATOM      1  C   UNL d   1       2.174   0.849   0.984  0.00  0.00     0.020 A 
ATOM      2  C1  UNL d   1       2.251   0.796  -0.408  0.00  0.00     0.020 A 
ATOM      3  C2  UNL d   1       2.959   1.777  -1.105  0.00  0.00     0.034 A 
ATOM      4  C3  UNL d   1       3.592   2.815  -0.412  0.00  0.00     0.017 A 
ATOM      5  C4  UNL d   1       3.514   2.867   0.985  0.00  0.00     0.017 A 
ATOM      6  C5  UNL d   1       2.804   1.882   1.678  0.00  0.00     0.034 A 
ATOM      7 Cl   UNL d   1       4.270   4.116   1.909  0.00  0.00    -0.070 Cl
ATOM      8 Cl1  UNL d   1       4.450   3.994  -1.339  0.00  0.00    -0.070 Cl
ENDROOT
TORSDOF 0
ENDMDL
