MODEL 1
REMARK minimizedAffinity -2.18527031
REMARK minimizedRMSD -1
REMARK  0 active torsions:
REMARK  status: ('A' for Active; 'I' for Inactive)
ROOT
ATOM      1  C   UNL d   1      -1.148  -0.269   1.379  0.00  0.00     0.020 A 
ATOM      2  C1  UNL d   1      -0.003   0.447   1.029  0.00  0.00     0.020 A 
ATOM      3  C2  UNL d   1       0.389   0.527  -0.309  0.00  0.00     0.034 A 
ATOM      4  C3  UNL d   1      -0.364  -0.108  -1.302  0.00  0.00     0.017 A 
ATOM      5  C4  UNL d   1      -1.513  -0.826  -0.951  0.00  0.00     0.017 A 
ATOM      6  C5  UNL d   1      -1.901  -0.903   0.390  0.00  0.00     0.034 A 
ATOM      7 Cl   UNL d   1      -2.494  -1.636  -2.121  0.00  0.00    -0.070 Cl
ATOM      8 Cl1  UNL d   1       0.178   0.034  -2.936  0.00  0.00    -0.070 Cl
ENDROOT
TORSDOF 0
ENDMDL
