MODEL 1
REMARK minimizedAffinity -3.24243021
REMARK minimizedRMSD -1
REMARK  0 active torsions:
REMARK  status: ('A' for Active; 'I' for Inactive)
ROOT
ATOM      1  C   UNL d   1       0.832   0.015  -0.734  0.00  0.00     0.020 A 
ATOM      2  C1  UNL d   1       0.300  -0.226   0.533  0.00  0.00     0.020 A 
ATOM      3  C2  UNL d   1      -1.076  -0.399   0.691  0.00  0.00     0.034 A 
ATOM      4  C3  UNL d   1      -1.926  -0.332  -0.420  0.00  0.00     0.017 A 
ATOM      5  C4  UNL d   1      -1.391  -0.091  -1.690  0.00  0.00     0.017 A 
ATOM      6  C5  UNL d   1      -0.012   0.082  -1.843  0.00  0.00     0.034 A 
ATOM      7 Cl   UNL d   1      -2.376   0.006  -3.107  0.00  0.00    -0.070 Cl
ATOM      8 Cl1  UNL d   1      -3.618  -0.556  -0.151  0.00  0.00    -0.070 Cl
ENDROOT
TORSDOF 0
ENDMDL
