MODEL 1
REMARK minimizedAffinity -4.70408249
REMARK minimizedRMSD -1
REMARK  0 active torsions:
REMARK  status: ('A' for Active; 'I' for Inactive)
ROOT
ATOM      1  C   UNL d   1      -1.915  -0.666  -1.777  0.00  0.00     0.020 A 
ATOM      2  C1  UNL d   1      -2.890  -0.509  -0.793  0.00  0.00     0.020 A 
ATOM      3  C2  UNL d   1      -2.523  -0.128   0.500  0.00  0.00     0.034 A 
ATOM      4  C3  UNL d   1      -1.177   0.097   0.812  0.00  0.00     0.017 A 
ATOM      5  C4  UNL d   1      -0.199  -0.061  -0.177  0.00  0.00     0.017 A 
ATOM      6  C5  UNL d   1      -0.572  -0.442  -1.469  0.00  0.00     0.034 A 
ATOM      7 Cl   UNL d   1       1.481   0.199   0.133  0.00  0.00    -0.070 Cl
ATOM      8 Cl1  UNL d   1      -0.796   0.567   2.430  0.00  0.00    -0.070 Cl
ENDROOT
TORSDOF 0
ENDMDL
