MODEL 1
REMARK minimizedAffinity -0.641964555
REMARK minimizedRMSD -1
REMARK  0 active torsions:
REMARK  status: ('A' for Active; 'I' for Inactive)
ROOT
ATOM      1  C   UNL d   1       2.637   2.856   2.211  0.00  0.00     0.020 A 
ATOM      2  C1  UNL d   1       3.114   3.102   0.924  0.00  0.00     0.020 A 
ATOM      3  C2  UNL d   1       2.953   2.141  -0.076  0.00  0.00     0.034 A 
ATOM      4  C3  UNL d   1       2.314   0.929   0.209  0.00  0.00     0.017 A 
ATOM      5  C4  UNL d   1       1.835   0.683   1.501  0.00  0.00     0.017 A 
ATOM      6  C5  UNL d   1       1.999   1.648   2.499  0.00  0.00     0.034 A 
ATOM      7 Cl   UNL d   1       1.036  -0.789   1.928  0.00  0.00    -0.070 Cl
ATOM      8 Cl1  UNL d   1       2.149  -0.214  -1.077  0.00  0.00    -0.070 Cl
ENDROOT
TORSDOF 0
ENDMDL
