MODEL 1
REMARK minimizedAffinity 5.54922104
REMARK minimizedRMSD -1
REMARK  0 active torsions:
REMARK  status: ('A' for Active; 'I' for Inactive)
ROOT
ATOM      1  N1  IND d   1      -5.257  -2.480  -5.986  0.00  0.00    -0.196 N 
ATOM      2  C2  IND d   1      -4.652  -1.688  -5.050  0.00  0.00     0.054 A 
ATOM      3  C3  IND d   1      -4.427  -2.388  -3.916  0.00  0.00    -0.031 A 
ATOM      4  C4  IND d   1      -4.879  -4.872  -3.410  0.00  0.00     0.051 A 
ATOM      5  C5  IND d   1      -5.453  -5.992  -3.942  0.00  0.00    -0.031 A 
ATOM      6  C6  IND d   1      -6.000  -6.000  -5.209  0.00  0.00     0.015 A 
ATOM      7  C7  IND d   1      -5.982  -4.885  -5.999  0.00  0.00    -0.016 A 
ATOM      8  C8  IND d   1      -5.407  -3.744  -5.460  0.00  0.00    -0.047 A 
ATOM      9  C9  IND d   1      -4.888  -3.718  -4.159  0.00  0.00    -0.096 A 
ATOM     10  HN1 IND d   1      -5.503  -2.230  -6.771  0.00  0.00     0.298 HD
ENDROOT
TORSDOF 0
ENDMDL
