MODEL 1
REMARK minimizedAffinity -2.41835618
REMARK minimizedRMSD -1
REMARK  0 active torsions:
REMARK  status: ('A' for Active; 'I' for Inactive)
ROOT
ATOM      1  N1  IND d   1      -5.933  -3.976  -2.428  0.00  0.00    -0.196 N 
ATOM      2  C2  IND d   1      -5.613  -5.037  -1.627  0.00  0.00     0.054 A 
ATOM      3  C3  IND d   1      -4.992  -5.999  -2.347  0.00  0.00    -0.031 A 
ATOM      4  C4  IND d   1      -4.307  -5.999  -4.829  0.00  0.00     0.051 A 
ATOM      5  C5  IND d   1      -4.417  -5.265  -5.976  0.00  0.00    -0.031 A 
ATOM      6  C6  IND d   1      -5.048  -4.038  -6.000  0.00  0.00     0.015 A 
ATOM      7  C7  IND d   1      -5.585  -3.491  -4.869  0.00  0.00    -0.016 A 
ATOM      8  C8  IND d   1      -5.482  -4.237  -3.703  0.00  0.00    -0.047 A 
ATOM      9  C9  IND d   1      -4.880  -5.502  -3.682  0.00  0.00    -0.096 A 
ATOM     10  HN1 IND d   1      -6.347  -3.265  -2.177  0.00  0.00     0.298 HD
ENDROOT
TORSDOF 0
ENDMDL
