MODEL 1
REMARK minimizedAffinity 0.333028108
REMARK minimizedRMSD -1
REMARK  0 active torsions:
REMARK  status: ('A' for Active; 'I' for Inactive)
ROOT
ATOM      1  N1  IND d   1      -5.740  -3.845  -2.503  0.00  0.00    -0.196 N 
ATOM      2  C2  IND d   1      -5.652  -4.975  -1.738  0.00  0.00     0.054 A 
ATOM      3  C3  IND d   1      -5.132  -5.993  -2.461  0.00  0.00    -0.031 A 
ATOM      4  C4  IND d   1      -4.259  -6.000  -4.883  0.00  0.00     0.051 A 
ATOM      5  C5  IND d   1      -4.163  -5.212  -5.995  0.00  0.00    -0.031 A 
ATOM      6  C6  IND d   1      -4.593  -3.901  -6.000  0.00  0.00     0.015 A 
ATOM      7  C7  IND d   1      -5.128  -3.323  -4.883  0.00  0.00    -0.016 A 
ATOM      8  C8  IND d   1      -5.234  -4.122  -3.754  0.00  0.00    -0.047 A 
ATOM      9  C9  IND d   1      -4.838  -5.466  -3.756  0.00  0.00    -0.096 A 
ATOM     10  HN1 IND d   1      -6.058  -3.089  -2.245  0.00  0.00     0.298 HD
ENDROOT
TORSDOF 0
ENDMDL
