MODEL 1
REMARK minimizedAffinity 3.7726059
REMARK minimizedRMSD -1
REMARK  0 active torsions:
REMARK  status: ('A' for Active; 'I' for Inactive)
ROOT
ATOM      1  N1  IND d   1       1.286   0.043   2.602  0.00  0.00    -0.196 N 
ATOM      2  C2  IND d   1       1.612   0.182   1.281  0.00  0.00     0.054 A 
ATOM      3  C3  IND d   1       2.000  -1.005   0.765  0.00  0.00    -0.031 A 
ATOM      4  C4  IND d   1       2.079  -3.325   1.877  0.00  0.00     0.051 A 
ATOM      5  C5  IND d   1       1.909  -3.949   3.081  0.00  0.00    -0.031 A 
ATOM      6  C6  IND d   1       1.512  -3.261   4.209  0.00  0.00     0.015 A 
ATOM      7  C7  IND d   1       1.258  -1.919   4.172  0.00  0.00    -0.016 A 
ATOM      8  C8  IND d   1       1.436  -1.281   2.953  0.00  0.00    -0.047 A 
ATOM      9  C9  IND d   1       1.880  -1.967   1.815  0.00  0.00    -0.096 A 
ATOM     10  HN1 IND d   1       1.030   0.675   3.125  0.00  0.00     0.298 HD
ENDROOT
TORSDOF 0
ENDMDL
