MODEL 1
REMARK minimizedAffinity 8.80578709
REMARK minimizedRMSD -1
REMARK  0 active torsions:
REMARK  status: ('A' for Active; 'I' for Inactive)
ROOT
ATOM      1  N1  IND d   1      -5.311  -5.922  -4.948  0.00  0.00    -0.196 N 
ATOM      2  C2  IND d   1      -5.441  -5.051  -5.993  0.00  0.00     0.054 A 
ATOM      3  C3  IND d   1      -5.749  -3.815  -5.540  0.00  0.00    -0.031 A 
ATOM      4  C4  IND d   1      -5.990  -2.973  -3.119  0.00  0.00     0.051 A 
ATOM      5  C5  IND d   1      -5.998  -3.408  -1.824  0.00  0.00    -0.031 A 
ATOM      6  C6  IND d   1      -5.770  -4.729  -1.496  0.00  0.00     0.015 A 
ATOM      7  C7  IND d   1      -5.514  -5.667  -2.456  0.00  0.00    -0.016 A 
ATOM      8  C8  IND d   1      -5.512  -5.230  -3.773  0.00  0.00    -0.047 A 
ATOM      9  C9  IND d   1      -5.784  -3.899  -4.115  0.00  0.00    -0.096 A 
ATOM     10  HN1 IND d   1      -5.135  -6.761  -5.013  0.00  0.00     0.298 HD
ENDROOT
TORSDOF 0
ENDMDL
