MODEL 1
REMARK minimizedAffinity 9.14807034
REMARK minimizedRMSD -1
REMARK  0 active torsions:
REMARK  status: ('A' for Active; 'I' for Inactive)
ROOT
ATOM      1  N1  IND d   1       3.772  -5.998  -5.603  0.00  0.00    -0.196 N 
ATOM      2  C2  IND d   1       5.081  -5.960  -5.997  0.00  0.00     0.054 A 
ATOM      3  C3  IND d   1       5.895  -5.899  -4.920  0.00  0.00    -0.031 A 
ATOM      4  C4  IND d   1       5.302  -5.954  -2.416  0.00  0.00     0.051 A 
ATOM      5  C5  IND d   1       4.235  -5.948  -1.561  0.00  0.00    -0.031 A 
ATOM      6  C6  IND d   1       2.934  -5.962  -2.019  0.00  0.00     0.015 A 
ATOM      7  C7  IND d   1       2.649  -5.993  -3.355  0.00  0.00    -0.016 A 
ATOM      8  C8  IND d   1       3.729  -5.992  -4.226  0.00  0.00    -0.047 A 
ATOM      9  C9  IND d   1       5.052  -5.935  -3.768  0.00  0.00    -0.096 A 
ATOM     10  HN1 IND d   1       3.091  -6.022  -6.127  0.00  0.00     0.298 HD
ENDROOT
TORSDOF 0
ENDMDL
