MODEL 1
REMARK minimizedAffinity 11.8568869
REMARK minimizedRMSD -1
REMARK  0 active torsions:
REMARK  status: ('A' for Active; 'I' for Inactive)
ROOT
ATOM      1  N1  IND d   1      -4.041   2.692  -0.149  0.00  0.00    -0.196 N 
ATOM      2  C2  IND d   1      -5.097   3.384   0.376  0.00  0.00     0.054 A 
ATOM      3  C3  IND d   1      -6.000   3.668  -0.589  0.00  0.00    -0.031 A 
ATOM      4  C4  IND d   1      -5.998   3.007  -3.077  0.00  0.00     0.051 A 
ATOM      5  C5  IND d   1      -5.227   2.403  -4.030  0.00  0.00    -0.031 A 
ATOM      6  C6  IND d   1      -3.998   1.851  -3.732  0.00  0.00     0.015 A 
ATOM      7  C7  IND d   1      -3.496   1.873  -2.462  0.00  0.00    -0.016 A 
ATOM      8  C8  IND d   1      -4.273   2.491  -1.492  0.00  0.00    -0.047 A 
ATOM      9  C9  IND d   1      -5.502   3.090  -1.797  0.00  0.00    -0.096 A 
ATOM     10  HN1 IND d   1      -3.348   2.427   0.286  0.00  0.00     0.298 HD
ENDROOT
TORSDOF 0
ENDMDL
