MODEL 1
REMARK minimizedAffinity -4.42612791
REMARK minimizedRMSD -1
REMARK  1 active torsions:
REMARK  status: ('A' for Active; 'I' for Inactive)
REMARK    1  A    between atoms: C1_2  and  C2_3 
ROOT
ATOM      1  C2  UNL d   1       0.087   0.737  -0.654  0.00  0.00    -0.081 A 
ATOM      2  C3  UNL d   1       0.755  -0.464  -0.384  0.00  0.00     0.006 A 
ATOM      3  C4  UNL d   1       0.087  -1.522   0.237  0.00  0.00     0.002 A 
ATOM      4  C5  UNL d   1      -1.260  -1.400   0.591  0.00  0.00    -0.080 A 
ATOM      5  C6  UNL d   1      -1.997  -2.539   1.231  0.00  0.00     0.076 C 
ATOM      6  C7  UNL d   1      -1.923  -0.194   0.337  0.00  0.00     0.002 A 
ATOM      7  C8  UNL d   1      -1.256   0.864  -0.283  0.00  0.00     0.006 A 
ENDROOT
BRANCH   1   8
ATOM      8  C1  UNL d   1       0.787   1.856  -1.382  0.00  0.00     0.054 C 
ATOM      9  C   UNL d   1       0.421   1.869  -2.860  0.00  0.00     0.018 C 
ENDBRANCH   1   8
TORSDOF 1
ENDMDL
