MODEL 1
REMARK minimizedAffinity -3.27601409
REMARK minimizedRMSD -1
REMARK  1 active torsions:
REMARK  status: ('A' for Active; 'I' for Inactive)
REMARK    1  A    between atoms: C1_2  and  C2_3 
ROOT
ATOM      1  C2  UNL d   1       0.152   0.763  -1.113  0.00  0.00    -0.081 A 
ATOM      2  C3  UNL d   1       1.142   0.516  -0.153  0.00  0.00     0.006 A 
ATOM      3  C4  UNL d   1       1.045  -0.590   0.695  0.00  0.00     0.002 A 
ATOM      4  C5  UNL d   1      -0.037  -1.471   0.593  0.00  0.00    -0.080 A 
ATOM      5  C6  UNL d   1      -0.136  -2.678   1.477  0.00  0.00     0.076 C 
ATOM      6  C7  UNL d   1      -1.034  -1.215  -0.354  0.00  0.00     0.002 A 
ATOM      7  C8  UNL d   1      -0.939  -0.109  -1.202  0.00  0.00     0.006 A 
ENDROOT
BRANCH   1   8
ATOM      8  C1  UNL d   1       0.286   1.918  -2.072  0.00  0.00     0.054 C 
ATOM      9  C   UNL d   1       1.145   1.544  -3.272  0.00  0.00     0.018 C 
ENDBRANCH   1   8
TORSDOF 1
ENDMDL
