MODEL 1
REMARK minimizedAffinity -4.39071989
REMARK minimizedRMSD -1
REMARK  1 active torsions:
REMARK  status: ('A' for Active; 'I' for Inactive)
REMARK    1  A    between atoms: C1_2  and  C2_3 
ROOT
ATOM      1  C2  UNL d   1       0.440   0.707  -0.408  0.00  0.00    -0.081 A 
ATOM      2  C3  UNL d   1       1.203  -0.439  -0.151  0.00  0.00     0.006 A 
ATOM      3  C4  UNL d   1       0.595  -1.603   0.324  0.00  0.00     0.002 A 
ATOM      4  C5  UNL d   1      -0.787  -1.644   0.542  0.00  0.00    -0.080 A 
ATOM      5  C6  UNL d   1      -1.456  -2.896   1.023  0.00  0.00     0.076 C 
ATOM      6  C7  UNL d   1      -1.546  -0.494   0.302  0.00  0.00     0.002 A 
ATOM      7  C8  UNL d   1      -0.939   0.671  -0.172  0.00  0.00     0.006 A 
ENDROOT
BRANCH   1   8
ATOM      8  C1  UNL d   1       1.083   1.943  -0.982  0.00  0.00     0.054 C 
ATOM      9  C   UNL d   1       0.918   2.002  -2.494  0.00  0.00     0.018 C 
ENDBRANCH   1   8
TORSDOF 1
ENDMDL
