MODEL 1
REMARK minimizedAffinity -2.1997366
REMARK minimizedRMSD -1
REMARK  1 active torsions:
REMARK  status: ('A' for Active; 'I' for Inactive)
REMARK    1  A    between atoms: C1_2  and  C2_3 
ROOT
ATOM      1  C2  UNL d   1       0.465   0.545  -0.253  0.00  0.00    -0.081 A 
ATOM      2  C3  UNL d   1       1.033  -0.734  -0.202  0.00  0.00     0.006 A 
ATOM      3  C4  UNL d   1       0.321  -1.803   0.348  0.00  0.00     0.002 A 
ATOM      4  C5  UNL d   1      -0.972  -1.613   0.847  0.00  0.00    -0.080 A 
ATOM      5  C6  UNL d   1      -1.758  -2.759   1.412  0.00  0.00     0.076 C 
ATOM      6  C7  UNL d   1      -1.532  -0.332   0.812  0.00  0.00     0.002 A 
ATOM      7  C8  UNL d   1      -0.821   0.738   0.264  0.00  0.00     0.006 A 
ENDROOT
BRANCH   1   8
ATOM      8  C1  UNL d   1       1.204   1.687  -0.903  0.00  0.00     0.054 C 
ATOM      9  C   UNL d   1       0.940   1.735  -2.401  0.00  0.00     0.018 C 
ENDBRANCH   1   8
TORSDOF 1
ENDMDL
