MODEL 1
REMARK minimizedAffinity -3.98219228
REMARK minimizedRMSD -1
REMARK  1 active torsions:
REMARK  status: ('A' for Active; 'I' for Inactive)
REMARK    1  A    between atoms: C1_2  and  C2_3 
ROOT
ATOM      1  C2  UNL d   1       0.423   0.715  -0.430  0.00  0.00    -0.081 A 
ATOM      2  C3  UNL d   1       1.247  -0.372  -0.114  0.00  0.00     0.006 A 
ATOM      3  C4  UNL d   1       0.709  -1.522   0.469  0.00  0.00     0.002 A 
ATOM      4  C5  UNL d   1      -0.662  -1.607   0.738  0.00  0.00    -0.080 A 
ATOM      5  C6  UNL d   1      -1.257  -2.847   1.336  0.00  0.00     0.076 C 
ATOM      6  C7  UNL d   1      -1.481  -0.514   0.438  0.00  0.00     0.002 A 
ATOM      7  C8  UNL d   1      -0.944   0.637  -0.144  0.00  0.00     0.006 A 
ENDROOT
BRANCH   1   8
ATOM      8  C1  UNL d   1       0.990   1.931  -1.118  0.00  0.00     0.054 C 
ATOM      9  C   UNL d   1       0.439   2.075  -2.529  0.00  0.00     0.018 C 
ENDBRANCH   1   8
TORSDOF 1
ENDMDL
