MODEL 1
REMARK minimizedAffinity -4.51407146
REMARK minimizedRMSD -1
REMARK  1 active torsions:
REMARK  status: ('A' for Active; 'I' for Inactive)
REMARK    1  A    between atoms: C1_2  and  C2_3 
ROOT
ATOM      1  C2  UNL d   1       0.419   1.096  -0.483  0.00  0.00    -0.081 A 
ATOM      2  C3  UNL d   1       1.399   0.123  -0.251  0.00  0.00     0.006 A 
ATOM      3  C4  UNL d   1       1.046  -1.132   0.250  0.00  0.00     0.002 A 
ATOM      4  C5  UNL d   1      -0.292  -1.438   0.521  0.00  0.00    -0.080 A 
ATOM      5  C6  UNL d   1      -0.687  -2.792   1.031  0.00  0.00     0.076 C 
ATOM      6  C7  UNL d   1      -1.269  -0.460   0.306  0.00  0.00     0.002 A 
ATOM      7  C8  UNL d   1      -0.917   0.796  -0.194  0.00  0.00     0.006 A 
ENDROOT
BRANCH   1   8
ATOM      8  C1  UNL d   1       0.789   2.428  -1.084  0.00  0.00     0.054 C 
ATOM      9  C   UNL d   1       1.517   2.254  -2.409  0.00  0.00     0.018 C 
ENDBRANCH   1   8
TORSDOF 1
ENDMDL
