MODEL 1
REMARK minimizedAffinity -3.15358663
REMARK minimizedRMSD -1
REMARK  1 active torsions:
REMARK  status: ('A' for Active; 'I' for Inactive)
REMARK    1  A    between atoms: C1_2  and  C2_3 
ROOT
ATOM      1  C2  UNL d   1       0.208   0.420  -0.120  0.00  0.00    -0.081 A 
ATOM      2  C3  UNL d   1       0.742  -0.852   0.119  0.00  0.00     0.006 A 
ATOM      3  C4  UNL d   1      -0.067  -1.881   0.606  0.00  0.00     0.002 A 
ATOM      4  C5  UNL d   1      -1.426  -1.657   0.856  0.00  0.00    -0.080 A 
ATOM      5  C6  UNL d   1      -2.313  -2.761   1.351  0.00  0.00     0.076 C 
ATOM      6  C7  UNL d   1      -1.956  -0.382   0.634  0.00  0.00     0.002 A 
ATOM      7  C8  UNL d   1      -1.147   0.647   0.147  0.00  0.00     0.006 A 
ENDROOT
BRANCH   1   8
ATOM      8  C1  UNL d   1       1.063   1.513  -0.707  0.00  0.00     0.054 C 
ATOM      9  C   UNL d   1       0.825   1.660  -2.203  0.00  0.00     0.018 C 
ENDBRANCH   1   8
TORSDOF 1
ENDMDL
