MODEL 1
REMARK minimizedAffinity -4.87945127
REMARK minimizedRMSD -1
REMARK  1 active torsions:
REMARK  status: ('A' for Active; 'I' for Inactive)
REMARK    1  A    between atoms: C1_2  and  C2_3 
ROOT
ATOM      1  C2  UNL d   1       0.355   0.774  -0.502  0.00  0.00    -0.081 A 
ATOM      2  C3  UNL d   1       0.929  -0.502  -0.535  0.00  0.00     0.006 A 
ATOM      3  C4  UNL d   1       0.249  -1.599  -0.002  0.00  0.00     0.002 A 
ATOM      4  C5  UNL d   1      -1.020  -1.440   0.566  0.00  0.00    -0.080 A 
ATOM      5  C6  UNL d   1      -1.774  -2.614   1.114  0.00  0.00     0.076 C 
ATOM      6  C7  UNL d   1      -1.586  -0.162   0.615  0.00  0.00     0.002 A 
ATOM      7  C8  UNL d   1      -0.906   0.935   0.082  0.00  0.00     0.006 A 
ENDROOT
BRANCH   1   8
ATOM      8  C1  UNL d   1       1.059   1.948  -1.134  0.00  0.00     0.054 C 
ATOM      9  C   UNL d   1       0.900   1.938  -2.648  0.00  0.00     0.018 C 
ENDBRANCH   1   8
TORSDOF 1
ENDMDL
