MODEL 1
REMARK minimizedAffinity -4.98436975
REMARK minimizedRMSD -1
REMARK  1 active torsions:
REMARK  status: ('A' for Active; 'I' for Inactive)
REMARK    1  A    between atoms: C1_2  and  C2_3 
ROOT
ATOM      1  C2  UNL d   1       0.470   0.082  -0.296  0.00  0.00    -0.081 A 
ATOM      2  C3  UNL d   1       0.599  -1.311  -0.355  0.00  0.00     0.006 A 
ATOM      3  C4  UNL d   1      -0.327  -2.136   0.288  0.00  0.00     0.002 A 
ATOM      4  C5  UNL d   1      -1.402  -1.582   0.993  0.00  0.00    -0.080 A 
ATOM      5  C6  UNL d   1      -2.420  -2.456   1.662  0.00  0.00     0.076 C 
ATOM      6  C7  UNL d   1      -1.521  -0.190   1.065  0.00  0.00     0.002 A 
ATOM      7  C8  UNL d   1      -0.594   0.635   0.424  0.00  0.00     0.006 A 
ENDROOT
BRANCH   1   8
ATOM      8  C1  UNL d   1       1.431   0.972  -1.042  0.00  0.00     0.054 C 
ATOM      9  C   UNL d   1       0.791   1.547  -2.298  0.00  0.00     0.018 C 
ENDBRANCH   1   8
TORSDOF 1
ENDMDL
