MODEL 1
REMARK minimizedAffinity -0.890404522
REMARK minimizedRMSD -1
REMARK  1 active torsions:
REMARK  status: ('A' for Active; 'I' for Inactive)
REMARK    1  A    between atoms: C1_2  and  C2_3 
ROOT
ATOM      1  C2  UNL d   1      -1.545  -0.572   0.498  0.00  0.00    -0.081 A 
ATOM      2  C3  UNL d   1      -1.421  -1.947   0.733  0.00  0.00     0.006 A 
ATOM      3  C4  UNL d   1      -0.178  -2.575   0.619  0.00  0.00     0.002 A 
ATOM      4  C5  UNL d   1       0.960  -1.839   0.276  0.00  0.00    -0.080 A 
ATOM      5  C6  UNL d   1       2.305  -2.495   0.180  0.00  0.00     0.076 C 
ATOM      6  C7  UNL d   1       0.833  -0.469   0.024  0.00  0.00     0.002 A 
ATOM      7  C8  UNL d   1      -0.409   0.160   0.137  0.00  0.00     0.006 A 
ENDROOT
BRANCH   1   8
ATOM      8  C1  UNL d   1      -2.871   0.120   0.683  0.00  0.00     0.054 C 
ATOM      9  C   UNL d   1      -2.685   1.591   1.028  0.00  0.00     0.018 C 
ENDBRANCH   1   8
TORSDOF 1
ENDMDL
