MODEL 1
REMARK minimizedAffinity -3.84568381
REMARK minimizedRMSD -1
REMARK  1 active torsions:
REMARK  status: ('A' for Active; 'I' for Inactive)
REMARK    1  A    between atoms: C1_2  and  C2_3 
ROOT
ATOM      1  C2  UNL d   1       0.301   0.839   0.211  0.00  0.00    -0.081 A 
ATOM      2  C3  UNL d   1       1.053  -0.341   0.267  0.00  0.00     0.006 A 
ATOM      3  C4  UNL d   1       0.438  -1.558   0.568  0.00  0.00     0.002 A 
ATOM      4  C5  UNL d   1      -0.938  -1.618   0.810  0.00  0.00    -0.080 A 
ATOM      5  C6  UNL d   1      -1.616  -2.923   1.105  0.00  0.00     0.076 C 
ATOM      6  C7  UNL d   1      -1.687  -0.436   0.772  0.00  0.00     0.002 A 
ATOM      7  C8  UNL d   1      -1.072   0.782   0.471  0.00  0.00     0.006 A 
ENDROOT
BRANCH   1   8
ATOM      8  C1  UNL d   1       0.950   2.144  -0.177  0.00  0.00     0.054 C 
ATOM      9  C   UNL d   1       1.625   2.043  -1.537  0.00  0.00     0.018 C 
ENDBRANCH   1   8
TORSDOF 1
ENDMDL
