MODEL 1
REMARK minimizedAffinity -3.66394091
REMARK minimizedRMSD -1
REMARK  1 active torsions:
REMARK  status: ('A' for Active; 'I' for Inactive)
REMARK    1  A    between atoms: C1_2  and  C2_3 
ROOT
ATOM      1  C2  UNL d   1       0.800   0.854  -0.865  0.00  0.00    -0.081 A 
ATOM      2  C3  UNL d   1      -0.550   0.655  -0.549  0.00  0.00     0.006 A 
ATOM      3  C4  UNL d   1      -0.947  -0.460   0.192  0.00  0.00     0.002 A 
ATOM      4  C5  UNL d   1      -0.001  -1.391   0.636  0.00  0.00    -0.080 A 
ATOM      5  C6  UNL d   1      -0.410  -2.577   1.458  0.00  0.00     0.076 C 
ATOM      6  C7  UNL d   1       1.345  -1.202   0.305  0.00  0.00     0.002 A 
ATOM      7  C8  UNL d   1       1.742  -0.087  -0.437  0.00  0.00     0.006 A 
ENDROOT
BRANCH   1   8
ATOM      8  C1  UNL d   1       1.239   2.089  -1.609  0.00  0.00     0.054 C 
ATOM      9  C   UNL d   1       1.441   1.801  -3.090  0.00  0.00     0.018 C 
ENDBRANCH   1   8
TORSDOF 1
ENDMDL
