MODEL 1
REMARK minimizedAffinity -5.32601404
REMARK minimizedRMSD -1
REMARK  1 active torsions:
REMARK  status: ('A' for Active; 'I' for Inactive)
REMARK    1  A    between atoms: C1_2  and  C2_3 
ROOT
ATOM      1  C2  UNL d   1       0.560   0.869  -0.116  0.00  0.00    -0.081 A 
ATOM      2  C3  UNL d   1       1.037  -0.448  -0.133  0.00  0.00     0.006 A 
ATOM      3  C4  UNL d   1       0.265  -1.487   0.393  0.00  0.00     0.002 A 
ATOM      4  C5  UNL d   1      -0.998  -1.229   0.936  0.00  0.00    -0.080 A 
ATOM      5  C6  UNL d   1      -1.849  -2.340   1.475  0.00  0.00     0.076 C 
ATOM      6  C7  UNL d   1      -1.467   0.089   0.969  0.00  0.00     0.002 A 
ATOM      7  C8  UNL d   1      -0.696   1.128   0.444  0.00  0.00     0.006 A 
ENDROOT
BRANCH   1   8
ATOM      8  C1  UNL d   1       1.361   1.982  -0.740  0.00  0.00     0.054 C 
ATOM      9  C   UNL d   1       1.208   1.993  -2.254  0.00  0.00     0.018 C 
ENDBRANCH   1   8
TORSDOF 1
ENDMDL
