MODEL 1
REMARK minimizedAffinity -4.70100069
REMARK minimizedRMSD -1
REMARK  1 active torsions:
REMARK  status: ('A' for Active; 'I' for Inactive)
REMARK    1  A    between atoms: C1_2  and  C2_3 
ROOT
ATOM      1  C2  UNL d   1       0.329   0.832  -0.387  0.00  0.00    -0.076 A 
ATOM      2  C3  UNL d   1       1.676   1.227  -0.306  0.00  0.00     0.004 A 
ATOM      3  C4  UNL d   1       2.101   2.132   0.666  0.00  0.00    -0.003 A 
ATOM      4  C5  UNL d   1       1.186   2.655   1.573  0.00  0.00     0.000 A 
ATOM      5  C6  UNL d   1      -0.150   2.261   1.518  0.00  0.00     0.000 A 
ATOM      6  C7  UNL d   1      -0.592   1.338   0.555  0.00  0.00    -0.073 A 
ATOM      7  C8  UNL d   1      -2.046   0.952   0.538  0.00  0.00     0.078 C 
ENDROOT
BRANCH   1   8
ATOM      8  C1  UNL d   1      -0.079  -0.131  -1.480  0.00  0.00     0.053 C 
ATOM      9  C   UNL d   1       0.487  -1.526  -1.267  0.00  0.00     0.018 C 
ENDBRANCH   1   8
TORSDOF 1
ENDMDL
