MODEL 1
REMARK minimizedAffinity -5.05416012
REMARK minimizedRMSD -1
REMARK  1 active torsions:
REMARK  status: ('A' for Active; 'I' for Inactive)
REMARK    1  A    between atoms: C1_2  and  C2_3 
ROOT
ATOM      1  C2  UNL d   1       0.907   0.438   0.084  0.00  0.00    -0.076 A 
ATOM      2  C3  UNL d   1       2.193   0.932  -0.197  0.00  0.00     0.004 A 
ATOM      3  C4  UNL d   1       2.626   2.147   0.331  0.00  0.00    -0.003 A 
ATOM      4  C5  UNL d   1       1.780   2.888   1.149  0.00  0.00     0.000 A 
ATOM      5  C6  UNL d   1       0.507   2.405   1.453  0.00  0.00     0.000 A 
ATOM      6  C7  UNL d   1       0.062   1.174   0.942  0.00  0.00    -0.073 A 
ATOM      7  C8  UNL d   1      -1.322   0.703   1.296  0.00  0.00     0.078 C 
ENDROOT
BRANCH   1   8
ATOM      8  C1  UNL d   1       0.483  -0.873  -0.539  0.00  0.00     0.053 C 
ATOM      9  C   UNL d   1      -0.511  -0.684  -1.674  0.00  0.00     0.018 C 
ENDBRANCH   1   8
TORSDOF 1
ENDMDL
