MODEL 1
REMARK minimizedAffinity -5.3970294
REMARK minimizedRMSD -1
REMARK  1 active torsions:
REMARK  status: ('A' for Active; 'I' for Inactive)
REMARK    1  A    between atoms: C1_2  and  C2_3 
ROOT
ATOM      1  C2  UNL d   1       0.361   0.390   0.334  0.00  0.00    -0.076 A 
ATOM      2  C3  UNL d   1       1.331   1.302  -0.117  0.00  0.00     0.004 A 
ATOM      3  C4  UNL d   1       1.485   2.546   0.494  0.00  0.00    -0.003 A 
ATOM      4  C5  UNL d   1       0.673   2.897   1.567  0.00  0.00     0.000 A 
ATOM      5  C6  UNL d   1      -0.282   1.997   2.038  0.00  0.00     0.000 A 
ATOM      6  C7  UNL d   1      -0.440   0.733   1.444  0.00  0.00    -0.073 A 
ATOM      7  C8  UNL d   1      -1.490  -0.195   1.990  0.00  0.00     0.078 C 
ENDROOT
BRANCH   1   8
ATOM      8  C1  UNL d   1       0.221  -0.932  -0.385  0.00  0.00     0.053 C 
ATOM      9  C   UNL d   1       1.564  -1.518  -0.794  0.00  0.00     0.018 C 
ENDBRANCH   1   8
TORSDOF 1
ENDMDL
