MODEL 1
REMARK minimizedAffinity -2.75506926
REMARK minimizedRMSD -1
REMARK  1 active torsions:
REMARK  status: ('A' for Active; 'I' for Inactive)
REMARK    1  A    between atoms: C1_2  and  C2_3 
ROOT
ATOM      1  C2  UNL d   1      -0.785  -0.791  -0.340  0.00  0.00    -0.076 A 
ATOM      2  C3  UNL d   1      -1.565   0.128   0.384  0.00  0.00     0.004 A 
ATOM      3  C4  UNL d   1      -0.969   1.082   1.208  0.00  0.00    -0.003 A 
ATOM      4  C5  UNL d   1       0.416   1.133   1.320  0.00  0.00     0.000 A 
ATOM      5  C6  UNL d   1       1.205   0.241   0.596  0.00  0.00     0.000 A 
ATOM      6  C7  UNL d   1       0.621  -0.717  -0.251  0.00  0.00    -0.073 A 
ATOM      7  C8  UNL d   1       1.520  -1.658  -1.004  0.00  0.00     0.078 C 
ENDROOT
BRANCH   1   8
ATOM      8  C1  UNL d   1      -1.488  -1.820  -1.196  0.00  0.00     0.053 C 
ATOM      9  C   UNL d   1      -2.139  -1.208  -2.426  0.00  0.00     0.018 C 
ENDBRANCH   1   8
TORSDOF 1
ENDMDL
