MODEL 1
REMARK minimizedAffinity -3.90873837
REMARK minimizedRMSD -1
REMARK  1 active torsions:
REMARK  status: ('A' for Active; 'I' for Inactive)
REMARK    1  A    between atoms: C1_2  and  C2_3 
ROOT
ATOM      1  C2  UNL d   1      -0.170   0.473   0.104  0.00  0.00    -0.076 A 
ATOM      2  C3  UNL d   1       0.690   1.357  -0.569  0.00  0.00     0.004 A 
ATOM      3  C4  UNL d   1       1.102   2.549   0.024  0.00  0.00    -0.003 A 
ATOM      4  C5  UNL d   1       0.660   2.876   1.302  0.00  0.00     0.000 A 
ATOM      5  C6  UNL d   1      -0.180   2.003   1.991  0.00  0.00     0.000 A 
ATOM      6  C7  UNL d   1      -0.592   0.789   1.414  0.00  0.00    -0.073 A 
ATOM      7  C8  UNL d   1      -1.503  -0.113   2.200  0.00  0.00     0.078 C 
ENDROOT
BRANCH   1   8
ATOM      8  C1  UNL d   1      -0.605  -0.793  -0.600  0.00  0.00     0.053 C 
ATOM      9  C   UNL d   1      -1.326  -0.512  -1.909  0.00  0.00     0.018 C 
ENDBRANCH   1   8
TORSDOF 1
ENDMDL
