MODEL 1
REMARK minimizedAffinity -3.69611454
REMARK minimizedRMSD -1
REMARK  1 active torsions:
REMARK  status: ('A' for Active; 'I' for Inactive)
REMARK    1  A    between atoms: C1_2  and  C2_3 
ROOT
ATOM      1  C2  UNL d   1       0.092   0.198  -0.284  0.00  0.00    -0.076 A 
ATOM      2  C3  UNL d   1       1.125   0.967  -0.848  0.00  0.00     0.004 A 
ATOM      3  C4  UNL d   1       1.587   2.121  -0.217  0.00  0.00    -0.003 A 
ATOM      4  C5  UNL d   1       1.025   2.524   0.989  0.00  0.00     0.000 A 
ATOM      5  C6  UNL d   1       0.011   1.764   1.572  0.00  0.00     0.000 A 
ATOM      6  C7  UNL d   1      -0.455   0.589   0.957  0.00  0.00    -0.073 A 
ATOM      7  C8  UNL d   1      -1.555  -0.188   1.627  0.00  0.00     0.078 C 
ENDROOT
BRANCH   1   8
ATOM      8  C1  UNL d   1      -0.388  -1.028  -1.027  0.00  0.00     0.053 C 
ATOM      9  C   UNL d   1      -1.065  -0.683  -2.344  0.00  0.00     0.018 C 
ENDBRANCH   1   8
TORSDOF 1
ENDMDL
