MODEL 1
REMARK minimizedAffinity -3.63655114
REMARK minimizedRMSD -1
REMARK  1 active torsions:
REMARK  status: ('A' for Active; 'I' for Inactive)
REMARK    1  A    between atoms: C1_2  and  C2_3 
ROOT
ATOM      1  C2  UNL d   1      -0.355  -0.812  -0.085  0.00  0.00    -0.076 A 
ATOM      2  C3  UNL d   1      -1.116  -0.106   0.863  0.00  0.00     0.004 A 
ATOM      3  C4  UNL d   1      -0.558   0.940   1.596  0.00  0.00    -0.003 A 
ATOM      4  C5  UNL d   1       0.770   1.298   1.392  0.00  0.00     0.000 A 
ATOM      5  C6  UNL d   1       1.534   0.621   0.443  0.00  0.00     0.000 A 
ATOM      6  C7  UNL d   1       0.983  -0.425  -0.316  0.00  0.00    -0.073 A 
ATOM      7  C8  UNL d   1       1.855  -1.125  -1.322  0.00  0.00     0.078 C 
ENDROOT
BRANCH   1   8
ATOM      8  C1  UNL d   1      -1.005  -1.955  -0.831  0.00  0.00     0.053 C 
ATOM      9  C   UNL d   1      -1.841  -1.481  -2.010  0.00  0.00     0.018 C 
ENDBRANCH   1   8
TORSDOF 1
ENDMDL
