MODEL 1
REMARK minimizedAffinity -1.08801401
REMARK minimizedRMSD -1
REMARK  1 active torsions:
REMARK  status: ('A' for Active; 'I' for Inactive)
REMARK    1  A    between atoms: C1_2  and  C2_3 
ROOT
ATOM      1  C2  UNL d   1      -1.037  -0.830  -0.986  0.00  0.00    -0.076 A 
ATOM      2  C3  UNL d   1      -2.288  -0.481  -1.523  0.00  0.00     0.004 A 
ATOM      3  C4  UNL d   1      -2.630  -0.829  -2.829  0.00  0.00    -0.003 A 
ATOM      4  C5  UNL d   1      -1.727  -1.533  -3.618  0.00  0.00     0.000 A 
ATOM      5  C6  UNL d   1      -0.488  -1.903  -3.095  0.00  0.00     0.000 A 
ATOM      6  C7  UNL d   1      -0.134  -1.573  -1.775  0.00  0.00    -0.073 A 
ATOM      7  C8  UNL d   1       1.217  -1.992  -1.265  0.00  0.00     0.078 C 
ENDROOT
BRANCH   1   8
ATOM      8  C1  UNL d   1      -0.711  -0.401   0.427  0.00  0.00     0.053 C 
ATOM      9  C   UNL d   1      -1.014   1.069   0.675  0.00  0.00     0.018 C 
ENDBRANCH   1   8
TORSDOF 1
ENDMDL
