MODEL 1
REMARK minimizedAffinity -3.27549791
REMARK minimizedRMSD -1
REMARK  1 active torsions:
REMARK  status: ('A' for Active; 'I' for Inactive)
REMARK    1  A    between atoms: C1_2  and  C2_3 
ROOT
ATOM      1  C2  UNL d   1       0.252   0.691   0.131  0.00  0.00    -0.076 A 
ATOM      2  C3  UNL d   1       1.415   1.321  -0.344  0.00  0.00     0.004 A 
ATOM      3  C4  UNL d   1       2.238   2.050   0.512  0.00  0.00    -0.003 A 
ATOM      4  C5  UNL d   1       1.910   2.162   1.859  0.00  0.00     0.000 A 
ATOM      5  C6  UNL d   1       0.769   1.530   2.352  0.00  0.00     0.000 A 
ATOM      6  C7  UNL d   1      -0.062   0.777   1.504  0.00  0.00    -0.073 A 
ATOM      7  C8  UNL d   1      -1.283   0.120   2.088  0.00  0.00     0.078 C 
ENDROOT
BRANCH   1   8
ATOM      8  C1  UNL d   1      -0.616  -0.064  -0.850  0.00  0.00     0.053 C 
ATOM      9  C   UNL d   1      -0.223  -1.528  -0.969  0.00  0.00     0.018 C 
ENDBRANCH   1   8
TORSDOF 1
ENDMDL
