MODEL 1
REMARK minimizedAffinity -4.26958132
REMARK minimizedRMSD -1
REMARK  1 active torsions:
REMARK  status: ('A' for Active; 'I' for Inactive)
REMARK    1  A    between atoms: C1_2  and  C2_3 
ROOT
ATOM      1  C2  UNL d   1       1.552   1.827   1.631  0.00  0.00    -0.076 A 
ATOM      2  C3  UNL d   1       2.701   1.206   2.152  0.00  0.00     0.004 A 
ATOM      3  C4  UNL d   1       3.931   1.318   1.507  0.00  0.00    -0.003 A 
ATOM      4  C5  UNL d   1       4.033   2.054   0.331  0.00  0.00     0.000 A 
ATOM      5  C6  UNL d   1       2.907   2.690  -0.190  0.00  0.00     0.000 A 
ATOM      6  C7  UNL d   1       1.663   2.601   0.456  0.00  0.00    -0.073 A 
ATOM      7  C8  UNL d   1       0.480   3.302  -0.154  0.00  0.00     0.078 C 
ENDROOT
BRANCH   1   8
ATOM      8  C1  UNL d   1       0.239   1.647   2.359  0.00  0.00     0.053 C 
ATOM      9  C   UNL d   1      -0.581   0.492   1.806  0.00  0.00     0.018 C 
ENDBRANCH   1   8
TORSDOF 1
ENDMDL
