MODEL 1
REMARK minimizedAffinity -5.18856812
REMARK minimizedRMSD -1
REMARK  1 active torsions:
REMARK  status: ('A' for Active; 'I' for Inactive)
REMARK    1  A    between atoms: C1_2  and  C2_3 
ROOT
ATOM      1  C2  UNL d   1       0.699   0.081   0.210  0.00  0.00    -0.076 A 
ATOM      2  C3  UNL d   1      -0.390   0.624   0.913  0.00  0.00     0.004 A 
ATOM      3  C4  UNL d   1      -0.265   1.822   1.614  0.00  0.00    -0.003 A 
ATOM      4  C5  UNL d   1       0.951   2.497   1.623  0.00  0.00     0.000 A 
ATOM      5  C6  UNL d   1       2.036   1.982   0.916  0.00  0.00     0.000 A 
ATOM      6  C7  UNL d   1       1.923   0.784   0.190  0.00  0.00    -0.073 A 
ATOM      7  C8  UNL d   1       3.128   0.271  -0.549  0.00  0.00     0.078 C 
ENDROOT
BRANCH   1   8
ATOM      8  C1  UNL d   1       0.513  -1.236  -0.510  0.00  0.00     0.053 C 
ATOM      9  C   UNL d   1      -0.830  -1.327  -1.219  0.00  0.00     0.018 C 
ENDBRANCH   1   8
TORSDOF 1
ENDMDL
