MODEL 1
REMARK minimizedAffinity -1.59076655
REMARK minimizedRMSD -1
REMARK  1 active torsions:
REMARK  status: ('A' for Active; 'I' for Inactive)
REMARK    1  A    between atoms: C1_2  and  C2_3 
ROOT
ATOM      1  C2  UNL d   1      -0.136   0.237   0.200  0.00  0.00    -0.076 A 
ATOM      2  C3  UNL d   1       1.054   0.830  -0.257  0.00  0.00     0.004 A 
ATOM      3  C4  UNL d   1       1.677   1.842   0.470  0.00  0.00    -0.003 A 
ATOM      4  C5  UNL d   1       1.120   2.278   1.668  0.00  0.00     0.000 A 
ATOM      5  C6  UNL d   1      -0.050   1.689   2.146  0.00  0.00     0.000 A 
ATOM      6  C7  UNL d   1      -0.682   0.656   1.432  0.00  0.00    -0.073 A 
ATOM      7  C8  UNL d   1      -1.945   0.060   1.991  0.00  0.00     0.078 C 
ENDROOT
BRANCH   1   8
ATOM      8  C1  UNL d   1      -0.781  -0.838  -0.645  0.00  0.00     0.053 C 
ATOM      9  C   UNL d   1       0.234  -1.628  -1.457  0.00  0.00     0.018 C 
ENDBRANCH   1   8
TORSDOF 1
ENDMDL
