MODEL 1
REMARK minimizedAffinity -4.52397633
REMARK minimizedRMSD -1
REMARK  1 active torsions:
REMARK  status: ('A' for Active; 'I' for Inactive)
REMARK    1  A    between atoms: C1_2  and  C2_3 
ROOT
ATOM      1  C2  UNL d   1       0.744   0.158   0.379  0.00  0.00    -0.076 A 
ATOM      2  C3  UNL d   1      -0.331   0.727   1.085  0.00  0.00     0.004 A 
ATOM      3  C4  UNL d   1      -0.149   1.858   1.879  0.00  0.00    -0.003 A 
ATOM      4  C5  UNL d   1       1.110   2.440   1.978  0.00  0.00     0.000 A 
ATOM      5  C6  UNL d   1       2.183   1.900   1.271  0.00  0.00     0.000 A 
ATOM      6  C7  UNL d   1       2.014   0.769   0.454  0.00  0.00    -0.073 A 
ATOM      7  C8  UNL d   1       3.207   0.225  -0.282  0.00  0.00     0.078 C 
ENDROOT
BRANCH   1   8
ATOM      8  C1  UNL d   1       0.492  -1.085  -0.444  0.00  0.00     0.053 C 
ATOM      9  C   UNL d   1      -0.816  -1.018  -1.216  0.00  0.00     0.018 C 
ENDBRANCH   1   8
TORSDOF 1
ENDMDL
