MODEL 1
REMARK minimizedAffinity -4.30599451
REMARK minimizedRMSD -1
REMARK  1 active torsions:
REMARK  status: ('A' for Active; 'I' for Inactive)
REMARK    1  A    between atoms: C1_2  and  C2_3 
ROOT
ATOM      1  C2  UNL d   1       1.667   5.371  -3.561  0.00  0.00    -0.076 A 
ATOM      2  C3  UNL d   1       0.650   5.616  -2.622  0.00  0.00     0.004 A 
ATOM      3  C4  UNL d   1      -0.646   5.928  -3.032  0.00  0.00    -0.003 A 
ATOM      4  C5  UNL d   1      -0.945   5.997  -4.388  0.00  0.00     0.000 A 
ATOM      5  C6  UNL d   1       0.047   5.739  -5.334  0.00  0.00     0.000 A 
ATOM      6  C7  UNL d   1       1.354   5.408  -4.937  0.00  0.00    -0.073 A 
ATOM      7  C8  UNL d   1       2.386   5.146  -5.999  0.00  0.00     0.078 C 
ENDROOT
BRANCH   1   8
ATOM      8  C1  UNL d   1       3.059   5.065  -3.057  0.00  0.00     0.053 C 
ATOM      9  C   UNL d   1       3.344   3.572  -3.003  0.00  0.00     0.018 C 
ENDBRANCH   1   8
TORSDOF 1
ENDMDL
