MODEL 1
REMARK minimizedAffinity -1.21921432
REMARK minimizedRMSD -1
REMARK  0 active torsions:
REMARK  status: ('A' for Active; 'I' for Inactive)
ROOT
ATOM      1  O1  BZF d   1       2.341  -2.368  -0.031  0.00  0.00    -0.204 OA
ATOM      2  C2  BZF d   1       1.731  -3.485  -0.568  0.00  0.00     0.174 A 
ATOM      3  C3  BZF d   1       0.394  -3.429  -0.396  0.00  0.00    -0.012 A 
ATOM      4  C3A BZF d   1       0.146  -2.156   0.210  0.00  0.00    -0.107 A 
ATOM      5  C4  BZF d   1      -0.990  -1.512   0.610  0.00  0.00     0.055 A 
ATOM      6  C5  BZF d   1      -0.882  -0.309   1.233  0.00  0.00    -0.016 A 
ATOM      7  C6  BZF d   1       0.343   0.276   1.475  0.00  0.00     0.022 A 
ATOM      8  C7  BZF d   1       1.497  -0.322   1.092  0.00  0.00     0.029 A 
ATOM      9  C7A BZF d   1       1.390  -1.523   0.433  0.00  0.00     0.058 A 
ENDROOT
TORSDOF 0
ENDMDL
