MODEL 1
REMARK minimizedAffinity -0.933231473
REMARK minimizedRMSD -1
REMARK  0 active torsions:
REMARK  status: ('A' for Active; 'I' for Inactive)
ROOT
ATOM      1  O1  BZF d   1       4.050   2.629  -1.090  0.00  0.00    -0.204 OA
ATOM      2  C2  BZF d   1       4.867   2.985  -2.146  0.00  0.00     0.174 A 
ATOM      3  C3  BZF d   1       5.474   4.165  -1.904  0.00  0.00    -0.012 A 
ATOM      4  C3A BZF d   1       5.078   4.527  -0.578  0.00  0.00    -0.107 A 
ATOM      5  C4  BZF d   1       5.368   5.588   0.232  0.00  0.00     0.055 A 
ATOM      6  C5  BZF d   1       4.760   5.680   1.444  0.00  0.00    -0.016 A 
ATOM      7  C6  BZF d   1       3.856   4.732   1.876  0.00  0.00     0.022 A 
ATOM      8  C7  BZF d   1       3.541   3.658   1.111  0.00  0.00     0.029 A 
ATOM      9  C7A BZF d   1       4.178   3.546  -0.101  0.00  0.00     0.058 A 
ENDROOT
TORSDOF 0
ENDMDL
