MODEL 1
REMARK minimizedAffinity 0.0489249006
REMARK minimizedRMSD -1
REMARK  0 active torsions:
REMARK  status: ('A' for Active; 'I' for Inactive)
ROOT
ATOM      1  O1  BZF d   1       5.257   4.128  -1.663  0.00  0.00    -0.204 OA
ATOM      2  C2  BZF d   1       4.463   3.024  -1.910  0.00  0.00     0.174 A 
ATOM      3  C3  BZF d   1       3.650   2.775  -0.864  0.00  0.00    -0.012 A 
ATOM      4  C3A BZF d   1       3.889   3.842   0.060  0.00  0.00    -0.107 A 
ATOM      5  C4  BZF d   1       3.371   4.158   1.283  0.00  0.00     0.055 A 
ATOM      6  C5  BZF d   1       3.872   5.227   1.957  0.00  0.00    -0.016 A 
ATOM      7  C6  BZF d   1       4.893   5.997   1.440  0.00  0.00     0.022 A 
ATOM      8  C7  BZF d   1       5.436   5.725   0.228  0.00  0.00     0.029 A 
ATOM      9  C7A BZF d   1       4.909   4.665  -0.469  0.00  0.00     0.058 A 
ENDROOT
TORSDOF 0
ENDMDL
