MODEL 1
REMARK minimizedAffinity 1.66311622
REMARK minimizedRMSD -1
REMARK  0 active torsions:
REMARK  status: ('A' for Active; 'I' for Inactive)
ROOT
ATOM      1  O1  BZF d   1      -0.305  -3.252   0.553  0.00  0.00    -0.204 OA
ATOM      2  C2  BZF d   1       0.610  -3.806  -0.321  0.00  0.00     0.174 A 
ATOM      3  C3  BZF d   1       1.520  -2.888  -0.708  0.00  0.00    -0.012 A 
ATOM      4  C3A BZF d   1       1.205  -1.709   0.040  0.00  0.00    -0.107 A 
ATOM      5  C4  BZF d   1       1.759  -0.463   0.105  0.00  0.00     0.055 A 
ATOM      6  C5  BZF d   1       1.168   0.483   0.880  0.00  0.00    -0.016 A 
ATOM      7  C6  BZF d   1       0.019   0.220   1.598  0.00  0.00     0.022 A 
ATOM      8  C7  BZF d   1      -0.565  -1.002   1.568  0.00  0.00     0.029 A 
ATOM      9  C7A BZF d   1       0.049  -1.970   0.812  0.00  0.00     0.058 A 
ENDROOT
TORSDOF 0
ENDMDL
