MODEL 1
REMARK minimizedAffinity 0.30275318
REMARK minimizedRMSD -1
REMARK  0 active torsions:
REMARK  status: ('A' for Active; 'I' for Inactive)
ROOT
ATOM      1  O1  BZF d   1       2.060  -0.178   1.236  0.00  0.00    -0.204 OA
ATOM      2  C2  BZF d   1       1.232   0.579   2.042  0.00  0.00     0.174 A 
ATOM      3  C3  BZF d   1      -0.039   0.132   1.976  0.00  0.00    -0.012 A 
ATOM      4  C3A BZF d   1       0.014  -1.031   1.145  0.00  0.00    -0.107 A 
ATOM      5  C4  BZF d   1      -0.927  -1.923   0.718  0.00  0.00     0.055 A 
ATOM      6  C5  BZF d   1      -0.561  -2.906  -0.146  0.00  0.00    -0.016 A 
ATOM      7  C6  BZF d   1       0.733  -3.023  -0.608  0.00  0.00     0.022 A 
ATOM      8  C7  BZF d   1       1.703  -2.164  -0.209  0.00  0.00     0.029 A 
ATOM      9  C7A BZF d   1       1.344  -1.190   0.690  0.00  0.00     0.058 A 
ENDROOT
TORSDOF 0
ENDMDL
