MODEL 1
REMARK minimizedAffinity -1.4097755
REMARK minimizedRMSD -1
REMARK  0 active torsions:
REMARK  status: ('A' for Active; 'I' for Inactive)
ROOT
ATOM      1  O1  BZF d   1       2.411   0.162   2.496  0.00  0.00    -0.204 OA
ATOM      2  C2  BZF d   1       3.263   0.264   1.412  0.00  0.00     0.174 A 
ATOM      3  C3  BZF d   1       2.689  -0.247   0.304  0.00  0.00    -0.012 A 
ATOM      4  C3A BZF d   1       1.364  -0.612   0.700  0.00  0.00    -0.107 A 
ATOM      5  C4  BZF d   1       0.303  -1.159   0.036  0.00  0.00     0.055 A 
ATOM      6  C5  BZF d   1      -0.827  -1.459   0.730  0.00  0.00    -0.016 A 
ATOM      7  C6  BZF d   1      -0.927  -1.231   2.087  0.00  0.00     0.022 A 
ATOM      8  C7  BZF d   1       0.097  -0.686   2.787  0.00  0.00     0.029 A 
ATOM      9  C7A BZF d   1       1.228  -0.351   2.083  0.00  0.00     0.058 A 
ENDROOT
TORSDOF 0
ENDMDL
