MODEL 1
REMARK minimizedAffinity -2.21984506
REMARK minimizedRMSD -1
REMARK  0 active torsions:
REMARK  status: ('A' for Active; 'I' for Inactive)
ROOT
ATOM      1  O1  BZF d   1       2.691  -2.792  -0.232  0.00  0.00    -0.204 OA
ATOM      2  C2  BZF d   1       2.014  -3.961  -0.519  0.00  0.00     0.174 A 
ATOM      3  C3  BZF d   1       0.692  -3.815  -0.297  0.00  0.00    -0.012 A 
ATOM      4  C3A BZF d   1       0.521  -2.442   0.070  0.00  0.00    -0.107 A 
ATOM      5  C4  BZF d   1      -0.568  -1.686   0.396  0.00  0.00     0.055 A 
ATOM      6  C5  BZF d   1      -0.385  -0.394   0.775  0.00  0.00    -0.016 A 
ATOM      7  C6  BZF d   1       0.872   0.172   0.844  0.00  0.00     0.022 A 
ATOM      8  C7  BZF d   1       1.982  -0.538   0.525  0.00  0.00     0.029 A 
ATOM      9  C7A BZF d   1       1.797  -1.834   0.110  0.00  0.00     0.058 A 
ENDROOT
TORSDOF 0
ENDMDL
