MODEL 1
REMARK minimizedAffinity 5.53787708
REMARK minimizedRMSD -1
REMARK  0 active torsions:
REMARK  status: ('A' for Active; 'I' for Inactive)
ROOT
ATOM      1  O1  BZF d   1       0.371  -1.137  -0.585  0.00  0.00    -0.204 OA
ATOM      2  C2  BZF d   1      -0.973  -1.048  -0.277  0.00  0.00     0.174 A 
ATOM      3  C3  BZF d   1      -1.145  -0.740   1.025  0.00  0.00    -0.012 A 
ATOM      4  C3A BZF d   1       0.173  -0.540   1.543  0.00  0.00    -0.107 A 
ATOM      5  C4  BZF d   1       0.657  -0.198   2.773  0.00  0.00     0.055 A 
ATOM      6  C5  BZF d   1       2.002  -0.156   2.966  0.00  0.00    -0.016 A 
ATOM      7  C6  BZF d   1       2.890  -0.456   1.954  0.00  0.00     0.022 A 
ATOM      8  C7  BZF d   1       2.458  -0.796   0.715  0.00  0.00     0.029 A 
ATOM      9  C7A BZF d   1       1.100  -0.806   0.508  0.00  0.00     0.058 A 
ENDROOT
TORSDOF 0
ENDMDL
