MODEL 1
REMARK minimizedAffinity 3.47163177
REMARK minimizedRMSD -1
REMARK  0 active torsions:
REMARK  status: ('A' for Active; 'I' for Inactive)
ROOT
ATOM      1  O1  BZF d   1      -0.892  -1.186  -0.770  0.00  0.00    -0.204 OA
ATOM      2  C2  BZF d   1       0.107  -1.344   0.171  0.00  0.00     0.174 A 
ATOM      3  C3  BZF d   1      -0.062  -0.485   1.197  0.00  0.00    -0.012 A 
ATOM      4  C3A BZF d   1      -1.291   0.193   0.922  0.00  0.00    -0.107 A 
ATOM      5  C4  BZF d   1      -2.002   1.154   1.583  0.00  0.00     0.055 A 
ATOM      6  C5  BZF d   1      -3.127   1.655   1.008  0.00  0.00    -0.016 A 
ATOM      7  C6  BZF d   1      -3.566   1.223  -0.226  0.00  0.00     0.022 A 
ATOM      8  C7  BZF d   1      -2.898   0.268  -0.917  0.00  0.00     0.029 A 
ATOM      9  C7A BZF d   1      -1.779  -0.264  -0.324  0.00  0.00     0.058 A 
ENDROOT
TORSDOF 0
ENDMDL
