MODEL 1
REMARK minimizedAffinity 4.78528976
REMARK minimizedRMSD -1
REMARK  0 active torsions:
REMARK  status: ('A' for Active; 'I' for Inactive)
ROOT
ATOM      1  O1  BZF d   1      -0.199   0.357   2.159  0.00  0.00    -0.204 OA
ATOM      2  C2  BZF d   1      -1.546   0.093   2.002  0.00  0.00     0.174 A 
ATOM      3  C3  BZF d   1      -1.737  -0.907   1.117  0.00  0.00    -0.012 A 
ATOM      4  C3A BZF d   1      -0.425  -1.354   0.765  0.00  0.00    -0.107 A 
ATOM      5  C4  BZF d   1       0.042  -2.335  -0.063  0.00  0.00     0.055 A 
ATOM      6  C5  BZF d   1       1.383  -2.465  -0.242  0.00  0.00    -0.016 A 
ATOM      7  C6  BZF d   1       2.284  -1.630   0.386  0.00  0.00     0.022 A 
ATOM      8  C7  BZF d   1       1.869  -0.646   1.220  0.00  0.00     0.029 A 
ATOM      9  C7A BZF d   1       0.516  -0.533   1.429  0.00  0.00     0.058 A 
ENDROOT
TORSDOF 0
ENDMDL
