MODEL 1
REMARK minimizedAffinity -0.897603095
REMARK minimizedRMSD -1
REMARK  0 active torsions:
REMARK  status: ('A' for Active; 'I' for Inactive)
ROOT
ATOM      1  O1  BZF d   1       2.467  -2.157  -0.452  0.00  0.00    -0.204 OA
ATOM      2  C2  BZF d   1       2.139  -3.457  -0.784  0.00  0.00     0.174 A 
ATOM      3  C3  BZF d   1       0.876  -3.743  -0.408  0.00  0.00    -0.012 A 
ATOM      4  C3A BZF d   1       0.352  -2.518   0.113  0.00  0.00    -0.107 A 
ATOM      5  C4  BZF d   1      -0.860  -2.159   0.630  0.00  0.00     0.055 A 
ATOM      6  C5  BZF d   1      -1.024  -0.902   1.118  0.00  0.00    -0.016 A 
ATOM      7  C6  BZF d   1       0.002   0.020   1.111  0.00  0.00     0.022 A 
ATOM      8  C7  BZF d   1       1.221  -0.288   0.605  0.00  0.00     0.029 A 
ATOM      9  C7A BZF d   1       1.380  -1.547   0.080  0.00  0.00     0.058 A 
ENDROOT
TORSDOF 0
ENDMDL
