MODEL 1
REMARK minimizedAffinity -2.57551932
REMARK minimizedRMSD -1
REMARK  0 active torsions:
REMARK  status: ('A' for Active; 'I' for Inactive)
ROOT
ATOM      1  O1  BZF d   1       0.953  -1.397   3.690  0.00  0.00    -0.204 OA
ATOM      2  C2  BZF d   1       0.322  -0.426   4.444  0.00  0.00     0.174 A 
ATOM      3  C3  BZF d   1      -0.640   0.188   3.724  0.00  0.00    -0.012 A 
ATOM      4  C3A BZF d   1      -0.670  -0.501   2.471  0.00  0.00    -0.107 A 
ATOM      5  C4  BZF d   1      -1.427  -0.365   1.342  0.00  0.00     0.055 A 
ATOM      6  C5  BZF d   1      -1.155  -1.149   0.266  0.00  0.00    -0.016 A 
ATOM      7  C6  BZF d   1      -0.132  -2.074   0.282  0.00  0.00     0.022 A 
ATOM      8  C7  BZF d   1       0.642  -2.249   1.380  0.00  0.00     0.029 A 
ATOM      9  C7A BZF d   1       0.349  -1.482   2.480  0.00  0.00     0.058 A 
ENDROOT
TORSDOF 0
ENDMDL
