MODEL 1
REMARK minimizedAffinity 0.208693281
REMARK minimizedRMSD -1
REMARK  0 active torsions:
REMARK  status: ('A' for Active; 'I' for Inactive)
ROOT
ATOM      1  O1  BZF d   1       3.120  -1.882   0.234  0.00  0.00    -0.204 OA
ATOM      2  C2  BZF d   1       3.143  -3.139  -0.340  0.00  0.00     0.174 A 
ATOM      3  C3  BZF d   1       1.893  -3.627  -0.472  0.00  0.00    -0.012 A 
ATOM      4  C3A BZF d   1       1.029  -2.575  -0.033  0.00  0.00    -0.107 A 
ATOM      5  C4  BZF d   1      -0.328  -2.450   0.057  0.00  0.00     0.055 A 
ATOM      6  C5  BZF d   1      -0.852  -1.318   0.597  0.00  0.00    -0.016 A 
ATOM      7  C6  BZF d   1      -0.051  -0.295   1.060  0.00  0.00     0.022 A 
ATOM      8  C7  BZF d   1       1.300  -0.371   0.987  0.00  0.00     0.029 A 
ATOM      9  C7A BZF d   1       1.833  -1.500   0.412  0.00  0.00     0.058 A 
ENDROOT
TORSDOF 0
ENDMDL
