MODEL 1
REMARK minimizedAffinity -1.93048179
REMARK minimizedRMSD -1
REMARK  0 active torsions:
REMARK  status: ('A' for Active; 'I' for Inactive)
ROOT
ATOM      1  O1  BZF d   1       3.479  -1.850  -0.105  0.00  0.00    -0.204 OA
ATOM      2  C2  BZF d   1       3.610  -3.177  -0.467  0.00  0.00     0.174 A 
ATOM      3  C3  BZF d   1       2.425  -3.815  -0.382  0.00  0.00    -0.012 A 
ATOM      4  C3A BZF d   1       1.477  -2.804  -0.027  0.00  0.00    -0.107 A 
ATOM      5  C4  BZF d   1       0.129  -2.815   0.190  0.00  0.00     0.055 A 
ATOM      6  C5  BZF d   1      -0.485  -1.672   0.593  0.00  0.00    -0.016 A 
ATOM      7  C6  BZF d   1       0.218  -0.503   0.795  0.00  0.00     0.022 A 
ATOM      8  C7  BZF d   1       1.556  -0.441   0.588  0.00  0.00     0.029 A 
ATOM      9  C7A BZF d   1       2.174  -1.586   0.148  0.00  0.00     0.058 A 
ENDROOT
TORSDOF 0
ENDMDL
