MODEL 1
REMARK minimizedAffinity 9.25094128
REMARK minimizedRMSD -1
REMARK  0 active torsions:
REMARK  status: ('A' for Active; 'I' for Inactive)
ROOT
ATOM      1  O1  BZF d   1       0.194  -0.373   3.321  0.00  0.00    -0.204 OA
ATOM      2  C2  BZF d   1       1.478  -0.068   3.727  0.00  0.00     0.174 A 
ATOM      3  C3  BZF d   1       2.366  -0.337   2.749  0.00  0.00    -0.012 A 
ATOM      4  C3A BZF d   1       1.578  -0.756   1.630  0.00  0.00    -0.107 A 
ATOM      5  C4  BZF d   1       1.886  -1.142   0.357  0.00  0.00     0.055 A 
ATOM      6  C5  BZF d   1       0.888  -1.560  -0.466  0.00  0.00    -0.016 A 
ATOM      7  C6  BZF d   1      -0.426  -1.608  -0.047  0.00  0.00     0.022 A 
ATOM      8  C7  BZF d   1      -0.780  -1.230   1.205  0.00  0.00     0.029 A 
ATOM      9  C7A BZF d   1       0.221  -0.776   2.028  0.00  0.00     0.058 A 
ENDROOT
TORSDOF 0
ENDMDL
