MODEL 1
REMARK minimizedAffinity 6.99080324
REMARK minimizedRMSD -1
REMARK  0 active torsions:
REMARK  status: ('A' for Active; 'I' for Inactive)
ROOT
ATOM      1  O1  BZF d   1       2.004  -0.405   0.961  0.00  0.00    -0.204 OA
ATOM      2  C2  BZF d   1       1.345  -0.231   2.163  0.00  0.00     0.174 A 
ATOM      3  C3  BZF d   1       0.145  -0.847   2.144  0.00  0.00    -0.012 A 
ATOM      4  C3A BZF d   1       0.088  -1.520   0.883  0.00  0.00    -0.107 A 
ATOM      5  C4  BZF d   1      -0.847  -2.316   0.286  0.00  0.00     0.055 A 
ATOM      6  C5  BZF d   1      -0.629  -2.756  -0.981  0.00  0.00    -0.016 A 
ATOM      7  C6  BZF d   1       0.510  -2.414  -1.682  0.00  0.00     0.022 A 
ATOM      8  C7  BZF d   1       1.468  -1.631  -1.129  0.00  0.00     0.029 A 
ATOM      9  C7A BZF d   1       1.265  -1.213   0.163  0.00  0.00     0.058 A 
ENDROOT
TORSDOF 0
ENDMDL
