MODEL 1
REMARK minimizedAffinity 2.0642662
REMARK minimizedRMSD -1
REMARK  0 active torsions:
REMARK  status: ('A' for Active; 'I' for Inactive)
ROOT
ATOM      1  O1  BZF d   1       0.287   4.872  -3.332  0.00  0.00    -0.204 OA
ATOM      2  C2  BZF d   1      -0.009   5.889  -4.218  0.00  0.00     0.174 A 
ATOM      3  C3  BZF d   1       0.952   5.999  -5.158  0.00  0.00    -0.012 A 
ATOM      4  C3A BZF d   1       1.862   4.927  -4.894  0.00  0.00    -0.107 A 
ATOM      5  C4  BZF d   1       3.011   4.501  -5.496  0.00  0.00     0.055 A 
ATOM      6  C5  BZF d   1       3.700   3.467  -4.947  0.00  0.00    -0.016 A 
ATOM      7  C6  BZF d   1       3.272   2.839  -3.795  0.00  0.00     0.022 A 
ATOM      8  C7  BZF d   1       2.135   3.223  -3.165  0.00  0.00     0.029 A 
ATOM      9  C7A BZF d   1       1.419   4.247  -3.736  0.00  0.00     0.058 A 
ENDROOT
TORSDOF 0
ENDMDL
