MODEL 1
REMARK minimizedAffinity 24.2268105
REMARK minimizedRMSD -1
REMARK  0 active torsions:
REMARK  status: ('A' for Active; 'I' for Inactive)
ROOT
ATOM      1  C   UNL d   1       1.915   0.523  -3.089  0.00  0.00     0.124 A 
ATOM      2  C1  UNL d   1       1.965   1.655  -2.288  0.00  0.00     0.062 A 
ATOM      3  C2  UNL d   1       2.812   2.710  -2.617  0.00  0.00     0.162 A 
ATOM      4  C3  UNL d   1       3.616   2.637  -3.755  0.00  0.00    -0.034 A 
ATOM      5  C4  UNL d   1       3.561   1.495  -4.555  0.00  0.00     0.162 A 
ATOM      6  C5  UNL d   1       2.713   0.444  -4.222  0.00  0.00     0.062 A 
ATOM      7  F   UNL d   1       2.666  -0.649  -4.997  0.00  0.00    -0.097 F 
ATOM      8  F1  UNL d   1       4.320   1.392  -5.656  0.00  0.00    -0.096 F 
ATOM      9  I   UNL d   1       4.883   4.211  -4.252  0.00  0.00    -0.060 I 
ATOM     10  F2  UNL d   1       2.839   3.792  -1.825  0.00  0.00    -0.096 F 
ATOM     11  F3  UNL d   1       1.196   1.734  -1.192  0.00  0.00    -0.097 F 
ATOM     12  F4  UNL d   1       1.100  -0.490  -2.769  0.00  0.00    -0.092 F 
ENDROOT
TORSDOF 0
ENDMDL
