MODEL 1
REMARK minimizedAffinity 8.5866375
REMARK minimizedRMSD -1
REMARK  0 active torsions:
REMARK  status: ('A' for Active; 'I' for Inactive)
ROOT
ATOM      1  C   UNL d   1      -4.053   0.517   2.341  0.00  0.00     0.124 A 
ATOM      2  C1  UNL d   1      -4.528   0.123   3.584  0.00  0.00     0.062 A 
ATOM      3  C2  UNL d   1      -5.084   1.060   4.450  0.00  0.00     0.162 A 
ATOM      4  C3  UNL d   1      -5.169   2.401   4.076  0.00  0.00    -0.034 A 
ATOM      5  C4  UNL d   1      -4.688   2.790   2.825  0.00  0.00     0.162 A 
ATOM      6  C5  UNL d   1      -4.133   1.850   1.962  0.00  0.00     0.062 A 
ATOM      7  F   UNL d   1      -3.675   2.233   0.762  0.00  0.00    -0.097 F 
ATOM      8  F1  UNL d   1      -4.754   4.071   2.433  0.00  0.00    -0.096 F 
ATOM      9  I   UNL d   1      -6.000   3.805   5.368  0.00  0.00    -0.060 I 
ATOM     10  F2  UNL d   1      -5.535   0.650   5.645  0.00  0.00    -0.096 F 
ATOM     11  F3  UNL d   1      -4.450  -1.164   3.952  0.00  0.00    -0.097 F 
ATOM     12  F4  UNL d   1      -3.517  -0.386   1.510  0.00  0.00    -0.092 F 
ENDROOT
TORSDOF 0
ENDMDL
