MODEL 1
REMARK minimizedAffinity 10.7928524
REMARK minimizedRMSD -1
REMARK  0 active torsions:
REMARK  status: ('A' for Active; 'I' for Inactive)
ROOT
ATOM      1  C   UNL d   1      -1.155  -1.708  -5.939  0.00  0.00     0.124 A 
ATOM      2  C1  UNL d   1      -1.985  -0.596  -5.931  0.00  0.00     0.062 A 
ATOM      3  C2  UNL d   1      -3.368  -0.755  -5.946  0.00  0.00     0.162 A 
ATOM      4  C3  UNL d   1      -3.930  -2.031  -5.969  0.00  0.00    -0.034 A 
ATOM      5  C4  UNL d   1      -3.088  -3.145  -5.978  0.00  0.00     0.162 A 
ATOM      6  C5  UNL d   1      -1.707  -2.981  -5.963  0.00  0.00     0.062 A 
ATOM      7  F   UNL d   1      -0.906  -4.057  -5.971  0.00  0.00    -0.097 F 
ATOM      8  F1  UNL d   1      -3.595  -4.387  -6.000  0.00  0.00    -0.096 F 
ATOM      9  I   UNL d   1      -5.997  -2.273  -5.992  0.00  0.00    -0.060 I 
ATOM     10  F2  UNL d   1      -4.146   0.338  -5.938  0.00  0.00    -0.096 F 
ATOM     11  F3  UNL d   1      -1.455   0.635  -5.909  0.00  0.00    -0.097 F 
ATOM     12  F4  UNL d   1       0.175  -1.553  -5.925  0.00  0.00    -0.092 F 
ENDROOT
TORSDOF 0
ENDMDL
