MODEL 1
REMARK minimizedAffinity 24.6565857
REMARK minimizedRMSD -1
REMARK  0 active torsions:
REMARK  status: ('A' for Active; 'I' for Inactive)
ROOT
ATOM      1  C   UNL d   1      -3.528  -2.439  -5.314  0.00  0.00     0.124 A 
ATOM      2  C1  UNL d   1      -2.452  -3.244  -5.661  0.00  0.00     0.062 A 
ATOM      3  C2  UNL d   1      -1.161  -2.724  -5.660  0.00  0.00     0.162 A 
ATOM      4  C3  UNL d   1      -0.939  -1.392  -5.311  0.00  0.00    -0.034 A 
ATOM      5  C4  UNL d   1      -2.027  -0.588  -4.965  0.00  0.00     0.162 A 
ATOM      6  C5  UNL d   1      -3.315  -1.113  -4.967  0.00  0.00     0.062 A 
ATOM      7  F   UNL d   1      -4.354  -0.334  -4.632  0.00  0.00    -0.097 F 
ATOM      8  F1  UNL d   1      -1.849   0.697  -4.623  0.00  0.00    -0.096 F 
ATOM      9  I   UNL d   1       0.990  -0.610  -5.309  0.00  0.00    -0.060 I 
ATOM     10  F2  UNL d   1      -0.139  -3.524  -5.999  0.00  0.00    -0.096 F 
ATOM     11  F3  UNL d   1      -2.655  -4.525  -5.998  0.00  0.00    -0.097 F 
ATOM     12  F4  UNL d   1      -4.770  -2.942  -5.317  0.00  0.00    -0.092 F 
ENDROOT
TORSDOF 0
ENDMDL
