MODEL 1
REMARK minimizedAffinity 15.9886189
REMARK minimizedRMSD -1
REMARK  0 active torsions:
REMARK  status: ('A' for Active; 'I' for Inactive)
ROOT
ATOM      1  C   UNL d   1      -3.485  -2.458  -5.688  0.00  0.00     0.124 A 
ATOM      2  C1  UNL d   1      -3.379  -1.112  -5.365  0.00  0.00     0.062 A 
ATOM      3  C2  UNL d   1      -2.141  -0.565  -5.042  0.00  0.00     0.162 A 
ATOM      4  C3  UNL d   1      -0.998  -1.363  -5.040  0.00  0.00    -0.034 A 
ATOM      5  C4  UNL d   1      -1.112  -2.716  -5.365  0.00  0.00     0.162 A 
ATOM      6  C5  UNL d   1      -2.351  -3.259  -5.687  0.00  0.00     0.062 A 
ATOM      7  F   UNL d   1      -2.451  -4.559  -5.999  0.00  0.00    -0.097 F 
ATOM      8  F1  UNL d   1      -0.032  -3.512  -5.373  0.00  0.00    -0.096 F 
ATOM      9  I   UNL d   1       0.856  -0.549  -4.557  0.00  0.00    -0.060 I 
ATOM     10  F2  UNL d   1      -2.069   0.739  -4.734  0.00  0.00    -0.096 F 
ATOM     11  F3  UNL d   1      -4.473  -0.337  -5.364  0.00  0.00    -0.097 F 
ATOM     12  F4  UNL d   1      -4.678  -2.982  -5.998  0.00  0.00    -0.092 F 
ENDROOT
TORSDOF 0
ENDMDL
