MODEL 1
REMARK minimizedAffinity 26.6091518
REMARK minimizedRMSD -1
REMARK  0 active torsions:
REMARK  status: ('A' for Active; 'I' for Inactive)
ROOT
ATOM      1  C   UNL d   1      -3.895   0.664   3.130  0.00  0.00     0.124 A 
ATOM      2  C1  UNL d   1      -4.644   0.516   4.289  0.00  0.00     0.062 A 
ATOM      3  C2  UNL d   1      -5.246   1.624   4.880  0.00  0.00     0.162 A 
ATOM      4  C3  UNL d   1      -5.101   2.889   4.312  0.00  0.00    -0.034 A 
ATOM      5  C4  UNL d   1      -4.346   3.031   3.147  0.00  0.00     0.162 A 
ATOM      6  C5  UNL d   1      -3.747   1.921   2.560  0.00  0.00     0.062 A 
ATOM      7  F   UNL d   1      -3.023   2.066   1.440  0.00  0.00    -0.097 F 
ATOM      8  F1  UNL d   1      -4.187   4.233   2.575  0.00  0.00    -0.096 F 
ATOM      9  I   UNL d   1      -5.999   4.548   5.193  0.00  0.00    -0.060 I 
ATOM     10  F2  UNL d   1      -5.964   1.451   6.000  0.00  0.00    -0.096 F 
ATOM     11  F3  UNL d   1      -4.788  -0.697   4.842  0.00  0.00    -0.097 F 
ATOM     12  F4  UNL d   1      -3.316  -0.403   2.564  0.00  0.00    -0.092 F 
ENDROOT
TORSDOF 0
ENDMDL
