MODEL 1
REMARK minimizedAffinity 12.6021404
REMARK minimizedRMSD -1
REMARK  0 active torsions:
REMARK  status: ('A' for Active; 'I' for Inactive)
ROOT
ATOM      1  C   UNL d   1      -4.165   2.449   2.542  0.00  0.00     0.124 A 
ATOM      2  C1  UNL d   1      -3.182   1.473   2.459  0.00  0.00     0.062 A 
ATOM      3  C2  UNL d   1      -3.081   0.496   3.446  0.00  0.00     0.162 A 
ATOM      4  C3  UNL d   1      -3.967   0.490   4.523  0.00  0.00    -0.034 A 
ATOM      5  C4  UNL d   1      -4.953   1.475   4.600  0.00  0.00     0.162 A 
ATOM      6  C5  UNL d   1      -5.049   2.450   3.612  0.00  0.00     0.062 A 
ATOM      7  F   UNL d   1      -6.000   3.392   3.693  0.00  0.00    -0.097 F 
ATOM      8  F1  UNL d   1      -5.821   1.499   5.622  0.00  0.00    -0.096 F 
ATOM      9  I   UNL d   1      -3.820  -0.969   6.000  0.00  0.00    -0.060 I 
ATOM     10  F2  UNL d   1      -2.122  -0.435   3.340  0.00  0.00    -0.096 F 
ATOM     11  F3  UNL d   1      -2.326   1.471   1.427  0.00  0.00    -0.097 F 
ATOM     12  F4  UNL d   1      -4.260   3.388   1.592  0.00  0.00    -0.092 F 
ENDROOT
TORSDOF 0
ENDMDL
