MODEL 1
REMARK minimizedAffinity 6.7379961
REMARK minimizedRMSD -1
REMARK  0 active torsions:
REMARK  status: ('A' for Active; 'I' for Inactive)
ROOT
ATOM      1  C   UNL d   1      -4.775   2.220   2.424  0.00  0.00     0.124 A 
ATOM      2  C1  UNL d   1      -5.346   2.411   3.674  0.00  0.00     0.062 A 
ATOM      3  C2  UNL d   1      -5.243   1.423   4.650  0.00  0.00     0.162 A 
ATOM      4  C3  UNL d   1      -4.564   0.235   4.379  0.00  0.00    -0.034 A 
ATOM      5  C4  UNL d   1      -3.994   0.049   3.118  0.00  0.00     0.162 A 
ATOM      6  C5  UNL d   1      -4.100   1.039   2.147  0.00  0.00     0.062 A 
ATOM      7  F   UNL d   1      -3.547   0.853   0.939  0.00  0.00    -0.097 F 
ATOM      8  F1  UNL d   1      -3.334  -1.081   2.824  0.00  0.00    -0.096 F 
ATOM      9  I   UNL d   1      -4.408  -1.244   5.834  0.00  0.00    -0.060 I 
ATOM     10  F2  UNL d   1      -5.804   1.635   5.849  0.00  0.00    -0.096 F 
ATOM     11  F3  UNL d   1      -6.000   3.550   3.944  0.00  0.00    -0.097 F 
ATOM     12  F4  UNL d   1      -4.877   3.171   1.487  0.00  0.00    -0.092 F 
ENDROOT
TORSDOF 0
ENDMDL
