MODEL 1
REMARK minimizedAffinity 9.55018997
REMARK minimizedRMSD -1
REMARK  0 active torsions:
REMARK  status: ('A' for Active; 'I' for Inactive)
ROOT
ATOM      1  C   UNL d   1      -4.634  -2.988  -5.935  0.00  0.00     0.124 A 
ATOM      2  C1  UNL d   1      -4.663  -1.601  -5.877  0.00  0.00     0.062 A 
ATOM      3  C2  UNL d   1      -3.474  -0.878  -5.828  0.00  0.00     0.162 A 
ATOM      4  C3  UNL d   1      -2.247  -1.541  -5.838  0.00  0.00    -0.034 A 
ATOM      5  C4  UNL d   1      -2.226  -2.935  -5.895  0.00  0.00     0.162 A 
ATOM      6  C5  UNL d   1      -3.417  -3.653  -5.944  0.00  0.00     0.062 A 
ATOM      7  F   UNL d   1      -3.388  -4.993  -5.999  0.00  0.00    -0.097 F 
ATOM      8  F1  UNL d   1      -1.064  -3.604  -5.906  0.00  0.00    -0.096 F 
ATOM      9  I   UNL d   1      -0.468  -0.463  -5.765  0.00  0.00    -0.060 I 
ATOM     10  F2  UNL d   1      -3.532   0.461  -5.773  0.00  0.00    -0.096 F 
ATOM     11  F3  UNL d   1      -5.838  -0.956  -5.868  0.00  0.00    -0.097 F 
ATOM     12  F4  UNL d   1      -5.779  -3.681  -5.981  0.00  0.00    -0.092 F 
ENDROOT
TORSDOF 0
ENDMDL
