MODEL 1
REMARK minimizedAffinity 14.4975576
REMARK minimizedRMSD -1
REMARK  0 active torsions:
REMARK  status: ('A' for Active; 'I' for Inactive)
ROOT
ATOM      1  C   UNL d   1       0.874   0.524  -3.641  0.00  0.00     0.124 A 
ATOM      2  C1  UNL d   1      -0.374   1.102  -3.455  0.00  0.00     0.062 A 
ATOM      3  C2  UNL d   1      -1.485   0.602  -4.128  0.00  0.00     0.162 A 
ATOM      4  C3  UNL d   1      -1.353  -0.485  -4.992  0.00  0.00    -0.034 A 
ATOM      5  C4  UNL d   1      -0.094  -1.061  -5.175  0.00  0.00     0.162 A 
ATOM      6  C5  UNL d   1       1.013  -0.557  -4.500  0.00  0.00     0.062 A 
ATOM      7  F   UNL d   1       2.218  -1.117  -4.681  0.00  0.00    -0.097 F 
ATOM      8  F1  UNL d   1       0.068  -2.107  -5.999  0.00  0.00    -0.096 F 
ATOM      9  I   UNL d   1      -3.011  -1.237  -6.000  0.00  0.00    -0.060 I 
ATOM     10  F2  UNL d   1      -2.678   1.180  -3.929  0.00  0.00    -0.096 F 
ATOM     11  F3  UNL d   1      -0.510   2.147  -2.626  0.00  0.00    -0.097 F 
ATOM     12  F4  UNL d   1       1.942   1.009  -2.993  0.00  0.00    -0.092 F 
ENDROOT
TORSDOF 0
ENDMDL
