MODEL 1
REMARK minimizedAffinity 19.5580692
REMARK minimizedRMSD -1
REMARK  0 active torsions:
REMARK  status: ('A' for Active; 'I' for Inactive)
ROOT
ATOM      1  C   UNL d   1      -4.717   0.692   0.729  0.00  0.00     0.124 A 
ATOM      2  C1  UNL d   1      -3.558   1.331   1.147  0.00  0.00     0.062 A 
ATOM      3  C2  UNL d   1      -2.460   0.585   1.566  0.00  0.00     0.162 A 
ATOM      4  C3  UNL d   1      -2.516  -0.809   1.570  0.00  0.00    -0.034 A 
ATOM      5  C4  UNL d   1      -3.686  -1.444   1.149  0.00  0.00     0.162 A 
ATOM      6  C5  UNL d   1      -4.780  -0.694   0.731  0.00  0.00     0.062 A 
ATOM      7  F   UNL d   1      -5.900  -1.313   0.327  0.00  0.00    -0.097 F 
ATOM      8  F1  UNL d   1      -3.774  -2.783   1.140  0.00  0.00    -0.096 F 
ATOM      9  I   UNL d   1      -0.877  -1.928   2.196  0.00  0.00    -0.060 I 
ATOM     10  F2  UNL d   1      -1.353   1.228   1.965  0.00  0.00    -0.096 F 
ATOM     11  F3  UNL d   1      -3.494   2.670   1.147  0.00  0.00    -0.097 F 
ATOM     12  F4  UNL d   1      -5.772   1.413   0.327  0.00  0.00    -0.092 F 
ENDROOT
TORSDOF 0
ENDMDL
