MODEL 1
REMARK minimizedAffinity 20.5803394
REMARK minimizedRMSD -1
REMARK  0 active torsions:
REMARK  status: ('A' for Active; 'I' for Inactive)
ROOT
ATOM      1  C   UNL d   1       1.297   0.781  -2.256  0.00  0.00     0.124 A 
ATOM      2  C1  UNL d   1       2.389   1.635  -2.201  0.00  0.00     0.062 A 
ATOM      3  C2  UNL d   1       3.280   1.702  -3.269  0.00  0.00     0.162 A 
ATOM      4  C3  UNL d   1       3.081   0.913  -4.401  0.00  0.00    -0.034 A 
ATOM      5  C4  UNL d   1       1.980   0.056  -4.449  0.00  0.00     0.162 A 
ATOM      6  C5  UNL d   1       1.093  -0.008  -3.379  0.00  0.00     0.062 A 
ATOM      7  F   UNL d   1       0.038  -0.834  -3.434  0.00  0.00    -0.097 F 
ATOM      8  F1  UNL d   1       1.759  -0.717  -5.523  0.00  0.00    -0.096 F 
ATOM      9  I   UNL d   1       4.410   1.010  -6.000  0.00  0.00    -0.060 I 
ATOM     10  F2  UNL d   1       4.327   2.537  -3.188  0.00  0.00    -0.096 F 
ATOM     11  F3  UNL d   1       2.589   2.398  -1.116  0.00  0.00    -0.097 F 
ATOM     12  F4  UNL d   1       0.442   0.718  -1.227  0.00  0.00    -0.092 F 
ENDROOT
TORSDOF 0
ENDMDL
