MODEL 1
REMARK minimizedAffinity 9.02239132
REMARK minimizedRMSD -1
REMARK  0 active torsions:
REMARK  status: ('A' for Active; 'I' for Inactive)
ROOT
ATOM      1  C   UNL d   1      -2.468   0.193   3.103  0.00  0.00     0.124 A 
ATOM      2  C1  UNL d   1      -2.289   1.111   2.077  0.00  0.00     0.062 A 
ATOM      3  C2  UNL d   1      -3.296   2.021   1.768  0.00  0.00     0.162 A 
ATOM      4  C3  UNL d   1      -4.491   2.019   2.487  0.00  0.00    -0.034 A 
ATOM      5  C4  UNL d   1      -4.665   1.092   3.517  0.00  0.00     0.162 A 
ATOM      6  C5  UNL d   1      -3.656   0.185   3.822  0.00  0.00     0.062 A 
ATOM      7  F   UNL d   1      -3.831  -0.701   4.813  0.00  0.00    -0.097 F 
ATOM      8  F1  UNL d   1      -5.802   1.062   4.228  0.00  0.00    -0.096 F 
ATOM      9  I   UNL d   1      -5.999   3.378   2.028  0.00  0.00    -0.060 I 
ATOM     10  F2  UNL d   1      -3.095   2.896   0.772  0.00  0.00    -0.096 F 
ATOM     11  F3  UNL d   1      -1.143   1.120   1.381  0.00  0.00    -0.097 F 
ATOM     12  F4  UNL d   1      -1.499  -0.682   3.398  0.00  0.00    -0.092 F 
ENDROOT
TORSDOF 0
ENDMDL
