MODEL 1
REMARK minimizedAffinity 14.9078274
REMARK minimizedRMSD -1
REMARK  0 active torsions:
REMARK  status: ('A' for Active; 'I' for Inactive)
ROOT
ATOM      1  C   UNL d   1      -2.111  -0.214   3.233  0.00  0.00     0.124 A 
ATOM      2  C1  UNL d   1      -3.274  -0.461   3.949  0.00  0.00     0.062 A 
ATOM      3  C2  UNL d   1      -4.303   0.476   3.959  0.00  0.00     0.162 A 
ATOM      4  C3  UNL d   1      -4.173   1.671   3.251  0.00  0.00    -0.034 A 
ATOM      5  C4  UNL d   1      -3.000   1.913   2.534  0.00  0.00     0.162 A 
ATOM      6  C5  UNL d   1      -1.975   0.973   2.526  0.00  0.00     0.062 A 
ATOM      7  F   UNL d   1      -0.852   1.214   1.834  0.00  0.00    -0.097 F 
ATOM      8  F1  UNL d   1      -2.843   3.051   1.841  0.00  0.00    -0.096 F 
ATOM      9  I   UNL d   1      -5.708   3.076   3.264  0.00  0.00    -0.060 I 
ATOM     10  F2  UNL d   1      -5.415   0.211   4.660  0.00  0.00    -0.096 F 
ATOM     11  F3  UNL d   1      -3.408  -1.607   4.633  0.00  0.00    -0.097 F 
ATOM     12  F4  UNL d   1      -1.123  -1.118   3.225  0.00  0.00    -0.092 F 
ENDROOT
TORSDOF 0
ENDMDL
