MODEL 1
REMARK minimizedAffinity 9.8912487
REMARK minimizedRMSD -1
REMARK  0 active torsions:
REMARK  status: ('A' for Active; 'I' for Inactive)
ROOT
ATOM      1  C   UNL d   1       5.053  -1.388   2.488  0.00  0.00     0.124 A 
ATOM      2  C1  UNL d   1       5.397  -0.958   3.762  0.00  0.00     0.062 A 
ATOM      3  C2  UNL d   1       5.665  -1.885   4.765  0.00  0.00     0.162 A 
ATOM      4  C3  UNL d   1       5.591  -3.252   4.498  0.00  0.00    -0.034 A 
ATOM      5  C4  UNL d   1       5.243  -3.677   3.215  0.00  0.00     0.162 A 
ATOM      6  C5  UNL d   1       4.976  -2.747   2.216  0.00  0.00     0.062 A 
ATOM      7  F   UNL d   1       4.644  -3.164   0.985  0.00  0.00    -0.097 F 
ATOM      8  F1  UNL d   1       5.163  -4.984   2.924  0.00  0.00    -0.096 F 
ATOM      9  I   UNL d   1       5.991  -4.641   5.996  0.00  0.00    -0.060 I 
ATOM     10  F2  UNL d   1       5.995  -1.440   5.987  0.00  0.00    -0.096 F 
ATOM     11  F3  UNL d   1       5.471   0.354   4.028  0.00  0.00    -0.097 F 
ATOM     12  F4  UNL d   1       4.795  -0.494   1.525  0.00  0.00    -0.092 F 
ENDROOT
TORSDOF 0
ENDMDL
