MODEL 1
REMARK minimizedAffinity 20.9294739
REMARK minimizedRMSD -1
REMARK  0 active torsions:
REMARK  status: ('A' for Active; 'I' for Inactive)
ROOT
ATOM      1  C   UNL d   1      -4.681  -2.445  -5.920  0.00  0.00     0.124 A 
ATOM      2  C1  UNL d   1      -4.288  -1.114  -5.879  0.00  0.00     0.062 A 
ATOM      3  C2  UNL d   1      -2.936  -0.783  -5.877  0.00  0.00     0.162 A 
ATOM      4  C3  UNL d   1      -1.966  -1.784  -5.917  0.00  0.00    -0.034 A 
ATOM      5  C4  UNL d   1      -2.369  -3.121  -5.957  0.00  0.00     0.162 A 
ATOM      6  C5  UNL d   1      -3.721  -3.447  -5.959  0.00  0.00     0.062 A 
ATOM      7  F   UNL d   1      -4.098  -4.733  -5.998  0.00  0.00    -0.097 F 
ATOM      8  F1  UNL d   1      -1.462  -4.109  -5.996  0.00  0.00    -0.096 F 
ATOM      9  I   UNL d   1       0.056  -1.293  -5.915  0.00  0.00    -0.060 I 
ATOM     10  F2  UNL d   1      -2.586   0.511  -5.838  0.00  0.00    -0.096 F 
ATOM     11  F3  UNL d   1      -5.214  -0.145  -5.841  0.00  0.00    -0.097 F 
ATOM     12  F4  UNL d   1      -5.982  -2.761  -5.921  0.00  0.00    -0.092 F 
ENDROOT
TORSDOF 0
ENDMDL
