MODEL 1
REMARK minimizedAffinity 6.14592361
REMARK minimizedRMSD -1
REMARK  2 active torsions:
REMARK  status: ('A' for Active; 'I' for Inactive)
REMARK    1  A    between atoms: C2'_3  and  C1'_4 
REMARK    2  A    between atoms: C1'_4  and  C1_5 
ROOT
ATOM      1  C1  I4B d   1       3.864  -3.388   2.450  0.00  0.00    -0.075 A 
ATOM      2  C2  I4B d   1       4.529  -3.951   1.390  0.00  0.00     0.003 A 
ATOM      3  C3  I4B d   1       4.068  -3.742   0.067  0.00  0.00     0.002 A 
ATOM      4  C4  I4B d   1       2.918  -3.009  -0.144  0.00  0.00    -0.004 A 
ATOM      5  C5  I4B d   1       2.259  -2.419   0.931  0.00  0.00     0.002 A 
ATOM      6  C6  I4B d   1       2.742  -2.599   2.235  0.00  0.00     0.003 A 
ENDROOT
BRANCH   1   7
ATOM      7  C1' I4B d   1       4.359  -3.656   3.836  0.00  0.00     0.060 C 
BRANCH   7   8
ATOM      8  C2' I4B d   1       4.633  -2.323   4.501  0.00  0.00    -0.013 C 
ATOM      9  C4' I4B d   1       4.531  -2.430   6.000  0.00  0.00     0.013 C 
ATOM     10  C3' I4B d   1       6.000  -1.869   4.082  0.00  0.00     0.013 C 
ENDBRANCH   7   8
ENDBRANCH   1   7
TORSDOF 2
ENDMDL
