MODEL 1
REMARK minimizedAffinity 12.6032515
REMARK minimizedRMSD -1
REMARK  2 active torsions:
REMARK  status: ('A' for Active; 'I' for Inactive)
REMARK    1  A    between atoms: C2'_3  and  C1'_4 
REMARK    2  A    between atoms: C1'_4  and  C1_5 
ROOT
ATOM      1  C1  I4B d   1       2.875   0.655   1.198  0.00  0.00    -0.075 A 
ATOM      2  C2  I4B d   1       2.895   1.906   1.763  0.00  0.00     0.003 A 
ATOM      3  C3  I4B d   1       3.870   2.852   1.364  0.00  0.00     0.002 A 
ATOM      4  C4  I4B d   1       4.830   2.491   0.441  0.00  0.00    -0.004 A 
ATOM      5  C5  I4B d   1       4.795   1.230  -0.147  0.00  0.00     0.002 A 
ATOM      6  C6  I4B d   1       3.804   0.310   0.224  0.00  0.00     0.003 A 
ENDROOT
BRANCH   1   7
ATOM      7  C1' I4B d   1       1.852  -0.331   1.666  0.00  0.00     0.060 C 
BRANCH   7   8
ATOM      8  C2' I4B d   1       1.406  -1.145   0.469  0.00  0.00    -0.013 C 
ATOM      9  C4' I4B d   1       2.172  -2.438   0.372  0.00  0.00     0.013 C 
ATOM     10  C3' I4B d   1      -0.066  -1.397   0.602  0.00  0.00     0.013 C 
ENDBRANCH   7   8
ENDBRANCH   1   7
TORSDOF 2
ENDMDL
