MODEL 1
REMARK minimizedAffinity 11.9788198
REMARK minimizedRMSD -1
REMARK  2 active torsions:
REMARK  status: ('A' for Active; 'I' for Inactive)
REMARK    1  A    between atoms: C2'_3  and  C1'_4 
REMARK    2  A    between atoms: C1'_4  and  C1_5 
ROOT
ATOM      1  C1  I4B d   1       4.402  -5.046   2.443  0.00  0.00    -0.075 A 
ATOM      2  C2  I4B d   1       5.376  -5.733   1.763  0.00  0.00     0.003 A 
ATOM      3  C3  I4B d   1       5.655  -5.422   0.410  0.00  0.00     0.002 A 
ATOM      4  C4  I4B d   1       4.908  -4.457  -0.233  0.00  0.00    -0.004 A 
ATOM      5  C5  I4B d   1       3.936  -3.745   0.465  0.00  0.00     0.002 A 
ATOM      6  C6  I4B d   1       3.690  -4.033   1.815  0.00  0.00     0.003 A 
ENDROOT
BRANCH   1   7
ATOM      7  C1' I4B d   1       4.111  -5.423   3.861  0.00  0.00     0.060 C 
BRANCH   7   8
ATOM      8  C2' I4B d   1       5.223  -4.871   4.729  0.00  0.00    -0.013 C 
ATOM      9  C4' I4B d   1       5.017  -3.407   5.014  0.00  0.00     0.013 C 
ATOM     10  C3' I4B d   1       5.260  -5.670   5.998  0.00  0.00     0.013 C 
ENDBRANCH   7   8
ENDBRANCH   1   7
TORSDOF 2
ENDMDL
