MODEL 1
REMARK minimizedAffinity 4.54387903
REMARK minimizedRMSD -1
REMARK  0 active torsions:
REMARK  status: ('A' for Active; 'I' for Inactive)
ROOT
ATOM      1  C   UNL d   1      -4.483  -0.635  -4.674  0.00  0.00     0.020 A 
ATOM      2  C1  UNL d   1      -5.180   0.036  -5.677  0.00  0.00     0.020 A 
ATOM      3  C2  UNL d   1      -5.140   1.431  -5.742  0.00  0.00     0.034 A 
ATOM      4  C3  UNL d   1      -4.400   2.158  -4.803  0.00  0.00     0.017 A 
ATOM      5  C4  UNL d   1      -3.700   1.483  -3.796  0.00  0.00     0.017 A 
ATOM      6  C5  UNL d   1      -3.744   0.087  -3.735  0.00  0.00     0.034 A 
ATOM      7 Cl   UNL d   1      -2.766   2.312  -2.601  0.00  0.00    -0.070 Cl
ATOM      8 Cl1  UNL d   1      -4.394   3.880  -4.944  0.00  0.00    -0.070 Cl
ENDROOT
TORSDOF 0
ENDMDL
