MODEL 1
REMARK minimizedAffinity 7.23395491
REMARK minimizedRMSD -1
REMARK  0 active torsions:
REMARK  status: ('A' for Active; 'I' for Inactive)
ROOT
ATOM      1  C   UNL d   1       2.472   1.085  -0.225  0.00  0.00     0.020 A 
ATOM      2  C1  UNL d   1       2.016   2.402  -0.191  0.00  0.00     0.020 A 
ATOM      3  C2  UNL d   1       1.560   3.013  -1.361  0.00  0.00     0.034 A 
ATOM      4  C3  UNL d   1       1.560   2.307  -2.570  0.00  0.00     0.017 A 
ATOM      5  C4  UNL d   1       2.018   0.985  -2.603  0.00  0.00     0.017 A 
ATOM      6  C5  UNL d   1       2.473   0.378  -1.428  0.00  0.00     0.034 A 
ATOM      7 Cl   UNL d   1       2.048   0.050  -4.056  0.00  0.00    -0.070 Cl
ATOM      8 Cl1  UNL d   1       0.982   3.125  -3.978  0.00  0.00    -0.070 Cl
ENDROOT
TORSDOF 0
ENDMDL
