MODEL 1
REMARK minimizedAffinity 1.1756494
REMARK minimizedRMSD -1
REMARK  0 active torsions:
REMARK  status: ('A' for Active; 'I' for Inactive)
ROOT
ATOM      1  C   UNL d   1       1.253  -1.276   3.278  0.00  0.00     0.020 A 
ATOM      2  C1  UNL d   1       0.072  -1.442   2.556  0.00  0.00     0.020 A 
ATOM      3  C2  UNL d   1       0.114  -1.550   1.164  0.00  0.00     0.034 A 
ATOM      4  C3  UNL d   1       1.339  -1.490   0.490  0.00  0.00     0.017 A 
ATOM      5  C4  UNL d   1       2.524  -1.323   1.216  0.00  0.00     0.017 A 
ATOM      6  C5  UNL d   1       2.476  -1.216   2.609  0.00  0.00     0.034 A 
ATOM      7 Cl   UNL d   1       4.073  -1.241   0.454  0.00  0.00    -0.070 Cl
ATOM      8 Cl1  UNL d   1       1.316  -1.630  -1.232  0.00  0.00    -0.070 Cl
ENDROOT
TORSDOF 0
ENDMDL
