MODEL 1
REMARK minimizedAffinity 6.88987017
REMARK minimizedRMSD -1
REMARK  0 active torsions:
REMARK  status: ('A' for Active; 'I' for Inactive)
ROOT
ATOM      1  C   UNL d   1       1.931  -1.127   3.262  0.00  0.00     0.020 A 
ATOM      2  C1  UNL d   1       0.632  -1.240   2.768  0.00  0.00     0.020 A 
ATOM      3  C2  UNL d   1       0.406  -1.243   1.390  0.00  0.00     0.034 A 
ATOM      4  C3  UNL d   1       1.481  -1.133   0.501  0.00  0.00     0.017 A 
ATOM      5  C4  UNL d   1       2.785  -1.019   0.997  0.00  0.00     0.017 A 
ATOM      6  C5  UNL d   1       3.005  -1.016   2.378  0.00  0.00     0.034 A 
ATOM      7 Cl   UNL d   1       4.162  -0.879  -0.038  0.00  0.00    -0.070 Cl
ATOM      8 Cl1  UNL d   1       1.129  -1.144  -1.191  0.00  0.00    -0.070 Cl
ENDROOT
TORSDOF 0
ENDMDL
