MODEL 1
REMARK minimizedAffinity 1.43472612
REMARK minimizedRMSD -1
REMARK  0 active torsions:
REMARK  status: ('A' for Active; 'I' for Inactive)
ROOT
ATOM      1  C   UNL d   1       2.510  -0.656  -0.862  0.00  0.00     0.020 A 
ATOM      2  C1  UNL d   1       2.416  -0.766  -2.249  0.00  0.00     0.020 A 
ATOM      3  C2  UNL d   1       1.999   0.328  -3.009  0.00  0.00     0.034 A 
ATOM      4  C3  UNL d   1       1.675   1.537  -2.384  0.00  0.00     0.017 A 
ATOM      5  C4  UNL d   1       1.770   1.647  -0.992  0.00  0.00     0.017 A 
ATOM      6  C5  UNL d   1       2.188   0.548  -0.235  0.00  0.00     0.034 A 
ATOM      7 Cl   UNL d   1       1.388   3.107  -0.149  0.00  0.00    -0.070 Cl
ATOM      8 Cl1  UNL d   1       1.167   2.850  -3.387  0.00  0.00    -0.070 Cl
ENDROOT
TORSDOF 0
ENDMDL
