MODEL 1
REMARK minimizedAffinity 4.77059174
REMARK minimizedRMSD -1
REMARK  0 active torsions:
REMARK  status: ('A' for Active; 'I' for Inactive)
ROOT
ATOM      1  C   UNL d   1       1.379   2.486  -1.976  0.00  0.00     0.020 A 
ATOM      2  C1  UNL d   1       2.329   2.546  -0.957  0.00  0.00     0.020 A 
ATOM      3  C2  UNL d   1       2.606   1.411  -0.193  0.00  0.00     0.034 A 
ATOM      4  C3  UNL d   1       1.932   0.210  -0.446  0.00  0.00     0.017 A 
ATOM      5  C4  UNL d   1       0.979   0.151  -1.469  0.00  0.00     0.017 A 
ATOM      6  C5  UNL d   1       0.705   1.291  -2.231  0.00  0.00     0.034 A 
ATOM      7 Cl   UNL d   1       0.107  -1.294  -1.841  0.00  0.00    -0.070 Cl
ATOM      8 Cl1  UNL d   1       2.325  -1.155   0.538  0.00  0.00    -0.070 Cl
ENDROOT
TORSDOF 0
ENDMDL
