MODEL 1
REMARK minimizedAffinity 8.4485693
REMARK minimizedRMSD -1
REMARK  0 active torsions:
REMARK  status: ('A' for Active; 'I' for Inactive)
ROOT
ATOM      1  C   UNL d   1      -4.493   0.234  -6.000  0.00  0.00     0.020 A 
ATOM      2  C1  UNL d   1      -4.109  -1.103  -5.902  0.00  0.00     0.020 A 
ATOM      3  C2  UNL d   1      -3.315  -1.525  -4.834  0.00  0.00     0.034 A 
ATOM      4  C3  UNL d   1      -2.902  -0.609  -3.859  0.00  0.00     0.017 A 
ATOM      5  C4  UNL d   1      -3.288   0.732  -3.958  0.00  0.00     0.017 A 
ATOM      6  C5  UNL d   1      -4.083   1.149  -5.030  0.00  0.00     0.034 A 
ATOM      7 Cl   UNL d   1      -2.818   1.920  -2.794  0.00  0.00    -0.070 Cl
ATOM      8 Cl1  UNL d   1      -1.921  -1.201  -2.565  0.00  0.00    -0.070 Cl
ENDROOT
TORSDOF 0
ENDMDL
