MODEL 1
REMARK minimizedAffinity 2.52411771
REMARK minimizedRMSD -1
REMARK  0 active torsions:
REMARK  status: ('A' for Active; 'I' for Inactive)
ROOT
ATOM      1  C   UNL d   1       2.108  -1.350  -0.302  0.00  0.00     0.020 A 
ATOM      2  C1  UNL d   1       2.824  -0.229  -0.723  0.00  0.00     0.020 A 
ATOM      3  C2  UNL d   1       2.144   0.922  -1.127  0.00  0.00     0.034 A 
ATOM      4  C3  UNL d   1       0.745   0.955  -1.112  0.00  0.00     0.017 A 
ATOM      5  C4  UNL d   1       0.028  -0.170  -0.690  0.00  0.00     0.017 A 
ATOM      6  C5  UNL d   1       0.713  -1.320  -0.286  0.00  0.00     0.034 A 
ATOM      7 Cl   UNL d   1      -1.700  -0.205  -0.644  0.00  0.00    -0.070 Cl
ATOM      8 Cl1  UNL d   1      -0.030   2.412  -1.625  0.00  0.00    -0.070 Cl
ENDROOT
TORSDOF 0
ENDMDL
