MODEL 1
REMARK minimizedAffinity 3.99302697
REMARK minimizedRMSD -1
REMARK  0 active torsions:
REMARK  status: ('A' for Active; 'I' for Inactive)
ROOT
ATOM      1  C   UNL d   1       2.922  -0.169  -3.268  0.00  0.00     0.020 A 
ATOM      2  C1  UNL d   1       1.583  -0.366  -2.931  0.00  0.00     0.020 A 
ATOM      3  C2  UNL d   1       1.245  -0.850  -1.666  0.00  0.00     0.034 A 
ATOM      4  C3  UNL d   1       2.247  -1.139  -0.732  0.00  0.00     0.017 A 
ATOM      5  C4  UNL d   1       3.590  -0.940  -1.070  0.00  0.00     0.017 A 
ATOM      6  C5  UNL d   1       3.923  -0.455  -2.339  0.00  0.00     0.034 A 
ATOM      7 Cl   UNL d   1       4.882  -1.274   0.029  0.00  0.00    -0.070 Cl
ATOM      8 Cl1  UNL d   1       1.757  -1.734   0.814  0.00  0.00    -0.070 Cl
ENDROOT
TORSDOF 0
ENDMDL
