MODEL 1
REMARK minimizedAffinity 0.417504728
REMARK minimizedRMSD -1
REMARK  0 active torsions:
REMARK  status: ('A' for Active; 'I' for Inactive)
ROOT
ATOM      1  C   UNL d   1       1.112  -0.065  -1.759  0.00  0.00     0.020 A 
ATOM      2  C1  UNL d   1       2.364  -0.611  -2.041  0.00  0.00     0.020 A 
ATOM      3  C2  UNL d   1       2.925  -1.554  -1.177  0.00  0.00     0.034 A 
ATOM      4  C3  UNL d   1       2.235  -1.952  -0.026  0.00  0.00     0.017 A 
ATOM      5  C4  UNL d   1       0.979  -1.403   0.256  0.00  0.00     0.017 A 
ATOM      6  C5  UNL d   1       0.422  -0.460  -0.613  0.00  0.00     0.034 A 
ATOM      7 Cl   UNL d   1       0.068  -1.846   1.656  0.00  0.00    -0.070 Cl
ATOM      8 Cl1  UNL d   1       2.989  -3.122   0.998  0.00  0.00    -0.070 Cl
ENDROOT
TORSDOF 0
ENDMDL
