MODEL 1
REMARK minimizedAffinity 1.12432468
REMARK minimizedRMSD -1
REMARK  3 active torsions:
REMARK  status: ('A' for Active; 'I' for Inactive)
REMARK    1  A    between atoms: C3'_2  and  C2'_3 
REMARK    2  A    between atoms: C2'_3  and  C1'_4 
REMARK    3  A    between atoms: C1'_4  and  C1_5 
ROOT
ATOM      1  C1  N4B d   1       0.760   0.259   1.542  0.00  0.00    -0.075 A 
ATOM      2  C2  N4B d   1       0.506  -0.185   0.226  0.00  0.00     0.002 A 
ATOM      3  C3  N4B d   1       1.157  -1.291  -0.264  0.00  0.00     0.002 A 
ATOM      4  C4  N4B d   1       2.077  -1.954   0.534  0.00  0.00    -0.004 A 
ATOM      5  C5  N4B d   1       2.298  -1.534   1.813  0.00  0.00     0.002 A 
ATOM      6  C6  N4B d   1       1.647  -0.427   2.320  0.00  0.00     0.002 A 
ENDROOT
BRANCH   1   7
ATOM      7  C1' N4B d   1       0.136   1.513   2.092  0.00  0.00     0.057 C 
BRANCH   7   8
ATOM      8  C2' N4B d   1       1.240   2.461   2.550  0.00  0.00     0.009 C 
BRANCH   8   9
ATOM      9  C3' N4B d   1       1.789   3.291   1.403  0.00  0.00     0.004 C 
ATOM     10  C4' N4B d   1       0.715   3.806   0.492  0.00  0.00     0.003 C 
ENDBRANCH   8   9
ENDBRANCH   7   8
ENDBRANCH   1   7
TORSDOF 3
ENDMDL
