MODEL 1
REMARK minimizedAffinity 7.22295904
REMARK minimizedRMSD -1
REMARK  3 active torsions:
REMARK  status: ('A' for Active; 'I' for Inactive)
REMARK    1  A    between atoms: C3'_2  and  C2'_3 
REMARK    2  A    between atoms: C2'_3  and  C1'_4 
REMARK    3  A    between atoms: C1'_4  and  C1_5 
ROOT
ATOM      1  C1  N4B d   1      -0.337   2.075   0.042  0.00  0.00    -0.075 A 
ATOM      2  C2  N4B d   1      -0.622   2.053   1.425  0.00  0.00     0.002 A 
ATOM      3  C3  N4B d   1      -1.400   3.039   1.981  0.00  0.00     0.002 A 
ATOM      4  C4  N4B d   1      -1.886   4.062   1.181  0.00  0.00    -0.004 A 
ATOM      5  C5  N4B d   1      -1.628   4.061  -0.158  0.00  0.00     0.002 A 
ATOM      6  C6  N4B d   1      -0.851   3.075  -0.732  0.00  0.00     0.002 A 
ENDROOT
BRANCH   1   7
ATOM      7  C1' N4B d   1       0.579   1.067  -0.596  0.00  0.00     0.057 C 
BRANCH   7   8
ATOM      8  C2' N4B d   1      -0.039   0.587  -1.906  0.00  0.00     0.009 C 
BRANCH   8   9
ATOM      9  C3' N4B d   1      -0.281  -0.913  -1.905  0.00  0.00     0.004 C 
ATOM     10  C4' N4B d   1      -1.544  -1.298  -2.616  0.00  0.00     0.003 C 
ENDBRANCH   8   9
ENDBRANCH   7   8
ENDBRANCH   1   7
TORSDOF 3
ENDMDL
