MODEL 1
REMARK minimizedAffinity 6.70005131
REMARK minimizedRMSD -1
REMARK  0 active torsions:
REMARK  status: ('A' for Active; 'I' for Inactive)
ROOT
ATOM      1  C   UNL d   1       0.319  -3.071   2.332  0.00  0.00     0.078 C 
ATOM      2  C1  UNL d   1       0.950  -2.361   3.493  0.00  0.00    -0.077 A 
ATOM      3  C2  UNL d   1       1.478  -1.072   3.349  0.00  0.00    -0.001 A 
ATOM      4  C3  UNL d   1       2.071  -0.427   4.435  0.00  0.00     0.003 A 
ATOM      5  C4  UNL d   1       2.144  -1.063   5.672  0.00  0.00    -0.005 A 
ATOM      6  C5  UNL d   1       1.624  -2.347   5.825  0.00  0.00     0.003 A 
ATOM      7  C6  UNL d   1       1.030  -2.993   4.739  0.00  0.00    -0.001 A 
ENDROOT
TORSDOF 0
ENDMDL
