MODEL 1
REMARK minimizedAffinity -2.59138727
REMARK minimizedRMSD -1
REMARK  0 active torsions:
REMARK  status: ('A' for Active; 'I' for Inactive)
ROOT
ATOM      1  C   UNL d   1       0.149   0.076  -0.423  0.00  0.00     0.078 C 
ATOM      2  C1  UNL d   1       0.862  -0.543   0.741  0.00  0.00    -0.077 A 
ATOM      3  C2  UNL d   1       0.491  -1.802   1.229  0.00  0.00    -0.001 A 
ATOM      4  C3  UNL d   1       1.157  -2.362   2.320  0.00  0.00     0.003 A 
ATOM      5  C4  UNL d   1       2.199  -1.669   2.934  0.00  0.00    -0.005 A 
ATOM      6  C5  UNL d   1       2.574  -0.415   2.458  0.00  0.00     0.003 A 
ATOM      7  C6  UNL d   1       1.909   0.147   1.367  0.00  0.00    -0.001 A 
ENDROOT
TORSDOF 0
ENDMDL
