MODEL 1
REMARK minimizedAffinity 8.06843185
REMARK minimizedRMSD -1
REMARK  0 active torsions:
REMARK  status: ('A' for Active; 'I' for Inactive)
ROOT
ATOM      1  C   UNL d   1       1.751  -3.983   6.000  0.00  0.00     0.078 C 
ATOM      2  C1  UNL d   1       1.872  -2.673   5.280  0.00  0.00    -0.077 A 
ATOM      3  C2  UNL d   1       1.723  -2.598   3.890  0.00  0.00    -0.001 A 
ATOM      4  C3  UNL d   1       1.847  -1.373   3.232  0.00  0.00     0.003 A 
ATOM      5  C4  UNL d   1       2.123  -0.215   3.956  0.00  0.00    -0.005 A 
ATOM      6  C5  UNL d   1       2.275  -0.280   5.340  0.00  0.00     0.003 A 
ATOM      7  C6  UNL d   1       2.151  -1.504   5.999  0.00  0.00    -0.001 A 
ENDROOT
TORSDOF 0
ENDMDL
