MODEL 1
REMARK minimizedAffinity 4.33978176
REMARK minimizedRMSD -1
REMARK  0 active torsions:
REMARK  status: ('A' for Active; 'I' for Inactive)
ROOT
ATOM      1  C   UNL d   1      -3.772   3.302  -2.537  0.00  0.00     0.078 C 
ATOM      2  C1  UNL d   1      -3.164   1.933  -2.480  0.00  0.00    -0.077 A 
ATOM      3  C2  UNL d   1      -2.816   1.349  -1.255  0.00  0.00    -0.001 A 
ATOM      4  C3  UNL d   1      -2.241   0.078  -1.217  0.00  0.00     0.003 A 
ATOM      5  C4  UNL d   1      -2.009  -0.620  -2.401  0.00  0.00    -0.005 A 
ATOM      6  C5  UNL d   1      -2.350  -0.047  -3.624  0.00  0.00     0.003 A 
ATOM      7  C6  UNL d   1      -2.924   1.225  -3.664  0.00  0.00    -0.001 A 
ENDROOT
TORSDOF 0
ENDMDL
