MODEL 1
REMARK minimizedAffinity 5.46834421
REMARK minimizedRMSD -1
REMARK  0 active torsions:
REMARK  status: ('A' for Active; 'I' for Inactive)
ROOT
ATOM      1  C   UNL d   1      -3.918  -3.362  -3.053  0.00  0.00     0.078 C 
ATOM      2  C1  UNL d   1      -3.196  -2.052  -3.160  0.00  0.00    -0.077 A 
ATOM      3  C2  UNL d   1      -1.940  -1.871  -2.567  0.00  0.00    -0.001 A 
ATOM      4  C3  UNL d   1      -1.284  -0.643  -2.666  0.00  0.00     0.003 A 
ATOM      5  C4  UNL d   1      -1.876   0.414  -3.355  0.00  0.00    -0.005 A 
ATOM      6  C5  UNL d   1      -3.126   0.243  -3.946  0.00  0.00     0.003 A 
ATOM      7  C6  UNL d   1      -3.784  -0.984  -3.849  0.00  0.00    -0.001 A 
ENDROOT
TORSDOF 0
ENDMDL
