MODEL 1
REMARK minimizedAffinity 11.3021746
REMARK minimizedRMSD -1
REMARK  0 active torsions:
REMARK  status: ('A' for Active; 'I' for Inactive)
ROOT
ATOM      1  C   UNL d   1      -2.680  -2.230  -2.629  0.00  0.00     0.078 C 
ATOM      2  C1  UNL d   1      -2.483  -0.753  -2.794  0.00  0.00    -0.077 A 
ATOM      3  C2  UNL d   1      -2.444   0.098  -1.683  0.00  0.00    -0.001 A 
ATOM      4  C3  UNL d   1      -2.269   1.472  -1.852  0.00  0.00     0.003 A 
ATOM      5  C4  UNL d   1      -2.133   2.008  -3.131  0.00  0.00    -0.005 A 
ATOM      6  C5  UNL d   1      -2.172   1.169  -4.243  0.00  0.00     0.003 A 
ATOM      7  C6  UNL d   1      -2.347  -0.205  -4.076  0.00  0.00    -0.001 A 
ENDROOT
TORSDOF 0
ENDMDL
