MODEL 1
REMARK minimizedAffinity 7.58028984
REMARK minimizedRMSD -1
REMARK  0 active torsions:
REMARK  status: ('A' for Active; 'I' for Inactive)
ROOT
ATOM      1  C   UNL d   1      -3.262  -2.913  -3.091  0.00  0.00     0.078 C 
ATOM      2  C1  UNL d   1      -2.793  -1.494  -3.204  0.00  0.00    -0.077 A 
ATOM      3  C2  UNL d   1      -1.868  -0.966  -2.295  0.00  0.00    -0.001 A 
ATOM      4  C3  UNL d   1      -1.447   0.360  -2.406  0.00  0.00     0.003 A 
ATOM      5  C4  UNL d   1      -1.946   1.170  -3.424  0.00  0.00    -0.005 A 
ATOM      6  C5  UNL d   1      -2.869   0.655  -4.331  0.00  0.00     0.003 A 
ATOM      7  C6  UNL d   1      -3.291  -0.671  -4.222  0.00  0.00    -0.001 A 
ENDROOT
TORSDOF 0
ENDMDL
