MODEL 1
REMARK minimizedAffinity 2.57074499
REMARK minimizedRMSD -1
REMARK  0 active torsions:
REMARK  status: ('A' for Active; 'I' for Inactive)
ROOT
ATOM      1  C   UNL d   1      -3.175   2.303  -2.613  0.00  0.00     0.078 C 
ATOM      2  C1  UNL d   1      -2.435   1.024  -2.866  0.00  0.00    -0.077 A 
ATOM      3  C2  UNL d   1      -1.844   0.312  -1.814  0.00  0.00    -0.001 A 
ATOM      4  C3  UNL d   1      -1.149  -0.872  -2.066  0.00  0.00     0.003 A 
ATOM      5  C4  UNL d   1      -1.038  -1.354  -3.368  0.00  0.00    -0.005 A 
ATOM      6  C5  UNL d   1      -1.621  -0.652  -4.421  0.00  0.00     0.003 A 
ATOM      7  C6  UNL d   1      -2.316   0.532  -4.172  0.00  0.00    -0.001 A 
ENDROOT
TORSDOF 0
ENDMDL
