MODEL 1
REMARK minimizedAffinity -4.88334465
REMARK minimizedRMSD -1
REMARK  0 active torsions:
REMARK  status: ('A' for Active; 'I' for Inactive)
ROOT
ATOM      1  C   UNL d   1       0.119  -2.297  -2.655  0.00  0.00     0.078 C 
ATOM      2  C1  UNL d   1      -0.329  -1.882  -1.285  0.00  0.00    -0.077 A 
ATOM      3  C2  UNL d   1      -0.168  -0.564  -0.842  0.00  0.00    -0.001 A 
ATOM      4  C3  UNL d   1      -0.581  -0.194   0.439  0.00  0.00     0.003 A 
ATOM      5  C4  UNL d   1      -1.157  -1.137   1.288  0.00  0.00    -0.005 A 
ATOM      6  C5  UNL d   1      -1.319  -2.452   0.856  0.00  0.00     0.003 A 
ATOM      7  C6  UNL d   1      -0.907  -2.823  -0.424  0.00  0.00    -0.001 A 
ENDROOT
TORSDOF 0
ENDMDL
