MODEL 1
REMARK minimizedAffinity -2.66029334
REMARK minimizedRMSD -1
REMARK  0 active torsions:
REMARK  status: ('A' for Active; 'I' for Inactive)
ROOT
ATOM      1  C   UNL d   1       0.293  -1.542  -2.966  0.00  0.00     0.078 C 
ATOM      2  C1  UNL d   1      -0.079  -1.303  -1.533  0.00  0.00    -0.077 A 
ATOM      3  C2  UNL d   1      -0.555  -2.345  -0.728  0.00  0.00    -0.001 A 
ATOM      4  C3  UNL d   1      -0.907  -2.105   0.601  0.00  0.00     0.003 A 
ATOM      5  C4  UNL d   1      -0.788  -0.824   1.136  0.00  0.00    -0.005 A 
ATOM      6  C5  UNL d   1      -0.317   0.220   0.342  0.00  0.00     0.003 A 
ATOM      7  C6  UNL d   1       0.035  -0.018  -0.987  0.00  0.00    -0.001 A 
ENDROOT
TORSDOF 0
ENDMDL
