MODEL 1
REMARK minimizedAffinity -5.33234406
REMARK minimizedRMSD -1
REMARK  0 active torsions:
REMARK  status: ('A' for Active; 'I' for Inactive)
ROOT
ATOM      1  C   UNL d   1       0.047   1.503   0.159  0.00  0.00     0.078 C 
ATOM      2  C1  UNL d   1      -0.215   0.039   0.347  0.00  0.00    -0.077 A 
ATOM      3  C2  UNL d   1      -1.407  -0.411   0.929  0.00  0.00    -0.001 A 
ATOM      4  C3  UNL d   1      -1.634  -1.777   1.108  0.00  0.00     0.003 A 
ATOM      5  C4  UNL d   1      -0.673  -2.703   0.707  0.00  0.00    -0.005 A 
ATOM      6  C5  UNL d   1       0.516  -2.265   0.129  0.00  0.00     0.003 A 
ATOM      7  C6  UNL d   1       0.745  -0.900  -0.050  0.00  0.00    -0.001 A 
ENDROOT
TORSDOF 0
ENDMDL
