MODEL 1
REMARK minimizedAffinity -5.66063929
REMARK minimizedRMSD -1
REMARK  0 active torsions:
REMARK  status: ('A' for Active; 'I' for Inactive)
ROOT
ATOM      1  C   UNL d   1      -0.201   1.000  -0.601  0.00  0.00     0.078 C 
ATOM      2  C1  UNL d   1      -0.284  -0.495  -0.514  0.00  0.00    -0.077 A 
ATOM      3  C2  UNL d   1       0.162  -1.304  -1.565  0.00  0.00    -0.001 A 
ATOM      4  C3  UNL d   1       0.069  -2.694  -1.475  0.00  0.00     0.003 A 
ATOM      5  C4  UNL d   1      -0.470  -3.286  -0.335  0.00  0.00    -0.005 A 
ATOM      6  C5  UNL d   1      -0.919  -2.489   0.716  0.00  0.00     0.003 A 
ATOM      7  C6  UNL d   1      -0.827  -1.099   0.627  0.00  0.00    -0.001 A 
ENDROOT
TORSDOF 0
ENDMDL
