MODEL 1
REMARK minimizedAffinity -4.72679758
REMARK minimizedRMSD -1
REMARK  0 active torsions:
REMARK  status: ('A' for Active; 'I' for Inactive)
ROOT
ATOM      1  C   UNL d   1      -0.321  -0.295   0.021  0.00  0.00     0.078 C 
ATOM      2  C1  UNL d   1       0.356   1.024   0.247  0.00  0.00    -0.077 A 
ATOM      3  C2  UNL d   1       1.731   1.094   0.503  0.00  0.00    -0.001 A 
ATOM      4  C3  UNL d   1       2.346   2.328   0.721  0.00  0.00     0.003 A 
ATOM      5  C4  UNL d   1       1.593   3.501   0.687  0.00  0.00    -0.005 A 
ATOM      6  C5  UNL d   1       0.224   3.440   0.435  0.00  0.00     0.003 A 
ATOM      7  C6  UNL d   1      -0.392   2.207   0.217  0.00  0.00    -0.001 A 
ENDROOT
TORSDOF 0
ENDMDL
