MODEL 1
REMARK minimizedAffinity -5.41335821
REMARK minimizedRMSD -1
REMARK  0 active torsions:
REMARK  status: ('A' for Active; 'I' for Inactive)
ROOT
ATOM      1  C   UNL d   1       0.012   0.962  -1.014  0.00  0.00     0.078 C 
ATOM      2  C1  UNL d   1       0.061  -0.411  -0.413  0.00  0.00    -0.077 A 
ATOM      3  C2  UNL d   1       1.029  -1.340  -0.813  0.00  0.00    -0.001 A 
ATOM      4  C3  UNL d   1       1.056  -2.618  -0.252  0.00  0.00     0.003 A 
ATOM      5  C4  UNL d   1       0.117  -2.978   0.712  0.00  0.00    -0.005 A 
ATOM      6  C5  UNL d   1      -0.852  -2.061   1.116  0.00  0.00     0.003 A 
ATOM      7  C6  UNL d   1      -0.880  -0.783   0.556  0.00  0.00    -0.001 A 
ENDROOT
TORSDOF 0
ENDMDL
