MODEL 1
REMARK minimizedAffinity -3.80698395
REMARK minimizedRMSD -1
REMARK  0 active torsions:
REMARK  status: ('A' for Active; 'I' for Inactive)
ROOT
ATOM      1  C   UNL d   1      -0.358  -0.637   0.411  0.00  0.00     0.078 C 
ATOM      2  C1  UNL d   1       0.133   0.756   0.155  0.00  0.00    -0.077 A 
ATOM      3  C2  UNL d   1       0.887   1.443   1.114  0.00  0.00    -0.001 A 
ATOM      4  C3  UNL d   1       1.330   2.743   0.866  0.00  0.00     0.003 A 
ATOM      5  C4  UNL d   1       1.023   3.368  -0.341  0.00  0.00    -0.005 A 
ATOM      6  C5  UNL d   1       0.272   2.694  -1.301  0.00  0.00     0.003 A 
ATOM      7  C6  UNL d   1      -0.172   1.393  -1.055  0.00  0.00    -0.001 A 
ENDROOT
TORSDOF 0
ENDMDL
