MODEL 1
REMARK minimizedAffinity -5.47157288
REMARK minimizedRMSD -1
REMARK  0 active torsions:
REMARK  status: ('A' for Active; 'I' for Inactive)
ROOT
ATOM      1  C   UNL d   1       0.118   1.234   0.281  0.00  0.00     0.078 C 
ATOM      2  C1  UNL d   1       0.034  -0.263   0.259  0.00  0.00    -0.077 A 
ATOM      3  C2  UNL d   1       0.713  -1.009  -0.712  0.00  0.00    -0.001 A 
ATOM      4  C3  UNL d   1       0.617  -2.402  -0.726  0.00  0.00     0.003 A 
ATOM      5  C4  UNL d   1      -0.157  -3.060   0.228  0.00  0.00    -0.005 A 
ATOM      6  C5  UNL d   1      -0.838  -2.325   1.196  0.00  0.00     0.003 A 
ATOM      7  C6  UNL d   1      -0.743  -0.933   1.212  0.00  0.00    -0.001 A 
ENDROOT
TORSDOF 0
ENDMDL
