MODEL 1
REMARK minimizedAffinity -4.59215593
REMARK minimizedRMSD -1
REMARK  0 active torsions:
REMARK  status: ('A' for Active; 'I' for Inactive)
ROOT
ATOM      1  C   UNL d   1       0.424  -3.667   0.544  0.00  0.00     0.078 C 
ATOM      2  C1  UNL d   1       0.047  -2.215   0.567  0.00  0.00    -0.077 A 
ATOM      3  C2  UNL d   1       0.771  -1.270  -0.170  0.00  0.00    -0.001 A 
ATOM      4  C3  UNL d   1       0.414   0.079  -0.131  0.00  0.00     0.003 A 
ATOM      5  C4  UNL d   1      -0.666   0.495   0.644  0.00  0.00    -0.005 A 
ATOM      6  C5  UNL d   1      -1.391  -0.438   1.382  0.00  0.00     0.003 A 
ATOM      7  C6  UNL d   1      -1.036  -1.787   1.345  0.00  0.00    -0.001 A 
ENDROOT
TORSDOF 0
ENDMDL
