MODEL 1
REMARK minimizedAffinity -6.1657424
REMARK minimizedRMSD -1
REMARK  0 active torsions:
REMARK  status: ('A' for Active; 'I' for Inactive)
ROOT
ATOM      1  C   UNL d   1       0.346  -1.832  -2.988  0.00  0.00     0.078 C 
ATOM      2  C1  UNL d   1       0.014  -2.003  -1.536  0.00  0.00    -0.077 A 
ATOM      3  C2  UNL d   1      -0.069  -0.898  -0.680  0.00  0.00    -0.001 A 
ATOM      4  C3  UNL d   1      -0.370  -1.073   0.671  0.00  0.00     0.003 A 
ATOM      5  C4  UNL d   1      -0.590  -2.352   1.179  0.00  0.00    -0.005 A 
ATOM      6  C5  UNL d   1      -0.508  -3.458   0.336  0.00  0.00     0.003 A 
ATOM      7  C6  UNL d   1      -0.207  -3.285  -1.016  0.00  0.00    -0.001 A 
ENDROOT
TORSDOF 0
ENDMDL
