MODEL 1
REMARK minimizedAffinity -5.10429621
REMARK minimizedRMSD -1
REMARK  0 active torsions:
REMARK  status: ('A' for Active; 'I' for Inactive)
ROOT
ATOM      1  C   UNL d   1      -0.573   4.520   2.985  0.00  0.00     0.078 C 
ATOM      2  C1  UNL d   1       0.114   3.793   1.868  0.00  0.00    -0.077 A 
ATOM      3  C2  UNL d   1       1.279   4.305   1.284  0.00  0.00    -0.001 A 
ATOM      4  C3  UNL d   1       1.903   3.623   0.238  0.00  0.00     0.003 A 
ATOM      5  C4  UNL d   1       1.369   2.426  -0.234  0.00  0.00    -0.005 A 
ATOM      6  C5  UNL d   1       0.208   1.910   0.339  0.00  0.00     0.003 A 
ATOM      7  C6  UNL d   1      -0.417   2.590   1.385  0.00  0.00    -0.001 A 
ENDROOT
TORSDOF 0
ENDMDL
