MODEL 1
REMARK minimizedAffinity -2.17782569
REMARK minimizedRMSD -1
REMARK  0 active torsions:
REMARK  status: ('A' for Active; 'I' for Inactive)
ROOT
ATOM      1  C   UNL d   1      -0.058   3.787   3.156  0.00  0.00     0.078 C 
ATOM      2  C1  UNL d   1       0.784   3.442   1.963  0.00  0.00    -0.077 A 
ATOM      3  C2  UNL d   1       2.181   3.505   2.024  0.00  0.00    -0.001 A 
ATOM      4  C3  UNL d   1       2.951   3.191   0.903  0.00  0.00     0.003 A 
ATOM      5  C4  UNL d   1       2.333   2.812  -0.287  0.00  0.00    -0.005 A 
ATOM      6  C5  UNL d   1       0.943   2.749  -0.358  0.00  0.00     0.003 A 
ATOM      7  C6  UNL d   1       0.171   3.063   0.762  0.00  0.00    -0.001 A 
ENDROOT
TORSDOF 0
ENDMDL
