MODEL 1
REMARK minimizedAffinity -4.76170301
REMARK minimizedRMSD -1
REMARK  0 active torsions:
REMARK  status: ('A' for Active; 'I' for Inactive)
ROOT
ATOM      1  C   UNL d   1      -0.275   0.842  -0.501  0.00  0.00     0.078 C 
ATOM      2  C1  UNL d   1      -0.268  -0.639  -0.733  0.00  0.00    -0.077 A 
ATOM      3  C2  UNL d   1       0.133  -1.175  -1.963  0.00  0.00    -0.001 A 
ATOM      4  C3  UNL d   1       0.125  -2.555  -2.169  0.00  0.00     0.003 A 
ATOM      5  C4  UNL d   1      -0.285  -3.412  -1.149  0.00  0.00    -0.005 A 
ATOM      6  C5  UNL d   1      -0.688  -2.889   0.078  0.00  0.00     0.003 A 
ATOM      7  C6  UNL d   1      -0.680  -1.508   0.285  0.00  0.00    -0.001 A 
ENDROOT
TORSDOF 0
ENDMDL
