MODEL 1
REMARK minimizedAffinity -5.97939157
REMARK minimizedRMSD -1
REMARK  0 active torsions:
REMARK  status: ('A' for Active; 'I' for Inactive)
ROOT
ATOM      1  C   UNL d   1      -0.019   0.515  -0.065  0.00  0.00     0.078 C 
ATOM      2  C1  UNL d   1       0.075  -0.905  -0.538  0.00  0.00    -0.077 A 
ATOM      3  C2  UNL d   1       0.416  -1.203  -1.863  0.00  0.00    -0.001 A 
ATOM      4  C3  UNL d   1       0.490  -2.529  -2.292  0.00  0.00     0.003 A 
ATOM      5  C4  UNL d   1       0.224  -3.568  -1.403  0.00  0.00    -0.005 A 
ATOM      6  C5  UNL d   1      -0.119  -3.282  -0.083  0.00  0.00     0.003 A 
ATOM      7  C6  UNL d   1      -0.193  -1.956   0.348  0.00  0.00    -0.001 A 
ENDROOT
TORSDOF 0
ENDMDL
