MODEL 1
REMARK minimizedAffinity -4.80291748
REMARK minimizedRMSD -1
REMARK  1 active torsions:
REMARK  status: ('A' for Active; 'I' for Inactive)
REMARK    1  A    between atoms: C3_4  and  O_7 
ROOT
ATOM      1  C   UNL d   1      -0.764   1.188   2.589  0.00  0.00    -0.033 A 
ATOM      2  C1  UNL d   1       0.584   1.153   2.224  0.00  0.00     0.039 A 
ATOM      3  C2  UNL d   1       0.955   0.688   0.961  0.00  0.00    -0.080 A 
ATOM      4  C3  UNL d   1      -0.030   0.262   0.073  0.00  0.00     0.150 A 
ATOM      5  C4  UNL d   1      -1.374   0.298   0.429  0.00  0.00    -0.007 A 
ATOM      6  C5  UNL d   1      -1.743   0.761   1.691  0.00  0.00     0.039 A 
ENDROOT
BRANCH   4   7
ATOM      7  O   UNL d   1       0.284  -0.204  -1.169  0.00  0.00    -0.526 OA
ATOM      8  H5  UNL d   1       1.251  -0.198  -1.264  0.00  0.00     0.418 HD
ENDBRANCH   4   7
TORSDOF 1
ENDMDL
