MODEL 1
REMARK minimizedAffinity 3.51335287
REMARK minimizedRMSD -1
REMARK  1 active torsions:
REMARK  status: ('A' for Active; 'I' for Inactive)
REMARK    1  A    between atoms: C3_4  and  O_7 
ROOT
ATOM      1  C   UNL d   1      -2.286  -0.146   1.000  0.00  0.00    -0.033 A 
ATOM      2  C1  UNL d   1      -1.475  -0.359  -0.116  0.00  0.00     0.039 A 
ATOM      3  C2  UNL d   1      -0.099  -0.536   0.042  0.00  0.00    -0.080 A 
ATOM      4  C3  UNL d   1       0.452  -0.500   1.320  0.00  0.00     0.150 A 
ATOM      5  C4  UNL d   1      -0.351  -0.293   2.437  0.00  0.00    -0.007 A 
ATOM      6  C5  UNL d   1      -1.724  -0.114   2.277  0.00  0.00     0.039 A 
ENDROOT
BRANCH   4   7
ATOM      7  O   UNL d   1       1.790  -0.664   1.524  0.00  0.00    -0.526 OA
ATOM      8  H5  UNL d   1       2.222  -0.769   0.661  0.00  0.00     0.418 HD
ENDBRANCH   4   7
TORSDOF 1
ENDMDL
