MODEL 1
REMARK minimizedAffinity -3.53757715
REMARK minimizedRMSD -1
REMARK  1 active torsions:
REMARK  status: ('A' for Active; 'I' for Inactive)
REMARK    1  A    between atoms: C3_4  and  O_7 
ROOT
ATOM      1  C   UNL d   1       1.105  -0.847  -0.939  0.00  0.00    -0.033 A 
ATOM      2  C1  UNL d   1      -0.223  -0.426  -1.034  0.00  0.00     0.039 A 
ATOM      3  C2  UNL d   1      -0.815   0.266   0.025  0.00  0.00    -0.080 A 
ATOM      4  C3  UNL d   1      -0.069   0.531   1.170  0.00  0.00     0.150 A 
ATOM      5  C4  UNL d   1       1.256   0.118   1.269  0.00  0.00    -0.007 A 
ATOM      6  C5  UNL d   1       1.845  -0.574   0.212  0.00  0.00     0.039 A 
ENDROOT
BRANCH   4   7
ATOM      7  O   UNL d   1      -0.605   1.199   2.230  0.00  0.00    -0.526 OA
ATOM      8  H5  UNL d   1      -1.535   1.397   2.031  0.00  0.00     0.418 HD
ENDBRANCH   4   7
TORSDOF 1
ENDMDL
