MODEL 1
REMARK minimizedAffinity -2.9610877
REMARK minimizedRMSD -1
REMARK  1 active torsions:
REMARK  status: ('A' for Active; 'I' for Inactive)
REMARK    1  A    between atoms: C3_4  and  O_7 
ROOT
ATOM      1  C   UNL d   1       1.579  -0.082  -3.315  0.00  0.00    -0.033 A 
ATOM      2  C1  UNL d   1       1.645  -1.106  -2.368  0.00  0.00     0.039 A 
ATOM      3  C2  UNL d   1       0.892  -1.024  -1.195  0.00  0.00    -0.080 A 
ATOM      4  C3  UNL d   1       0.078   0.085  -0.981  0.00  0.00     0.150 A 
ATOM      5  C4  UNL d   1       0.006   1.107  -1.922  0.00  0.00    -0.007 A 
ATOM      6  C5  UNL d   1       0.759   1.024  -3.092  0.00  0.00     0.039 A 
ENDROOT
BRANCH   4   7
ATOM      7  O   UNL d   1      -0.671   0.212   0.151  0.00  0.00    -0.526 OA
ATOM      8  H5  UNL d   1      -0.498  -0.555   0.722  0.00  0.00     0.418 HD
ENDBRANCH   4   7
TORSDOF 1
ENDMDL
