MODEL 1
REMARK minimizedAffinity -4.66815042
REMARK minimizedRMSD -1
REMARK  1 active torsions:
REMARK  status: ('A' for Active; 'I' for Inactive)
REMARK    1  A    between atoms: C3_4  and  O_7 
ROOT
ATOM      1  C   UNL d   1      -0.359  -1.005  -0.246  0.00  0.00    -0.033 A 
ATOM      2  C1  UNL d   1       0.704  -0.283   0.300  0.00  0.00     0.039 A 
ATOM      3  C2  UNL d   1       0.456   0.747   1.209  0.00  0.00    -0.080 A 
ATOM      4  C3  UNL d   1      -0.857   1.044   1.564  0.00  0.00     0.150 A 
ATOM      5  C4  UNL d   1      -1.920   0.326   1.026  0.00  0.00    -0.007 A 
ATOM      6  C5  UNL d   1      -1.671  -0.702   0.117  0.00  0.00     0.039 A 
ENDROOT
BRANCH   4   7
ATOM      7  O   UNL d   1      -1.149   2.044   2.443  0.00  0.00    -0.526 OA
ATOM      8  H5  UNL d   1      -0.318   2.471   2.710  0.00  0.00     0.418 HD
ENDBRANCH   4   7
TORSDOF 1
ENDMDL
