MODEL 1
REMARK minimizedAffinity -4.18057442
REMARK minimizedRMSD -1
REMARK  1 active torsions:
REMARK  status: ('A' for Active; 'I' for Inactive)
REMARK    1  A    between atoms: C3_4  and  O_7 
ROOT
ATOM      1  C   UNL d   1      -1.791   0.510   1.979  0.00  0.00    -0.033 A 
ATOM      2  C1  UNL d   1      -1.363  -0.237   0.880  0.00  0.00     0.039 A 
ATOM      3  C2  UNL d   1       0.001  -0.427   0.652  0.00  0.00    -0.080 A 
ATOM      4  C3  UNL d   1       0.925   0.133   1.530  0.00  0.00     0.150 A 
ATOM      5  C4  UNL d   1       0.505   0.875   2.629  0.00  0.00    -0.007 A 
ATOM      6  C5  UNL d   1      -0.857   1.065   2.854  0.00  0.00     0.039 A 
ENDROOT
BRANCH   4   7
ATOM      7  O   UNL d   1       2.267  -0.022   1.346  0.00  0.00    -0.526 OA
ATOM      8  H5  UNL d   1       2.409  -0.533   0.531  0.00  0.00     0.418 HD
ENDBRANCH   4   7
TORSDOF 1
ENDMDL
