MODEL 1
REMARK minimizedAffinity -0.190207392
REMARK minimizedRMSD -1
REMARK  1 active torsions:
REMARK  status: ('A' for Active; 'I' for Inactive)
REMARK    1  A    between atoms: C3_4  and  O_7 
ROOT
ATOM      1  C   UNL d   1       0.585   0.111   3.871  0.00  0.00    -0.033 A 
ATOM      2  C1  UNL d   1       0.411  -1.185   4.358  0.00  0.00     0.039 A 
ATOM      3  C2  UNL d   1      -0.865  -1.750   4.407  0.00  0.00    -0.080 A 
ATOM      4  C3  UNL d   1      -1.957  -1.008   3.965  0.00  0.00     0.150 A 
ATOM      5  C4  UNL d   1      -1.791   0.283   3.475  0.00  0.00    -0.007 A 
ATOM      6  C5  UNL d   1      -0.516   0.845   3.428  0.00  0.00     0.039 A 
ENDROOT
BRANCH   4   7
ATOM      7  O   UNL d   1      -3.222  -1.515   3.997  0.00  0.00    -0.526 OA
ATOM      8  H5  UNL d   1      -3.188  -2.404   4.387  0.00  0.00     0.418 HD
ENDBRANCH   4   7
TORSDOF 1
ENDMDL
