MODEL 1
REMARK minimizedAffinity -4.82649899
REMARK minimizedRMSD -1
REMARK  1 active torsions:
REMARK  status: ('A' for Active; 'I' for Inactive)
REMARK    1  A    between atoms: C3_4  and  O_7 
ROOT
ATOM      1  C   UNL d   1      -0.010  -0.005   0.124  0.00  0.00    -0.033 A 
ATOM      2  C1  UNL d   1       0.966   0.721   0.810  0.00  0.00     0.039 A 
ATOM      3  C2  UNL d   1       0.652   1.353   2.014  0.00  0.00    -0.080 A 
ATOM      4  C3  UNL d   1      -0.641   1.253   2.521  0.00  0.00     0.150 A 
ATOM      5  C4  UNL d   1      -1.618   0.529   1.845  0.00  0.00    -0.007 A 
ATOM      6  C5  UNL d   1      -1.302  -0.102   0.643  0.00  0.00     0.039 A 
ENDROOT
BRANCH   4   7
ATOM      7  O   UNL d   1      -0.997   1.857   3.690  0.00  0.00    -0.526 OA
ATOM      8  H5  UNL d   1      -0.228   2.345   4.031  0.00  0.00     0.418 HD
ENDBRANCH   4   7
TORSDOF 1
ENDMDL
