MODEL 1
REMARK minimizedAffinity -5.20977688
REMARK minimizedRMSD -1
REMARK  1 active torsions:
REMARK  status: ('A' for Active; 'I' for Inactive)
REMARK    1  A    between atoms: C3_4  and  O_7 
ROOT
ATOM      1  C   UNL d   1      -0.306  -0.389  -0.145  0.00  0.00    -0.033 A 
ATOM      2  C1  UNL d   1       0.795   0.135   0.534  0.00  0.00     0.039 A 
ATOM      3  C2  UNL d   1       0.608   0.909   1.681  0.00  0.00    -0.080 A 
ATOM      4  C3  UNL d   1      -0.685   1.151   2.138  0.00  0.00     0.150 A 
ATOM      5  C4  UNL d   1      -1.787   0.629   1.468  0.00  0.00    -0.007 A 
ATOM      6  C5  UNL d   1      -1.598  -0.143   0.323  0.00  0.00     0.039 A 
ENDROOT
BRANCH   4   7
ATOM      7  O   UNL d   1      -0.918   1.905   3.249  0.00  0.00    -0.526 OA
ATOM      8  H5  UNL d   1      -0.066   2.223   3.590  0.00  0.00     0.418 HD
ENDBRANCH   4   7
TORSDOF 1
ENDMDL
