MODEL 1
REMARK minimizedAffinity -0.77585572
REMARK minimizedRMSD -1
REMARK  1 active torsions:
REMARK  status: ('A' for Active; 'I' for Inactive)
REMARK    1  A    between atoms: C3_4  and  O_7 
ROOT
ATOM      1  C   UNL d   1      -0.762  -1.311   3.871  0.00  0.00    -0.033 A 
ATOM      2  C1  UNL d   1      -1.149  -0.533   2.778  0.00  0.00     0.039 A 
ATOM      3  C2  UNL d   1      -0.726   0.794   2.678  0.00  0.00    -0.080 A 
ATOM      4  C3  UNL d   1       0.083   1.330   3.676  0.00  0.00     0.150 A 
ATOM      5  C4  UNL d   1       0.475   0.560   4.766  0.00  0.00    -0.007 A 
ATOM      6  C5  UNL d   1       0.051  -0.764   4.864  0.00  0.00     0.039 A 
ENDROOT
BRANCH   4   7
ATOM      7  O   UNL d   1       0.517   2.621   3.624  0.00  0.00    -0.526 OA
ATOM      8  H5  UNL d   1       0.144   3.040   2.830  0.00  0.00     0.418 HD
ENDBRANCH   4   7
TORSDOF 1
ENDMDL
