MODEL 1
REMARK minimizedAffinity -6.15176296
REMARK minimizedRMSD -1
REMARK  1 active torsions:
REMARK  status: ('A' for Active; 'I' for Inactive)
REMARK    1  A    between atoms: C1_2  and  C2_3 
ROOT
ATOM      1  C2  UNL d   1      -2.687   0.935  -3.000  0.00  0.00    -0.081 A 
ATOM      2  C3  UNL d   1      -3.706   1.280  -3.897  0.00  0.00     0.006 A 
ATOM      3  C4  UNL d   1      -4.123   0.376  -4.877  0.00  0.00     0.002 A 
ATOM      4  C5  UNL d   1      -3.535  -0.889  -4.972  0.00  0.00    -0.080 A 
ATOM      5  C6  UNL d   1      -3.995  -1.880  -6.000  0.00  0.00     0.076 C 
ATOM      6  C7  UNL d   1      -2.506  -1.228  -4.087  0.00  0.00     0.002 A 
ATOM      7  C8  UNL d   1      -2.087  -0.325  -3.108  0.00  0.00     0.006 A 
ENDROOT
BRANCH   1   8
ATOM      8  C1  UNL d   1      -2.280   1.882  -1.901  0.00  0.00     0.054 C 
ATOM      9  C   UNL d   1      -2.636   3.320  -2.250  0.00  0.00     0.018 C 
ENDBRANCH   1   8
TORSDOF 1
ENDMDL
