MODEL 1
REMARK minimizedAffinity -1.31343913
REMARK minimizedRMSD -1
REMARK  1 active torsions:
REMARK  status: ('A' for Active; 'I' for Inactive)
REMARK    1  A    between atoms: C1_2  and  C2_3 
ROOT
ATOM      1  C2  UNL d   1       3.686  -3.494   3.310  0.00  0.00    -0.081 A 
ATOM      2  C3  UNL d   1       4.417  -2.924   4.359  0.00  0.00     0.006 A 
ATOM      3  C4  UNL d   1       5.150  -3.731   5.232  0.00  0.00     0.002 A 
ATOM      4  C5  UNL d   1       5.172  -5.120   5.066  0.00  0.00    -0.080 A 
ATOM      5  C6  UNL d   1       5.979  -5.995   5.978  0.00  0.00     0.076 C 
ATOM      6  C7  UNL d   1       4.427  -5.691   4.028  0.00  0.00     0.002 A 
ATOM      7  C8  UNL d   1       3.693  -4.885   3.156  0.00  0.00     0.006 A 
ENDROOT
BRANCH   1   8
ATOM      8  C1  UNL d   1       2.947  -2.622   2.328  0.00  0.00     0.054 C 
ATOM      9  C   UNL d   1       2.672  -3.363   1.027  0.00  0.00     0.018 C 
ENDBRANCH   1   8
TORSDOF 1
ENDMDL
