MODEL 1
REMARK minimizedAffinity 6.66472054
REMARK minimizedRMSD -1
REMARK  1 active torsions:
REMARK  status: ('A' for Active; 'I' for Inactive)
REMARK    1  A    between atoms: C1_2  and  C2_3 
ROOT
ATOM      1  C2  UNL d   1      -4.879   0.662  -4.855  0.00  0.00    -0.081 A 
ATOM      2  C3  UNL d   1      -4.715  -0.326  -3.876  0.00  0.00     0.006 A 
ATOM      3  C4  UNL d   1      -3.640  -1.216  -3.941  0.00  0.00     0.002 A 
ATOM      4  C5  UNL d   1      -2.709  -1.129  -4.981  0.00  0.00    -0.080 A 
ATOM      5  C6  UNL d   1      -1.534  -2.060  -5.047  0.00  0.00     0.076 C 
ATOM      6  C7  UNL d   1      -2.883  -0.154  -5.969  0.00  0.00     0.002 A 
ATOM      7  C8  UNL d   1      -3.957   0.736  -5.905  0.00  0.00     0.006 A 
ENDROOT
BRANCH   1   8
ATOM      8  C1  UNL d   1      -6.000   1.664  -4.752  0.00  0.00     0.054 C 
ATOM      9  C   UNL d   1      -5.537   3.055  -5.161  0.00  0.00     0.018 C 
ENDBRANCH   1   8
TORSDOF 1
ENDMDL
