MODEL 1
REMARK minimizedAffinity -0.0642513707
REMARK minimizedRMSD -1
REMARK  1 active torsions:
REMARK  status: ('A' for Active; 'I' for Inactive)
REMARK    1  A    between atoms: C1_2  and  C2_3 
ROOT
ATOM      1  C2  UNL d   1       1.727   5.874   5.236  0.00  0.00    -0.081 A 
ATOM      2  C3  UNL d   1       2.930   5.937   5.950  0.00  0.00     0.006 A 
ATOM      3  C4  UNL d   1       4.153   5.964   5.276  0.00  0.00     0.002 A 
ATOM      4  C5  UNL d   1       4.194   5.937   3.877  0.00  0.00    -0.080 A 
ATOM      5  C6  UNL d   1       5.499   5.997   3.141  0.00  0.00     0.076 C 
ATOM      6  C7  UNL d   1       2.993   5.857   3.164  0.00  0.00     0.002 A 
ATOM      7  C8  UNL d   1       1.770   5.829   3.838  0.00  0.00     0.006 A 
ENDROOT
BRANCH   1   8
ATOM      8  C1  UNL d   1       0.404   5.910   5.958  0.00  0.00     0.054 C 
ATOM      9  C   UNL d   1      -0.241   4.532   5.999  0.00  0.00     0.018 C 
ENDBRANCH   1   8
TORSDOF 1
ENDMDL
