MODEL 1
REMARK minimizedAffinity -1.40105832
REMARK minimizedRMSD -1
REMARK  1 active torsions:
REMARK  status: ('A' for Active; 'I' for Inactive)
REMARK    1  A    between atoms: C1_2  and  C2_3 
ROOT
ATOM      1  C2  UNL d   1      -1.371  -0.719  -1.293  0.00  0.00    -0.081 A 
ATOM      2  C3  UNL d   1      -0.112  -1.047  -0.776  0.00  0.00     0.006 A 
ATOM      3  C4  UNL d   1       0.113  -1.035   0.603  0.00  0.00     0.002 A 
ATOM      4  C5  UNL d   1      -0.919  -0.703   1.488  0.00  0.00    -0.080 A 
ATOM      5  C6  UNL d   1      -0.700  -0.716   2.971  0.00  0.00     0.076 C 
ATOM      6  C7  UNL d   1      -2.173  -0.359   0.970  0.00  0.00     0.002 A 
ATOM      7  C8  UNL d   1      -2.398  -0.370  -0.408  0.00  0.00     0.006 A 
ENDROOT
BRANCH   1   8
ATOM      8  C1  UNL d   1      -1.634  -0.794  -2.775  0.00  0.00     0.054 C 
ATOM      9  C   UNL d   1      -2.416   0.418  -3.260  0.00  0.00     0.018 C 
ENDBRANCH   1   8
TORSDOF 1
ENDMDL
