MODEL 1
REMARK minimizedAffinity 0.146165729
REMARK minimizedRMSD -1
REMARK  3 active torsions:
REMARK  status: ('A' for Active; 'I' for Inactive)
REMARK    1  A    between atoms: C3'_2  and  C2'_3 
REMARK    2  A    between atoms: C2'_3  and  C1'_4 
REMARK    3  A    between atoms: C1'_4  and  C1_5 
ROOT
ATOM      1  C1  N4B d   1       5.644  -4.147   3.160  0.00  0.00    -0.075 A 
ATOM      2  C2  N4B d   1       5.373  -3.170   4.143  0.00  0.00     0.002 A 
ATOM      3  C3  N4B d   1       5.425  -1.837   3.818  0.00  0.00     0.002 A 
ATOM      4  C4  N4B d   1       5.764  -1.458   2.527  0.00  0.00    -0.004 A 
ATOM      5  C5  N4B d   1       6.000  -2.409   1.578  0.00  0.00     0.002 A 
ATOM      6  C6  N4B d   1       5.946  -3.752   1.889  0.00  0.00     0.002 A 
ENDROOT
BRANCH   1   7
ATOM      7  C1' N4B d   1       5.683  -5.615   3.489  0.00  0.00     0.057 C 
BRANCH   7   8
ATOM      8  C2' N4B d   1       6.000  -5.787   4.972  0.00  0.00     0.009 C 
BRANCH   8   9
ATOM      9  C3' N4B d   1       4.744  -6.000   5.800  0.00  0.00     0.004 C 
ATOM     10  C4' N4B d   1       3.493  -5.983   4.973  0.00  0.00     0.003 C 
ENDBRANCH   8   9
ENDBRANCH   7   8
ENDBRANCH   1   7
TORSDOF 3
ENDMDL
