MODEL 1
REMARK minimizedAffinity -0.696040571
REMARK minimizedRMSD -1
REMARK  3 active torsions:
REMARK  status: ('A' for Active; 'I' for Inactive)
REMARK    1  A    between atoms: C3'_2  and  C2'_3 
REMARK    2  A    between atoms: C2'_3  and  C1'_4 
REMARK    3  A    between atoms: C1'_4  and  C1_5 
ROOT
ATOM      1  C1  N4B d   1       5.611  -3.487   4.370  0.00  0.00    -0.075 A 
ATOM      2  C2  N4B d   1       4.878  -3.636   5.568  0.00  0.00     0.002 A 
ATOM      3  C3  N4B d   1       4.479  -4.885   5.977  0.00  0.00     0.002 A 
ATOM      4  C4  N4B d   1       4.784  -5.992   5.200  0.00  0.00    -0.004 A 
ATOM      5  C5  N4B d   1       5.515  -5.842   4.058  0.00  0.00     0.002 A 
ATOM      6  C6  N4B d   1       5.926  -4.594   3.636  0.00  0.00     0.002 A 
ENDROOT
BRANCH   1   7
ATOM      7  C1' N4B d   1       5.995  -2.134   3.837  0.00  0.00     0.057 C 
BRANCH   7   8
ATOM      8  C2' N4B d   1       5.118  -1.802   2.634  0.00  0.00     0.009 C 
BRANCH   8   9
ATOM      9  C3' N4B d   1       5.885  -1.901   1.327  0.00  0.00     0.004 C 
ATOM     10  C4' N4B d   1       5.999  -3.310   0.826  0.00  0.00     0.003 C 
ENDBRANCH   8   9
ENDBRANCH   7   8
ENDBRANCH   1   7
TORSDOF 3
ENDMDL
