MODEL 1
REMARK minimizedAffinity 1.80011439
REMARK minimizedRMSD -1
REMARK  3 active torsions:
REMARK  status: ('A' for Active; 'I' for Inactive)
REMARK    1  A    between atoms: C3'_2  and  C2'_3 
REMARK    2  A    between atoms: C2'_3  and  C1'_4 
REMARK    3  A    between atoms: C1'_4  and  C1_5 
ROOT
ATOM      1  C1  N4B d   1       5.992  -3.898   3.227  0.00  0.00    -0.075 A 
ATOM      2  C2  N4B d   1       5.985  -2.723   4.010  0.00  0.00     0.002 A 
ATOM      3  C3  N4B d   1       5.954  -2.811   5.381  0.00  0.00     0.002 A 
ATOM      4  C4  N4B d   1       5.911  -4.058   5.987  0.00  0.00    -0.004 A 
ATOM      5  C5  N4B d   1       5.944  -5.188   5.223  0.00  0.00     0.002 A 
ATOM      6  C6  N4B d   1       5.979  -5.114   3.846  0.00  0.00     0.002 A 
ENDROOT
BRANCH   1   7
ATOM      7  C1' N4B d   1       5.939  -3.851   1.724  0.00  0.00     0.057 C 
BRANCH   7   8
ATOM      8  C2' N4B d   1       5.684  -2.414   1.277  0.00  0.00     0.009 C 
BRANCH   8   9
ATOM      9  C3' N4B d   1       4.233  -2.009   1.466  0.00  0.00     0.004 C 
ATOM     10  C4' N4B d   1       3.467  -1.974   0.178  0.00  0.00     0.003 C 
ENDBRANCH   8   9
ENDBRANCH   7   8
ENDBRANCH   1   7
TORSDOF 3
ENDMDL
