MODEL 1
REMARK minimizedAffinity -2.01069045
REMARK minimizedRMSD -1
REMARK  3 active torsions:
REMARK  status: ('A' for Active; 'I' for Inactive)
REMARK    1  A    between atoms: C3'_2  and  C2'_3 
REMARK    2  A    between atoms: C2'_3  and  C1'_4 
REMARK    3  A    between atoms: C1'_4  and  C1_5 
ROOT
ATOM      1  C1  N4B d   1       3.909  -3.641   2.639  0.00  0.00    -0.075 A 
ATOM      2  C2  N4B d   1       5.052  -3.608   3.468  0.00  0.00     0.002 A 
ATOM      3  C3  N4B d   1       4.910  -3.551   4.832  0.00  0.00     0.002 A 
ATOM      4  C4  N4B d   1       3.640  -3.508   5.388  0.00  0.00    -0.004 A 
ATOM      5  C5  N4B d   1       2.541  -3.566   4.582  0.00  0.00     0.002 A 
ATOM      6  C6  N4B d   1       2.669  -3.627   3.209  0.00  0.00     0.002 A 
ENDROOT
BRANCH   1   7
ATOM      7  C1' N4B d   1       4.015  -3.616   1.139  0.00  0.00     0.057 C 
BRANCH   7   8
ATOM      8  C2' N4B d   1       2.613  -3.545   0.539  0.00  0.00     0.009 C 
BRANCH   8   9
ATOM      9  C3' N4B d   1       2.643  -3.571  -0.979  0.00  0.00     0.004 C 
ATOM     10  C4' N4B d   1       1.530  -4.385  -1.568  0.00  0.00     0.003 C 
ENDBRANCH   8   9
ENDBRANCH   7   8
ENDBRANCH   1   7
TORSDOF 3
ENDMDL
