MODEL 1
REMARK minimizedAffinity -1.85422146
REMARK minimizedRMSD -1
REMARK  3 active torsions:
REMARK  status: ('A' for Active; 'I' for Inactive)
REMARK    1  A    between atoms: C3'_2  and  C2'_3 
REMARK    2  A    between atoms: C2'_3  and  C1'_4 
REMARK    3  A    between atoms: C1'_4  and  C1_5 
ROOT
ATOM      1  C1  N4B d   1       5.941  -4.417   3.594  0.00  0.00    -0.075 A 
ATOM      2  C2  N4B d   1       5.999  -3.006   3.595  0.00  0.00     0.002 A 
ATOM      3  C3  N4B d   1       5.861  -2.314   4.773  0.00  0.00     0.002 A 
ATOM      4  C4  N4B d   1       5.646  -3.007   5.955  0.00  0.00    -0.004 A 
ATOM      5  C5  N4B d   1       5.617  -4.371   5.949  0.00  0.00     0.002 A 
ATOM      6  C6  N4B d   1       5.757  -5.080   4.773  0.00  0.00     0.002 A 
ENDROOT
BRANCH   1   7
ATOM      7  C1' N4B d   1       6.000  -5.214   2.320  0.00  0.00     0.057 C 
BRANCH   7   8
ATOM      8  C2' N4B d   1       5.632  -4.310   1.147  0.00  0.00     0.009 C 
BRANCH   8   9
ATOM      9  C3' N4B d   1       4.188  -3.844   1.219  0.00  0.00     0.004 C 
ATOM     10  C4' N4B d   1       3.929  -2.625   0.386  0.00  0.00     0.003 C 
ENDBRANCH   8   9
ENDBRANCH   7   8
ENDBRANCH   1   7
TORSDOF 3
ENDMDL
