MODEL 1
REMARK minimizedAffinity 2.35539865
REMARK minimizedRMSD -1
REMARK  3 active torsions:
REMARK  status: ('A' for Active; 'I' for Inactive)
REMARK    1  A    between atoms: C3'_2  and  C2'_3 
REMARK    2  A    between atoms: C2'_3  and  C1'_4 
REMARK    3  A    between atoms: C1'_4  and  C1_5 
ROOT
ATOM      1  C1  N4B d   1       5.995  -4.096   3.617  0.00  0.00    -0.075 A 
ATOM      2  C2  N4B d   1       5.916  -2.686   3.615  0.00  0.00     0.002 A 
ATOM      3  C3  N4B d   1       5.834  -2.002   4.803  0.00  0.00     0.002 A 
ATOM      4  C4  N4B d   1       5.811  -2.704   5.999  0.00  0.00    -0.004 A 
ATOM      5  C5  N4B d   1       5.913  -4.064   5.993  0.00  0.00     0.002 A 
ATOM      6  C6  N4B d   1       6.000  -4.765   4.806  0.00  0.00     0.002 A 
ENDROOT
BRANCH   1   7
ATOM      7  C1' N4B d   1       5.999  -4.893   2.341  0.00  0.00     0.057 C 
BRANCH   7   8
ATOM      8  C2' N4B d   1       4.732  -5.740   2.275  0.00  0.00     0.009 C 
BRANCH   8   9
ATOM      9  C3' N4B d   1       3.572  -5.085   3.004  0.00  0.00     0.004 C 
ATOM     10  C4' N4B d   1       3.209  -5.795   4.275  0.00  0.00     0.003 C 
ENDBRANCH   8   9
ENDBRANCH   7   8
ENDBRANCH   1   7
TORSDOF 3
ENDMDL
