MODEL 1
REMARK minimizedAffinity -2.53914118
REMARK minimizedRMSD -1
REMARK  3 active torsions:
REMARK  status: ('A' for Active; 'I' for Inactive)
REMARK    1  A    between atoms: C3'_2  and  C2'_3 
REMARK    2  A    between atoms: C2'_3  and  C1'_4 
REMARK    3  A    between atoms: C1'_4  and  C1_5 
ROOT
ATOM      1  C1  N4B d   1       5.597  -3.072   3.199  0.00  0.00    -0.075 A 
ATOM      2  C2  N4B d   1       5.985  -4.188   3.973  0.00  0.00     0.002 A 
ATOM      3  C3  N4B d   1       5.665  -4.242   5.308  0.00  0.00     0.002 A 
ATOM      4  C4  N4B d   1       4.978  -3.189   5.892  0.00  0.00    -0.004 A 
ATOM      5  C5  N4B d   1       4.585  -2.126   5.132  0.00  0.00     0.002 A 
ATOM      6  C6  N4B d   1       4.896  -2.060   3.789  0.00  0.00     0.002 A 
ENDROOT
BRANCH   1   7
ATOM      7  C1' N4B d   1       5.998  -2.927   1.757  0.00  0.00     0.057 C 
BRANCH   7   8
ATOM      8  C2' N4B d   1       5.999  -4.304   1.097  0.00  0.00     0.009 C 
BRANCH   8   9
ATOM      9  C3' N4B d   1       5.956  -4.208  -0.418  0.00  0.00     0.004 C 
ATOM     10  C4' N4B d   1       5.999  -5.550  -1.086  0.00  0.00     0.003 C 
ENDBRANCH   8   9
ENDBRANCH   7   8
ENDBRANCH   1   7
TORSDOF 3
ENDMDL
