MODEL 1
REMARK minimizedAffinity -1.86732662
REMARK minimizedRMSD -1
REMARK  3 active torsions:
REMARK  status: ('A' for Active; 'I' for Inactive)
REMARK    1  A    between atoms: C3'_2  and  C2'_3 
REMARK    2  A    between atoms: C2'_3  and  C1'_4 
REMARK    3  A    between atoms: C1'_4  and  C1_5 
ROOT
ATOM      1  C1  N4B d   1       6.000  -4.147   3.500  0.00  0.00    -0.075 A 
ATOM      2  C2  N4B d   1       5.995  -2.736   3.552  0.00  0.00     0.002 A 
ATOM      3  C3  N4B d   1       5.959  -2.094   4.765  0.00  0.00     0.002 A 
ATOM      4  C4  N4B d   1       5.907  -2.839   5.934  0.00  0.00    -0.004 A 
ATOM      5  C5  N4B d   1       5.937  -4.201   5.876  0.00  0.00     0.002 A 
ATOM      6  C6  N4B d   1       5.978  -4.860   4.664  0.00  0.00     0.002 A 
ENDROOT
BRANCH   1   7
ATOM      7  C1' N4B d   1       5.953  -4.894   2.195  0.00  0.00     0.057 C 
BRANCH   7   8
ATOM      8  C2' N4B d   1       5.192  -4.060   1.168  0.00  0.00     0.009 C 
BRANCH   8   9
ATOM      9  C3' N4B d   1       5.918  -4.000  -0.165  0.00  0.00     0.004 C 
ATOM     10  C4' N4B d   1       5.997  -5.335  -0.844  0.00  0.00     0.003 C 
ENDBRANCH   8   9
ENDBRANCH   7   8
ENDBRANCH   1   7
TORSDOF 3
ENDMDL
