MODEL 1
REMARK minimizedAffinity 1.6321429
REMARK minimizedRMSD -1
REMARK  3 active torsions:
REMARK  status: ('A' for Active; 'I' for Inactive)
REMARK    1  A    between atoms: C3'_2  and  C2'_3 
REMARK    2  A    between atoms: C2'_3  and  C1'_4 
REMARK    3  A    between atoms: C1'_4  and  C1_5 
ROOT
ATOM      1  C1  N4B d   1       5.966  -3.585   3.492  0.00  0.00    -0.075 A 
ATOM      2  C2  N4B d   1       5.999  -2.181   3.640  0.00  0.00     0.002 A 
ATOM      3  C3  N4B d   1       5.889  -1.619   4.888  0.00  0.00     0.002 A 
ATOM      4  C4  N4B d   1       5.726  -2.436   5.996  0.00  0.00    -0.004 A 
ATOM      5  C5  N4B d   1       5.721  -3.792   5.848  0.00  0.00     0.002 A 
ATOM      6  C6  N4B d   1       5.835  -4.371   4.600  0.00  0.00     0.002 A 
ENDROOT
BRANCH   1   7
ATOM      7  C1' N4B d   1       5.996  -4.243   2.140  0.00  0.00     0.057 C 
BRANCH   7   8
ATOM      8  C2' N4B d   1       5.797  -3.181   1.062  0.00  0.00     0.009 C 
BRANCH   8   9
ATOM      9  C3' N4B d   1       4.359  -2.698   0.999  0.00  0.00     0.004 C 
ATOM     10  C4' N4B d   1       3.503  -3.276   2.087  0.00  0.00     0.003 C 
ENDBRANCH   8   9
ENDBRANCH   7   8
ENDBRANCH   1   7
TORSDOF 3
ENDMDL
