MODEL 1
REMARK minimizedAffinity 4.84259892
REMARK minimizedRMSD -1
REMARK  1 active torsions:
REMARK  status: ('A' for Active; 'I' for Inactive)
REMARK    1  A    between atoms: N_2  and  C1_3 
ROOT
ATOM      1  C1  UNL d   1       3.856   1.775  -0.427  0.00  0.00     0.143 A 
ATOM      2  C2  UNL d   1       4.946   2.370   0.217  0.00  0.00    -0.057 A 
ATOM      3  C3  UNL d   1       6.000   2.936  -0.511  0.00  0.00     0.033 A 
ATOM      4  C4  UNL d   1       5.996   2.889  -1.901  0.00  0.00    -0.042 A 
ATOM      5  C5  UNL d   1       4.936   2.280  -2.562  0.00  0.00     0.033 A 
ATOM      6  C6  UNL d   1       3.883   1.723  -1.830  0.00  0.00    -0.057 A 
ENDROOT
BRANCH   1   7
ATOM      7  N   UNL d   1       2.826   1.109   0.241  0.00  0.00    -0.732 N 
ATOM      8  C   UNL d   1       2.255  -0.104  -0.306  0.00  0.00     0.284 C 
ATOM      9  H3  UNL d   1       2.969   1.083   1.248  0.00  0.00     0.395 HD
ENDBRANCH   1   7
TORSDOF 1
ENDMDL
