MODEL 1
REMARK minimizedAffinity 1.53164232
REMARK minimizedRMSD -1
REMARK  1 active torsions:
REMARK  status: ('A' for Active; 'I' for Inactive)
REMARK    1  A    between atoms: N_2  and  C1_3 
ROOT
ATOM      1  C1  UNL d   1       4.894   2.339  -1.227  0.00  0.00     0.143 A 
ATOM      2  C2  UNL d   1       3.782   1.693  -1.779  0.00  0.00    -0.057 A 
ATOM      3  C3  UNL d   1       2.750   1.205  -0.970  0.00  0.00     0.033 A 
ATOM      4  C4  UNL d   1       2.824   1.328   0.413  0.00  0.00    -0.042 A 
ATOM      5  C5  UNL d   1       3.931   1.945   0.986  0.00  0.00     0.033 A 
ATOM      6  C6  UNL d   1       4.956   2.436   0.172  0.00  0.00    -0.057 A 
ENDROOT
BRANCH   1   7
ATOM      7  N   UNL d   1       5.999   2.759  -1.971  0.00  0.00    -0.732 N 
ATOM      8  C   UNL d   1       5.922   3.940  -2.803  0.00  0.00     0.284 C 
ATOM      9  H3  UNL d   1       6.871   2.670  -1.454  0.00  0.00     0.395 HD
ENDBRANCH   1   7
TORSDOF 1
ENDMDL
