MODEL 1
REMARK minimizedAffinity -2.89620638
REMARK minimizedRMSD -1
REMARK  1 active torsions:
REMARK  status: ('A' for Active; 'I' for Inactive)
REMARK    1  A    between atoms: N_2  and  C1_3 
ROOT
ATOM      1  C1  UNL d   1       3.813   0.028   1.678  0.00  0.00     0.143 A 
ATOM      2  C2  UNL d   1       3.480  -1.199   2.260  0.00  0.00    -0.057 A 
ATOM      3  C3  UNL d   1       4.377  -1.872   3.099  0.00  0.00     0.033 A 
ATOM      4  C4  UNL d   1       5.638  -1.341   3.348  0.00  0.00    -0.042 A 
ATOM      5  C5  UNL d   1       6.000  -0.134   2.760  0.00  0.00     0.033 A 
ATOM      6  C6  UNL d   1       5.098   0.537   1.929  0.00  0.00    -0.057 A 
ENDROOT
BRANCH   1   7
ATOM      7  N   UNL d   1       3.004   0.698   0.757  0.00  0.00    -0.732 N 
ATOM      8  C   UNL d   1       2.442  -0.004  -0.377  0.00  0.00     0.284 C 
ATOM      9  H3  UNL d   1       2.361   1.347   1.205  0.00  0.00     0.395 HD
ENDBRANCH   1   7
TORSDOF 1
ENDMDL
