MODEL 1
REMARK minimizedAffinity 5.98721075
REMARK minimizedRMSD -1
REMARK  1 active torsions:
REMARK  status: ('A' for Active; 'I' for Inactive)
REMARK    1  A    between atoms: N_2  and  C1_3 
ROOT
ATOM      1  C1  UNL d   1       3.575  -0.240   2.577  0.00  0.00     0.143 A 
ATOM      2  C2  UNL d   1       2.851  -1.194   1.853  0.00  0.00    -0.057 A 
ATOM      3  C3  UNL d   1       2.467  -0.962   0.527  0.00  0.00     0.033 A 
ATOM      4  C4  UNL d   1       2.776   0.245  -0.092  0.00  0.00    -0.042 A 
ATOM      5  C5  UNL d   1       3.472   1.218   0.617  0.00  0.00     0.033 A 
ATOM      6  C6  UNL d   1       3.859   0.978   1.938  0.00  0.00    -0.057 A 
ENDROOT
BRANCH   1   7
ATOM      7  N   UNL d   1       3.900  -0.372   3.929  0.00  0.00    -0.732 N 
ATOM      8  C   UNL d   1       5.152  -0.976   4.330  0.00  0.00     0.284 C 
ATOM      9  H3  UNL d   1       3.641   0.448   4.472  0.00  0.00     0.395 HD
ENDBRANCH   1   7
TORSDOF 1
ENDMDL
