MODEL 1
REMARK minimizedAffinity -1.78242087
REMARK minimizedRMSD -1
REMARK  1 active torsions:
REMARK  status: ('A' for Active; 'I' for Inactive)
REMARK    1  A    between atoms: N_2  and  C1_3 
ROOT
ATOM      1  C1  UNL d   1       5.066   2.524  -1.506  0.00  0.00     0.143 A 
ATOM      2  C2  UNL d   1       5.029   2.547  -0.108  0.00  0.00    -0.057 A 
ATOM      3  C3  UNL d   1       4.008   1.905   0.603  0.00  0.00     0.033 A 
ATOM      4  C4  UNL d   1       2.986   1.250  -0.076  0.00  0.00    -0.042 A 
ATOM      5  C5  UNL d   1       2.989   1.234  -1.466  0.00  0.00     0.033 A 
ATOM      6  C6  UNL d   1       4.015   1.872  -2.170  0.00  0.00    -0.057 A 
ENDROOT
BRANCH   1   7
ATOM      7  N   UNL d   1       6.000   3.226  -2.272  0.00  0.00    -0.732 N 
ATOM      8  C   UNL d   1       5.999   4.673  -2.289  0.00  0.00     0.284 C 
ATOM      9  H3  UNL d   1       6.928   2.811  -2.229  0.00  0.00     0.395 HD
ENDBRANCH   1   7
TORSDOF 1
ENDMDL
