MODEL 1
REMARK minimizedAffinity 2.66971421
REMARK minimizedRMSD -1
REMARK  1 active torsions:
REMARK  status: ('A' for Active; 'I' for Inactive)
REMARK    1  A    between atoms: N_2  and  C1_3 
ROOT
ATOM      1  C1  UNL d   1       1.426   2.648   4.173  0.00  0.00     0.143 A 
ATOM      2  C2  UNL d   1       2.646   2.740   3.495  0.00  0.00    -0.057 A 
ATOM      3  C3  UNL d   1       2.716   3.246   2.191  0.00  0.00     0.033 A 
ATOM      4  C4  UNL d   1       1.558   3.643   1.530  0.00  0.00    -0.042 A 
ATOM      5  C5  UNL d   1       0.331   3.536   2.175  0.00  0.00     0.033 A 
ATOM      6  C6  UNL d   1       0.269   3.037   3.480  0.00  0.00    -0.057 A 
ENDROOT
BRANCH   1   7
ATOM      7  N   UNL d   1       1.279   2.063   5.433  0.00  0.00    -0.732 N 
ATOM      8  C   UNL d   1       2.002   0.857   5.774  0.00  0.00     0.284 C 
ATOM      9  H3  UNL d   1       1.244   2.752   6.180  0.00  0.00     0.395 HD
ENDBRANCH   1   7
TORSDOF 1
ENDMDL
