MODEL 1
REMARK minimizedAffinity -3.07537007
REMARK minimizedRMSD -1
REMARK  2 active torsions:
REMARK  status: ('A' for Active; 'I' for Inactive)
REMARK    1  A    between atoms: C2'_3  and  C1'_4 
REMARK    2  A    between atoms: C1'_4  and  C1_5 
ROOT
ATOM      1  C1  I4B d   1       0.484  -0.781  -1.250  0.00  0.00    -0.075 A 
ATOM      2  C2  I4B d   1       1.561  -1.312  -0.586  0.00  0.00     0.003 A 
ATOM      3  C3  I4B d   1       1.700  -1.126   0.811  0.00  0.00     0.002 A 
ATOM      4  C4  I4B d   1       0.771  -0.365   1.491  0.00  0.00    -0.004 A 
ATOM      5  C5  I4B d   1      -0.333   0.153   0.819  0.00  0.00     0.002 A 
ATOM      6  C6  I4B d   1      -0.484  -0.066  -0.558  0.00  0.00     0.003 A 
ENDROOT
BRANCH   1   7
ATOM      7  C1' I4B d   1       0.386  -0.969  -2.731  0.00  0.00     0.060 C 
BRANCH   7   8
ATOM      8  C2' I4B d   1       0.856   0.308  -3.396  0.00  0.00    -0.013 C 
ATOM      9  C4' I4B d   1       2.262   0.167  -3.917  0.00  0.00     0.013 C 
ATOM     10  C3' I4B d   1      -0.101   0.634  -4.503  0.00  0.00     0.013 C 
ENDBRANCH   7   8
ENDBRANCH   1   7
TORSDOF 2
ENDMDL
