MODEL 1
REMARK minimizedAffinity -1.50165462
REMARK minimizedRMSD -1
REMARK  2 active torsions:
REMARK  status: ('A' for Active; 'I' for Inactive)
REMARK    1  A    between atoms: C2'_3  and  C1'_4 
REMARK    2  A    between atoms: C1'_4  and  C1_5 
ROOT
ATOM      1  C1  I4B d   1       0.039  -0.757  -0.541  0.00  0.00    -0.075 A 
ATOM      2  C2  I4B d   1       0.655  -0.306   0.599  0.00  0.00     0.003 A 
ATOM      3  C3  I4B d   1      -0.103   0.315   1.621  0.00  0.00     0.002 A 
ATOM      4  C4  I4B d   1      -1.457   0.508   1.441  0.00  0.00    -0.004 A 
ATOM      5  C5  I4B d   1      -2.084   0.030   0.295  0.00  0.00     0.002 A 
ATOM      6  C6  I4B d   1      -1.334  -0.618  -0.698  0.00  0.00     0.003 A 
ENDROOT
BRANCH   1   7
ATOM      7  C1' I4B d   1       0.874  -1.378  -1.615  0.00  0.00     0.060 C 
BRANCH   7   8
ATOM      8  C2' I4B d   1       1.010  -0.374  -2.741  0.00  0.00    -0.013 C 
ATOM      9  C4' I4B d   1       2.443   0.054  -2.921  0.00  0.00     0.013 C 
ATOM     10  C3' I4B d   1       0.472  -1.004  -3.991  0.00  0.00     0.013 C 
ENDBRANCH   7   8
ENDBRANCH   1   7
TORSDOF 2
ENDMDL
