MODEL 1
REMARK minimizedAffinity -3.99988222
REMARK minimizedRMSD -1
REMARK  2 active torsions:
REMARK  status: ('A' for Active; 'I' for Inactive)
REMARK    1  A    between atoms: C2'_3  and  C1'_4 
REMARK    2  A    between atoms: C1'_4  and  C1_5 
ROOT
ATOM      1  C1  I4B d   1      -0.013  -0.191  -0.467  0.00  0.00    -0.075 A 
ATOM      2  C2  I4B d   1       0.326  -0.133   0.862  0.00  0.00     0.003 A 
ATOM      3  C3  I4B d   1      -0.636   0.250   1.827  0.00  0.00     0.002 A 
ATOM      4  C4  I4B d   1      -1.902   0.615   1.417  0.00  0.00    -0.004 A 
ATOM      5  C5  I4B d   1      -2.251   0.534   0.072  0.00  0.00     0.002 A 
ATOM      6  C6  I4B d   1      -1.305   0.117  -0.875  0.00  0.00     0.003 A 
ENDROOT
BRANCH   1   7
ATOM      7  C1' I4B d   1       1.037  -0.568  -1.463  0.00  0.00     0.060 C 
BRANCH   7   8
ATOM      8  C2' I4B d   1       0.763   0.197  -2.742  0.00  0.00    -0.013 C 
ATOM      9  C4' I4B d   1       1.952   1.029  -3.144  0.00  0.00     0.013 C 
ATOM     10  C3' I4B d   1       0.411  -0.796  -3.809  0.00  0.00     0.013 C 
ENDBRANCH   7   8
ENDBRANCH   1   7
TORSDOF 2
ENDMDL
