MODEL 1
REMARK minimizedAffinity -1.52482283
REMARK minimizedRMSD -1
REMARK  2 active torsions:
REMARK  status: ('A' for Active; 'I' for Inactive)
REMARK    1  A    between atoms: C2'_3  and  C1'_4 
REMARK    2  A    between atoms: C1'_4  and  C1_5 
ROOT
ATOM      1  C1  I4B d   1      -0.153  -0.352  -1.366  0.00  0.00    -0.075 A 
ATOM      2  C2  I4B d   1       0.760  -0.838  -0.463  0.00  0.00     0.003 A 
ATOM      3  C3  I4B d   1       0.535  -0.690   0.927  0.00  0.00     0.002 A 
ATOM      4  C4  I4B d   1      -0.582  -0.009   1.366  0.00  0.00    -0.004 A 
ATOM      5  C5  I4B d   1      -1.517   0.463   0.450  0.00  0.00     0.002 A 
ATOM      6  C6  I4B d   1      -1.308   0.280  -0.925  0.00  0.00     0.003 A 
ENDROOT
BRANCH   1   7
ATOM      7  C1' I4B d   1       0.132  -0.497  -2.828  0.00  0.00     0.060 C 
BRANCH   7   8
ATOM      8  C2' I4B d   1       0.833   0.763  -3.294  0.00  0.00    -0.013 C 
ATOM      9  C4' I4B d   1       2.277   0.493  -3.626  0.00  0.00     0.013 C 
ATOM     10  C3' I4B d   1       0.092   1.289  -4.487  0.00  0.00     0.013 C 
ENDBRANCH   7   8
ENDBRANCH   1   7
TORSDOF 2
ENDMDL
