MODEL 1
REMARK minimizedAffinity 4.53746939
REMARK minimizedRMSD -1
REMARK  0 active torsions:
REMARK  status: ('A' for Active; 'I' for Inactive)
ROOT
ATOM      1  C   UNL d   1      -1.724   0.785   1.568  0.00  0.00     0.172 C 
ATOM      2  N   UNL d   1      -2.184  -0.122   2.594  0.00  0.00    -0.070 N 
ATOM      3  C1  UNL d   1      -1.419  -0.637   3.606  0.00  0.00    -0.004 A 
ATOM      4  C2  UNL d   1      -2.223  -1.454   4.370  0.00  0.00    -0.047 A 
ATOM      5  C3  UNL d   1      -3.517  -1.430   3.797  0.00  0.00    -0.047 A 
ATOM      6  C4  UNL d   1      -3.464  -0.598   2.699  0.00  0.00    -0.004 A 
ENDROOT
TORSDOF 0
ENDMDL
