MODEL 1
REMARK minimizedAffinity 4.62462473
REMARK minimizedRMSD -1
REMARK  0 active torsions:
REMARK  status: ('A' for Active; 'I' for Inactive)
ROOT
ATOM      1  C   UNL d   1       0.757  -0.405  -0.270  0.00  0.00     0.172 C 
ATOM      2  N   UNL d   1       1.923   0.392   0.034  0.00  0.00    -0.070 N 
ATOM      3  C1  UNL d   1       2.870   0.798  -0.868  0.00  0.00    -0.004 A 
ATOM      4  C2  UNL d   1       3.814   1.535  -0.186  0.00  0.00    -0.047 A 
ATOM      5  C3  UNL d   1       3.421   1.573   1.173  0.00  0.00    -0.047 A 
ATOM      6  C4  UNL d   1       2.247   0.857   1.281  0.00  0.00    -0.004 A 
ENDROOT
TORSDOF 0
ENDMDL
