MODEL 1
REMARK minimizedAffinity 3.53740025
REMARK minimizedRMSD -1
REMARK  0 active torsions:
REMARK  status: ('A' for Active; 'I' for Inactive)
ROOT
ATOM      1  C   UNL d   1       1.279  -0.181   0.732  0.00  0.00     0.172 C 
ATOM      2  N   UNL d   1      -0.131  -0.024   0.460  0.00  0.00    -0.070 N 
ATOM      3  C1  UNL d   1      -1.019   0.680   1.229  0.00  0.00    -0.004 A 
ATOM      4  C2  UNL d   1      -2.258   0.589   0.633  0.00  0.00    -0.047 A 
ATOM      5  C3  UNL d   1      -2.110  -0.198  -0.534  0.00  0.00    -0.047 A 
ATOM      6  C4  UNL d   1      -0.783  -0.564  -0.617  0.00  0.00    -0.004 A 
ENDROOT
TORSDOF 0
ENDMDL
