MODEL 1
REMARK minimizedAffinity 4.44510365
REMARK minimizedRMSD -1
REMARK  0 active torsions:
REMARK  status: ('A' for Active; 'I' for Inactive)
ROOT
ATOM      1  C   UNL d   1       3.886   2.110  -0.875  0.00  0.00     0.172 C 
ATOM      2  N   UNL d   1       3.155   1.235   0.011  0.00  0.00    -0.070 N 
ATOM      3  C1  UNL d   1       2.945   1.446   1.348  0.00  0.00    -0.004 A 
ATOM      4  C2  UNL d   1       2.207   0.387   1.831  0.00  0.00    -0.047 A 
ATOM      5  C3  UNL d   1       1.964  -0.490   0.748  0.00  0.00    -0.047 A 
ATOM      6  C4  UNL d   1       2.562   0.059  -0.367  0.00  0.00    -0.004 A 
ENDROOT
TORSDOF 0
ENDMDL
