MODEL 1
REMARK minimizedAffinity -0.805282652
REMARK minimizedRMSD -1
REMARK  0 active torsions:
REMARK  status: ('A' for Active; 'I' for Inactive)
ROOT
ATOM      1  C   UNL d   1       0.974  -0.700   0.392  0.00  0.00     0.172 C 
ATOM      2  N   UNL d   1      -0.125  -0.412   1.283  0.00  0.00    -0.070 N 
ATOM      3  C1  UNL d   1      -1.311   0.171   0.926  0.00  0.00    -0.004 A 
ATOM      4  C2  UNL d   1      -2.090   0.271   2.058  0.00  0.00    -0.047 A 
ATOM      5  C3  UNL d   1      -1.346  -0.270   3.134  0.00  0.00    -0.047 A 
ATOM      6  C4  UNL d   1      -0.133  -0.685   2.626  0.00  0.00    -0.004 A 
ENDROOT
TORSDOF 0
ENDMDL
