MODEL 1
REMARK minimizedAffinity -2.95179009
REMARK minimizedRMSD -1
REMARK  0 active torsions:
REMARK  status: ('A' for Active; 'I' for Inactive)
ROOT
ATOM      1  C   UNL d   1      -1.294   0.493   1.570  0.00  0.00     0.172 C 
ATOM      2  N   UNL d   1      -0.872  -0.398   2.626  0.00  0.00    -0.070 N 
ATOM      3  C1  UNL d   1      -1.700  -1.152   3.414  0.00  0.00    -0.004 A 
ATOM      4  C2  UNL d   1      -0.914  -1.862   4.295  0.00  0.00    -0.047 A 
ATOM      5  C3  UNL d   1       0.434  -1.523   4.028  0.00  0.00    -0.047 A 
ATOM      6  C4  UNL d   1       0.431  -0.614   2.990  0.00  0.00    -0.004 A 
ENDROOT
TORSDOF 0
ENDMDL
