MODEL 1
REMARK minimizedAffinity -1.5063144
REMARK minimizedRMSD -1
REMARK  0 active torsions:
REMARK  status: ('A' for Active; 'I' for Inactive)
ROOT
ATOM      1  C   UNL d   1       0.046  -1.458   4.564  0.00  0.00     0.172 C 
ATOM      2  N   UNL d   1      -1.176  -0.970   3.968  0.00  0.00    -0.070 N 
ATOM      3  C1  UNL d   1      -1.272   0.070   3.081  0.00  0.00    -0.004 A 
ATOM      4  C2  UNL d   1      -2.601   0.221   2.750  0.00  0.00    -0.047 A 
ATOM      5  C3  UNL d   1      -3.329  -0.761   3.464  0.00  0.00    -0.047 A 
ATOM      6  C4  UNL d   1      -2.422  -1.484   4.209  0.00  0.00    -0.004 A 
ENDROOT
TORSDOF 0
ENDMDL
