MODEL 1
REMARK minimizedAffinity -0.558362961
REMARK minimizedRMSD -1
REMARK  0 active torsions:
REMARK  status: ('A' for Active; 'I' for Inactive)
ROOT
ATOM      1  C   UNL d   1      -0.078  -0.965   3.726  0.00  0.00     0.172 C 
ATOM      2  N   UNL d   1      -0.549  -0.558   2.423  0.00  0.00    -0.070 N 
ATOM      3  C1  UNL d   1       0.213  -0.476   1.289  0.00  0.00    -0.004 A 
ATOM      4  C2  UNL d   1      -0.603  -0.053   0.262  0.00  0.00    -0.047 A 
ATOM      5  C3  UNL d   1      -1.900   0.126   0.798  0.00  0.00    -0.047 A 
ATOM      6  C4  UNL d   1      -1.838  -0.194   2.138  0.00  0.00    -0.004 A 
ENDROOT
TORSDOF 0
ENDMDL
