MODEL 1
REMARK minimizedAffinity 0.0655820593
REMARK minimizedRMSD -1
REMARK  0 active torsions:
REMARK  status: ('A' for Active; 'I' for Inactive)
ROOT
ATOM      1  C   UNL d   1      -2.599   0.002   2.017  0.00  0.00     0.172 C 
ATOM      2  N   UNL d   1      -1.907  -0.539   3.164  0.00  0.00    -0.070 N 
ATOM      3  C1  UNL d   1      -2.502  -1.056   4.283  0.00  0.00    -0.004 A 
ATOM      4  C2  UNL d   1      -1.504  -1.465   5.141  0.00  0.00    -0.047 A 
ATOM      5  C3  UNL d   1      -0.266  -1.183   4.515  0.00  0.00    -0.047 A 
ATOM      6  C4  UNL d   1      -0.545  -0.610   3.293  0.00  0.00    -0.004 A 
ENDROOT
TORSDOF 0
ENDMDL
