MODEL 1
REMARK minimizedAffinity 1.21756971
REMARK minimizedRMSD -1
REMARK  0 active torsions:
REMARK  status: ('A' for Active; 'I' for Inactive)
ROOT
ATOM      1  C   UNL d   1       1.861  -0.406   0.442  0.00  0.00     0.172 C 
ATOM      2  N   UNL d   1       0.450  -0.116   0.535  0.00  0.00    -0.070 N 
ATOM      3  C1  UNL d   1      -0.461  -0.248  -0.479  0.00  0.00    -0.004 A 
ATOM      4  C2  UNL d   1      -1.694   0.126   0.010  0.00  0.00    -0.047 A 
ATOM      5  C3  UNL d   1      -1.518   0.497   1.364  0.00  0.00    -0.047 A 
ATOM      6  C4  UNL d   1      -0.181   0.338   1.663  0.00  0.00    -0.004 A 
ENDROOT
TORSDOF 0
ENDMDL
