MODEL 1
REMARK minimizedAffinity 3.45940757
REMARK minimizedRMSD -1
REMARK  0 active torsions:
REMARK  status: ('A' for Active; 'I' for Inactive)
ROOT
ATOM      1  C   UNL d   1      -1.123  -1.713  -6.000  0.00  0.00     0.172 C 
ATOM      2  N   UNL d   1      -0.159  -0.843  -5.369  0.00  0.00    -0.070 N 
ATOM      3  C1  UNL d   1       1.163  -0.735  -5.710  0.00  0.00    -0.004 A 
ATOM      4  C2  UNL d   1       1.740   0.197  -4.876  0.00  0.00    -0.047 A 
ATOM      5  C3  UNL d   1       0.731   0.665  -4.001  0.00  0.00    -0.047 A 
ATOM      6  C4  UNL d   1      -0.434   0.005  -4.329  0.00  0.00    -0.004 A 
ENDROOT
TORSDOF 0
ENDMDL
