MODEL 1
REMARK minimizedAffinity -1.7586633
REMARK minimizedRMSD -1
REMARK  0 active torsions:
REMARK  status: ('A' for Active; 'I' for Inactive)
ROOT
ATOM      1  C   UNL d   1       1.364  -0.292   0.874  0.00  0.00     0.172 C 
ATOM      2  N   UNL d   1       0.162  -0.133   1.658  0.00  0.00    -0.070 N 
ATOM      3  C1  UNL d   1      -1.013   0.415   1.217  0.00  0.00    -0.004 A 
ATOM      4  C2  UNL d   1      -1.911   0.384   2.261  0.00  0.00    -0.047 A 
ATOM      5  C3  UNL d   1      -1.253  -0.201   3.369  0.00  0.00    -0.047 A 
ATOM      6  C4  UNL d   1       0.029  -0.511   2.968  0.00  0.00    -0.004 A 
ENDROOT
TORSDOF 0
ENDMDL
