MODEL 1
REMARK minimizedAffinity 11.5849562
REMARK minimizedRMSD -1
REMARK  0 active torsions:
REMARK  status: ('A' for Active; 'I' for Inactive)
ROOT
ATOM      1  C   UNL d   1       3.365   5.068  -1.122  0.00  0.00    -0.002 A 
ATOM      2  C1  UNL d   1       4.588   5.667  -0.853  0.00  0.00     0.010 A 
ATOM      3  C2  UNL d   1       5.465   5.987  -1.891  0.00  0.00     0.041 A 
ATOM      4  C3  UNL d   1       5.088   5.695  -3.217  0.00  0.00    -0.075 A 
ATOM      5  S   UNL d   1       6.000   5.999  -4.648  0.00  0.00     0.015 SA
ATOM      6  C4  UNL d   1       4.787   5.342  -5.650  0.00  0.00     0.022 A 
ATOM      7  C5  UNL d   1       3.706   4.897  -4.926  0.00  0.00     0.026 A 
ATOM      8  C6  UNL d   1       3.861   5.094  -3.512  0.00  0.00    -0.082 A 
ATOM      9  C7  UNL d   1       2.995   4.780  -2.438  0.00  0.00     0.045 A 
ENDROOT
TORSDOF 0
ENDMDL
