MODEL 1
REMARK minimizedAffinity 6.9326663
REMARK minimizedRMSD -1
REMARK  0 active torsions:
REMARK  status: ('A' for Active; 'I' for Inactive)
ROOT
ATOM      1  C   UNL d   1      -4.507  -4.511  -1.324  0.00  0.00    -0.002 A 
ATOM      2  C1  UNL d   1      -4.965  -3.203  -1.378  0.00  0.00     0.010 A 
ATOM      3  C2  UNL d   1      -5.377  -2.643  -2.589  0.00  0.00     0.041 A 
ATOM      4  C3  UNL d   1      -5.322  -3.430  -3.756  0.00  0.00    -0.075 A 
ATOM      5  S   UNL d   1      -5.776  -2.956  -5.351  0.00  0.00     0.015 SA
ATOM      6  C4  UNL d   1      -5.373  -4.481  -5.999  0.00  0.00     0.022 A 
ATOM      7  C5  UNL d   1      -4.902  -5.342  -5.036  0.00  0.00     0.026 A 
ATOM      8  C6  UNL d   1      -4.865  -4.750  -3.728  0.00  0.00    -0.082 A 
ATOM      9  C7  UNL d   1      -4.454  -5.288  -2.485  0.00  0.00     0.045 A 
ENDROOT
TORSDOF 0
ENDMDL
