MODEL 1
REMARK minimizedAffinity 5.57385683
REMARK minimizedRMSD -1
REMARK  0 active torsions:
REMARK  status: ('A' for Active; 'I' for Inactive)
ROOT
ATOM      1  C   UNL d   1       3.437   3.392  -0.397  0.00  0.00    -0.002 A 
ATOM      2  C1  UNL d   1       2.116   3.348  -0.819  0.00  0.00     0.010 A 
ATOM      3  C2  UNL d   1       1.291   2.281  -0.461  0.00  0.00     0.041 A 
ATOM      4  C3  UNL d   1       1.820   1.249   0.339  0.00  0.00    -0.075 A 
ATOM      5  S   UNL d   1       0.996  -0.157   0.901  0.00  0.00     0.015 SA
ATOM      6  C4  UNL d   1       2.378  -0.732   1.716  0.00  0.00     0.022 A 
ATOM      7  C5  UNL d   1       3.451   0.115   1.573  0.00  0.00     0.026 A 
ATOM      8  C6  UNL d   1       3.147   1.271   0.777  0.00  0.00    -0.082 A 
ATOM      9  C7  UNL d   1       3.959   2.366   0.396  0.00  0.00     0.045 A 
ENDROOT
TORSDOF 0
ENDMDL
