MODEL 1
REMARK minimizedAffinity 14.0936317
REMARK minimizedRMSD -1
REMARK  0 active torsions:
REMARK  status: ('A' for Active; 'I' for Inactive)
ROOT
ATOM      1  C   UNL d   1       3.862   1.848  -0.833  0.00  0.00    -0.002 A 
ATOM      2  C1  UNL d   1       3.031   2.874  -0.406  0.00  0.00     0.010 A 
ATOM      3  C2  UNL d   1       2.174   2.689   0.681  0.00  0.00     0.041 A 
ATOM      4  C3  UNL d   1       2.167   1.444   1.339  0.00  0.00    -0.075 A 
ATOM      5  S   UNL d   1       1.202   0.989   2.693  0.00  0.00     0.015 SA
ATOM      6  C4  UNL d   1       1.870  -0.578   2.738  0.00  0.00     0.022 A 
ATOM      7  C5  UNL d   1       2.808  -0.767   1.751  0.00  0.00     0.026 A 
ATOM      8  C6  UNL d   1       2.995   0.395   0.929  0.00  0.00    -0.082 A 
ATOM      9  C7  UNL d   1       3.852   0.614  -0.177  0.00  0.00     0.045 A 
ENDROOT
TORSDOF 0
ENDMDL
