MODEL 1
REMARK minimizedAffinity 9.05993652
REMARK minimizedRMSD -1
REMARK  0 active torsions:
REMARK  status: ('A' for Active; 'I' for Inactive)
ROOT
ATOM      1  C   UNL d   1       3.237   1.862   1.129  0.00  0.00    -0.002 A 
ATOM      2  C1  UNL d   1       1.943   2.167   1.527  0.00  0.00     0.010 A 
ATOM      3  C2  UNL d   1       1.002   1.154   1.722  0.00  0.00     0.041 A 
ATOM      4  C3  UNL d   1       1.388  -0.184   1.510  0.00  0.00    -0.075 A 
ATOM      5  S   UNL d   1       0.406  -1.590   1.688  0.00  0.00     0.015 SA
ATOM      6  C4  UNL d   1       1.681  -2.629   1.241  0.00  0.00     0.022 A 
ATOM      7  C5  UNL d   1       2.835  -1.937   0.959  0.00  0.00     0.026 A 
ATOM      8  C6  UNL d   1       2.686  -0.517   1.110  0.00  0.00    -0.082 A 
ATOM      9  C7  UNL d   1       3.616   0.533   0.920  0.00  0.00     0.045 A 
ENDROOT
TORSDOF 0
ENDMDL
