MODEL 1
REMARK minimizedAffinity 8.25217056
REMARK minimizedRMSD -1
REMARK  0 active torsions:
REMARK  status: ('A' for Active; 'I' for Inactive)
ROOT
ATOM      1  C   UNL d   1       2.850   2.602   0.344  0.00  0.00    -0.002 A 
ATOM      2  C1  UNL d   1       1.900   3.547  -0.015  0.00  0.00     0.010 A 
ATOM      3  C2  UNL d   1       0.539   3.282   0.143  0.00  0.00     0.041 A 
ATOM      4  C3  UNL d   1       0.144   2.039   0.675  0.00  0.00    -0.075 A 
ATOM      5  S   UNL d   1      -1.467   1.495   0.960  0.00  0.00     0.015 SA
ATOM      6  C4  UNL d   1      -0.933  -0.006   1.566  0.00  0.00     0.022 A 
ATOM      7  C5  UNL d   1       0.438  -0.106   1.559  0.00  0.00     0.026 A 
ATOM      8  C6  UNL d   1       1.081   1.071   1.046  0.00  0.00    -0.082 A 
ATOM      9  C7  UNL d   1       2.454   1.370   0.872  0.00  0.00     0.045 A 
ENDROOT
TORSDOF 0
ENDMDL
