MODEL 1
REMARK minimizedAffinity 8.49392986
REMARK minimizedRMSD -1
REMARK  1 active torsions:
REMARK  status: ('A' for Active; 'I' for Inactive)
REMARK    1  A    between atoms: C1_2  and  C2_3 
ROOT
ATOM      1  C2  UNL d   1       3.788  -1.196  -3.238  0.00  0.00    -0.081 A 
ATOM      2  C3  UNL d   1       3.112  -0.383  -4.156  0.00  0.00     0.006 A 
ATOM      3  C4  UNL d   1       3.824   0.428  -5.043  0.00  0.00     0.002 A 
ATOM      4  C5  UNL d   1       5.223   0.433  -5.032  0.00  0.00    -0.080 A 
ATOM      5  C6  UNL d   1       6.000   1.276  -5.999  0.00  0.00     0.076 C 
ATOM      6  C7  UNL d   1       5.898  -0.365  -4.103  0.00  0.00     0.002 A 
ATOM      7  C8  UNL d   1       5.187  -1.176  -3.216  0.00  0.00     0.006 A 
ENDROOT
BRANCH   1   8
ATOM      8  C1  UNL d   1       3.024  -2.120  -2.324  0.00  0.00     0.054 C 
ATOM      9  C   UNL d   1       2.630  -3.404  -3.040  0.00  0.00     0.018 C 
ENDBRANCH   1   8
TORSDOF 1
ENDMDL
