MODEL 1
REMARK minimizedAffinity 10.0991507
REMARK minimizedRMSD -1
REMARK  1 active torsions:
REMARK  status: ('A' for Active; 'I' for Inactive)
REMARK    1  A    between atoms: C1_2  and  C2_3 
ROOT
ATOM      1  C2  UNL d   1       5.096   5.679  -3.920  0.00  0.00    -0.081 A 
ATOM      2  C3  UNL d   1       5.575   5.997  -2.643  0.00  0.00     0.006 A 
ATOM      3  C4  UNL d   1       4.789   5.759  -1.512  0.00  0.00     0.002 A 
ATOM      4  C5  UNL d   1       3.516   5.193  -1.639  0.00  0.00    -0.080 A 
ATOM      5  C6  UNL d   1       2.675   4.904  -0.431  0.00  0.00     0.076 C 
ATOM      6  C7  UNL d   1       3.031   4.891  -2.916  0.00  0.00     0.002 A 
ATOM      7  C8  UNL d   1       3.815   5.129  -4.046  0.00  0.00     0.006 A 
ENDROOT
BRANCH   1   8
ATOM      8  C1  UNL d   1       5.966   5.874  -5.135  0.00  0.00     0.054 C 
ATOM      9  C   UNL d   1       6.000   4.621  -5.998  0.00  0.00     0.018 C 
ENDBRANCH   1   8
TORSDOF 1
ENDMDL
