MODEL 1
REMARK minimizedAffinity 6.91578913
REMARK minimizedRMSD -1
REMARK  1 active torsions:
REMARK  status: ('A' for Active; 'I' for Inactive)
REMARK    1  A    between atoms: C1_2  and  C2_3 
ROOT
ATOM      1  C2  UNL d   1      -5.300  -3.881  -4.631  0.00  0.00    -0.081 A 
ATOM      2  C3  UNL d   1      -5.291  -3.015  -3.531  0.00  0.00     0.006 A 
ATOM      3  C4  UNL d   1      -4.880  -3.469  -2.275  0.00  0.00     0.002 A 
ATOM      4  C5  UNL d   1      -4.465  -4.793  -2.100  0.00  0.00    -0.080 A 
ATOM      5  C6  UNL d   1      -3.994  -5.285  -0.764  0.00  0.00     0.076 C 
ATOM      6  C7  UNL d   1      -4.491  -5.663  -3.195  0.00  0.00     0.002 A 
ATOM      7  C8  UNL d   1      -4.902  -5.210  -4.451  0.00  0.00     0.006 A 
ENDROOT
BRANCH   1   8
ATOM      8  C1  UNL d   1      -5.680  -3.378  -6.000  0.00  0.00     0.054 C 
ATOM      9  C   UNL d   1      -6.000  -1.890  -5.973  0.00  0.00     0.018 C 
ENDBRANCH   1   8
TORSDOF 1
ENDMDL
