MODEL 1
REMARK minimizedAffinity 1.34002626
REMARK minimizedRMSD -1
REMARK  1 active torsions:
REMARK  status: ('A' for Active; 'I' for Inactive)
REMARK    1  A    between atoms: C1_2  and  C2_3 
ROOT
ATOM      1  C2  UNL d   1       1.134  -0.854   1.603  0.00  0.00    -0.081 A 
ATOM      2  C3  UNL d   1       0.136   0.037   1.189  0.00  0.00     0.006 A 
ATOM      3  C4  UNL d   1       0.476   1.257   0.600  0.00  0.00     0.002 A 
ATOM      4  C5  UNL d   1       1.818   1.604   0.408  0.00  0.00    -0.080 A 
ATOM      5  C6  UNL d   1       2.195   2.897  -0.251  0.00  0.00     0.076 C 
ATOM      6  C7  UNL d   1       2.815   0.722   0.838  0.00  0.00     0.002 A 
ATOM      7  C8  UNL d   1       2.476  -0.498   1.427  0.00  0.00     0.006 A 
ENDROOT
BRANCH   1   8
ATOM      8  C1  UNL d   1       0.771  -2.198   2.180  0.00  0.00     0.054 C 
ATOM      9  C   UNL d   1       1.826  -2.682   3.163  0.00  0.00     0.018 C 
ENDBRANCH   1   8
TORSDOF 1
ENDMDL
