MODEL 1
REMARK minimizedAffinity 5.82063007
REMARK minimizedRMSD -1
REMARK  1 active torsions:
REMARK  status: ('A' for Active; 'I' for Inactive)
REMARK    1  A    between atoms: C1_2  and  C2_3 
ROOT
ATOM      1  C2  UNL d   1       2.962   1.896   0.907  0.00  0.00    -0.081 A 
ATOM      2  C3  UNL d   1       3.753   0.815   0.498  0.00  0.00     0.006 A 
ATOM      3  C4  UNL d   1       3.363  -0.495   0.784  0.00  0.00     0.002 A 
ATOM      4  C5  UNL d   1       2.174  -0.747   1.476  0.00  0.00    -0.080 A 
ATOM      5  C6  UNL d   1       1.729  -2.150   1.763  0.00  0.00     0.076 C 
ATOM      6  C7  UNL d   1       1.392   0.333   1.899  0.00  0.00     0.002 A 
ATOM      7  C8  UNL d   1       1.782   1.644   1.614  0.00  0.00     0.006 A 
ENDROOT
BRANCH   1   8
ATOM      8  C1  UNL d   1       3.347   3.307   0.543  0.00  0.00     0.054 C 
ATOM      9  C   UNL d   1       2.586   3.790  -0.683  0.00  0.00     0.018 C 
ENDBRANCH   1   8
TORSDOF 1
ENDMDL
