MODEL 1
REMARK minimizedAffinity 9.07738495
REMARK minimizedRMSD -1
REMARK  1 active torsions:
REMARK  status: ('A' for Active; 'I' for Inactive)
REMARK    1  A    between atoms: C1_2  and  C2_3 
ROOT
ATOM      1  C2  UNL d   1      -4.762  -5.088  -2.157  0.00  0.00    -0.081 A 
ATOM      2  C3  UNL d   1      -5.646  -4.005  -2.238  0.00  0.00     0.006 A 
ATOM      3  C4  UNL d   1      -5.994  -3.465  -3.478  0.00  0.00     0.002 A 
ATOM      4  C5  UNL d   1      -5.471  -4.005  -4.659  0.00  0.00    -0.080 A 
ATOM      5  C6  UNL d   1      -5.861  -3.455  -5.999  0.00  0.00     0.076 C 
ATOM      6  C7  UNL d   1      -4.574  -5.075  -4.577  0.00  0.00     0.002 A 
ATOM      7  C8  UNL d   1      -4.225  -5.614  -3.337  0.00  0.00     0.006 A 
ENDROOT
BRANCH   1   8
ATOM      8  C1  UNL d   1      -4.434  -5.713  -0.825  0.00  0.00     0.054 C 
ATOM      9  C   UNL d   1      -5.696  -5.996  -0.022  0.00  0.00     0.018 C 
ENDBRANCH   1   8
TORSDOF 1
ENDMDL
