MODEL 1
REMARK minimizedAffinity 0.814127564
REMARK minimizedRMSD -1
REMARK  1 active torsions:
REMARK  status: ('A' for Active; 'I' for Inactive)
REMARK    1  A    between atoms: C1_2  and  C2_3 
ROOT
ATOM      1  C2  UNL d   1      -5.570  -0.620  -5.235  0.00  0.00    -0.081 A 
ATOM      2  C3  UNL d   1      -5.194   0.542  -5.919  0.00  0.00     0.006 A 
ATOM      3  C4  UNL d   1      -4.764   1.670  -5.216  0.00  0.00     0.002 A 
ATOM      4  C5  UNL d   1      -4.696   1.653  -3.819  0.00  0.00    -0.080 A 
ATOM      5  C6  UNL d   1      -4.207   2.847  -3.054  0.00  0.00     0.076 C 
ATOM      6  C7  UNL d   1      -5.088   0.498  -3.134  0.00  0.00     0.002 A 
ATOM      7  C8  UNL d   1      -5.519  -0.630  -3.836  0.00  0.00     0.006 A 
ENDROOT
BRANCH   1   8
ATOM      8  C1  UNL d   1      -5.972  -1.859  -5.992  0.00  0.00     0.054 C 
ATOM      9  C   UNL d   1      -5.982  -3.082  -5.087  0.00  0.00     0.018 C 
ENDBRANCH   1   8
TORSDOF 1
ENDMDL
