MODEL 1
REMARK minimizedAffinity 1.37228179
REMARK minimizedRMSD -1
REMARK  0 active torsions:
REMARK  status: ('A' for Active; 'I' for Inactive)
ROOT
ATOM      1  C1  BNZ d   1      -6.000  -3.767   0.352  0.00  0.00     0.000 A 
ATOM      2  C2  BNZ d   1      -6.000  -4.933  -0.366  0.00  0.00     0.000 A 
ATOM      3  C3  BNZ d   1      -4.826  -5.522  -0.745  0.00  0.00     0.000 A 
ATOM      4  C4  BNZ d   1      -3.656  -4.923  -0.443  0.00  0.00     0.000 A 
ATOM      5  C5  BNZ d   1      -3.640  -3.742   0.272  0.00  0.00     0.000 A 
ATOM      6  C6  BNZ d   1      -4.822  -3.173   0.687  0.00  0.00     0.000 A 
ENDROOT
TORSDOF 0
ENDMDL
