MODEL 1
REMARK minimizedAffinity 4.2852006
REMARK minimizedRMSD -1
REMARK  0 active torsions:
REMARK  status: ('A' for Active; 'I' for Inactive)
ROOT
ATOM      1  C1  BNZ d   1      -2.139   2.303   1.826  0.00  0.00     0.000 A 
ATOM      2  C2  BNZ d   1      -3.068   1.365   1.462  0.00  0.00     0.000 A 
ATOM      3  C3  BNZ d   1      -2.746   0.037   1.428  0.00  0.00     0.000 A 
ATOM      4  C4  BNZ d   1      -1.486  -0.347   1.718  0.00  0.00     0.000 A 
ATOM      5  C5  BNZ d   1      -0.536   0.587   2.078  0.00  0.00     0.000 A 
ATOM      6  C6  BNZ d   1      -0.874   1.919   2.149  0.00  0.00     0.000 A 
ENDROOT
TORSDOF 0
ENDMDL
