MODEL 1
REMARK minimizedAffinity 7.62249279
REMARK minimizedRMSD -1
REMARK  0 active torsions:
REMARK  status: ('A' for Active; 'I' for Inactive)
ROOT
ATOM      1  C1  BNZ d   1      -1.733  -0.524   2.445  0.00  0.00     0.000 A 
ATOM      2  C2  BNZ d   1      -3.029  -0.487   2.005  0.00  0.00     0.000 A 
ATOM      3  C3  BNZ d   1      -3.490   0.573   1.275  0.00  0.00     0.000 A 
ATOM      4  C4  BNZ d   1      -2.668   1.611   1.022  0.00  0.00     0.000 A 
ATOM      5  C5  BNZ d   1      -1.362   1.594   1.467  0.00  0.00     0.000 A 
ATOM      6  C6  BNZ d   1      -0.889   0.507   2.168  0.00  0.00     0.000 A 
ENDROOT
TORSDOF 0
ENDMDL
