MODEL 1
REMARK minimizedAffinity -1.91249716
REMARK minimizedRMSD -1
REMARK  0 active torsions:
REMARK  status: ('A' for Active; 'I' for Inactive)
ROOT
ATOM      1  C1  BNZ d   1       0.963   0.748  -1.354  0.00  0.00     0.000 A 
ATOM      2  C2  BNZ d   1      -0.250   0.625  -1.976  0.00  0.00     0.000 A 
ATOM      3  C3  BNZ d   1      -1.373   0.308  -1.264  0.00  0.00     0.000 A 
ATOM      4  C4  BNZ d   1      -1.274   0.076   0.061  0.00  0.00     0.000 A 
ATOM      5  C5  BNZ d   1      -0.056   0.187   0.701  0.00  0.00     0.000 A 
ATOM      6  C6  BNZ d   1       1.065   0.544  -0.012  0.00  0.00     0.000 A 
ENDROOT
TORSDOF 0
ENDMDL
