MODEL 1
REMARK minimizedAffinity -4.30334663
REMARK minimizedRMSD -1
REMARK  0 active torsions:
REMARK  status: ('A' for Active; 'I' for Inactive)
ROOT
ATOM      1  C1  BNZ d   1       0.114  -1.579  -3.810  0.00  0.00     0.000 A 
ATOM      2  C2  BNZ d   1       0.841  -0.774  -2.974  0.00  0.00     0.000 A 
ATOM      3  C3  BNZ d   1       0.221  -0.001  -2.033  0.00  0.00     0.000 A 
ATOM      4  C4  BNZ d   1      -1.125  -0.003  -1.955  0.00  0.00     0.000 A 
ATOM      5  C5  BNZ d   1      -1.873  -0.802  -2.797  0.00  0.00     0.000 A 
ATOM      6  C6  BNZ d   1      -1.243  -1.609  -3.717  0.00  0.00     0.000 A 
ENDROOT
TORSDOF 0
ENDMDL
