MODEL 1
REMARK minimizedAffinity 1.70203876
REMARK minimizedRMSD -1
REMARK  0 active torsions:
REMARK  status: ('A' for Active; 'I' for Inactive)
ROOT
ATOM      1  C1  BNZ d   1       2.505  -0.697  -3.657  0.00  0.00     0.000 A 
ATOM      2  C2  BNZ d   1       2.224   0.347  -2.816  0.00  0.00     0.000 A 
ATOM      3  C3  BNZ d   1       1.263   0.229  -1.851  0.00  0.00     0.000 A 
ATOM      4  C4  BNZ d   1       0.558  -0.916  -1.754  0.00  0.00     0.000 A 
ATOM      5  C5  BNZ d   1       0.823  -1.974  -2.600  0.00  0.00     0.000 A 
ATOM      6  C6  BNZ d   1       1.817  -1.866  -3.545  0.00  0.00     0.000 A 
ENDROOT
TORSDOF 0
ENDMDL
