MODEL 1
REMARK minimizedAffinity -4.1558733
REMARK minimizedRMSD -1
REMARK  0 active torsions:
REMARK  status: ('A' for Active; 'I' for Inactive)
ROOT
ATOM      1  C1  BNZ d   1      -1.513  -1.961  -2.169  0.00  0.00     0.000 A 
ATOM      2  C2  BNZ d   1      -1.503  -0.841  -1.381  0.00  0.00     0.000 A 
ATOM      3  C3  BNZ d   1      -2.582  -0.002  -1.345  0.00  0.00     0.000 A 
ATOM      4  C4  BNZ d   1      -3.650  -0.261  -2.126  0.00  0.00     0.000 A 
ATOM      5  C5  BNZ d   1      -3.671  -1.381  -2.933  0.00  0.00     0.000 A 
ATOM      6  C6  BNZ d   1      -2.599  -2.245  -2.937  0.00  0.00     0.000 A 
ENDROOT
TORSDOF 0
ENDMDL
