MODEL 1
REMARK minimizedAffinity -4.4365015
REMARK minimizedRMSD -1
REMARK  0 active torsions:
REMARK  status: ('A' for Active; 'I' for Inactive)
ROOT
ATOM      1  C1  BNZ d   1      -1.677  -0.241   2.464  0.00  0.00     0.000 A 
ATOM      2  C2  BNZ d   1      -2.483  -0.186   1.359  0.00  0.00     0.000 A 
ATOM      3  C3  BNZ d   1      -1.949  -0.197   0.101  0.00  0.00     0.000 A 
ATOM      4  C4  BNZ d   1      -0.609  -0.222  -0.050  0.00  0.00     0.000 A 
ATOM      5  C5  BNZ d   1       0.218  -0.268   1.055  0.00  0.00     0.000 A 
ATOM      6  C6  BNZ d   1      -0.325  -0.297   2.319  0.00  0.00     0.000 A 
ENDROOT
TORSDOF 0
ENDMDL
