MODEL 1
REMARK minimizedAffinity -4.46291637
REMARK minimizedRMSD -1
REMARK  0 active torsions:
REMARK  status: ('A' for Active; 'I' for Inactive)
ROOT
ATOM      1  C1  BNZ d   1       0.301  -1.240  -3.231  0.00  0.00     0.000 A 
ATOM      2  C2  BNZ d   1      -0.962  -1.639  -2.883  0.00  0.00     0.000 A 
ATOM      3  C3  BNZ d   1      -1.663  -0.976  -1.914  0.00  0.00     0.000 A 
ATOM      4  C4  BNZ d   1      -1.086   0.058  -1.269  0.00  0.00     0.000 A 
ATOM      5  C5  BNZ d   1       0.190   0.467  -1.603  0.00  0.00     0.000 A 
ATOM      6  C6  BNZ d   1       0.877  -0.178  -2.605  0.00  0.00     0.000 A 
ENDROOT
TORSDOF 0
ENDMDL
