MODEL 1
REMARK minimizedAffinity -3.85538149
REMARK minimizedRMSD -1
REMARK  0 active torsions:
REMARK  status: ('A' for Active; 'I' for Inactive)
ROOT
ATOM      1  C1  BNZ d   1      -0.634  -1.244  -3.395  0.00  0.00     0.000 A 
ATOM      2  C2  BNZ d   1      -0.533  -2.578  -3.684  0.00  0.00     0.000 A 
ATOM      3  C3  BNZ d   1      -1.273  -3.501  -2.999  0.00  0.00     0.000 A 
ATOM      4  C4  BNZ d   1      -2.082  -3.093  -2.000  0.00  0.00     0.000 A 
ATOM      5  C5  BNZ d   1      -2.188  -1.751  -1.690  0.00  0.00     0.000 A 
ATOM      6  C6  BNZ d   1      -1.471  -0.822  -2.408  0.00  0.00     0.000 A 
ENDROOT
TORSDOF 0
ENDMDL
