MODEL 1
REMARK minimizedAffinity -4.66423512
REMARK minimizedRMSD -1
REMARK  0 active torsions:
REMARK  status: ('A' for Active; 'I' for Inactive)
ROOT
ATOM      1  C1  BNZ d   1       0.369   0.699  -0.681  0.00  0.00     0.000 A 
ATOM      2  C2  BNZ d   1       0.776   0.408   0.593  0.00  0.00     0.000 A 
ATOM      3  C3  BNZ d   1      -0.124   0.007   1.541  0.00  0.00     0.000 A 
ATOM      4  C4  BNZ d   1      -1.433  -0.065   1.224  0.00  0.00     0.000 A 
ATOM      5  C5  BNZ d   1      -1.860   0.234  -0.054  0.00  0.00     0.000 A 
ATOM      6  C6  BNZ d   1      -0.947   0.600  -1.016  0.00  0.00     0.000 A 
ENDROOT
TORSDOF 0
ENDMDL
