MODEL 1
REMARK minimizedAffinity -4.7285943
REMARK minimizedRMSD -1
REMARK  0 active torsions:
REMARK  status: ('A' for Active; 'I' for Inactive)
ROOT
ATOM      1  C1  BNZ d   1      -0.640   0.133  -0.011  0.00  0.00     0.000 A 
ATOM      2  C2  BNZ d   1      -0.957  -0.513   1.154  0.00  0.00     0.000 A 
ATOM      3  C3  BNZ d   1      -2.238  -0.918   1.403  0.00  0.00     0.000 A 
ATOM      4  C4  BNZ d   1      -3.207  -0.643   0.506  0.00  0.00     0.000 A 
ATOM      5  C5  BNZ d   1      -2.905   0.015  -0.669  0.00  0.00     0.000 A 
ATOM      6  C6  BNZ d   1      -1.607   0.387  -0.934  0.00  0.00     0.000 A 
ENDROOT
TORSDOF 0
ENDMDL
