MODEL 1
REMARK minimizedAffinity -3.04570389
REMARK minimizedRMSD -1
REMARK  0 active torsions:
REMARK  status: ('A' for Active; 'I' for Inactive)
ROOT
ATOM      1  C1  BNZ d   1      -2.214   0.069  -1.010  0.00  0.00     0.000 A 
ATOM      2  C2  BNZ d   1      -2.934  -0.894  -1.666  0.00  0.00     0.000 A 
ATOM      3  C3  BNZ d   1      -2.303  -1.902  -2.340  0.00  0.00     0.000 A 
ATOM      4  C4  BNZ d   1      -0.955  -1.923  -2.392  0.00  0.00     0.000 A 
ATOM      5  C5  BNZ d   1      -0.216  -0.954  -1.744  0.00  0.00     0.000 A 
ATOM      6  C6  BNZ d   1      -0.854   0.037  -1.033  0.00  0.00     0.000 A 
ENDROOT
TORSDOF 0
ENDMDL
