MODEL 1
REMARK minimizedAffinity 4.06694651
REMARK minimizedRMSD -1
REMARK  2 active torsions:
REMARK  status: ('A' for Active; 'I' for Inactive)
REMARK    1  A    between atoms: C2'_3  and  C1'_4 
REMARK    2  A    between atoms: C1'_4  and  C1_5 
ROOT
ATOM      1  C1  I4B d   1       1.855   0.105  -0.345  0.00  0.00    -0.075 A 
ATOM      2  C2  I4B d   1       1.796   0.904   0.770  0.00  0.00     0.003 A 
ATOM      3  C3  I4B d   1       0.874   0.616   1.805  0.00  0.00     0.002 A 
ATOM      4  C4  I4B d   1       0.000  -0.443   1.661  0.00  0.00    -0.004 A 
ATOM      5  C5  I4B d   1       0.077  -1.265   0.541  0.00  0.00     0.002 A 
ATOM      6  C6  I4B d   1       1.018  -0.997  -0.464  0.00  0.00     0.003 A 
ENDROOT
BRANCH   1   7
ATOM      7  C1' I4B d   1       2.819   0.457  -1.434  0.00  0.00     0.060 C 
BRANCH   7   8
ATOM      8  C2' I4B d   1       3.768  -0.710  -1.612  0.00  0.00    -0.013 C 
ATOM      9  C4' I4B d   1       3.028  -1.958  -2.014  0.00  0.00     0.013 C 
ATOM     10  C3' I4B d   1       4.784  -0.326  -2.646  0.00  0.00     0.013 C 
ENDBRANCH   7   8
ENDBRANCH   1   7
TORSDOF 2
ENDMDL
