MODEL 1
REMARK minimizedAffinity 0.460974127
REMARK minimizedRMSD -1
REMARK  2 active torsions:
REMARK  status: ('A' for Active; 'I' for Inactive)
REMARK    1  A    between atoms: C2'_3  and  C1'_4 
REMARK    2  A    between atoms: C1'_4  and  C1_5 
ROOT
ATOM      1  C1  I4B d   1      -4.207   2.867  -3.059  0.00  0.00    -0.075 A 
ATOM      2  C2  I4B d   1      -5.010   3.215  -4.116  0.00  0.00     0.003 A 
ATOM      3  C3  I4B d   1      -4.452   3.827  -5.265  0.00  0.00     0.002 A 
ATOM      4  C4  I4B d   1      -3.103   4.116  -5.293  0.00  0.00    -0.004 A 
ATOM      5  C5  I4B d   1      -2.286   3.742  -4.230  0.00  0.00     0.002 A 
ATOM      6  C6  I4B d   1      -2.839   3.102  -3.111  0.00  0.00     0.003 A 
ENDROOT
BRANCH   1   7
ATOM      7  C1' I4B d   1      -4.834   2.252  -1.849  0.00  0.00     0.060 C 
BRANCH   7   8
ATOM      8  C2' I4B d   1      -4.820   3.285  -0.740  0.00  0.00    -0.013 C 
ATOM      9  C4' I4B d   1      -5.997   4.218  -0.850  0.00  0.00     0.013 C 
ATOM     10  C3' I4B d   1      -4.826   2.557   0.571  0.00  0.00     0.013 C 
ENDBRANCH   7   8
ENDBRANCH   1   7
TORSDOF 2
ENDMDL
