MODEL 1
REMARK minimizedAffinity 5.23546362
REMARK minimizedRMSD -1
REMARK  2 active torsions:
REMARK  status: ('A' for Active; 'I' for Inactive)
REMARK    1  A    between atoms: C2'_3  and  C1'_4 
REMARK    2  A    between atoms: C1'_4  and  C1_5 
ROOT
ATOM      1  C1  I4B d   1       2.519  -0.578  -1.053  0.00  0.00    -0.075 A 
ATOM      2  C2  I4B d   1       2.575  -1.342   0.086  0.00  0.00     0.003 A 
ATOM      3  C3  I4B d   1       1.813  -0.984   1.224  0.00  0.00     0.002 A 
ATOM      4  C4  I4B d   1       1.052   0.167   1.197  0.00  0.00    -0.004 A 
ATOM      5  C5  I4B d   1       0.978   0.929   0.034  0.00  0.00     0.002 A 
ATOM      6  C6  I4B d   1       1.706   0.547  -1.102  0.00  0.00     0.003 A 
ENDROOT
BRANCH   1   7
ATOM      7  C1' I4B d   1       3.362  -0.968  -2.225  0.00  0.00     0.060 C 
BRANCH   7   8
ATOM      8  C2' I4B d   1       4.567  -0.050  -2.259  0.00  0.00    -0.013 C 
ATOM      9  C4' I4B d   1       5.526  -0.449  -3.350  0.00  0.00     0.013 C 
ATOM     10  C3' I4B d   1       4.075   1.353  -2.456  0.00  0.00     0.013 C 
ENDBRANCH   7   8
ENDBRANCH   1   7
TORSDOF 2
ENDMDL
