MODEL 1
REMARK minimizedAffinity 4.7888093
REMARK minimizedRMSD -1
REMARK  2 active torsions:
REMARK  status: ('A' for Active; 'I' for Inactive)
REMARK    1  A    between atoms: C2'_3  and  C1'_4 
REMARK    2  A    between atoms: C1'_4  and  C1_5 
ROOT
ATOM      1  C1  I4B d   1       1.192  -0.936   0.853  0.00  0.00    -0.075 A 
ATOM      2  C2  I4B d   1       1.813  -1.796  -0.019  0.00  0.00     0.003 A 
ATOM      3  C3  I4B d   1       2.766  -1.306  -0.945  0.00  0.00     0.002 A 
ATOM      4  C4  I4B d   1       3.029   0.048  -0.998  0.00  0.00    -0.004 A 
ATOM      5  C5  I4B d   1       2.416   0.914  -0.097  0.00  0.00     0.002 A 
ATOM      6  C6  I4B d   1       1.501   0.418   0.842  0.00  0.00     0.003 A 
ENDROOT
BRANCH   1   7
ATOM      7  C1' I4B d   1       0.167  -1.482   1.795  0.00  0.00     0.060 C 
BRANCH   7   8
ATOM      8  C2' I4B d   1      -1.117  -0.704   1.590  0.00  0.00    -0.013 C 
ATOM      9  C4' I4B d   1      -2.280  -1.627   1.339  0.00  0.00     0.013 C 
ATOM     10  C3' I4B d   1      -1.347   0.139   2.808  0.00  0.00     0.013 C 
ENDBRANCH   7   8
ENDBRANCH   1   7
TORSDOF 2
ENDMDL
