MODEL 1
REMARK minimizedAffinity 6.20321703
REMARK minimizedRMSD -1
REMARK  2 active torsions:
REMARK  status: ('A' for Active; 'I' for Inactive)
REMARK    1  A    between atoms: C2'_3  and  C1'_4 
REMARK    2  A    between atoms: C1'_4  and  C1_5 
ROOT
ATOM      1  C1  I4B d   1       2.347  -0.713  -0.550  0.00  0.00    -0.075 A 
ATOM      2  C2  I4B d   1       1.642  -1.757  -0.005  0.00  0.00     0.003 A 
ATOM      3  C3  I4B d   1       0.979  -1.598   1.236  0.00  0.00     0.002 A 
ATOM      4  C4  I4B d   1       1.089  -0.403   1.918  0.00  0.00    -0.004 A 
ATOM      5  C5  I4B d   1       1.786   0.661   1.353  0.00  0.00     0.002 A 
ATOM      6  C6  I4B d   1       2.409   0.510   0.106  0.00  0.00     0.003 A 
ENDROOT
BRANCH   1   7
ATOM      7  C1' I4B d   1       3.062  -0.925  -1.846  0.00  0.00     0.060 C 
BRANCH   7   8
ATOM      8  C2' I4B d   1       4.211   0.060  -1.912  0.00  0.00    -0.013 C 
ATOM      9  C4' I4B d   1       5.161  -0.284  -3.029  0.00  0.00     0.013 C 
ATOM     10  C3' I4B d   1       3.635   1.432  -2.096  0.00  0.00     0.013 C 
ENDBRANCH   7   8
ENDBRANCH   1   7
TORSDOF 2
ENDMDL
