MODEL 1
REMARK minimizedAffinity 7.05587769
REMARK minimizedRMSD -1
REMARK  2 active torsions:
REMARK  status: ('A' for Active; 'I' for Inactive)
REMARK    1  A    between atoms: C2'_3  and  C1'_4 
REMARK    2  A    between atoms: C1'_4  and  C1_5 
ROOT
ATOM      1  C1  I4B d   1       3.425  -0.424  -0.737  0.00  0.00    -0.075 A 
ATOM      2  C2  I4B d   1       2.669  -1.569  -0.686  0.00  0.00     0.003 A 
ATOM      3  C3  I4B d   1       1.328  -1.518  -0.234  0.00  0.00     0.002 A 
ATOM      4  C4  I4B d   1       0.803  -0.319   0.203  0.00  0.00    -0.004 A 
ATOM      5  C5  I4B d   1       1.564   0.844   0.129  0.00  0.00     0.002 A 
ATOM      6  C6  I4B d   1       2.879   0.794  -0.355  0.00  0.00     0.003 A 
ENDROOT
BRANCH   1   7
ATOM      7  C1' I4B d   1       4.848  -0.520  -1.189  0.00  0.00     0.060 C 
BRANCH   7   8
ATOM      8  C2' I4B d   1       4.911  -0.058  -2.631  0.00  0.00    -0.013 C 
ATOM      9  C4' I4B d   1       5.203   1.417  -2.719  0.00  0.00     0.013 C 
ATOM     10  C3' I4B d   1       5.968  -0.862  -3.328  0.00  0.00     0.013 C 
ENDBRANCH   7   8
ENDBRANCH   1   7
TORSDOF 2
ENDMDL
