MODEL 1
REMARK minimizedAffinity 5.66000366
REMARK minimizedRMSD -1
REMARK  2 active torsions:
REMARK  status: ('A' for Active; 'I' for Inactive)
REMARK    1  A    between atoms: C2'_3  and  C1'_4 
REMARK    2  A    between atoms: C1'_4  and  C1_5 
ROOT
ATOM      1  C1  I4B d   1       0.203  -1.037   1.410  0.00  0.00    -0.075 A 
ATOM      2  C2  I4B d   1       0.578  -1.828   0.352  0.00  0.00     0.003 A 
ATOM      3  C3  I4B d   1       1.486  -1.338  -0.618  0.00  0.00     0.002 A 
ATOM      4  C4  I4B d   1       1.952  -0.043  -0.520  0.00  0.00    -0.004 A 
ATOM      5  C5  I4B d   1       1.589   0.749   0.566  0.00  0.00     0.002 A 
ATOM      6  C6  I4B d   1       0.719   0.245   1.543  0.00  0.00     0.003 A 
ENDROOT
BRANCH   1   7
ATOM      7  C1' I4B d   1      -0.783  -1.575   2.398  0.00  0.00     0.060 C 
BRANCH   7   8
ATOM      8  C2' I4B d   1      -2.023  -1.998   1.637  0.00  0.00    -0.013 C 
ATOM      9  C4' I4B d   1      -2.209  -3.492   1.684  0.00  0.00     0.013 C 
ATOM     10  C3' I4B d   1      -3.199  -1.286   2.236  0.00  0.00     0.013 C 
ENDBRANCH   7   8
ENDBRANCH   1   7
TORSDOF 2
ENDMDL
