MODEL 1
REMARK minimizedAffinity 5.427248
REMARK minimizedRMSD -1
REMARK  2 active torsions:
REMARK  status: ('A' for Active; 'I' for Inactive)
REMARK    1  A    between atoms: C2'_3  and  C1'_4 
REMARK    2  A    between atoms: C1'_4  and  C1_5 
ROOT
ATOM      1  C1  I4B d   1       0.743  -0.569   1.372  0.00  0.00    -0.075 A 
ATOM      2  C2  I4B d   1       1.099  -1.326   0.284  0.00  0.00     0.003 A 
ATOM      3  C3  I4B d   1       1.843  -0.748  -0.773  0.00  0.00     0.002 A 
ATOM      4  C4  I4B d   1       2.164   0.594  -0.725  0.00  0.00    -0.004 A 
ATOM      5  C5  I4B d   1       1.822   1.353   0.390  0.00  0.00     0.002 A 
ATOM      6  C6  I4B d   1       1.118   0.766   1.451  0.00  0.00     0.003 A 
ENDROOT
BRANCH   1   7
ATOM      7  C1' I4B d   1      -0.070  -1.203   2.456  0.00  0.00     0.060 C 
BRANCH   7   8
ATOM      8  C2' I4B d   1      -1.494  -0.702   2.324  0.00  0.00    -0.013 C 
ATOM      9  C4' I4B d   1      -2.474  -1.845   2.293  0.00  0.00     0.013 C 
ATOM     10  C3' I4B d   1      -1.770   0.217   3.477  0.00  0.00     0.013 C 
ENDBRANCH   7   8
ENDBRANCH   1   7
TORSDOF 2
ENDMDL
