MODEL 1
REMARK minimizedAffinity 9.51049709
REMARK minimizedRMSD -1
REMARK  2 active torsions:
REMARK  status: ('A' for Active; 'I' for Inactive)
REMARK    1  A    between atoms: C2'_3  and  C1'_4 
REMARK    2  A    between atoms: C1'_4  and  C1_5 
ROOT
ATOM      1  C1  I4B d   1      -0.531   3.749  -3.534  0.00  0.00    -0.075 A 
ATOM      2  C2  I4B d   1      -1.887   3.541  -3.550  0.00  0.00     0.003 A 
ATOM      3  C3  I4B d   1      -2.406   2.246  -3.791  0.00  0.00     0.002 A 
ATOM      4  C4  I4B d   1      -1.540   1.205  -4.059  0.00  0.00    -0.004 A 
ATOM      5  C5  I4B d   1      -0.165   1.414  -4.019  0.00  0.00     0.002 A 
ATOM      6  C6  I4B d   1       0.344   2.691  -3.742  0.00  0.00     0.003 A 
ENDROOT
BRANCH   1   7
ATOM      7  C1' I4B d   1      -0.018   5.136  -3.309  0.00  0.00     0.060 C 
BRANCH   7   8
ATOM      8  C2' I4B d   1      -0.439   5.570  -1.919  0.00  0.00    -0.013 C 
ATOM      9  C4' I4B d   1      -1.882   5.999  -1.896  0.00  0.00     0.013 C 
ATOM     10  C3' I4B d   1      -0.200   4.423  -0.984  0.00  0.00     0.013 C 
ENDBRANCH   7   8
ENDBRANCH   1   7
TORSDOF 2
ENDMDL
