MODEL 1
REMARK minimizedAffinity 4.16907787
REMARK minimizedRMSD -1
REMARK  2 active torsions:
REMARK  status: ('A' for Active; 'I' for Inactive)
REMARK    1  A    between atoms: C2'_3  and  C1'_4 
REMARK    2  A    between atoms: C1'_4  and  C1_5 
ROOT
ATOM      1  C1  I4B d   1       1.320  -0.735  -0.716  0.00  0.00    -0.075 A 
ATOM      2  C2  I4B d   1       0.459  -1.322   0.177  0.00  0.00     0.003 A 
ATOM      3  C3  I4B d   1       0.012  -0.605   1.313  0.00  0.00     0.002 A 
ATOM      4  C4  I4B d   1       0.488   0.670   1.542  0.00  0.00    -0.004 A 
ATOM      5  C5  I4B d   1       1.343   1.272   0.624  0.00  0.00     0.002 A 
ATOM      6  C6  I4B d   1       1.753   0.570  -0.519  0.00  0.00     0.003 A 
ENDROOT
BRANCH   1   7
ATOM      7  C1' I4B d   1       1.798  -1.533  -1.888  0.00  0.00     0.060 C 
BRANCH   7   8
ATOM      8  C2' I4B d   1       3.212  -1.992  -1.595  0.00  0.00    -0.013 C 
ATOM      9  C4' I4B d   1       4.211  -1.253  -2.446  0.00  0.00     0.013 C 
ATOM     10  C3' I4B d   1       3.477  -1.773  -0.135  0.00  0.00     0.013 C 
ENDBRANCH   7   8
ENDBRANCH   1   7
TORSDOF 2
ENDMDL
