MODEL 1
REMARK minimizedAffinity 9.29716587
REMARK minimizedRMSD -1
REMARK  2 active torsions:
REMARK  status: ('A' for Active; 'I' for Inactive)
REMARK    1  A    between atoms: C2'_3  and  C1'_4 
REMARK    2  A    between atoms: C1'_4  and  C1_5 
ROOT
ATOM      1  C1  I4B d   1       1.622   0.180   0.641  0.00  0.00    -0.075 A 
ATOM      2  C2  I4B d   1       1.633   0.277   2.010  0.00  0.00     0.003 A 
ATOM      3  C3  I4B d   1       2.227   1.397   2.640  0.00  0.00     0.002 A 
ATOM      4  C4  I4B d   1       2.839   2.365   1.870  0.00  0.00    -0.004 A 
ATOM      5  C5  I4B d   1       2.806   2.277   0.482  0.00  0.00     0.002 A 
ATOM      6  C6  I4B d   1       2.183   1.184  -0.138  0.00  0.00     0.003 A 
ENDROOT
BRANCH   1   7
ATOM      7  C1' I4B d   1       1.015  -1.032   0.009  0.00  0.00     0.060 C 
BRANCH   7   8
ATOM      8  C2' I4B d   1       1.901  -2.219   0.330  0.00  0.00    -0.013 C 
ATOM      9  C4' I4B d   1       1.086  -3.402   0.781  0.00  0.00     0.013 C 
ATOM     10  C3' I4B d   1       2.699  -2.546  -0.897  0.00  0.00     0.013 C 
ENDBRANCH   7   8
ENDBRANCH   1   7
TORSDOF 2
ENDMDL
