MODEL 1
REMARK minimizedAffinity 1.85484505
REMARK minimizedRMSD -1
REMARK  2 active torsions:
REMARK  status: ('A' for Active; 'I' for Inactive)
REMARK    1  A    between atoms: C2'_3  and  C1'_4 
REMARK    2  A    between atoms: C1'_4  and  C1_5 
ROOT
ATOM      1  C1  I4B d   1       2.772  -0.600  -1.062  0.00  0.00    -0.075 A 
ATOM      2  C2  I4B d   1       2.465   0.736  -0.994  0.00  0.00     0.003 A 
ATOM      3  C3  I4B d   1       3.184   1.673  -1.775  0.00  0.00     0.002 A 
ATOM      4  C4  I4B d   1       4.228   1.240  -2.566  0.00  0.00    -0.004 A 
ATOM      5  C5  I4B d   1       4.524  -0.118  -2.650  0.00  0.00     0.002 A 
ATOM      6  C6  I4B d   1       3.783  -1.045  -1.903  0.00  0.00     0.003 A 
ENDROOT
BRANCH   1   7
ATOM      7  C1' I4B d   1       2.015  -1.559  -0.199  0.00  0.00     0.060 C 
BRANCH   7   8
ATOM      8  C2' I4B d   1       0.928  -0.783   0.518  0.00  0.00    -0.013 C 
ATOM      9  C4' I4B d   1      -0.112  -1.708   1.094  0.00  0.00     0.013 C 
ATOM     10  C3' I4B d   1       1.577   0.038   1.592  0.00  0.00     0.013 C 
ENDBRANCH   7   8
ENDBRANCH   1   7
TORSDOF 2
ENDMDL
