MODEL 1
REMARK minimizedAffinity 8.06314945
REMARK minimizedRMSD -1
REMARK  2 active torsions:
REMARK  status: ('A' for Active; 'I' for Inactive)
REMARK    1  A    between atoms: C2'_3  and  C1'_4 
REMARK    2  A    between atoms: C1'_4  and  C1_5 
ROOT
ATOM      1  C1  I4B d   1       1.036  -1.968   0.583  0.00  0.00    -0.075 A 
ATOM      2  C2  I4B d   1       0.719  -0.769   1.172  0.00  0.00     0.003 A 
ATOM      3  C3  I4B d   1       1.416   0.409   0.810  0.00  0.00     0.002 A 
ATOM      4  C4  I4B d   1       2.449   0.335  -0.102  0.00  0.00    -0.004 A 
ATOM      5  C5  I4B d   1       2.753  -0.877  -0.715  0.00  0.00     0.002 A 
ATOM      6  C6  I4B d   1       2.035  -2.034  -0.380  0.00  0.00     0.003 A 
ENDROOT
BRANCH   1   7
ATOM      7  C1' I4B d   1       0.302  -3.199   1.012  0.00  0.00     0.060 C 
BRANCH   7   8
ATOM      8  C2' I4B d   1       1.234  -4.019   1.880  0.00  0.00    -0.013 C 
ATOM      9  C4' I4B d   1       1.028  -3.715   3.341  0.00  0.00     0.013 C 
ATOM     10  C3' I4B d   1       0.984  -5.468   1.588  0.00  0.00     0.013 C 
ENDBRANCH   7   8
ENDBRANCH   1   7
TORSDOF 2
ENDMDL
