MODEL 1
REMARK minimizedAffinity 4.12591982
REMARK minimizedRMSD -1
REMARK  2 active torsions:
REMARK  status: ('A' for Active; 'I' for Inactive)
REMARK    1  A    between atoms: C2'_3  and  C1'_4 
REMARK    2  A    between atoms: C1'_4  and  C1_5 
ROOT
ATOM      1  C1  I4B d   1       1.527  -0.967  -0.325  0.00  0.00    -0.075 A 
ATOM      2  C2  I4B d   1       0.858  -0.822   0.866  0.00  0.00     0.003 A 
ATOM      3  C3  I4B d   1       0.597   0.470   1.383  0.00  0.00     0.002 A 
ATOM      4  C4  I4B d   1       1.062   1.580   0.708  0.00  0.00    -0.004 A 
ATOM      5  C5  I4B d   1       1.719   1.432  -0.510  0.00  0.00     0.002 A 
ATOM      6  C6  I4B d   1       1.942   0.151  -1.036  0.00  0.00     0.003 A 
ENDROOT
BRANCH   1   7
ATOM      7  C1' I4B d   1       1.815  -2.347  -0.826  0.00  0.00     0.060 C 
BRANCH   7   8
ATOM      8  C2' I4B d   1       2.640  -2.221  -2.090  0.00  0.00    -0.013 C 
ATOM      9  C4' I4B d   1       3.958  -1.546  -1.816  0.00  0.00     0.013 C 
ATOM     10  C3' I4B d   1       2.843  -3.598  -2.650  0.00  0.00     0.013 C 
ENDBRANCH   7   8
ENDBRANCH   1   7
TORSDOF 2
ENDMDL
