MODEL 1
REMARK minimizedAffinity 6.4356184
REMARK minimizedRMSD -1
REMARK  2 active torsions:
REMARK  status: ('A' for Active; 'I' for Inactive)
REMARK    1  A    between atoms: C2'_3  and  C1'_4 
REMARK    2  A    between atoms: C1'_4  and  C1_5 
ROOT
ATOM      1  C1  I4B d   1       0.181   2.450  -4.201  0.00  0.00    -0.075 A 
ATOM      2  C2  I4B d   1      -0.492   3.439  -3.529  0.00  0.00     0.003 A 
ATOM      3  C3  I4B d   1      -1.903   3.389  -3.412  0.00  0.00     0.002 A 
ATOM      4  C4  I4B d   1      -2.599   2.365  -4.021  0.00  0.00    -0.004 A 
ATOM      5  C5  I4B d   1      -1.912   1.350  -4.682  0.00  0.00     0.002 A 
ATOM      6  C6  I4B d   1      -0.513   1.386  -4.762  0.00  0.00     0.003 A 
ENDROOT
BRANCH   1   7
ATOM      7  C1' I4B d   1       1.668   2.552  -4.333  0.00  0.00     0.060 C 
BRANCH   7   8
ATOM      8  C2' I4B d   1       1.972   3.281  -5.626  0.00  0.00    -0.013 C 
ATOM      9  C4' I4B d   1       1.733   4.761  -5.486  0.00  0.00     0.013 C 
ATOM     10  C3' I4B d   1       3.398   2.996  -5.994  0.00  0.00     0.013 C 
ENDBRANCH   7   8
ENDBRANCH   1   7
TORSDOF 2
ENDMDL
