MODEL 1
REMARK minimizedAffinity -2.1422925
REMARK minimizedRMSD -1
REMARK  1 active torsions:
REMARK  status: ('A' for Active; 'I' for Inactive)
REMARK    1  A    between atoms: N_2  and  C1_3 
ROOT
ATOM      1  C1  UNL d   1       4.237   0.490   1.691  0.00  0.00     0.143 A 
ATOM      2  C2  UNL d   1       3.692  -0.284   2.721  0.00  0.00    -0.057 A 
ATOM      3  C3  UNL d   1       2.412  -0.024   3.226  0.00  0.00     0.033 A 
ATOM      4  C4  UNL d   1       1.663   1.037   2.727  0.00  0.00    -0.042 A 
ATOM      5  C5  UNL d   1       2.195   1.835   1.720  0.00  0.00     0.033 A 
ATOM      6  C6  UNL d   1       3.471   1.566   1.215  0.00  0.00    -0.057 A 
ENDROOT
BRANCH   1   7
ATOM      7  N   UNL d   1       5.542   0.343   1.215  0.00  0.00    -0.732 N 
ATOM      8  C   UNL d   1       5.897   0.794  -0.114  0.00  0.00     0.284 C 
ATOM      9  H3  UNL d   1       6.240   0.552   1.925  0.00  0.00     0.395 HD
ENDBRANCH   1   7
TORSDOF 1
ENDMDL
