MODEL 1
REMARK minimizedAffinity 0.455065906
REMARK minimizedRMSD -1
REMARK  1 active torsions:
REMARK  status: ('A' for Active; 'I' for Inactive)
REMARK    1  A    between atoms: N_2  and  C1_3 
ROOT
ATOM      1  C1  UNL d   1       3.725   1.210  -1.014  0.00  0.00     0.143 A 
ATOM      2  C2  UNL d   1       2.617   1.504  -0.213  0.00  0.00    -0.057 A 
ATOM      3  C3  UNL d   1       2.465   0.931   1.055  0.00  0.00     0.033 A 
ATOM      4  C4  UNL d   1       3.408   0.027   1.534  0.00  0.00    -0.042 A 
ATOM      5  C5  UNL d   1       4.504  -0.300   0.744  0.00  0.00     0.033 A 
ATOM      6  C6  UNL d   1       4.654   0.281  -0.519  0.00  0.00    -0.057 A 
ENDROOT
BRANCH   1   7
ATOM      7  N   UNL d   1       3.882   1.671  -2.324  0.00  0.00    -0.732 N 
ATOM      8  C   UNL d   1       2.734   1.847  -3.186  0.00  0.00     0.284 C 
ATOM      9  H3  UNL d   1       4.572   2.415  -2.393  0.00  0.00     0.395 HD
ENDBRANCH   1   7
TORSDOF 1
ENDMDL
