MODEL 1
REMARK minimizedAffinity 6.12682152
REMARK minimizedRMSD -1
REMARK  1 active torsions:
REMARK  status: ('A' for Active; 'I' for Inactive)
REMARK    1  A    between atoms: N_2  and  C1_3 
ROOT
ATOM      1  C1  UNL d   1      -4.370  -3.362  -2.629  0.00  0.00     0.143 A 
ATOM      2  C2  UNL d   1      -3.741  -3.004  -1.432  0.00  0.00    -0.057 A 
ATOM      3  C3  UNL d   1      -2.393  -2.627  -1.404  0.00  0.00     0.033 A 
ATOM      4  C4  UNL d   1      -1.640  -2.628  -2.574  0.00  0.00    -0.042 A 
ATOM      5  C5  UNL d   1      -2.238  -3.003  -3.772  0.00  0.00     0.033 A 
ATOM      6  C6  UNL d   1      -3.587  -3.373  -3.794  0.00  0.00    -0.057 A 
ENDROOT
BRANCH   1   7
ATOM      7  N   UNL d   1      -5.680  -3.841  -2.706  0.00  0.00    -0.732 N 
ATOM      8  C   UNL d   1      -6.000  -5.185  -2.275  0.00  0.00     0.284 C 
ATOM      9  H3  UNL d   1      -6.366  -3.142  -2.431  0.00  0.00     0.395 HD
ENDBRANCH   1   7
TORSDOF 1
ENDMDL
