MODEL 1
REMARK minimizedAffinity 8.17960453
REMARK minimizedRMSD -1
REMARK  1 active torsions:
REMARK  status: ('A' for Active; 'I' for Inactive)
REMARK    1  A    between atoms: N_2  and  C1_3 
ROOT
ATOM      1  C1  UNL d   1      -1.552  -3.561  -3.638  0.00  0.00     0.143 A 
ATOM      2  C2  UNL d   1      -2.624  -2.907  -3.021  0.00  0.00    -0.057 A 
ATOM      3  C3  UNL d   1      -2.636  -2.674  -1.641  0.00  0.00     0.033 A 
ATOM      4  C4  UNL d   1      -1.585  -3.119  -0.845  0.00  0.00    -0.042 A 
ATOM      5  C5  UNL d   1      -0.521  -3.793  -1.433  0.00  0.00     0.033 A 
ATOM      6  C6  UNL d   1      -0.512  -4.017  -2.813  0.00  0.00    -0.057 A 
ENDROOT
BRANCH   1   7
ATOM      7  N   UNL d   1      -1.527  -3.909  -4.990  0.00  0.00    -0.732 N 
ATOM      8  C   UNL d   1      -1.171  -2.932  -5.997  0.00  0.00     0.284 C 
ATOM      9  H3  UNL d   1      -1.126  -4.831  -5.146  0.00  0.00     0.395 HD
ENDBRANCH   1   7
TORSDOF 1
ENDMDL
