MODEL 1
REMARK minimizedAffinity 3.98427343
REMARK minimizedRMSD -1
REMARK  1 active torsions:
REMARK  status: ('A' for Active; 'I' for Inactive)
REMARK    1  A    between atoms: N_2  and  C1_3 
ROOT
ATOM      1  C1  UNL d   1       5.349   1.652   0.872  0.00  0.00     0.143 A 
ATOM      2  C2  UNL d   1       5.808   0.415   1.337  0.00  0.00    -0.057 A 
ATOM      3  C3  UNL d   1       5.063  -0.755   1.147  0.00  0.00     0.033 A 
ATOM      4  C4  UNL d   1       3.827  -0.704   0.511  0.00  0.00    -0.042 A 
ATOM      5  C5  UNL d   1       3.339   0.518   0.062  0.00  0.00     0.033 A 
ATOM      6  C6  UNL d   1       4.091   1.682   0.249  0.00  0.00    -0.057 A 
ENDROOT
BRANCH   1   7
ATOM      7  N   UNL d   1       5.997   2.865   1.117  0.00  0.00    -0.732 N 
ATOM      8  C   UNL d   1       5.253   4.105   1.147  0.00  0.00     0.284 C 
ATOM      9  H3  UNL d   1       6.705   2.787   1.843  0.00  0.00     0.395 HD
ENDBRANCH   1   7
TORSDOF 1
ENDMDL
