MODEL 1
REMARK minimizedAffinity 1.49373996
REMARK minimizedRMSD -1
REMARK  1 active torsions:
REMARK  status: ('A' for Active; 'I' for Inactive)
REMARK    1  A    between atoms: N_2  and  C1_3 
ROOT
ATOM      1  C1  UNL d   1       3.616   0.184   0.006  0.00  0.00     0.143 A 
ATOM      2  C2  UNL d   1       2.381   0.752   0.338  0.00  0.00    -0.057 A 
ATOM      3  C3  UNL d   1       1.765   1.691  -0.497  0.00  0.00     0.033 A 
ATOM      4  C4  UNL d   1       2.389   2.104  -1.669  0.00  0.00    -0.042 A 
ATOM      5  C5  UNL d   1       3.628   1.572  -2.008  0.00  0.00     0.033 A 
ATOM      6  C6  UNL d   1       4.235   0.629  -1.173  0.00  0.00    -0.057 A 
ENDROOT
BRANCH   1   7
ATOM      7  N   UNL d   1       4.325  -0.681   0.842  0.00  0.00    -0.732 N 
ATOM      8  C   UNL d   1       5.771  -0.644   0.884  0.00  0.00     0.284 C 
ATOM      9  H3  UNL d   1       3.885  -0.787   1.753  0.00  0.00     0.395 HD
ENDBRANCH   1   7
TORSDOF 1
ENDMDL
