MODEL 1
REMARK minimizedAffinity 2.94116783
REMARK minimizedRMSD -1
REMARK  1 active torsions:
REMARK  status: ('A' for Active; 'I' for Inactive)
REMARK    1  A    between atoms: N_2  and  C1_3 
ROOT
ATOM      1  C1  UNL d   1       3.625   0.220   0.075  0.00  0.00     0.143 A 
ATOM      2  C2  UNL d   1       2.438   0.869   0.429  0.00  0.00    -0.057 A 
ATOM      3  C3  UNL d   1       1.810   1.763  -0.447  0.00  0.00     0.033 A 
ATOM      4  C4  UNL d   1       2.377   2.047  -1.685  0.00  0.00    -0.042 A 
ATOM      5  C5  UNL d   1       3.570   1.433  -2.047  0.00  0.00     0.033 A 
ATOM      6  C6  UNL d   1       4.189   0.536  -1.171  0.00  0.00    -0.057 A 
ENDROOT
BRANCH   1   7
ATOM      7  N   UNL d   1       4.349  -0.604   0.940  0.00  0.00    -0.732 N 
ATOM      8  C   UNL d   1       4.430  -0.300   2.353  0.00  0.00     0.284 C 
ATOM      9  H3  UNL d   1       4.220  -1.592   0.735  0.00  0.00     0.395 HD
ENDBRANCH   1   7
TORSDOF 1
ENDMDL
