MODEL 1
REMARK minimizedAffinity 2.04725409
REMARK minimizedRMSD -1
REMARK  1 active torsions:
REMARK  status: ('A' for Active; 'I' for Inactive)
REMARK    1  A    between atoms: N_2  and  C1_3 
ROOT
ATOM      1  C1  UNL d   1       3.774   1.515   0.602  0.00  0.00     0.143 A 
ATOM      2  C2  UNL d   1       4.818   2.291   1.116  0.00  0.00    -0.057 A 
ATOM      3  C3  UNL d   1       5.928   1.700   1.731  0.00  0.00     0.033 A 
ATOM      4  C4  UNL d   1       6.000   0.317   1.869  0.00  0.00    -0.042 A 
ATOM      5  C5  UNL d   1       4.962  -0.473   1.387  0.00  0.00     0.033 A 
ATOM      6  C6  UNL d   1       3.859   0.123   0.768  0.00  0.00    -0.057 A 
ENDROOT
BRANCH   1   7
ATOM      7  N   UNL d   1       2.598   2.048   0.068  0.00  0.00    -0.732 N 
ATOM      8  C   UNL d   1       1.337   1.891   0.761  0.00  0.00     0.284 C 
ATOM      9  H3  UNL d   1       2.739   2.971  -0.336  0.00  0.00     0.395 HD
ENDBRANCH   1   7
TORSDOF 1
ENDMDL
