MODEL 1
REMARK minimizedAffinity 10.9835548
REMARK minimizedRMSD -1
REMARK  1 active torsions:
REMARK  status: ('A' for Active; 'I' for Inactive)
REMARK    1  A    between atoms: N_2  and  C1_3 
ROOT
ATOM      1  C1  UNL d   1      -1.623  -2.653  -1.086  0.00  0.00     0.143 A 
ATOM      2  C2  UNL d   1      -1.429  -2.373  -2.443  0.00  0.00    -0.057 A 
ATOM      3  C3  UNL d   1      -2.461  -2.540  -3.374  0.00  0.00     0.033 A 
ATOM      4  C4  UNL d   1      -3.701  -3.020  -2.967  0.00  0.00    -0.042 A 
ATOM      5  C5  UNL d   1      -3.910  -3.329  -1.628  0.00  0.00     0.033 A 
ATOM      6  C6  UNL d   1      -2.877  -3.153  -0.701  0.00  0.00    -0.057 A 
ENDROOT
BRANCH   1   7
ATOM      7  N   UNL d   1      -0.608  -2.600  -0.127  0.00  0.00    -0.732 N 
ATOM      8  C   UNL d   1       0.762  -2.897  -0.488  0.00  0.00     0.284 C 
ATOM      9  H3  UNL d   1      -0.710  -1.808   0.503  0.00  0.00     0.395 HD
ENDBRANCH   1   7
TORSDOF 1
ENDMDL
