MODEL 1
REMARK minimizedAffinity 0.717983425
REMARK minimizedRMSD -1
REMARK  1 active torsions:
REMARK  status: ('A' for Active; 'I' for Inactive)
REMARK    1  A    between atoms: N_2  and  C1_3 
ROOT
ATOM      1  C1  UNL d   1       3.732   0.218   1.234  0.00  0.00     0.143 A 
ATOM      2  C2  UNL d   1       2.420   0.003   1.668  0.00  0.00    -0.057 A 
ATOM      3  C3  UNL d   1       1.409   0.939   1.416  0.00  0.00     0.033 A 
ATOM      4  C4  UNL d   1       1.701   2.124   0.748  0.00  0.00    -0.042 A 
ATOM      5  C5  UNL d   1       3.003   2.370   0.329  0.00  0.00     0.033 A 
ATOM      6  C6  UNL d   1       4.007   1.429   0.578  0.00  0.00    -0.057 A 
ENDROOT
BRANCH   1   7
ATOM      7  N   UNL d   1       4.801  -0.628   1.539  0.00  0.00    -0.732 N 
ATOM      8  C   UNL d   1       5.997  -0.107   2.167  0.00  0.00     0.284 C 
ATOM      9  H3  UNL d   1       4.493  -1.524   1.910  0.00  0.00     0.395 HD
ENDBRANCH   1   7
TORSDOF 1
ENDMDL
