MODEL 1
REMARK minimizedAffinity 12.0285044
REMARK minimizedRMSD -1
REMARK  1 active torsions:
REMARK  status: ('A' for Active; 'I' for Inactive)
REMARK    1  A    between atoms: N_2  and  C1_3 
ROOT
ATOM      1  C1  UNL d   1      -4.195   5.429  -1.503  0.00  0.00     0.143 A 
ATOM      2  C2  UNL d   1      -4.179   4.277  -0.710  0.00  0.00    -0.057 A 
ATOM      3  C3  UNL d   1      -2.977   3.740  -0.234  0.00  0.00     0.033 A 
ATOM      4  C4  UNL d   1      -1.763   4.331  -0.568  0.00  0.00    -0.042 A 
ATOM      5  C5  UNL d   1      -1.753   5.463  -1.375  0.00  0.00     0.033 A 
ATOM      6  C6  UNL d   1      -2.957   5.998  -1.843  0.00  0.00    -0.057 A 
ENDROOT
BRANCH   1   7
ATOM      7  N   UNL d   1      -5.349   5.955  -2.089  0.00  0.00    -0.732 N 
ATOM      8  C   UNL d   1      -5.491   5.998  -3.528  0.00  0.00     0.284 C 
ATOM      9  H3  UNL d   1      -6.195   5.679  -1.595  0.00  0.00     0.395 HD
ENDBRANCH   1   7
TORSDOF 1
ENDMDL
