MODEL 1
REMARK minimizedAffinity 7.43582296
REMARK minimizedRMSD -1
REMARK  1 active torsions:
REMARK  status: ('A' for Active; 'I' for Inactive)
REMARK    1  A    between atoms: N_2  and  C1_3 
ROOT
ATOM      1  C1  UNL d   1      -2.182  -2.484  -3.806  0.00  0.00     0.143 A 
ATOM      2  C2  UNL d   1      -1.586  -1.799  -2.742  0.00  0.00    -0.057 A 
ATOM      3  C3  UNL d   1      -1.924  -2.086  -1.413  0.00  0.00     0.033 A 
ATOM      4  C4  UNL d   1      -2.889  -3.046  -1.127  0.00  0.00    -0.042 A 
ATOM      5  C5  UNL d   1      -3.512  -3.722  -2.169  0.00  0.00     0.033 A 
ATOM      6  C6  UNL d   1      -3.166  -3.436  -3.493  0.00  0.00    -0.057 A 
ENDROOT
BRANCH   1   7
ATOM      7  N   UNL d   1      -1.961  -2.176  -5.150  0.00  0.00    -0.732 N 
ATOM      8  C   UNL d   1      -1.212  -3.077  -6.000  0.00  0.00     0.284 C 
ATOM      9  H3  UNL d   1      -2.781  -1.770  -5.596  0.00  0.00     0.395 HD
ENDBRANCH   1   7
TORSDOF 1
ENDMDL
