MODEL 1
REMARK minimizedAffinity 9.58564854
REMARK minimizedRMSD -1
REMARK  1 active torsions:
REMARK  status: ('A' for Active; 'I' for Inactive)
REMARK    1  A    between atoms: N_2  and  C1_3 
ROOT
ATOM      1  C1  UNL d   1       3.736   1.172  -1.593  0.00  0.00     0.143 A 
ATOM      2  C2  UNL d   1       2.613   1.035  -0.769  0.00  0.00    -0.057 A 
ATOM      3  C3  UNL d   1       2.640   0.217   0.366  0.00  0.00     0.033 A 
ATOM      4  C4  UNL d   1       3.786  -0.505   0.683  0.00  0.00    -0.042 A 
ATOM      5  C5  UNL d   1       4.906  -0.404  -0.135  0.00  0.00     0.033 A 
ATOM      6  C6  UNL d   1       4.875   0.420  -1.264  0.00  0.00    -0.057 A 
ENDROOT
BRANCH   1   7
ATOM      7  N   UNL d   1       3.740   1.892  -2.790  0.00  0.00    -0.732 N 
ATOM      8  C   UNL d   1       3.937   1.219  -4.055  0.00  0.00     0.284 C 
ATOM      9  H3  UNL d   1       3.024   2.615  -2.810  0.00  0.00     0.395 HD
ENDBRANCH   1   7
TORSDOF 1
ENDMDL
