MODEL 1
REMARK minimizedAffinity 0.155870199
REMARK minimizedRMSD -1
REMARK  1 active torsions:
REMARK  status: ('A' for Active; 'I' for Inactive)
REMARK    1  A    between atoms: N_2  and  C1_3 
ROOT
ATOM      1  C1  UNL d   1      -2.625  -3.728  -0.422  0.00  0.00     0.143 A 
ATOM      2  C2  UNL d   1      -2.232  -2.787  -1.381  0.00  0.00    -0.057 A 
ATOM      3  C3  UNL d   1      -2.531  -2.964  -2.737  0.00  0.00     0.033 A 
ATOM      4  C4  UNL d   1      -3.205  -4.103  -3.164  0.00  0.00    -0.042 A 
ATOM      5  C5  UNL d   1      -3.584  -5.063  -2.232  0.00  0.00     0.033 A 
ATOM      6  C6  UNL d   1      -3.288  -4.878  -0.878  0.00  0.00    -0.057 A 
ENDROOT
BRANCH   1   7
ATOM      7  N   UNL d   1      -2.272  -3.657   0.927  0.00  0.00    -0.732 N 
ATOM      8  C   UNL d   1      -0.880  -3.646   1.326  0.00  0.00     0.284 C 
ATOM      9  H3  UNL d   1      -2.859  -3.011   1.449  0.00  0.00     0.395 HD
ENDBRANCH   1   7
TORSDOF 1
ENDMDL
