MODEL 1
REMARK minimizedAffinity 2.88753223
REMARK minimizedRMSD -1
REMARK  1 active torsions:
REMARK  status: ('A' for Active; 'I' for Inactive)
REMARK    1  A    between atoms: C1_2  and  C2_3 
ROOT
ATOM      1  C2  UNL d   1      -0.573   3.081   3.439  0.00  0.00    -0.073 A 
ATOM      2  C3  UNL d   1       0.507   3.487   2.647  0.00  0.00    -0.002 A 
ATOM      3  C4  UNL d   1       0.682   2.957   1.368  0.00  0.00     0.004 A 
ATOM      4  C5  UNL d   1      -0.224   2.024   0.864  0.00  0.00    -0.004 A 
ATOM      5  C6  UNL d   1      -1.317   1.614   1.636  0.00  0.00    -0.075 A 
ATOM      6  C7  UNL d   1      -2.299   0.609   1.110  0.00  0.00     0.076 C 
ATOM      7  C8  UNL d   1      -1.483   2.148   2.921  0.00  0.00     0.001 A 
ENDROOT
BRANCH   1   8
ATOM      8  C1  UNL d   1      -0.769   3.654   4.818  0.00  0.00     0.053 C 
ATOM      9  C   UNL d   1      -2.179   3.420   5.337  0.00  0.00     0.018 C 
ENDBRANCH   1   8
TORSDOF 1
ENDMDL
