MODEL 1
REMARK minimizedAffinity 3.98011756
REMARK minimizedRMSD -1
REMARK  1 active torsions:
REMARK  status: ('A' for Active; 'I' for Inactive)
REMARK    1  A    between atoms: C1_2  and  C2_3 
ROOT
ATOM      1  C2  UNL d   1       2.396  -5.610  -4.679  0.00  0.00    -0.073 A 
ATOM      2  C3  UNL d   1       1.762  -5.923  -3.472  0.00  0.00    -0.002 A 
ATOM      3  C4  UNL d   1       2.498  -5.999  -2.288  0.00  0.00     0.004 A 
ATOM      4  C5  UNL d   1       3.871  -5.757  -2.299  0.00  0.00    -0.004 A 
ATOM      5  C6  UNL d   1       4.521  -5.431  -3.494  0.00  0.00    -0.075 A 
ATOM      6  C7  UNL d   1       5.998  -5.169  -3.523  0.00  0.00     0.076 C 
ATOM      7  C8  UNL d   1       3.775  -5.359  -4.679  0.00  0.00     0.001 A 
ENDROOT
BRANCH   1   8
ATOM      8  C1  UNL d   1       1.604  -5.520  -5.958  0.00  0.00     0.053 C 
ATOM      9  C   UNL d   1       0.725  -4.280  -5.999  0.00  0.00     0.018 C 
ENDBRANCH   1   8
TORSDOF 1
ENDMDL
