MODEL 1
REMARK minimizedAffinity 5.19856787
REMARK minimizedRMSD -1
REMARK  1 active torsions:
REMARK  status: ('A' for Active; 'I' for Inactive)
REMARK    1  A    between atoms: C1_2  and  C2_3 
ROOT
ATOM      1  C2  UNL d   1       3.613  -3.416  -3.986  0.00  0.00    -0.073 A 
ATOM      2  C3  UNL d   1       4.398  -2.262  -3.891  0.00  0.00    -0.002 A 
ATOM      3  C4  UNL d   1       4.002  -1.205  -3.071  0.00  0.00     0.004 A 
ATOM      4  C5  UNL d   1       2.821  -1.293  -2.333  0.00  0.00    -0.004 A 
ATOM      5  C6  UNL d   1       2.029  -2.443  -2.405  0.00  0.00    -0.075 A 
ATOM      6  C7  UNL d   1       0.755  -2.553  -1.620  0.00  0.00     0.076 C 
ATOM      7  C8  UNL d   1       2.432  -3.499  -3.233  0.00  0.00     0.001 A 
ENDROOT
BRANCH   1   8
ATOM      8  C1  UNL d   1       4.040  -4.563  -4.865  0.00  0.00     0.053 C 
ATOM      9  C   UNL d   1       5.490  -4.435  -5.303  0.00  0.00     0.018 C 
ENDBRANCH   1   8
TORSDOF 1
ENDMDL
