MODEL 1
REMARK minimizedAffinity 13.6580448
REMARK minimizedRMSD -1
REMARK  1 active torsions:
REMARK  status: ('A' for Active; 'I' for Inactive)
REMARK    1  A    between atoms: C1_2  and  C2_3 
ROOT
ATOM      1  C2  UNL d   1       3.403  -5.572  -5.154  0.00  0.00    -0.073 A 
ATOM      2  C3  UNL d   1       2.352  -5.996  -5.975  0.00  0.00    -0.002 A 
ATOM      3  C4  UNL d   1       1.042  -5.603  -5.702  0.00  0.00     0.004 A 
ATOM      4  C5  UNL d   1       0.769  -4.777  -4.612  0.00  0.00    -0.004 A 
ATOM      5  C6  UNL d   1       1.808  -4.332  -3.786  0.00  0.00    -0.075 A 
ATOM      6  C7  UNL d   1       1.531  -3.445  -2.608  0.00  0.00     0.076 C 
ATOM      7  C8  UNL d   1       3.121  -4.734  -4.065  0.00  0.00     0.001 A 
ENDROOT
BRANCH   1   8
ATOM      8  C1  UNL d   1       4.821  -5.989  -5.448  0.00  0.00     0.053 C 
ATOM      9  C   UNL d   1       5.792  -4.825  -5.339  0.00  0.00     0.018 C 
ENDBRANCH   1   8
TORSDOF 1
ENDMDL
