MODEL 1
REMARK minimizedAffinity 5.28933954
REMARK minimizedRMSD -1
REMARK  1 active torsions:
REMARK  status: ('A' for Active; 'I' for Inactive)
REMARK    1  A    between atoms: C1_2  and  C2_3 
ROOT
ATOM      1  C2  UNL d   1      -0.390   3.164   3.551  0.00  0.00    -0.073 A 
ATOM      2  C3  UNL d   1       0.614   4.002   3.052  0.00  0.00    -0.002 A 
ATOM      3  C4  UNL d   1       1.167   3.767   1.793  0.00  0.00     0.004 A 
ATOM      4  C5  UNL d   1       0.717   2.698   1.017  0.00  0.00    -0.004 A 
ATOM      5  C6  UNL d   1      -0.293   1.857   1.494  0.00  0.00    -0.075 A 
ATOM      6  C7  UNL d   1      -0.786   0.702   0.673  0.00  0.00     0.076 C 
ATOM      7  C8  UNL d   1      -0.841   2.098   2.761  0.00  0.00     0.001 A 
ENDROOT
BRANCH   1   8
ATOM      8  C1  UNL d   1      -0.994   3.418   4.908  0.00  0.00     0.053 C 
ATOM      9  C   UNL d   1      -2.457   3.007   4.967  0.00  0.00     0.018 C 
ENDBRANCH   1   8
TORSDOF 1
ENDMDL
