MODEL 1
REMARK minimizedAffinity -1.59566045
REMARK minimizedRMSD -1
REMARK  1 active torsions:
REMARK  status: ('A' for Active; 'I' for Inactive)
REMARK    1  A    between atoms: C1_2  and  C2_3 
ROOT
ATOM      1  C2  UNL d   1       0.198   3.394   2.587  0.00  0.00    -0.073 A 
ATOM      2  C3  UNL d   1      -0.586   2.706   1.654  0.00  0.00    -0.002 A 
ATOM      3  C4  UNL d   1       0.013   2.044   0.581  0.00  0.00     0.004 A 
ATOM      4  C5  UNL d   1       1.400   2.057   0.434  0.00  0.00    -0.004 A 
ATOM      5  C6  UNL d   1       2.201   2.730   1.363  0.00  0.00    -0.075 A 
ATOM      6  C7  UNL d   1       3.694   2.756   1.218  0.00  0.00     0.076 C 
ATOM      7  C8  UNL d   1       1.592   3.394   2.436  0.00  0.00     0.001 A 
ENDROOT
BRANCH   1   8
ATOM      8  C1  UNL d   1      -0.444   4.105   3.750  0.00  0.00     0.053 C 
ATOM      9  C   UNL d   1      -1.884   3.665   3.963  0.00  0.00     0.018 C 
ENDBRANCH   1   8
TORSDOF 1
ENDMDL
