MODEL 1
REMARK minimizedAffinity -4.13024092
REMARK minimizedRMSD -1
REMARK  1 active torsions:
REMARK  status: ('A' for Active; 'I' for Inactive)
REMARK    1  A    between atoms: C1_2  and  C2_3 
ROOT
ATOM      1  C2  UNL d   1      -3.615  -0.637   2.880  0.00  0.00    -0.073 A 
ATOM      2  C3  UNL d   1      -3.477   0.389   1.938  0.00  0.00    -0.002 A 
ATOM      3  C4  UNL d   1      -2.441   0.354   1.004  0.00  0.00     0.004 A 
ATOM      4  C5  UNL d   1      -1.538  -0.708   0.998  0.00  0.00    -0.004 A 
ATOM      5  C6  UNL d   1      -1.666  -1.749   1.923  0.00  0.00    -0.075 A 
ATOM      6  C7  UNL d   1      -0.701  -2.898   1.931  0.00  0.00     0.076 C 
ATOM      7  C8  UNL d   1      -2.707  -1.705   2.860  0.00  0.00     0.001 A 
ENDROOT
BRANCH   1   8
ATOM      8  C1  UNL d   1      -4.736  -0.606   3.886  0.00  0.00     0.053 C 
ATOM      9  C   UNL d   1      -5.993   0.036   3.321  0.00  0.00     0.018 C 
ENDBRANCH   1   8
TORSDOF 1
ENDMDL
