MODEL 1
REMARK minimizedAffinity -1.93288934
REMARK minimizedRMSD -1
REMARK  1 active torsions:
REMARK  status: ('A' for Active; 'I' for Inactive)
REMARK    1  A    between atoms: C1_2  and  C2_3 
ROOT
ATOM      1  C2  UNL d   1       4.301   3.199  -3.248  0.00  0.00    -0.073 A 
ATOM      2  C3  UNL d   1       5.388   3.179  -4.129  0.00  0.00    -0.002 A 
ATOM      3  C4  UNL d   1       5.183   2.997  -5.498  0.00  0.00     0.004 A 
ATOM      4  C5  UNL d   1       3.891   2.839  -5.999  0.00  0.00    -0.004 A 
ATOM      5  C6  UNL d   1       2.791   2.868  -5.136  0.00  0.00    -0.075 A 
ATOM      6  C7  UNL d   1       1.395   2.698  -5.659  0.00  0.00     0.076 C 
ATOM      7  C8  UNL d   1       3.005   3.049  -3.762  0.00  0.00     0.001 A 
ENDROOT
BRANCH   1   8
ATOM      8  C1  UNL d   1       4.517   3.402  -1.771  0.00  0.00     0.053 C 
ATOM      9  C   UNL d   1       5.813   4.143  -1.481  0.00  0.00     0.018 C 
ENDBRANCH   1   8
TORSDOF 1
ENDMDL
