MODEL 1
REMARK minimizedAffinity 2.77665782
REMARK minimizedRMSD -1
REMARK  1 active torsions:
REMARK  status: ('A' for Active; 'I' for Inactive)
REMARK    1  A    between atoms: C1_2  and  C2_3 
ROOT
ATOM      1  C2  UNL d   1       0.996   2.272   1.727  0.00  0.00    -0.073 A 
ATOM      2  C3  UNL d   1       1.450   1.071   1.170  0.00  0.00    -0.002 A 
ATOM      3  C4  UNL d   1       0.595   0.285   0.397  0.00  0.00     0.004 A 
ATOM      4  C5  UNL d   1      -0.718   0.695   0.165  0.00  0.00    -0.004 A 
ATOM      5  C6  UNL d   1      -1.187   1.898   0.703  0.00  0.00    -0.075 A 
ATOM      6  C7  UNL d   1      -2.597   2.352   0.465  0.00  0.00     0.076 C 
ATOM      7  C8  UNL d   1      -0.323   2.680   1.481  0.00  0.00     0.001 A 
ENDROOT
BRANCH   1   8
ATOM      8  C1  UNL d   1       1.917   3.127   2.558  0.00  0.00     0.053 C 
ATOM      9  C   UNL d   1       3.380   2.880   2.223  0.00  0.00     0.018 C 
ENDBRANCH   1   8
TORSDOF 1
ENDMDL
