MODEL 1
REMARK minimizedAffinity 2.2342453
REMARK minimizedRMSD -1
REMARK  1 active torsions:
REMARK  status: ('A' for Active; 'I' for Inactive)
REMARK    1  A    between atoms: C1_2  and  C2_3 
ROOT
ATOM      1  C2  UNL d   1      -3.226   0.631   2.330  0.00  0.00    -0.073 A 
ATOM      2  C3  UNL d   1      -4.616   0.580   2.486  0.00  0.00    -0.002 A 
ATOM      3  C4  UNL d   1      -5.183  -0.182   3.507  0.00  0.00     0.004 A 
ATOM      4  C5  UNL d   1      -4.368  -0.895   4.387  0.00  0.00    -0.004 A 
ATOM      5  C6  UNL d   1      -2.977  -0.847   4.255  0.00  0.00    -0.075 A 
ATOM      6  C7  UNL d   1      -2.086  -1.610   5.191  0.00  0.00     0.076 C 
ATOM      7  C8  UNL d   1      -2.415  -0.081   3.225  0.00  0.00     0.001 A 
ENDROOT
BRANCH   1   8
ATOM      8  C1  UNL d   1      -2.609   1.459   1.232  0.00  0.00     0.053 C 
ATOM      9  C   UNL d   1      -1.263   0.906   0.791  0.00  0.00     0.018 C 
ENDBRANCH   1   8
TORSDOF 1
ENDMDL
