MODEL 1
REMARK minimizedAffinity -0.212592348
REMARK minimizedRMSD -1
REMARK  1 active torsions:
REMARK  status: ('A' for Active; 'I' for Inactive)
REMARK    1  A    between atoms: C1_2  and  C2_3 
ROOT
ATOM      1  C2  UNL d   1      -3.085  -0.867   3.214  0.00  0.00    -0.073 A 
ATOM      2  C3  UNL d   1      -2.178  -1.933   3.241  0.00  0.00    -0.002 A 
ATOM      3  C4  UNL d   1      -1.093  -1.956   2.364  0.00  0.00     0.004 A 
ATOM      4  C5  UNL d   1      -0.899  -0.914   1.458  0.00  0.00    -0.004 A 
ATOM      5  C6  UNL d   1      -1.788   0.166   1.425  0.00  0.00    -0.075 A 
ATOM      6  C7  UNL d   1      -1.595   1.294   0.455  0.00  0.00     0.076 C 
ATOM      7  C8  UNL d   1      -2.877   0.181   2.306  0.00  0.00     0.001 A 
ENDROOT
BRANCH   1   8
ATOM      8  C1  UNL d   1      -4.255  -0.834   4.163  0.00  0.00     0.053 C 
ATOM      9  C   UNL d   1      -5.278  -1.914   3.846  0.00  0.00     0.018 C 
ENDBRANCH   1   8
TORSDOF 1
ENDMDL
