MODEL 1
REMARK minimizedAffinity 1.43120766
REMARK minimizedRMSD -1
REMARK  1 active torsions:
REMARK  status: ('A' for Active; 'I' for Inactive)
REMARK    1  A    between atoms: C1_2  and  C2_3 
ROOT
ATOM      1  C2  UNL d   1       0.116   2.465   1.977  0.00  0.00    -0.073 A 
ATOM      2  C3  UNL d   1      -1.255   2.611   1.741  0.00  0.00    -0.002 A 
ATOM      3  C4  UNL d   1      -1.897   1.807   0.798  0.00  0.00     0.004 A 
ATOM      4  C5  UNL d   1      -1.177   0.847   0.087  0.00  0.00    -0.004 A 
ATOM      5  C6  UNL d   1       0.192   0.679   0.318  0.00  0.00    -0.075 A 
ATOM      6  C7  UNL d   1       0.981  -0.348  -0.440  0.00  0.00     0.076 C 
ATOM      7  C8  UNL d   1       0.830   1.491   1.264  0.00  0.00     0.001 A 
ENDROOT
BRANCH   1   8
ATOM      8  C1  UNL d   1       0.813   3.326   2.999  0.00  0.00     0.053 C 
ATOM      9  C   UNL d   1      -0.152   4.267   3.705  0.00  0.00     0.018 C 
ENDBRANCH   1   8
TORSDOF 1
ENDMDL
