MODEL 1
REMARK minimizedAffinity 5.89145947
REMARK minimizedRMSD -1
REMARK  1 active torsions:
REMARK  status: ('A' for Active; 'I' for Inactive)
REMARK    1  A    between atoms: C1_2  and  C2_3 
ROOT
ATOM      1  C2  UNL d   1       0.244  -3.010  -1.122  0.00  0.00    -0.073 A 
ATOM      2  C3  UNL d   1       0.919  -3.459  -2.262  0.00  0.00    -0.002 A 
ATOM      3  C4  UNL d   1       0.248  -4.206  -3.231  0.00  0.00     0.004 A 
ATOM      4  C5  UNL d   1      -1.106  -4.504  -3.074  0.00  0.00    -0.004 A 
ATOM      5  C6  UNL d   1      -1.801  -4.053  -1.948  0.00  0.00    -0.075 A 
ATOM      6  C7  UNL d   1      -3.257  -4.367  -1.763  0.00  0.00     0.076 C 
ATOM      7  C8  UNL d   1      -1.119  -3.306  -0.978  0.00  0.00     0.001 A 
ENDROOT
BRANCH   1   8
ATOM      8  C1  UNL d   1       0.963  -2.198  -0.076  0.00  0.00     0.053 C 
ATOM      9  C   UNL d   1       0.039  -1.206   0.611  0.00  0.00     0.018 C 
ENDBRANCH   1   8
TORSDOF 1
ENDMDL
