MODEL 1
REMARK minimizedAffinity -2.38941431
REMARK minimizedRMSD -1
REMARK  1 active torsions:
REMARK  status: ('A' for Active; 'I' for Inactive)
REMARK    1  A    between atoms: N_2  and  C1_3 
ROOT
ATOM      1  C1  UNL d   1      -1.090   1.330  -0.931  0.00  0.00     0.143 A 
ATOM      2  C2  UNL d   1      -0.599   2.245  -1.868  0.00  0.00    -0.057 A 
ATOM      3  C3  UNL d   1      -1.352   2.610  -2.991  0.00  0.00     0.033 A 
ATOM      4  C4  UNL d   1      -2.603   2.043  -3.211  0.00  0.00    -0.042 A 
ATOM      5  C5  UNL d   1      -3.101   1.112  -2.306  0.00  0.00     0.033 A 
ATOM      6  C6  UNL d   1      -2.347   0.757  -1.183  0.00  0.00    -0.057 A 
ENDROOT
BRANCH   1   7
ATOM      7  N   UNL d   1      -0.349   0.852   0.152  0.00  0.00    -0.732 N 
ATOM      8  C   UNL d   1       0.731  -0.089  -0.051  0.00  0.00     0.284 C 
ATOM      9  H3  UNL d   1      -0.144   1.580   0.834  0.00  0.00     0.395 HD
ENDBRANCH   1   7
TORSDOF 1
ENDMDL
