MODEL 1
REMARK minimizedAffinity -3.11506677
REMARK minimizedRMSD -1
REMARK  1 active torsions:
REMARK  status: ('A' for Active; 'I' for Inactive)
REMARK    1  A    between atoms: N_2  and  C1_3 
ROOT
ATOM      1  C1  UNL d   1      -0.391   0.797  -0.315  0.00  0.00     0.143 A 
ATOM      2  C2  UNL d   1      -0.585  -0.222   0.624  0.00  0.00    -0.057 A 
ATOM      3  C3  UNL d   1       0.474  -1.041   1.036  0.00  0.00     0.033 A 
ATOM      4  C4  UNL d   1       1.743  -0.873   0.491  0.00  0.00    -0.042 A 
ATOM      5  C5  UNL d   1       1.953   0.117  -0.462  0.00  0.00     0.033 A 
ATOM      6  C6  UNL d   1       0.893   0.935  -0.864  0.00  0.00    -0.057 A 
ENDROOT
BRANCH   1   7
ATOM      7  N   UNL d   1      -1.424   1.579  -0.837  0.00  0.00    -0.732 N 
ATOM      8  C   UNL d   1      -2.163   1.142  -2.002  0.00  0.00     0.284 C 
ATOM      9  H3  UNL d   1      -2.002   1.995  -0.111  0.00  0.00     0.395 HD
ENDBRANCH   1   7
TORSDOF 1
ENDMDL
