MODEL 1
REMARK minimizedAffinity -2.99482512
REMARK minimizedRMSD -1
REMARK  1 active torsions:
REMARK  status: ('A' for Active; 'I' for Inactive)
REMARK    1  A    between atoms: N_2  and  C1_3 
ROOT
ATOM      1  C1  UNL d   1       0.148   0.436  -0.048  0.00  0.00     0.143 A 
ATOM      2  C2  UNL d   1       0.068  -0.565   0.926  0.00  0.00    -0.057 A 
ATOM      3  C3  UNL d   1       1.179  -1.354   1.249  0.00  0.00     0.033 A 
ATOM      4  C4  UNL d   1       2.386  -1.173   0.581  0.00  0.00    -0.042 A 
ATOM      5  C5  UNL d   1       2.481  -0.200  -0.408  0.00  0.00     0.033 A 
ATOM      6  C6  UNL d   1       1.370   0.588  -0.721  0.00  0.00    -0.057 A 
ENDROOT
BRANCH   1   7
ATOM      7  N   UNL d   1      -0.947   1.187  -0.483  0.00  0.00    -0.732 N 
ATOM      8  C   UNL d   1      -1.473   1.016  -1.820  0.00  0.00     0.284 C 
ATOM      9  H3  UNL d   1      -1.661   1.284   0.235  0.00  0.00     0.395 HD
ENDBRANCH   1   7
TORSDOF 1
ENDMDL
