MODEL 1
REMARK minimizedAffinity -3.9965322
REMARK minimizedRMSD -1
REMARK  1 active torsions:
REMARK  status: ('A' for Active; 'I' for Inactive)
REMARK    1  A    between atoms: N_2  and  C1_3 
ROOT
ATOM      1  C1  UNL d   1      -0.275   1.209  -0.797  0.00  0.00     0.143 A 
ATOM      2  C2  UNL d   1      -0.539   0.103   0.018  0.00  0.00    -0.057 A 
ATOM      3  C3  UNL d   1       0.497  -0.701   0.509  0.00  0.00     0.033 A 
ATOM      4  C4  UNL d   1       1.818  -0.428   0.169  0.00  0.00    -0.042 A 
ATOM      5  C5  UNL d   1       2.102   0.652  -0.659  0.00  0.00     0.033 A 
ATOM      6  C6  UNL d   1       1.063   1.455  -1.141  0.00  0.00    -0.057 A 
ENDROOT
BRANCH   1   7
ATOM      7  N   UNL d   1      -1.268   1.988  -1.397  0.00  0.00    -0.732 N 
ATOM      8  C   UNL d   1      -2.137   1.424  -2.406  0.00  0.00     0.284 C 
ATOM      9  H3  UNL d   1      -1.742   2.593  -0.731  0.00  0.00     0.395 HD
ENDBRANCH   1   7
TORSDOF 1
ENDMDL
