MODEL 1
REMARK minimizedAffinity 0.30834192
REMARK minimizedRMSD -1
REMARK  1 active torsions:
REMARK  status: ('A' for Active; 'I' for Inactive)
REMARK    1  A    between atoms: N_2  and  C1_3 
ROOT
ATOM      1  C1  UNL d   1       2.407  -0.551   0.872  0.00  0.00     0.143 A 
ATOM      2  C2  UNL d   1       1.252  -1.262   1.216  0.00  0.00    -0.057 A 
ATOM      3  C3  UNL d   1       0.010  -0.949   0.650  0.00  0.00     0.033 A 
ATOM      4  C4  UNL d   1      -0.104   0.105  -0.251  0.00  0.00    -0.042 A 
ATOM      5  C5  UNL d   1       1.025   0.842  -0.588  0.00  0.00     0.033 A 
ATOM      6  C6  UNL d   1       2.264   0.520  -0.024  0.00  0.00    -0.057 A 
ENDROOT
BRANCH   1   7
ATOM      7  N   UNL d   1       3.651  -0.750   1.474  0.00  0.00    -0.732 N 
ATOM      8  C   UNL d   1       3.883  -0.339   2.842  0.00  0.00     0.284 C 
ATOM      9  H3  UNL d   1       4.057  -1.652   1.237  0.00  0.00     0.395 HD
ENDBRANCH   1   7
TORSDOF 1
ENDMDL
