MODEL 1
REMARK minimizedAffinity -3.38428903
REMARK minimizedRMSD -1
REMARK  1 active torsions:
REMARK  status: ('A' for Active; 'I' for Inactive)
REMARK    1  A    between atoms: N_2  and  C1_3 
ROOT
ATOM      1  C1  UNL d   1       0.204   0.491  -0.442  0.00  0.00     0.143 A 
ATOM      2  C2  UNL d   1       1.569   0.496  -0.748  0.00  0.00    -0.057 A 
ATOM      3  C3  UNL d   1       2.424  -0.506  -0.270  0.00  0.00     0.033 A 
ATOM      4  C4  UNL d   1       1.931  -1.517   0.548  0.00  0.00    -0.042 A 
ATOM      5  C5  UNL d   1       0.582  -1.527   0.886  0.00  0.00     0.033 A 
ATOM      6  C6  UNL d   1      -0.267  -0.528   0.400  0.00  0.00    -0.057 A 
ENDROOT
BRANCH   1   7
ATOM      7  N   UNL d   1      -0.677   1.512  -0.804  0.00  0.00    -0.732 N 
ATOM      8  C   UNL d   1      -1.547   1.363  -1.951  0.00  0.00     0.284 C 
ATOM      9  H3  UNL d   1      -1.123   1.945   0.002  0.00  0.00     0.395 HD
ENDBRANCH   1   7
TORSDOF 1
ENDMDL
