MODEL 1
REMARK minimizedAffinity -1.13610911
REMARK minimizedRMSD -1
REMARK  1 active torsions:
REMARK  status: ('A' for Active; 'I' for Inactive)
REMARK    1  A    between atoms: N_2  and  C1_3 
ROOT
ATOM      1  C1  UNL d   1       1.075   0.525  -0.189  0.00  0.00     0.143 A 
ATOM      2  C2  UNL d   1       1.633  -0.653  -0.697  0.00  0.00    -0.057 A 
ATOM      3  C3  UNL d   1       2.957  -0.693  -1.151  0.00  0.00     0.033 A 
ATOM      4  C4  UNL d   1       3.740   0.457  -1.133  0.00  0.00    -0.042 A 
ATOM      5  C5  UNL d   1       3.198   1.645  -0.655  0.00  0.00     0.033 A 
ATOM      6  C6  UNL d   1       1.878   1.677  -0.197  0.00  0.00    -0.057 A 
ENDROOT
BRANCH   1   7
ATOM      7  N   UNL d   1      -0.264   0.653   0.186  0.00  0.00    -0.732 N 
ATOM      8  C   UNL d   1      -1.312   0.040  -0.602  0.00  0.00     0.284 C 
ATOM      9  H3  UNL d   1      -0.396   0.567   1.191  0.00  0.00     0.395 HD
ENDBRANCH   1   7
TORSDOF 1
ENDMDL
