MODEL 1
REMARK minimizedAffinity -0.95939827
REMARK minimizedRMSD -1
REMARK  1 active torsions:
REMARK  status: ('A' for Active; 'I' for Inactive)
REMARK    1  A    between atoms: N_2  and  C1_3 
ROOT
ATOM      1  C1  UNL d   1      -0.404  -0.399   1.821  0.00  0.00     0.143 A 
ATOM      2  C2  UNL d   1       0.866  -0.979   1.920  0.00  0.00    -0.057 A 
ATOM      3  C3  UNL d   1       1.831  -0.787   0.925  0.00  0.00     0.033 A 
ATOM      4  C4  UNL d   1       1.533  -0.033  -0.206  0.00  0.00    -0.042 A 
ATOM      5  C5  UNL d   1       0.270   0.531  -0.338  0.00  0.00     0.033 A 
ATOM      6  C6  UNL d   1      -0.688   0.342   0.663  0.00  0.00    -0.057 A 
ENDROOT
BRANCH   1   7
ATOM      7  N   UNL d   1      -1.439  -0.633   2.729  0.00  0.00    -0.732 N 
ATOM      8  C   UNL d   1      -2.748  -0.054   2.520  0.00  0.00     0.284 C 
ATOM      9  H3  UNL d   1      -1.458  -1.597   3.056  0.00  0.00     0.395 HD
ENDBRANCH   1   7
TORSDOF 1
ENDMDL
