MODEL 1
REMARK minimizedAffinity 1.35916293
REMARK minimizedRMSD -1
REMARK  1 active torsions:
REMARK  status: ('A' for Active; 'I' for Inactive)
REMARK    1  A    between atoms: N_2  and  C1_3 
ROOT
ATOM      1  C1  UNL d   1       1.716   0.975  -0.925  0.00  0.00     0.143 A 
ATOM      2  C2  UNL d   1       2.141   0.479   0.312  0.00  0.00    -0.057 A 
ATOM      3  C3  UNL d   1       3.414   0.774   0.814  0.00  0.00     0.033 A 
ATOM      4  C4  UNL d   1       4.298   1.549   0.071  0.00  0.00    -0.042 A 
ATOM      5  C5  UNL d   1       3.907   2.032  -1.172  0.00  0.00     0.033 A 
ATOM      6  C6  UNL d   1       2.631   1.739  -1.665  0.00  0.00    -0.057 A 
ENDROOT
BRANCH   1   7
ATOM      7  N   UNL d   1       0.499   0.636  -1.523  0.00  0.00    -0.732 N 
ATOM      8  C   UNL d   1      -0.753   1.083  -0.951  0.00  0.00     0.284 C 
ATOM      9  H3  UNL d   1       0.536   0.692  -2.538  0.00  0.00     0.395 HD
ENDBRANCH   1   7
TORSDOF 1
ENDMDL
