MODEL 1
REMARK minimizedAffinity 0.38688916
REMARK minimizedRMSD -1
REMARK  1 active torsions:
REMARK  status: ('A' for Active; 'I' for Inactive)
REMARK    1  A    between atoms: N_2  and  C1_3 
ROOT
ATOM      1  C1  UNL d   1       0.379   0.528   0.025  0.00  0.00     0.143 A 
ATOM      2  C2  UNL d   1       1.552   0.425   0.780  0.00  0.00    -0.057 A 
ATOM      3  C3  UNL d   1       2.776   0.108   0.179  0.00  0.00     0.033 A 
ATOM      4  C4  UNL d   1       2.844  -0.142  -1.188  0.00  0.00    -0.042 A 
ATOM      5  C5  UNL d   1       1.686  -0.070  -1.954  0.00  0.00     0.033 A 
ATOM      6  C6  UNL d   1       0.467   0.255  -1.349  0.00  0.00    -0.057 A 
ENDROOT
BRANCH   1   7
ATOM      7  N   UNL d   1      -0.886   0.744   0.578  0.00  0.00    -0.732 N 
ATOM      8  C   UNL d   1      -1.406  -0.144   1.596  0.00  0.00     0.284 C 
ATOM      9  H3  UNL d   1      -1.071   1.729   0.751  0.00  0.00     0.395 HD
ENDBRANCH   1   7
TORSDOF 1
ENDMDL
