MODEL 1
REMARK minimizedAffinity -2.74348235
REMARK minimizedRMSD -1
REMARK  2 active torsions:
REMARK  status: ('A' for Active; 'I' for Inactive)
REMARK    1  A    between atoms: C1_2  and  C2_3 
REMARK    2  A    between atoms: C2_3  and  C3_4 
ROOT
ATOM      1  C3  UNL d   1       0.313  -0.325   0.155  0.00  0.00    -0.075 A 
ATOM      2  C4  UNL d   1      -0.139   1.003   0.147  0.00  0.00     0.002 A 
ATOM      3  C5  UNL d   1      -0.883   1.504   1.215  0.00  0.00     0.002 A 
ATOM      4  C6  UNL d   1      -1.192   0.684   2.298  0.00  0.00    -0.004 A 
ATOM      5  C7  UNL d   1      -0.763  -0.641   2.309  0.00  0.00     0.002 A 
ATOM      6  C8  UNL d   1      -0.015  -1.144   1.243  0.00  0.00     0.002 A 
ENDROOT
BRANCH   1   7
ATOM      7  C2  UNL d   1       1.143  -0.865  -0.985  0.00  0.00     0.056 C 
BRANCH   7   8
ATOM      8  C1  UNL d   1       0.322  -1.531  -2.094  0.00  0.00     0.007 C 
ATOM      9  C   UNL d   1       0.702  -2.986  -2.331  0.00  0.00     0.009 C 
ENDBRANCH   7   8
ENDBRANCH   1   7
TORSDOF 2
ENDMDL
