MODEL 1
REMARK minimizedAffinity -6.00806761
REMARK minimizedRMSD -1
REMARK  2 active torsions:
REMARK  status: ('A' for Active; 'I' for Inactive)
REMARK    1  A    between atoms: C1_2  and  C2_3 
REMARK    2  A    between atoms: C2_3  and  C3_4 
ROOT
ATOM      1  C3  UNL d   1       0.376  -0.773  -1.484  0.00  0.00    -0.075 A 
ATOM      2  C4  UNL d   1      -0.313  -0.980  -2.687  0.00  0.00     0.002 A 
ATOM      3  C5  UNL d   1      -0.311  -2.234  -3.299  0.00  0.00     0.002 A 
ATOM      4  C6  UNL d   1       0.388  -3.292  -2.722  0.00  0.00    -0.004 A 
ATOM      5  C7  UNL d   1       1.091  -3.093  -1.535  0.00  0.00     0.002 A 
ATOM      6  C8  UNL d   1       1.086  -1.841  -0.919  0.00  0.00     0.002 A 
ENDROOT
BRANCH   1   7
ATOM      7  C2  UNL d   1       0.353   0.574  -0.802  0.00  0.00     0.056 C 
BRANCH   7   8
ATOM      8  C1  UNL d   1       0.983   1.702  -1.627  0.00  0.00     0.007 C 
ATOM      9  C   UNL d   1       0.256   3.032  -1.479  0.00  0.00     0.009 C 
ENDBRANCH   7   8
ENDBRANCH   1   7
TORSDOF 2
ENDMDL
