MODEL 1
REMARK minimizedAffinity -6.47651386
REMARK minimizedRMSD -1
REMARK  2 active torsions:
REMARK  status: ('A' for Active; 'I' for Inactive)
REMARK    1  A    between atoms: C1_2  and  C2_3 
REMARK    2  A    between atoms: C2_3  and  C3_4 
ROOT
ATOM      1  C3  UNL d   1      -0.524   0.914  -0.183  0.00  0.00    -0.075 A 
ATOM      2  C4  UNL d   1      -0.657   2.084  -0.944  0.00  0.00     0.002 A 
ATOM      3  C5  UNL d   1      -1.393   3.166  -0.459  0.00  0.00     0.002 A 
ATOM      4  C6  UNL d   1      -2.012   3.088   0.787  0.00  0.00    -0.004 A 
ATOM      5  C7  UNL d   1      -1.900   1.924   1.545  0.00  0.00     0.002 A 
ATOM      6  C8  UNL d   1      -1.161   0.842   1.063  0.00  0.00     0.002 A 
ENDROOT
BRANCH   1   7
ATOM      7  C2  UNL d   1       0.295  -0.248  -0.690  0.00  0.00     0.056 C 
BRANCH   7   8
ATOM      8  C1  UNL d   1       0.650  -0.159  -2.178  0.00  0.00     0.007 C 
ATOM      9  C   UNL d   1      -0.120  -1.150  -3.040  0.00  0.00     0.009 C 
ENDBRANCH   7   8
ENDBRANCH   1   7
TORSDOF 2
ENDMDL
