MODEL 1
REMARK minimizedAffinity -6.26144075
REMARK minimizedRMSD -1
REMARK  2 active torsions:
REMARK  status: ('A' for Active; 'I' for Inactive)
REMARK    1  A    between atoms: C1_2  and  C2_3 
REMARK    2  A    between atoms: C2_3  and  C3_4 
ROOT
ATOM      1  C3  UNL d   1      -0.236   0.058  -1.599  0.00  0.00    -0.075 A 
ATOM      2  C4  UNL d   1      -1.350  -0.787  -1.714  0.00  0.00     0.002 A 
ATOM      3  C5  UNL d   1      -1.220  -2.060  -2.270  0.00  0.00     0.002 A 
ATOM      4  C6  UNL d   1       0.021  -2.500  -2.726  0.00  0.00    -0.004 A 
ATOM      5  C7  UNL d   1       1.131  -1.663  -2.632  0.00  0.00     0.002 A 
ATOM      6  C8  UNL d   1       1.004  -0.391  -2.072  0.00  0.00     0.002 A 
ENDROOT
BRANCH   1   7
ATOM      7  C2  UNL d   1      -0.365   1.425  -0.972  0.00  0.00     0.056 C 
BRANCH   7   8
ATOM      8  C1  UNL d   1      -1.021   1.417   0.413  0.00  0.00     0.007 C 
ATOM      9  C   UNL d   1      -1.473   2.797   0.872  0.00  0.00     0.009 C 
ENDBRANCH   7   8
ENDBRANCH   1   7
TORSDOF 2
ENDMDL
