MODEL 1
REMARK minimizedAffinity -5.8474474
REMARK minimizedRMSD -1
REMARK  2 active torsions:
REMARK  status: ('A' for Active; 'I' for Inactive)
REMARK    1  A    between atoms: C1_2  and  C2_3 
REMARK    2  A    between atoms: C2_3  and  C3_4 
ROOT
ATOM      1  C3  UNL d   1      -0.855   0.662  -0.314  0.00  0.00    -0.075 A 
ATOM      2  C4  UNL d   1      -0.457   1.941  -0.730  0.00  0.00     0.002 A 
ATOM      3  C5  UNL d   1      -0.933   3.079  -0.079  0.00  0.00     0.002 A 
ATOM      4  C6  UNL d   1      -1.820   2.954   0.988  0.00  0.00    -0.004 A 
ATOM      5  C7  UNL d   1      -2.236   1.690   1.400  0.00  0.00     0.002 A 
ATOM      6  C8  UNL d   1      -1.757   0.549   0.753  0.00  0.00     0.002 A 
ENDROOT
BRANCH   1   7
ATOM      7  C2  UNL d   1      -0.320  -0.574  -0.996  0.00  0.00     0.056 C 
BRANCH   7   8
ATOM      8  C1  UNL d   1       1.208  -0.679  -0.987  0.00  0.00     0.007 C 
ATOM      9  C   UNL d   1       1.725  -1.969  -1.609  0.00  0.00     0.009 C 
ENDBRANCH   7   8
ENDBRANCH   1   7
TORSDOF 2
ENDMDL
