MODEL 1
REMARK minimizedAffinity -5.55838394
REMARK minimizedRMSD -1
REMARK  2 active torsions:
REMARK  status: ('A' for Active; 'I' for Inactive)
REMARK    1  A    between atoms: C1_2  and  C2_3 
REMARK    2  A    between atoms: C2_3  and  C3_4 
ROOT
ATOM      1  C3  UNL d   1       0.017   0.770  -0.097  0.00  0.00    -0.075 A 
ATOM      2  C4  UNL d   1       0.343   1.887  -0.880  0.00  0.00     0.002 A 
ATOM      3  C5  UNL d   1      -0.475   3.017  -0.877  0.00  0.00     0.002 A 
ATOM      4  C6  UNL d   1      -1.632   3.041  -0.101  0.00  0.00    -0.004 A 
ATOM      5  C7  UNL d   1      -1.974   1.931   0.668  0.00  0.00     0.002 A 
ATOM      6  C8  UNL d   1      -1.155   0.800   0.670  0.00  0.00     0.002 A 
ENDROOT
BRANCH   1   7
ATOM      7  C2  UNL d   1       0.913  -0.445  -0.073  0.00  0.00     0.056 C 
BRANCH   7   8
ATOM      8  C1  UNL d   1       1.077  -1.126  -1.436  0.00  0.00     0.007 C 
ATOM      9  C   UNL d   1       1.197  -2.641  -1.339  0.00  0.00     0.009 C 
ENDBRANCH   7   8
ENDBRANCH   1   7
TORSDOF 2
ENDMDL
