MODEL 1
REMARK minimizedAffinity 0.156258434
REMARK minimizedRMSD -1
REMARK  2 active torsions:
REMARK  status: ('A' for Active; 'I' for Inactive)
REMARK    1  A    between atoms: C1_2  and  C2_3 
REMARK    2  A    between atoms: C2_3  and  C3_4 
ROOT
ATOM      1  C3  UNL d   1       0.143  -0.498   0.353  0.00  0.00    -0.075 A 
ATOM      2  C4  UNL d   1       0.310   0.684  -0.382  0.00  0.00     0.002 A 
ATOM      3  C5  UNL d   1      -0.161   1.900   0.115  0.00  0.00     0.002 A 
ATOM      4  C6  UNL d   1      -0.812   1.947   1.345  0.00  0.00    -0.004 A 
ATOM      5  C7  UNL d   1      -0.998   0.776   2.077  0.00  0.00     0.002 A 
ATOM      6  C8  UNL d   1      -0.524  -0.441   1.584  0.00  0.00     0.002 A 
ENDROOT
BRANCH   1   7
ATOM      7  C2  UNL d   1       0.677  -1.812  -0.166  0.00  0.00     0.056 C 
BRANCH   7   8
ATOM      8  C1  UNL d   1      -0.038  -2.324  -1.421  0.00  0.00     0.007 C 
ATOM      9  C   UNL d   1       0.416  -3.714  -1.846  0.00  0.00     0.009 C 
ENDBRANCH   7   8
ENDBRANCH   1   7
TORSDOF 2
ENDMDL
