MODEL 1
REMARK minimizedAffinity -3.65913534
REMARK minimizedRMSD -1
REMARK  2 active torsions:
REMARK  status: ('A' for Active; 'I' for Inactive)
REMARK    1  A    between atoms: C1_2  and  C2_3 
REMARK    2  A    between atoms: C2_3  and  C3_4 
ROOT
ATOM      1  C3  UNL d   1      -0.224   0.621   0.290  0.00  0.00    -0.075 A 
ATOM      2  C4  UNL d   1       0.191   1.698  -0.507  0.00  0.00     0.002 A 
ATOM      3  C5  UNL d   1      -0.276   2.988  -0.255  0.00  0.00     0.002 A 
ATOM      4  C6  UNL d   1      -1.171   3.217   0.788  0.00  0.00    -0.004 A 
ATOM      5  C7  UNL d   1      -1.603   2.152   1.576  0.00  0.00     0.002 A 
ATOM      6  C8  UNL d   1      -1.134   0.861   1.329  0.00  0.00     0.002 A 
ENDROOT
BRANCH   1   7
ATOM      7  C2  UNL d   1       0.301  -0.772   0.041  0.00  0.00     0.056 C 
BRANCH   7   8
ATOM      8  C1  UNL d   1       1.378  -0.848  -1.046  0.00  0.00     0.007 C 
ATOM      9  C   UNL d   1       1.308  -2.125  -1.873  0.00  0.00     0.009 C 
ENDBRANCH   7   8
ENDBRANCH   1   7
TORSDOF 2
ENDMDL
