MODEL 1
REMARK minimizedAffinity -5.21610546
REMARK minimizedRMSD -1
REMARK  2 active torsions:
REMARK  status: ('A' for Active; 'I' for Inactive)
REMARK    1  A    between atoms: C1_2  and  C2_3 
REMARK    2  A    between atoms: C2_3  and  C3_4 
ROOT
ATOM      1  C3  UNL d   1      -0.751   0.362   0.453  0.00  0.00    -0.075 A 
ATOM      2  C4  UNL d   1      -1.090   1.162  -0.647  0.00  0.00     0.002 A 
ATOM      3  C5  UNL d   1      -1.833   2.330  -0.472  0.00  0.00     0.002 A 
ATOM      4  C6  UNL d   1      -2.254   2.707   0.802  0.00  0.00    -0.004 A 
ATOM      5  C7  UNL d   1      -1.936   1.911   1.900  0.00  0.00     0.002 A 
ATOM      6  C8  UNL d   1      -1.189   0.744   1.728  0.00  0.00     0.002 A 
ENDROOT
BRANCH   1   7
ATOM      7  C2  UNL d   1       0.078  -0.887   0.273  0.00  0.00     0.056 C 
BRANCH   7   8
ATOM      8  C1  UNL d   1       0.742  -1.003  -1.103  0.00  0.00     0.007 C 
ATOM      9  C   UNL d   1       0.263  -2.208  -1.901  0.00  0.00     0.009 C 
ENDBRANCH   7   8
ENDBRANCH   1   7
TORSDOF 2
ENDMDL
