MODEL 1
REMARK minimizedAffinity -5.72524643
REMARK minimizedRMSD -1
REMARK  2 active torsions:
REMARK  status: ('A' for Active; 'I' for Inactive)
REMARK    1  A    between atoms: C1_2  and  C2_3 
REMARK    2  A    between atoms: C2_3  and  C3_4 
ROOT
ATOM      1  C3  UNL d   1       0.830  -1.348  -2.005  0.00  0.00    -0.075 A 
ATOM      2  C4  UNL d   1       0.834  -1.033  -0.639  0.00  0.00     0.002 A 
ATOM      3  C5  UNL d   1       0.515   0.255  -0.208  0.00  0.00     0.002 A 
ATOM      4  C6  UNL d   1       0.199   1.245  -1.136  0.00  0.00    -0.004 A 
ATOM      5  C7  UNL d   1       0.209   0.948  -2.497  0.00  0.00     0.002 A 
ATOM      6  C8  UNL d   1       0.523  -0.341  -2.931  0.00  0.00     0.002 A 
ENDROOT
BRANCH   1   7
ATOM      7  C2  UNL d   1       1.146  -2.748  -2.476  0.00  0.00     0.056 C 
BRANCH   7   8
ATOM      8  C1  UNL d   1       0.266  -3.831  -1.845  0.00  0.00     0.007 C 
ATOM      9  C   UNL d   1       0.961  -4.592  -0.724  0.00  0.00     0.009 C 
ENDBRANCH   7   8
ENDBRANCH   1   7
TORSDOF 2
ENDMDL
