MODEL 1
REMARK minimizedAffinity -5.71970844
REMARK minimizedRMSD -1
REMARK  2 active torsions:
REMARK  status: ('A' for Active; 'I' for Inactive)
REMARK    1  A    between atoms: C1_2  and  C2_3 
REMARK    2  A    between atoms: C2_3  and  C3_4 
ROOT
ATOM      1  C3  UNL d   1      -0.550   0.989   0.160  0.00  0.00    -0.075 A 
ATOM      2  C4  UNL d   1      -1.429   1.289   1.211  0.00  0.00     0.002 A 
ATOM      3  C5  UNL d   1      -1.944   2.577   1.358  0.00  0.00     0.002 A 
ATOM      4  C6  UNL d   1      -1.580   3.582   0.464  0.00  0.00    -0.004 A 
ATOM      5  C7  UNL d   1      -0.695   3.300  -0.573  0.00  0.00     0.002 A 
ATOM      6  C8  UNL d   1      -0.181   2.011  -0.725  0.00  0.00     0.002 A 
ENDROOT
BRANCH   1   7
ATOM      7  C2  UNL d   1      -0.011  -0.410  -0.022  0.00  0.00     0.056 C 
BRANCH   7   8
ATOM      8  C1  UNL d   1       1.293  -0.477  -0.822  0.00  0.00     0.007 C 
ATOM      9  C   UNL d   1       1.458  -1.779  -1.595  0.00  0.00     0.009 C 
ENDBRANCH   7   8
ENDBRANCH   1   7
TORSDOF 2
ENDMDL
