MODEL 1
REMARK minimizedAffinity -4.80758762
REMARK minimizedRMSD -1
REMARK  2 active torsions:
REMARK  status: ('A' for Active; 'I' for Inactive)
REMARK    1  A    between atoms: C1_2  and  C2_3 
REMARK    2  A    between atoms: C2_3  and  C3_4 
ROOT
ATOM      1  C3  UNL d   1       0.090  -0.118   0.221  0.00  0.00    -0.075 A 
ATOM      2  C4  UNL d   1       0.018   1.183  -0.297  0.00  0.00     0.002 A 
ATOM      3  C5  UNL d   1      -0.831   2.129   0.279  0.00  0.00     0.002 A 
ATOM      4  C6  UNL d   1      -1.623   1.785   1.372  0.00  0.00    -0.004 A 
ATOM      5  C7  UNL d   1      -1.572   0.490   1.884  0.00  0.00     0.002 A 
ATOM      6  C8  UNL d   1      -0.721  -0.457   1.312  0.00  0.00     0.002 A 
ENDROOT
BRANCH   1   7
ATOM      7  C2  UNL d   1       1.028  -1.138  -0.380  0.00  0.00     0.056 C 
BRANCH   7   8
ATOM      8  C1  UNL d   1       0.498  -1.794  -1.659  0.00  0.00     0.007 C 
ATOM      9  C   UNL d   1       0.963  -3.235  -1.831  0.00  0.00     0.009 C 
ENDBRANCH   7   8
ENDBRANCH   1   7
TORSDOF 2
ENDMDL
