MODEL 1
REMARK minimizedAffinity -4.1260767
REMARK minimizedRMSD -1
REMARK  2 active torsions:
REMARK  status: ('A' for Active; 'I' for Inactive)
REMARK    1  A    between atoms: C1_2  and  C2_3 
REMARK    2  A    between atoms: C2_3  and  C3_4 
ROOT
ATOM      1  C3  UNL d   1       0.004   1.638   0.294  0.00  0.00    -0.075 A 
ATOM      2  C4  UNL d   1      -0.731   1.439   1.471  0.00  0.00     0.002 A 
ATOM      3  C5  UNL d   1      -0.732   0.196   2.104  0.00  0.00     0.002 A 
ATOM      4  C6  UNL d   1      -0.007  -0.865   1.564  0.00  0.00    -0.004 A 
ATOM      5  C7  UNL d   1       0.714  -0.682   0.386  0.00  0.00     0.002 A 
ATOM      6  C8  UNL d   1       0.720   0.562  -0.247  0.00  0.00     0.002 A 
ENDROOT
BRANCH   1   7
ATOM      7  C2  UNL d   1       0.032   2.990  -0.380  0.00  0.00     0.056 C 
BRANCH   7   8
ATOM      8  C1  UNL d   1      -0.369   4.151   0.535  0.00  0.00     0.007 C 
ATOM      9  C   UNL d   1       0.773   5.120   0.812  0.00  0.00     0.009 C 
ENDBRANCH   7   8
ENDBRANCH   1   7
TORSDOF 2
ENDMDL
