MODEL 1
REMARK minimizedAffinity 14.8487663
REMARK minimizedRMSD -1
REMARK  0 active torsions:
REMARK  status: ('A' for Active; 'I' for Inactive)
ROOT
ATOM      1  O1  BZF d   1       0.166   2.344   0.175  0.00  0.00    -0.204 OA
ATOM      2  C2  BZF d   1       0.173   1.002   0.504  0.00  0.00     0.174 A 
ATOM      3  C3  BZF d   1       0.882   0.790   1.632  0.00  0.00    -0.012 A 
ATOM      4  C3A BZF d   1       1.270   2.091   2.083  0.00  0.00    -0.107 A 
ATOM      5  C4  BZF d   1       1.979   2.539   3.161  0.00  0.00     0.055 A 
ATOM      6  C5  BZF d   1       2.245   3.867   3.272  0.00  0.00    -0.016 A 
ATOM      7  C6  BZF d   1       1.822   4.774   2.322  0.00  0.00     0.022 A 
ATOM      8  C7  BZF d   1       1.111   4.378   1.238  0.00  0.00     0.029 A 
ATOM      9  C7A BZF d   1       0.813   3.041   1.140  0.00  0.00     0.058 A 
ENDROOT
TORSDOF 0
ENDMDL
