MODEL 1
REMARK minimizedAffinity 8.37058449
REMARK minimizedRMSD -1
REMARK  0 active torsions:
REMARK  status: ('A' for Active; 'I' for Inactive)
ROOT
ATOM      1  O1  BZF d   1      -5.922   0.350   3.889  0.00  0.00    -0.204 OA
ATOM      2  C2  BZF d   1      -5.922   0.685   5.229  0.00  0.00     0.174 A 
ATOM      3  C3  BZF d   1      -5.999  -0.419   5.999  0.00  0.00    -0.012 A 
ATOM      4  C3A BZF d   1      -5.957  -1.519   5.084  0.00  0.00    -0.107 A 
ATOM      5  C4  BZF d   1      -5.981  -2.875   5.245  0.00  0.00     0.055 A 
ATOM      6  C5  BZF d   1      -6.000  -3.670   4.143  0.00  0.00    -0.016 A 
ATOM      7  C6  BZF d   1      -6.000  -3.144   2.868  0.00  0.00     0.022 A 
ATOM      8  C7  BZF d   1      -5.971  -1.805   2.658  0.00  0.00     0.029 A 
ATOM      9  C7A BZF d   1      -5.919  -0.999   3.770  0.00  0.00     0.058 A 
ENDROOT
TORSDOF 0
ENDMDL
