MODEL 1
REMARK minimizedAffinity 15.4704723
REMARK minimizedRMSD -1
REMARK  0 active torsions:
REMARK  status: ('A' for Active; 'I' for Inactive)
ROOT
ATOM      1  O1  BZF d   1       1.010  -0.847  -0.484  0.00  0.00    -0.204 OA
ATOM      2  C2  BZF d   1       1.597  -1.009   0.756  0.00  0.00     0.174 A 
ATOM      3  C3  BZF d   1       0.889  -0.368   1.708  0.00  0.00    -0.012 A 
ATOM      4  C3A BZF d   1      -0.259   0.156   1.034  0.00  0.00    -0.107 A 
ATOM      5  C4  BZF d   1      -1.342   0.878   1.448  0.00  0.00     0.055 A 
ATOM      6  C5  BZF d   1      -2.249   1.295   0.525  0.00  0.00    -0.016 A 
ATOM      7  C6  BZF d   1      -2.101   1.013  -0.817  0.00  0.00     0.022 A 
ATOM      8  C7  BZF d   1      -1.046   0.297  -1.274  0.00  0.00     0.029 A 
ATOM      9  C7A BZF d   1      -0.145  -0.154  -0.341  0.00  0.00     0.058 A 
ENDROOT
TORSDOF 0
ENDMDL
