MODEL 1
REMARK minimizedAffinity -6.06090736
REMARK minimizedRMSD -1
REMARK  0 active torsions:
REMARK  status: ('A' for Active; 'I' for Inactive)
ROOT
ATOM      1  O1  BZF d   1      -2.070   2.419   1.036  0.00  0.00    -0.204 OA
ATOM      2  C2  BZF d   1      -1.705   3.680   0.607  0.00  0.00     0.174 A 
ATOM      3  C3  BZF d   1      -1.058   3.615  -0.574  0.00  0.00    -0.012 A 
ATOM      4  C3A BZF d   1      -1.097   2.235  -0.949  0.00  0.00    -0.107 A 
ATOM      5  C4  BZF d   1      -0.635   1.543  -2.032  0.00  0.00     0.055 A 
ATOM      6  C5  BZF d   1      -0.772   0.191  -2.059  0.00  0.00    -0.016 A 
ATOM      7  C6  BZF d   1      -1.360  -0.500  -1.020  0.00  0.00     0.022 A 
ATOM      8  C7  BZF d   1      -1.838   0.143   0.073  0.00  0.00     0.029 A 
ATOM      9  C7A BZF d   1      -1.731   1.513   0.088  0.00  0.00     0.058 A 
ENDROOT
TORSDOF 0
ENDMDL
