MODEL 1
REMARK minimizedAffinity -3.58658552
REMARK minimizedRMSD -1
REMARK  0 active torsions:
REMARK  status: ('A' for Active; 'I' for Inactive)
ROOT
ATOM      1  O1  BZF d   1       1.784   1.707   2.154  0.00  0.00    -0.204 OA
ATOM      2  C2  BZF d   1       2.267   2.691   2.994  0.00  0.00     0.174 A 
ATOM      3  C3  BZF d   1       1.470   3.778   2.967  0.00  0.00    -0.012 A 
ATOM      4  C3A BZF d   1       0.372   3.419   2.122  0.00  0.00    -0.107 A 
ATOM      5  C4  BZF d   1      -0.756   4.074   1.718  0.00  0.00     0.055 A 
ATOM      6  C5  BZF d   1      -1.589   3.469   0.832  0.00  0.00    -0.016 A 
ATOM      7  C6  BZF d   1      -1.324   2.213   0.326  0.00  0.00     0.022 A 
ATOM      8  C7  BZF d   1      -0.220   1.522   0.701  0.00  0.00     0.029 A 
ATOM      9  C7A BZF d   1       0.607   2.117   1.622  0.00  0.00     0.058 A 
ENDROOT
TORSDOF 0
ENDMDL
