MODEL 1
REMARK minimizedAffinity -4.72630119
REMARK minimizedRMSD -1
REMARK  0 active torsions:
REMARK  status: ('A' for Active; 'I' for Inactive)
ROOT
ATOM      1  O1  BZF d   1       1.202   0.151   1.199  0.00  0.00    -0.204 OA
ATOM      2  C2  BZF d   1       0.940  -0.773   0.205  0.00  0.00     0.174 A 
ATOM      3  C3  BZF d   1      -0.072  -0.354  -0.582  0.00  0.00    -0.012 A 
ATOM      4  C3A BZF d   1      -0.406   0.952  -0.103  0.00  0.00    -0.107 A 
ATOM      5  C4  BZF d   1      -1.323   1.888  -0.489  0.00  0.00     0.055 A 
ATOM      6  C5  BZF d   1      -1.444   3.032   0.235  0.00  0.00    -0.016 A 
ATOM      7  C6  BZF d   1      -0.668   3.271   1.350  0.00  0.00     0.022 A 
ATOM      8  C7  BZF d   1       0.259   2.375   1.768  0.00  0.00     0.029 A 
ATOM      9  C7A BZF d   1       0.406   1.232   1.020  0.00  0.00     0.058 A 
ENDROOT
TORSDOF 0
ENDMDL
