MODEL 1
REMARK minimizedAffinity -3.35940838
REMARK minimizedRMSD -1
REMARK  0 active torsions:
REMARK  status: ('A' for Active; 'I' for Inactive)
ROOT
ATOM      1  O1  BZF d   1       0.050  -0.018  -0.877  0.00  0.00    -0.204 OA
ATOM      2  C2  BZF d   1       0.404  -0.721   0.258  0.00  0.00     0.174 A 
ATOM      3  C3  BZF d   1       0.253   0.041   1.360  0.00  0.00    -0.012 A 
ATOM      4  C3A BZF d   1      -0.313   1.270   0.893  0.00  0.00    -0.107 A 
ATOM      5  C4  BZF d   1      -0.706   2.419   1.517  0.00  0.00     0.055 A 
ATOM      6  C5  BZF d   1      -1.150   3.460   0.764  0.00  0.00    -0.016 A 
ATOM      7  C6  BZF d   1      -1.209   3.388  -0.612  0.00  0.00     0.022 A 
ATOM      8  C7  BZF d   1      -0.835   2.267  -1.275  0.00  0.00     0.029 A 
ATOM      9  C7A BZF d   1      -0.417   1.202  -0.515  0.00  0.00     0.058 A 
ENDROOT
TORSDOF 0
ENDMDL
