MODEL 1
REMARK minimizedAffinity -1.07728255
REMARK minimizedRMSD -1
REMARK  0 active torsions:
REMARK  status: ('A' for Active; 'I' for Inactive)
ROOT
ATOM      1  O1  BZF d   1       2.498   5.795   0.015  0.00  0.00    -0.204 OA
ATOM      2  C2  BZF d   1       1.436   5.851  -0.866  0.00  0.00     0.174 A 
ATOM      3  C3  BZF d   1       0.512   4.917  -0.562  0.00  0.00    -0.012 A 
ATOM      4  C3A BZF d   1       0.986   4.295   0.637  0.00  0.00    -0.107 A 
ATOM      5  C4  BZF d   1       0.497   3.302   1.436  0.00  0.00     0.055 A 
ATOM      6  C5  BZF d   1       1.240   2.877   2.492  0.00  0.00    -0.016 A 
ATOM      7  C6  BZF d   1       2.477   3.419   2.774  0.00  0.00     0.022 A 
ATOM      8  C7  BZF d   1       3.002   4.409   2.012  0.00  0.00     0.029 A 
ATOM      9  C7A BZF d   1       2.239   4.863   0.964  0.00  0.00     0.058 A 
ENDROOT
TORSDOF 0
ENDMDL
