MODEL 1
REMARK minimizedAffinity -2.10091853
REMARK minimizedRMSD -1
REMARK  0 active torsions:
REMARK  status: ('A' for Active; 'I' for Inactive)
ROOT
ATOM      1  O1  BZF d   1       0.435   1.831  -0.958  0.00  0.00    -0.204 OA
ATOM      2  C2  BZF d   1       0.781   0.696  -1.666  0.00  0.00     0.174 A 
ATOM      3  C3  BZF d   1       1.339  -0.224  -0.853  0.00  0.00    -0.012 A 
ATOM      4  C3A BZF d   1       1.259   0.337   0.461  0.00  0.00    -0.107 A 
ATOM      5  C4  BZF d   1       1.634  -0.108   1.697  0.00  0.00     0.055 A 
ATOM      6  C5  BZF d   1       1.482   0.714   2.768  0.00  0.00    -0.016 A 
ATOM      7  C6  BZF d   1       0.965   1.986   2.641  0.00  0.00     0.022 A 
ATOM      8  C7  BZF d   1       0.574   2.470   1.436  0.00  0.00     0.029 A 
ATOM      9  C7A BZF d   1       0.696   1.630   0.356  0.00  0.00     0.058 A 
ENDROOT
TORSDOF 0
ENDMDL
