MODEL 1
REMARK minimizedAffinity -0.805475533
REMARK minimizedRMSD -1
REMARK  0 active torsions:
REMARK  status: ('A' for Active; 'I' for Inactive)
ROOT
ATOM      1  O1  BZF d   1       1.332   0.135   3.260  0.00  0.00    -0.204 OA
ATOM      2  C2  BZF d   1       1.454  -1.181   2.857  0.00  0.00     0.174 A 
ATOM      3  C3  BZF d   1       1.021  -1.335   1.589  0.00  0.00    -0.012 A 
ATOM      4  C3A BZF d   1       0.688  -0.017   1.142  0.00  0.00    -0.107 A 
ATOM      5  C4  BZF d   1       0.216   0.483  -0.037  0.00  0.00     0.055 A 
ATOM      6  C5  BZF d   1      -0.074   1.808  -0.124  0.00  0.00    -0.016 A 
ATOM      7  C6  BZF d   1       0.091   2.659   0.949  0.00  0.00     0.022 A 
ATOM      8  C7  BZF d   1       0.561   2.210   2.138  0.00  0.00     0.029 A 
ATOM      9  C7A BZF d   1       0.886   0.878   2.219  0.00  0.00     0.058 A 
ENDROOT
TORSDOF 0
ENDMDL
