MODEL 1
REMARK minimizedAffinity 3.2011652
REMARK minimizedRMSD -1
REMARK  0 active torsions:
REMARK  status: ('A' for Active; 'I' for Inactive)
ROOT
ATOM      1  O1  BZF d   1       2.624   5.385   0.011  0.00  0.00    -0.204 OA
ATOM      2  C2  BZF d   1       1.574   5.665  -0.842  0.00  0.00     0.174 A 
ATOM      3  C3  BZF d   1       0.465   4.992  -0.472  0.00  0.00    -0.012 A 
ATOM      4  C3A BZF d   1       0.821   4.317   0.739  0.00  0.00    -0.107 A 
ATOM      5  C4  BZF d   1       0.138   3.500   1.594  0.00  0.00     0.055 A 
ATOM      6  C5  BZF d   1       0.796   2.947   2.646  0.00  0.00    -0.016 A 
ATOM      7  C6  BZF d   1       2.137   3.183   2.870  0.00  0.00     0.022 A 
ATOM      8  C7  BZF d   1       2.855   3.990   2.051  0.00  0.00     0.029 A 
ATOM      9  C7A BZF d   1       2.185   4.578   1.006  0.00  0.00     0.058 A 
ENDROOT
TORSDOF 0
ENDMDL
