MODEL 1
REMARK minimizedAffinity 0.674319744
REMARK minimizedRMSD -1
REMARK  0 active torsions:
REMARK  status: ('A' for Active; 'I' for Inactive)
ROOT
ATOM      1  C   UNL d   1       5.538  -0.991   0.276  0.00  0.00     0.172 C 
ATOM      2  N   UNL d   1       4.442  -0.052   0.228  0.00  0.00    -0.070 N 
ATOM      3  C1  UNL d   1       4.210   0.853  -0.774  0.00  0.00    -0.004 A 
ATOM      4  C2  UNL d   1       3.073   1.559  -0.449  0.00  0.00    -0.047 A 
ATOM      5  C3  UNL d   1       2.606   1.063   0.792  0.00  0.00    -0.047 A 
ATOM      6  C4  UNL d   1       3.472   0.066   1.188  0.00  0.00    -0.004 A 
ENDROOT
TORSDOF 0
ENDMDL
