MODEL 1
REMARK minimizedAffinity 9.97937679
REMARK minimizedRMSD -1
REMARK  0 active torsions:
REMARK  status: ('A' for Active; 'I' for Inactive)
ROOT
ATOM      1  C   UNL d   1      -5.657  -2.804  -4.330  0.00  0.00     0.172 C 
ATOM      2  N   UNL d   1      -4.314  -2.783  -3.797  0.00  0.00    -0.070 N 
ATOM      3  C1  UNL d   1      -3.983  -2.756  -2.469  0.00  0.00    -0.004 A 
ATOM      4  C2  UNL d   1      -2.608  -2.742  -2.378  0.00  0.00    -0.047 A 
ATOM      5  C3  UNL d   1      -2.095  -2.761  -3.697  0.00  0.00    -0.047 A 
ATOM      6  C4  UNL d   1      -3.174  -2.786  -4.556  0.00  0.00    -0.004 A 
ENDROOT
TORSDOF 0
ENDMDL
