MODEL 1
REMARK minimizedAffinity 5.67578888
REMARK minimizedRMSD -1
REMARK  0 active torsions:
REMARK  status: ('A' for Active; 'I' for Inactive)
ROOT
ATOM      1  C   UNL d   1       4.025   2.015  -0.833  0.00  0.00     0.172 C 
ATOM      2  N   UNL d   1       3.280   1.459   0.272  0.00  0.00    -0.070 N 
ATOM      3  C1  UNL d   1       3.410   0.188   0.764  0.00  0.00    -0.004 A 
ATOM      4  C2  UNL d   1       2.527   0.049   1.813  0.00  0.00    -0.047 A 
ATOM      5  C3  UNL d   1       1.843   1.279   1.956  0.00  0.00    -0.047 A 
ATOM      6  C4  UNL d   1       2.328   2.134   0.990  0.00  0.00    -0.004 A 
ENDROOT
TORSDOF 0
ENDMDL
