MODEL 1
REMARK minimizedAffinity 7.1013341
REMARK minimizedRMSD -1
REMARK  0 active torsions:
REMARK  status: ('A' for Active; 'I' for Inactive)
ROOT
ATOM      1  C   UNL d   1       6.000  -1.248   0.743  0.00  0.00     0.172 C 
ATOM      2  N   UNL d   1       4.829  -1.099   1.576  0.00  0.00    -0.070 N 
ATOM      3  C1  UNL d   1       4.783  -1.296   2.930  0.00  0.00    -0.004 A 
ATOM      4  C2  UNL d   1       3.492  -1.054   3.347  0.00  0.00    -0.047 A 
ATOM      5  C3  UNL d   1       2.736  -0.701   2.204  0.00  0.00    -0.047 A 
ATOM      6  C4  UNL d   1       3.589  -0.737   1.121  0.00  0.00    -0.004 A 
ENDROOT
TORSDOF 0
ENDMDL
