MODEL 1
REMARK minimizedAffinity 9.18154049
REMARK minimizedRMSD -1
REMARK  0 active torsions:
REMARK  status: ('A' for Active; 'I' for Inactive)
ROOT
ATOM      1  C   UNL d   1       4.137   5.999   5.915  0.00  0.00     0.172 C 
ATOM      2  N   UNL d   1       4.617   5.999   4.553  0.00  0.00    -0.070 N 
ATOM      3  C1  UNL d   1       3.833   5.998   3.431  0.00  0.00    -0.004 A 
ATOM      4  C2  UNL d   1       4.666   5.998   2.333  0.00  0.00    -0.047 A 
ATOM      5  C3  UNL d   1       5.998   5.998   2.813  0.00  0.00    -0.047 A 
ATOM      6  C4  UNL d   1       5.938   5.998   4.191  0.00  0.00    -0.004 A 
ENDROOT
TORSDOF 0
ENDMDL
