MODEL 1
REMARK minimizedAffinity 4.84030342
REMARK minimizedRMSD -1
REMARK  0 active torsions:
REMARK  status: ('A' for Active; 'I' for Inactive)
ROOT
ATOM      1  C   UNL d   1       3.871   5.974   1.999  0.00  0.00     0.172 C 
ATOM      2  N   UNL d   1       4.468   5.976   3.314  0.00  0.00    -0.070 N 
ATOM      3  C1  UNL d   1       3.786   6.000   4.501  0.00  0.00    -0.004 A 
ATOM      4  C2  UNL d   1       4.713   5.993   5.521  0.00  0.00    -0.047 A 
ATOM      5  C3  UNL d   1       5.997   5.965   4.926  0.00  0.00    -0.047 A 
ATOM      6  C4  UNL d   1       5.816   5.955   3.559  0.00  0.00    -0.004 A 
ENDROOT
TORSDOF 0
ENDMDL
