MODEL 1
REMARK minimizedAffinity 11.2805929
REMARK minimizedRMSD -1
REMARK  0 active torsions:
REMARK  status: ('A' for Active; 'I' for Inactive)
ROOT
ATOM      1  C   UNL d   1       5.241  -1.070   4.195  0.00  0.00     0.172 C 
ATOM      2  N   UNL d   1       5.035  -0.895   2.776  0.00  0.00    -0.070 N 
ATOM      3  C1  UNL d   1       3.860  -0.519   2.181  0.00  0.00    -0.004 A 
ATOM      4  C2  UNL d   1       4.075  -0.466   0.821  0.00  0.00    -0.047 A 
ATOM      5  C3  UNL d   1       5.425  -0.823   0.590  0.00  0.00    -0.047 A 
ATOM      6  C4  UNL d   1       5.996  -1.084   1.818  0.00  0.00    -0.004 A 
ENDROOT
TORSDOF 0
ENDMDL
