MODEL 1
REMARK minimizedAffinity 6.25855541
REMARK minimizedRMSD -1
REMARK  0 active torsions:
REMARK  status: ('A' for Active; 'I' for Inactive)
ROOT
ATOM      1  C   UNL d   1      -5.993  -0.731   5.338  0.00  0.00     0.172 C 
ATOM      2  N   UNL d   1      -5.325   0.394   4.725  0.00  0.00    -0.070 N 
ATOM      3  C1  UNL d   1      -4.625   0.362   3.549  0.00  0.00    -0.004 A 
ATOM      4  C2  UNL d   1      -4.144   1.631   3.310  0.00  0.00    -0.047 A 
ATOM      5  C3  UNL d   1      -4.570   2.454   4.379  0.00  0.00    -0.047 A 
ATOM      6  C4  UNL d   1      -5.300   1.662   5.241  0.00  0.00    -0.004 A 
ENDROOT
TORSDOF 0
ENDMDL
