MODEL 1
REMARK minimizedAffinity 4.52414083
REMARK minimizedRMSD -1
REMARK  0 active torsions:
REMARK  status: ('A' for Active; 'I' for Inactive)
ROOT
ATOM      1  C   UNL d   1      -2.802  -2.253  -2.208  0.00  0.00     0.172 C 
ATOM      2  N   UNL d   1      -3.984  -3.059  -2.407  0.00  0.00    -0.070 N 
ATOM      3  C1  UNL d   1      -5.103  -2.678  -3.099  0.00  0.00    -0.004 A 
ATOM      4  C2  UNL d   1      -5.999  -3.724  -3.059  0.00  0.00    -0.047 A 
ATOM      5  C3  UNL d   1      -5.399  -4.769  -2.316  0.00  0.00    -0.047 A 
ATOM      6  C4  UNL d   1      -4.152  -4.330  -1.925  0.00  0.00    -0.004 A 
ENDROOT
TORSDOF 0
ENDMDL
