MODEL 1
REMARK minimizedAffinity 7.5160985
REMARK minimizedRMSD -1
REMARK  0 active torsions:
REMARK  status: ('A' for Active; 'I' for Inactive)
ROOT
ATOM      1  C   UNL d   1       3.612  -0.582   2.986  0.00  0.00     0.172 C 
ATOM      2  N   UNL d   1       2.440   0.177   2.616  0.00  0.00    -0.070 N 
ATOM      3  C1  UNL d   1       2.382   1.125   1.630  0.00  0.00    -0.004 A 
ATOM      4  C2  UNL d   1       1.094   1.614   1.590  0.00  0.00    -0.047 A 
ATOM      5  C3  UNL d   1       0.353   0.936   2.587  0.00  0.00    -0.047 A 
ATOM      6  C4  UNL d   1       1.211   0.052   3.207  0.00  0.00    -0.004 A 
ENDROOT
TORSDOF 0
ENDMDL
