MODEL 1
REMARK minimizedAffinity 0.0135164671
REMARK minimizedRMSD -1
REMARK  0 active torsions:
REMARK  status: ('A' for Active; 'I' for Inactive)
ROOT
ATOM      1  C   UNL d   1      -5.999  -1.126   4.813  0.00  0.00     0.172 C 
ATOM      2  N   UNL d   1      -5.339   0.089   4.397  0.00  0.00    -0.070 N 
ATOM      3  C1  UNL d   1      -5.507   1.323   4.965  0.00  0.00    -0.004 A 
ATOM      4  C2  UNL d   1      -4.705   2.214   4.285  0.00  0.00    -0.047 A 
ATOM      5  C3  UNL d   1      -4.032   1.489   3.273  0.00  0.00    -0.047 A 
ATOM      6  C4  UNL d   1      -4.443   0.176   3.365  0.00  0.00    -0.004 A 
ENDROOT
TORSDOF 0
ENDMDL
