MODEL 1
REMARK minimizedAffinity -0.557187438
REMARK minimizedRMSD -1
REMARK  0 active torsions:
REMARK  status: ('A' for Active; 'I' for Inactive)
ROOT
ATOM      1  C   UNL d   1      -2.671   5.953  -1.731  0.00  0.00     0.172 C 
ATOM      2  N   UNL d   1      -3.867   5.752  -0.948  0.00  0.00    -0.070 N 
ATOM      3  C1  UNL d   1      -5.147   6.000  -1.367  0.00  0.00    -0.004 A 
ATOM      4  C2  UNL d   1      -6.000   5.681  -0.333  0.00  0.00    -0.047 A 
ATOM      5  C3  UNL d   1      -5.205   5.227   0.747  0.00  0.00    -0.047 A 
ATOM      6  C4  UNL d   1      -3.889   5.282   0.339  0.00  0.00    -0.004 A 
ENDROOT
TORSDOF 0
ENDMDL
