MODEL 1
REMARK minimizedAffinity 5.61042404
REMARK minimizedRMSD -1
REMARK  0 active torsions:
REMARK  status: ('A' for Active; 'I' for Inactive)
ROOT
ATOM      1  C   UNL d   1      -4.484   3.600   6.000  0.00  0.00     0.172 C 
ATOM      2  N   UNL d   1      -4.448   2.468   5.105  0.00  0.00    -0.070 N 
ATOM      3  C1  UNL d   1      -5.025   1.248   5.336  0.00  0.00    -0.004 A 
ATOM      4  C2  UNL d   1      -4.766   0.444   4.247  0.00  0.00    -0.047 A 
ATOM      5  C3  UNL d   1      -4.004   1.207   3.330  0.00  0.00    -0.047 A 
ATOM      6  C4  UNL d   1      -3.822   2.456   3.886  0.00  0.00    -0.004 A 
ENDROOT
TORSDOF 0
ENDMDL
