MODEL 1
REMARK minimizedAffinity 11.7956743
REMARK minimizedRMSD -1
REMARK  0 active torsions:
REMARK  status: ('A' for Active; 'I' for Inactive)
ROOT
ATOM      1  C   UNL d   1      -5.817  -0.128   5.818  0.00  0.00     0.172 C 
ATOM      2  N   UNL d   1      -4.943   0.562   4.898  0.00  0.00    -0.070 N 
ATOM      3  C1  UNL d   1      -4.745   0.230   3.585  0.00  0.00    -0.004 A 
ATOM      4  C2  UNL d   1      -3.844   1.128   3.054  0.00  0.00    -0.047 A 
ATOM      5  C3  UNL d   1      -3.488   2.030   4.084  0.00  0.00    -0.047 A 
ATOM      6  C4  UNL d   1      -4.183   1.656   5.215  0.00  0.00    -0.004 A 
ENDROOT
TORSDOF 0
ENDMDL
