MODEL 1
REMARK minimizedAffinity 3.02675939
REMARK minimizedRMSD -1
REMARK  0 active torsions:
REMARK  status: ('A' for Active; 'I' for Inactive)
ROOT
ATOM      1  C   UNL d   1       2.611   6.000  -6.000  0.00  0.00     0.172 C 
ATOM      2  N   UNL d   1       2.786   4.864  -5.126  0.00  0.00    -0.070 N 
ATOM      3  C1  UNL d   1       2.656   4.878  -3.763  0.00  0.00    -0.004 A 
ATOM      4  C2  UNL d   1       2.900   3.602  -3.302  0.00  0.00    -0.047 A 
ATOM      5  C3  UNL d   1       3.188   2.793  -4.428  0.00  0.00    -0.047 A 
ATOM      6  C4  UNL d   1       3.110   3.600  -5.543  0.00  0.00    -0.004 A 
ENDROOT
TORSDOF 0
ENDMDL
