MODEL 1
REMARK minimizedAffinity -4.71547556
REMARK minimizedRMSD -1
REMARK  1 active torsions:
REMARK  status: ('A' for Active; 'I' for Inactive)
REMARK    1  A    between atoms: N_2  and  C1_3 
ROOT
ATOM      1  C1  UNL d   1      -0.212  -0.056  -0.023  0.00  0.00     0.143 A 
ATOM      2  C2  UNL d   1      -1.595  -0.268  -0.010  0.00  0.00    -0.057 A 
ATOM      3  C3  UNL d   1      -2.392   0.211   1.037  0.00  0.00     0.033 A 
ATOM      4  C4  UNL d   1      -1.814   0.888   2.106  0.00  0.00    -0.042 A 
ATOM      5  C5  UNL d   1      -0.439   1.088   2.126  0.00  0.00     0.033 A 
ATOM      6  C6  UNL d   1       0.351   0.613   1.075  0.00  0.00    -0.057 A 
ENDROOT
BRANCH   1   7
ATOM      7  N   UNL d   1       0.648  -0.593  -0.985  0.00  0.00    -0.732 N 
ATOM      8  C   UNL d   1       1.023   0.179  -2.151  0.00  0.00     0.284 C 
ATOM      9  H3  UNL d   1       1.413  -1.120  -0.571  0.00  0.00     0.395 HD
ENDBRANCH   1   7
TORSDOF 1
ENDMDL
