MODEL 1
REMARK minimizedAffinity -3.06426501
REMARK minimizedRMSD -1
REMARK  1 active torsions:
REMARK  status: ('A' for Active; 'I' for Inactive)
REMARK    1  A    between atoms: N_2  and  C1_3 
ROOT
ATOM      1  C1  UNL d   1      -1.056   0.397   0.889  0.00  0.00     0.143 A 
ATOM      2  C2  UNL d   1      -2.035  -0.272   1.632  0.00  0.00    -0.057 A 
ATOM      3  C3  UNL d   1      -2.337   0.110   2.945  0.00  0.00     0.033 A 
ATOM      4  C4  UNL d   1      -1.643   1.153   3.550  0.00  0.00    -0.042 A 
ATOM      5  C5  UNL d   1      -0.649   1.815   2.839  0.00  0.00     0.033 A 
ATOM      6  C6  UNL d   1      -0.356   1.434   1.526  0.00  0.00    -0.057 A 
ENDROOT
BRANCH   1   7
ATOM      7  N   UNL d   1      -0.641   0.001  -0.385  0.00  0.00    -0.732 N 
ATOM      8  C   UNL d   1       0.702  -0.493  -0.602  0.00  0.00     0.284 C 
ATOM      9  H3  UNL d   1      -1.360  -0.516  -0.884  0.00  0.00     0.395 HD
ENDBRANCH   1   7
TORSDOF 1
ENDMDL
