MODEL 1
REMARK minimizedAffinity -2.57259965
REMARK minimizedRMSD -1
REMARK  1 active torsions:
REMARK  status: ('A' for Active; 'I' for Inactive)
REMARK    1  A    between atoms: N_2  and  C1_3 
ROOT
ATOM      1  C1  UNL d   1      -0.983   0.246   0.542  0.00  0.00     0.143 A 
ATOM      2  C2  UNL d   1      -1.274   1.006   1.680  0.00  0.00    -0.057 A 
ATOM      3  C3  UNL d   1      -0.254   1.498   2.504  0.00  0.00     0.033 A 
ATOM      4  C4  UNL d   1       1.077   1.213   2.219  0.00  0.00    -0.042 A 
ATOM      5  C5  UNL d   1       1.388   0.439   1.107  0.00  0.00     0.033 A 
ATOM      6  C6  UNL d   1       0.366  -0.044   0.284  0.00  0.00    -0.057 A 
ENDROOT
BRANCH   1   7
ATOM      7  N   UNL d   1      -1.956  -0.355  -0.261  0.00  0.00    -0.732 N 
ATOM      8  C   UNL d   1      -3.356  -0.027  -0.094  0.00  0.00     0.284 C 
ATOM      9  H3  UNL d   1      -1.661  -0.438  -1.232  0.00  0.00     0.395 HD
ENDBRANCH   1   7
TORSDOF 1
ENDMDL
