MODEL 1
REMARK minimizedAffinity -4.42944336
REMARK minimizedRMSD -1
REMARK  1 active torsions:
REMARK  status: ('A' for Active; 'I' for Inactive)
REMARK    1  A    between atoms: N_2  and  C1_3 
ROOT
ATOM      1  C1  UNL d   1      -0.240  -0.035  -0.033  0.00  0.00     0.143 A 
ATOM      2  C2  UNL d   1      -1.548   0.268   0.363  0.00  0.00    -0.057 A 
ATOM      3  C3  UNL d   1      -1.811   0.881   1.594  0.00  0.00     0.033 A 
ATOM      4  C4  UNL d   1      -0.769   1.178   2.466  0.00  0.00    -0.042 A 
ATOM      5  C5  UNL d   1       0.536   0.863   2.105  0.00  0.00     0.033 A 
ATOM      6  C6  UNL d   1       0.793   0.257   0.872  0.00  0.00    -0.057 A 
ENDROOT
BRANCH   1   7
ATOM      7  N   UNL d   1       0.077  -0.733  -1.200  0.00  0.00    -0.732 N 
ATOM      8  C   UNL d   1       0.571  -0.033  -2.367  0.00  0.00     0.284 C 
ATOM      9  H3  UNL d   1       0.554  -1.611  -1.009  0.00  0.00     0.395 HD
ENDBRANCH   1   7
TORSDOF 1
ENDMDL
