MODEL 1
REMARK minimizedAffinity -3.64480639
REMARK minimizedRMSD -1
REMARK  1 active torsions:
REMARK  status: ('A' for Active; 'I' for Inactive)
REMARK    1  A    between atoms: N_2  and  C1_3 
ROOT
ATOM      1  C1  UNL d   1      -0.130   0.158   0.207  0.00  0.00     0.143 A 
ATOM      2  C2  UNL d   1      -1.469  -0.114   0.505  0.00  0.00    -0.057 A 
ATOM      3  C3  UNL d   1      -2.097   0.461   1.617  0.00  0.00     0.033 A 
ATOM      4  C4  UNL d   1      -1.385   1.298   2.469  0.00  0.00    -0.042 A 
ATOM      5  C5  UNL d   1      -0.046   1.562   2.207  0.00  0.00     0.033 A 
ATOM      6  C6  UNL d   1       0.574   0.991   1.091  0.00  0.00    -0.057 A 
ENDROOT
BRANCH   1   7
ATOM      7  N   UNL d   1       0.578  -0.460  -0.827  0.00  0.00    -0.732 N 
ATOM      8  C   UNL d   1       0.686   0.171  -2.125  0.00  0.00     0.284 C 
ATOM      9  H3  UNL d   1       1.439  -0.894  -0.503  0.00  0.00     0.395 HD
ENDBRANCH   1   7
TORSDOF 1
ENDMDL
