MODEL 1
REMARK minimizedAffinity -3.31118321
REMARK minimizedRMSD -1
REMARK  1 active torsions:
REMARK  status: ('A' for Active; 'I' for Inactive)
REMARK    1  A    between atoms: N_2  and  C1_3 
ROOT
ATOM      1  C1  UNL d   1      -0.242   0.150   0.433  0.00  0.00     0.143 A 
ATOM      2  C2  UNL d   1      -0.007   0.635   1.724  0.00  0.00    -0.057 A 
ATOM      3  C3  UNL d   1      -1.061   0.856   2.619  0.00  0.00     0.033 A 
ATOM      4  C4  UNL d   1      -2.375   0.623   2.226  0.00  0.00    -0.042 A 
ATOM      5  C5  UNL d   1      -2.634   0.165   0.939  0.00  0.00     0.033 A 
ATOM      6  C6  UNL d   1      -1.576  -0.060   0.053  0.00  0.00    -0.057 A 
ENDROOT
BRANCH   1   7
ATOM      7  N   UNL d   1       0.755   0.003  -0.535  0.00  0.00    -0.732 N 
ATOM      8  C   UNL d   1       0.430  -0.481  -1.860  0.00  0.00     0.284 C 
ATOM      9  H3  UNL d   1       1.422   0.772  -0.526  0.00  0.00     0.395 HD
ENDBRANCH   1   7
TORSDOF 1
ENDMDL
