MODEL 1
REMARK minimizedAffinity -4.1483736
REMARK minimizedRMSD -1
REMARK  1 active torsions:
REMARK  status: ('A' for Active; 'I' for Inactive)
REMARK    1  A    between atoms: N_2  and  C1_3 
ROOT
ATOM      1  C1  UNL d   1      -0.573   0.050   0.389  0.00  0.00     0.143 A 
ATOM      2  C2  UNL d   1       0.409   0.987   0.730  0.00  0.00    -0.057 A 
ATOM      3  C3  UNL d   1       0.456   1.556   2.009  0.00  0.00     0.033 A 
ATOM      4  C4  UNL d   1      -0.498   1.217   2.963  0.00  0.00    -0.042 A 
ATOM      5  C5  UNL d   1      -1.497   0.307   2.638  0.00  0.00     0.033 A 
ATOM      6  C6  UNL d   1      -1.535  -0.263   1.362  0.00  0.00    -0.057 A 
ENDROOT
BRANCH   1   7
ATOM      7  N   UNL d   1      -0.732  -0.477  -0.895  0.00  0.00    -0.732 N 
ATOM      8  C   UNL d   1       0.241  -0.202  -1.931  0.00  0.00     0.284 C 
ATOM      9  H3  UNL d   1      -1.065  -1.439  -0.882  0.00  0.00     0.395 HD
ENDBRANCH   1   7
TORSDOF 1
ENDMDL
