MODEL 1
REMARK minimizedAffinity -3.73172402
REMARK minimizedRMSD -1
REMARK  1 active torsions:
REMARK  status: ('A' for Active; 'I' for Inactive)
REMARK    1  A    between atoms: N_2  and  C1_3 
ROOT
ATOM      1  C1  UNL d   1      -0.362   0.147  -0.088  0.00  0.00     0.143 A 
ATOM      2  C2  UNL d   1       0.480   0.949   0.691  0.00  0.00    -0.057 A 
ATOM      3  C3  UNL d   1       0.013   1.578   1.852  0.00  0.00     0.033 A 
ATOM      4  C4  UNL d   1      -1.315   1.439   2.239  0.00  0.00    -0.042 A 
ATOM      5  C5  UNL d   1      -2.176   0.668   1.466  0.00  0.00     0.033 A 
ATOM      6  C6  UNL d   1      -1.703   0.037   0.312  0.00  0.00    -0.057 A 
ENDROOT
BRANCH   1   7
ATOM      7  N   UNL d   1       0.016  -0.425  -1.305  0.00  0.00    -0.732 N 
ATOM      8  C   UNL d   1       0.341   0.410  -2.442  0.00  0.00     0.284 C 
ATOM      9  H3  UNL d   1       0.637  -1.221  -1.184  0.00  0.00     0.395 HD
ENDBRANCH   1   7
TORSDOF 1
ENDMDL
