MODEL 1
REMARK minimizedAffinity 4.703475
REMARK minimizedRMSD -1
REMARK  2 active torsions:
REMARK  status: ('A' for Active; 'I' for Inactive)
REMARK    1  A    between atoms: C1_2  and  C2_3 
REMARK    2  A    between atoms: C2_3  and  C3_4 
ROOT
ATOM      1  C3  UNL d   1      -2.926   3.217   0.138  0.00  0.00    -0.075 A 
ATOM      2  C4  UNL d   1      -3.730   4.036  -0.668  0.00  0.00     0.002 A 
ATOM      3  C5  UNL d   1      -4.009   5.349  -0.287  0.00  0.00     0.002 A 
ATOM      4  C6  UNL d   1      -3.498   5.856   0.906  0.00  0.00    -0.004 A 
ATOM      5  C7  UNL d   1      -2.712   5.045   1.722  0.00  0.00     0.002 A 
ATOM      6  C8  UNL d   1      -2.427   3.733   1.342  0.00  0.00     0.002 A 
ENDROOT
BRANCH   1   7
ATOM      7  C2  UNL d   1      -2.595   1.805  -0.283  0.00  0.00     0.056 C 
BRANCH   7   8
ATOM      8  C1  UNL d   1      -3.484   0.737   0.364  0.00  0.00     0.007 C 
ATOM      9  C   UNL d   1      -2.810  -0.625   0.463  0.00  0.00     0.009 C 
ENDBRANCH   7   8
ENDBRANCH   1   7
TORSDOF 2
ENDMDL
