MODEL 1
REMARK minimizedAffinity 21.3335552
REMARK minimizedRMSD -1
REMARK  2 active torsions:
REMARK  status: ('A' for Active; 'I' for Inactive)
REMARK    1  A    between atoms: C1_2  and  C2_3 
REMARK    2  A    between atoms: C2_3  and  C3_4 
ROOT
ATOM      1  C3  UNL d   1       5.481   2.405  -4.240  0.00  0.00    -0.075 A 
ATOM      2  C4  UNL d   1       5.545   2.025  -5.588  0.00  0.00     0.002 A 
ATOM      3  C5  UNL d   1       5.052   0.786  -5.999  0.00  0.00     0.002 A 
ATOM      4  C6  UNL d   1       4.500  -0.091  -5.068  0.00  0.00    -0.004 A 
ATOM      5  C7  UNL d   1       4.447   0.269  -3.723  0.00  0.00     0.002 A 
ATOM      6  C8  UNL d   1       4.935   1.510  -3.310  0.00  0.00     0.002 A 
ENDROOT
BRANCH   1   7
ATOM      7  C2  UNL d   1       5.986   3.756  -3.793  0.00  0.00     0.056 C 
BRANCH   7   8
ATOM      8  C1  UNL d   1       5.994   3.948  -2.273  0.00  0.00     0.007 C 
ATOM      9  C   UNL d   1       5.361   5.260  -1.830  0.00  0.00     0.009 C 
ENDBRANCH   7   8
ENDBRANCH   1   7
TORSDOF 2
ENDMDL
