MODEL 1
REMARK minimizedAffinity 14.278841
REMARK minimizedRMSD -1
REMARK  2 active torsions:
REMARK  status: ('A' for Active; 'I' for Inactive)
REMARK    1  A    between atoms: C1_2  and  C2_3 
REMARK    2  A    between atoms: C2_3  and  C3_4 
ROOT
ATOM      1  C3  UNL d   1       4.315  -3.937  -3.347  0.00  0.00    -0.075 A 
ATOM      2  C4  UNL d   1       4.801  -4.730  -4.397  0.00  0.00     0.002 A 
ATOM      3  C5  UNL d   1       4.428  -4.466  -5.715  0.00  0.00     0.002 A 
ATOM      4  C6  UNL d   1       3.559  -3.414  -5.998  0.00  0.00    -0.004 A 
ATOM      5  C7  UNL d   1       3.058  -2.631  -4.962  0.00  0.00     0.002 A 
ATOM      6  C8  UNL d   1       3.433  -2.890  -3.642  0.00  0.00     0.002 A 
ENDROOT
BRANCH   1   7
ATOM      7  C2  UNL d   1       4.739  -4.200  -1.921  0.00  0.00     0.056 C 
BRANCH   7   8
ATOM      8  C1  UNL d   1       6.000  -3.441  -1.495  0.00  0.00     0.007 C 
ATOM      9  C   UNL d   1       5.704  -2.073  -0.896  0.00  0.00     0.009 C 
ENDBRANCH   7   8
ENDBRANCH   1   7
TORSDOF 2
ENDMDL
