MODEL 1
REMARK minimizedAffinity 8.49729156
REMARK minimizedRMSD -1
REMARK  2 active torsions:
REMARK  status: ('A' for Active; 'I' for Inactive)
REMARK    1  A    between atoms: C1_2  and  C2_3 
REMARK    2  A    between atoms: C2_3  and  C3_4 
ROOT
ATOM      1  C3  UNL d   1      -2.770   3.861   0.167  0.00  0.00    -0.075 A 
ATOM      2  C4  UNL d   1      -3.655   3.864  -0.921  0.00  0.00     0.002 A 
ATOM      3  C5  UNL d   1      -4.533   4.930  -1.117  0.00  0.00     0.002 A 
ATOM      4  C6  UNL d   1      -4.545   6.000  -0.224  0.00  0.00    -0.004 A 
ATOM      5  C7  UNL d   1      -3.682   6.000   0.869  0.00  0.00     0.002 A 
ATOM      6  C8  UNL d   1      -2.799   4.936   1.065  0.00  0.00     0.002 A 
ENDROOT
BRANCH   1   7
ATOM      7  C2  UNL d   1      -1.796   2.725   0.368  0.00  0.00     0.056 C 
BRANCH   7   8
ATOM      8  C1  UNL d   1      -0.724   3.001   1.428  0.00  0.00     0.007 C 
ATOM      9  C   UNL d   1       0.378   3.931   0.938  0.00  0.00     0.009 C 
ENDBRANCH   7   8
ENDBRANCH   1   7
TORSDOF 2
ENDMDL
