MODEL 1
REMARK minimizedAffinity 12.1157694
REMARK minimizedRMSD -1
REMARK  2 active torsions:
REMARK  status: ('A' for Active; 'I' for Inactive)
REMARK    1  A    between atoms: C1_2  and  C2_3 
REMARK    2  A    between atoms: C2_3  and  C3_4 
ROOT
ATOM      1  C3  UNL d   1       4.975  -0.482  -5.158  0.00  0.00    -0.075 A 
ATOM      2  C4  UNL d   1       4.837  -1.595  -5.999  0.00  0.00     0.002 A 
ATOM      3  C5  UNL d   1       4.040  -2.676  -5.620  0.00  0.00     0.002 A 
ATOM      4  C6  UNL d   1       3.381  -2.662  -4.392  0.00  0.00    -0.004 A 
ATOM      5  C7  UNL d   1       3.525  -1.569  -3.541  0.00  0.00     0.002 A 
ATOM      6  C8  UNL d   1       4.318  -0.485  -3.920  0.00  0.00     0.002 A 
ENDROOT
BRANCH   1   7
ATOM      7  C2  UNL d   1       5.812   0.703  -5.575  0.00  0.00     0.056 C 
BRANCH   7   8
ATOM      8  C1  UNL d   1       5.148   2.059  -5.315  0.00  0.00     0.007 C 
ATOM      9  C   UNL d   1       5.997   2.989  -4.459  0.00  0.00     0.009 C 
ENDBRANCH   7   8
ENDBRANCH   1   7
TORSDOF 2
ENDMDL
