MODEL 1
REMARK minimizedAffinity 17.8579483
REMARK minimizedRMSD -1
REMARK  2 active torsions:
REMARK  status: ('A' for Active; 'I' for Inactive)
REMARK    1  A    between atoms: C1_2  and  C2_3 
REMARK    2  A    between atoms: C2_3  and  C3_4 
ROOT
ATOM      1  C3  UNL d   1       0.144   3.904   1.083  0.00  0.00    -0.075 A 
ATOM      2  C4  UNL d   1       0.591   2.621   0.736  0.00  0.00     0.002 A 
ATOM      3  C5  UNL d   1      -0.317   1.637   0.343  0.00  0.00     0.002 A 
ATOM      4  C6  UNL d   1      -1.681   1.919   0.302  0.00  0.00    -0.004 A 
ATOM      5  C7  UNL d   1      -2.137   3.186   0.661  0.00  0.00     0.002 A 
ATOM      6  C8  UNL d   1      -1.231   4.174   1.050  0.00  0.00     0.002 A 
ENDROOT
BRANCH   1   7
ATOM      7  C2  UNL d   1       1.124   4.982   1.480  0.00  0.00     0.056 C 
BRANCH   7   8
ATOM      8  C1  UNL d   1       0.573   5.979   2.505  0.00  0.00     0.007 C 
ATOM      9  C   UNL d   1       1.362   6.000   3.807  0.00  0.00     0.009 C 
ENDBRANCH   7   8
ENDBRANCH   1   7
TORSDOF 2
ENDMDL
