MODEL 1
REMARK minimizedAffinity 13.2581377
REMARK minimizedRMSD -1
REMARK  2 active torsions:
REMARK  status: ('A' for Active; 'I' for Inactive)
REMARK    1  A    between atoms: C1_2  and  C2_3 
REMARK    2  A    between atoms: C2_3  and  C3_4 
ROOT
ATOM      1  C3  UNL d   1       3.340   5.400  -0.735  0.00  0.00    -0.075 A 
ATOM      2  C4  UNL d   1       3.653   5.969  -1.978  0.00  0.00     0.002 A 
ATOM      3  C5  UNL d   1       4.972   5.998  -2.431  0.00  0.00     0.002 A 
ATOM      4  C6  UNL d   1       5.994   5.469  -1.646  0.00  0.00    -0.004 A 
ATOM      5  C7  UNL d   1       5.697   4.916  -0.402  0.00  0.00     0.002 A 
ATOM      6  C8  UNL d   1       4.378   4.881   0.052  0.00  0.00     0.002 A 
ENDROOT
BRANCH   1   7
ATOM      7  C2  UNL d   1       1.911   5.338  -0.251  0.00  0.00     0.056 C 
BRANCH   7   8
ATOM      8  C1  UNL d   1       1.771   5.258   1.273  0.00  0.00     0.007 C 
ATOM      9  C   UNL d   1       0.376   4.851   1.727  0.00  0.00     0.009 C 
ENDBRANCH   7   8
ENDBRANCH   1   7
TORSDOF 2
ENDMDL
