MODEL 1
REMARK minimizedAffinity 9.75967789
REMARK minimizedRMSD -1
REMARK  2 active torsions:
REMARK  status: ('A' for Active; 'I' for Inactive)
REMARK    1  A    between atoms: C1_2  and  C2_3 
REMARK    2  A    between atoms: C2_3  and  C3_4 
ROOT
ATOM      1  C3  UNL d   1       5.989   3.477  -4.330  0.00  0.00    -0.075 A 
ATOM      2  C4  UNL d   1       5.997   3.580  -2.931  0.00  0.00     0.002 A 
ATOM      3  C5  UNL d   1       5.991   4.831  -2.314  0.00  0.00     0.002 A 
ATOM      4  C6  UNL d   1       5.989   5.992  -3.084  0.00  0.00    -0.004 A 
ATOM      5  C7  UNL d   1       5.998   5.901  -4.474  0.00  0.00     0.002 A 
ATOM      6  C8  UNL d   1       5.998   4.651  -5.095  0.00  0.00     0.002 A 
ENDROOT
BRANCH   1   7
ATOM      7  C2  UNL d   1       5.965   2.126  -5.005  0.00  0.00     0.056 C 
BRANCH   7   8
ATOM      8  C1  UNL d   1       4.857   1.196  -4.498  0.00  0.00     0.007 C 
ATOM      9  C   UNL d   1       3.458   1.679  -4.853  0.00  0.00     0.009 C 
ENDBRANCH   7   8
ENDBRANCH   1   7
TORSDOF 2
ENDMDL
