MODEL 1
REMARK minimizedAffinity 20.4163361
REMARK minimizedRMSD -1
REMARK  2 active torsions:
REMARK  status: ('A' for Active; 'I' for Inactive)
REMARK    1  A    between atoms: C1_2  and  C2_3 
REMARK    2  A    between atoms: C2_3  and  C3_4 
ROOT
ATOM      1  C3  UNL d   1      -3.007   3.775   0.107  0.00  0.00    -0.075 A 
ATOM      2  C4  UNL d   1      -4.103   3.762  -0.767  0.00  0.00     0.002 A 
ATOM      3  C5  UNL d   1      -4.958   4.862  -0.848  0.00  0.00     0.002 A 
ATOM      4  C6  UNL d   1      -4.733   5.983  -0.051  0.00  0.00    -0.004 A 
ATOM      5  C7  UNL d   1      -3.656   6.000   0.833  0.00  0.00     0.002 A 
ATOM      6  C8  UNL d   1      -2.797   4.902   0.912  0.00  0.00     0.002 A 
ENDROOT
BRANCH   1   7
ATOM      7  C2  UNL d   1      -2.061   2.600   0.178  0.00  0.00     0.056 C 
BRANCH   7   8
ATOM      8  C1  UNL d   1      -0.939   2.763   1.207  0.00  0.00     0.007 C 
ATOM      9  C   UNL d   1       0.045   3.871   0.853  0.00  0.00     0.009 C 
ENDBRANCH   7   8
ENDBRANCH   1   7
TORSDOF 2
ENDMDL
