MODEL 1
REMARK minimizedAffinity 17.3930435
REMARK minimizedRMSD -1
REMARK  2 active torsions:
REMARK  status: ('A' for Active; 'I' for Inactive)
REMARK    1  A    between atoms: C1_2  and  C2_3 
REMARK    2  A    between atoms: C2_3  and  C3_4 
ROOT
ATOM      1  C3  UNL d   1      -0.196  -2.272  -1.072  0.00  0.00    -0.075 A 
ATOM      2  C4  UNL d   1      -0.667  -2.374   0.245  0.00  0.00     0.002 A 
ATOM      3  C5  UNL d   1      -2.036  -2.330   0.513  0.00  0.00     0.002 A 
ATOM      4  C6  UNL d   1      -2.948  -2.174  -0.529  0.00  0.00    -0.004 A 
ATOM      5  C7  UNL d   1      -2.490  -2.055  -1.839  0.00  0.00     0.002 A 
ATOM      6  C8  UNL d   1      -1.122  -2.102  -2.110  0.00  0.00     0.002 A 
ENDROOT
BRANCH   1   7
ATOM      7  C2  UNL d   1       1.282  -2.348  -1.371  0.00  0.00     0.056 C 
BRANCH   7   8
ATOM      8  C1  UNL d   1       1.670  -1.785  -2.743  0.00  0.00     0.007 C 
ATOM      9  C   UNL d   1       3.161  -1.891  -3.035  0.00  0.00     0.009 C 
ENDBRANCH   7   8
ENDBRANCH   1   7
TORSDOF 2
ENDMDL
