MODEL 1
REMARK minimizedAffinity 19.3636951
REMARK minimizedRMSD -1
REMARK  2 active torsions:
REMARK  status: ('A' for Active; 'I' for Inactive)
REMARK    1  A    between atoms: C1_2  and  C2_3 
REMARK    2  A    between atoms: C2_3  and  C3_4 
ROOT
ATOM      1  C3  UNL d   1      -4.010  -3.956  -4.498  0.00  0.00    -0.075 A 
ATOM      2  C4  UNL d   1      -3.239  -4.989  -5.051  0.00  0.00     0.002 A 
ATOM      3  C5  UNL d   1      -3.843  -5.998  -5.802  0.00  0.00     0.002 A 
ATOM      4  C6  UNL d   1      -5.222  -5.995  -5.999  0.00  0.00    -0.004 A 
ATOM      5  C7  UNL d   1      -5.999  -4.983  -5.439  0.00  0.00     0.002 A 
ATOM      6  C8  UNL d   1      -5.397  -3.969  -4.692  0.00  0.00     0.002 A 
ENDROOT
BRANCH   1   7
ATOM      7  C2  UNL d   1      -3.359  -2.844  -3.710  0.00  0.00     0.056 C 
BRANCH   7   8
ATOM      8  C1  UNL d   1      -1.851  -3.022  -3.508  0.00  0.00     0.007 C 
ATOM      9  C   UNL d   1      -1.239  -1.973  -2.589  0.00  0.00     0.009 C 
ENDBRANCH   7   8
ENDBRANCH   1   7
TORSDOF 2
ENDMDL
