MODEL 1
REMARK minimizedAffinity 8.04155922
REMARK minimizedRMSD -1
REMARK  2 active torsions:
REMARK  status: ('A' for Active; 'I' for Inactive)
REMARK    1  A    between atoms: C1_2  and  C2_3 
REMARK    2  A    between atoms: C2_3  and  C3_4 
ROOT
ATOM      1  C3  UNL d   1      -3.057  -3.825  -4.462  0.00  0.00    -0.075 A 
ATOM      2  C4  UNL d   1      -2.370  -4.627  -5.385  0.00  0.00     0.002 A 
ATOM      3  C5  UNL d   1      -3.008  -5.705  -6.000  0.00  0.00     0.002 A 
ATOM      4  C6  UNL d   1      -4.335  -6.000  -5.693  0.00  0.00    -0.004 A 
ATOM      5  C7  UNL d   1      -5.022  -5.220  -4.765  0.00  0.00     0.002 A 
ATOM      6  C8  UNL d   1      -4.387  -4.138  -4.152  0.00  0.00     0.002 A 
ENDROOT
BRANCH   1   7
ATOM      7  C2  UNL d   1      -2.381  -2.639  -3.816  0.00  0.00     0.056 C 
BRANCH   7   8
ATOM      8  C1  UNL d   1      -1.005  -2.308  -4.404  0.00  0.00     0.007 C 
ATOM      9  C   UNL d   1       0.006  -1.869  -3.354  0.00  0.00     0.009 C 
ENDBRANCH   7   8
ENDBRANCH   1   7
TORSDOF 2
ENDMDL
