MODEL 1
REMARK minimizedAffinity 15.0783415
REMARK minimizedRMSD -1
REMARK  2 active torsions:
REMARK  status: ('A' for Active; 'I' for Inactive)
REMARK    1  A    between atoms: C1_2  and  C2_3 
REMARK    2  A    between atoms: C2_3  and  C3_4 
ROOT
ATOM      1  C3  UNL d   1      -0.691  -0.848  -0.812  0.00  0.00    -0.075 A 
ATOM      2  C4  UNL d   1       0.613  -1.103  -0.363  0.00  0.00     0.002 A 
ATOM      3  C5  UNL d   1       1.566  -1.647  -1.225  0.00  0.00     0.002 A 
ATOM      4  C6  UNL d   1       1.225  -1.952  -2.541  0.00  0.00    -0.004 A 
ATOM      5  C7  UNL d   1      -0.072  -1.718  -2.993  0.00  0.00     0.002 A 
ATOM      6  C8  UNL d   1      -1.025  -1.169  -2.134  0.00  0.00     0.002 A 
ENDROOT
BRANCH   1   7
ATOM      7  C2  UNL d   1      -1.718  -0.232   0.107  0.00  0.00     0.056 C 
BRANCH   7   8
ATOM      8  C1  UNL d   1      -2.084   1.213  -0.246  0.00  0.00     0.007 C 
ATOM      9  C   UNL d   1      -1.669   2.216   0.823  0.00  0.00     0.009 C 
ENDBRANCH   7   8
ENDBRANCH   1   7
TORSDOF 2
ENDMDL
