MODEL 1
REMARK minimizedAffinity 13.3238344
REMARK minimizedRMSD -1
REMARK  2 active torsions:
REMARK  status: ('A' for Active; 'I' for Inactive)
REMARK    1  A    between atoms: C1_2  and  C2_3 
REMARK    2  A    between atoms: C2_3  and  C3_4 
ROOT
ATOM      1  C3  UNL d   1      -1.097  -1.121   0.129  0.00  0.00    -0.075 A 
ATOM      2  C4  UNL d   1      -0.794  -2.106   1.081  0.00  0.00     0.002 A 
ATOM      3  C5  UNL d   1       0.068  -3.156   0.763  0.00  0.00     0.002 A 
ATOM      4  C6  UNL d   1       0.628  -3.241  -0.510  0.00  0.00    -0.004 A 
ATOM      5  C7  UNL d   1       0.321  -2.277  -1.468  0.00  0.00     0.002 A 
ATOM      6  C8  UNL d   1      -0.537  -1.223  -1.151  0.00  0.00     0.002 A 
ENDROOT
BRANCH   1   7
ATOM      7  C2  UNL d   1      -2.005   0.035   0.476  0.00  0.00     0.056 C 
BRANCH   7   8
ATOM      8  C1  UNL d   1      -1.265   1.347   0.758  0.00  0.00     0.007 C 
ATOM      9  C   UNL d   1      -1.847   2.537   0.008  0.00  0.00     0.009 C 
ENDBRANCH   7   8
ENDBRANCH   1   7
TORSDOF 2
ENDMDL
