MODEL 1
REMARK minimizedAffinity 10.2746344
REMARK minimizedRMSD -1
REMARK  2 active torsions:
REMARK  status: ('A' for Active; 'I' for Inactive)
REMARK    1  A    between atoms: C1_2  and  C2_3 
REMARK    2  A    between atoms: C2_3  and  C3_4 
ROOT
ATOM      1  C3  UNL d   1       2.084  -1.910  -2.473  0.00  0.00    -0.075 A 
ATOM      2  C4  UNL d   1       1.840  -1.805  -1.096  0.00  0.00     0.002 A 
ATOM      3  C5  UNL d   1       0.535  -1.726  -0.612  0.00  0.00     0.002 A 
ATOM      4  C6  UNL d   1      -0.542  -1.739  -1.496  0.00  0.00    -0.004 A 
ATOM      5  C7  UNL d   1      -0.311  -1.826  -2.867  0.00  0.00     0.002 A 
ATOM      6  C8  UNL d   1       0.994  -1.910  -3.354  0.00  0.00     0.002 A 
ENDROOT
BRANCH   1   7
ATOM      7  C2  UNL d   1       3.494  -2.026  -3.002  0.00  0.00     0.056 C 
BRANCH   7   8
ATOM      8  C1  UNL d   1       3.718  -3.232  -3.920  0.00  0.00     0.007 C 
ATOM      9  C   UNL d   1       4.121  -2.841  -5.336  0.00  0.00     0.009 C 
ENDBRANCH   7   8
ENDBRANCH   1   7
TORSDOF 2
ENDMDL
