MODEL 1
REMARK minimizedAffinity 15.5549212
REMARK minimizedRMSD -1
REMARK  2 active torsions:
REMARK  status: ('A' for Active; 'I' for Inactive)
REMARK    1  A    between atoms: C1_2  and  C2_3 
REMARK    2  A    between atoms: C2_3  and  C3_4 
ROOT
ATOM      1  C3  UNL d   1       2.407   4.891   0.123  0.00  0.00    -0.075 A 
ATOM      2  C4  UNL d   1       2.369   5.947   1.044  0.00  0.00     0.002 A 
ATOM      3  C5  UNL d   1       1.376   5.998   2.023  0.00  0.00     0.002 A 
ATOM      4  C6  UNL d   1       0.404   5.001   2.086  0.00  0.00    -0.004 A 
ATOM      5  C7  UNL d   1       0.423   3.956   1.166  0.00  0.00     0.002 A 
ATOM      6  C8  UNL d   1       1.418   3.900   0.188  0.00  0.00     0.002 A 
ENDROOT
BRANCH   1   7
ATOM      7  C2  UNL d   1       3.496   4.814  -0.920  0.00  0.00     0.056 C 
BRANCH   7   8
ATOM      8  C1  UNL d   1       4.915   4.801  -0.340  0.00  0.00     0.007 C 
ATOM      9  C   UNL d   1       6.000   4.808  -1.409  0.00  0.00     0.009 C 
ENDBRANCH   7   8
ENDBRANCH   1   7
TORSDOF 2
ENDMDL
