MODEL 1
REMARK minimizedAffinity 4.60141754
REMARK minimizedRMSD -1
REMARK  2 active torsions:
REMARK  status: ('A' for Active; 'I' for Inactive)
REMARK    1  A    between atoms: C1_2  and  C2_3 
REMARK    2  A    between atoms: C2_3  and  C3_4 
ROOT
ATOM      1  C3  UNL d   1       5.849  -1.515  -4.856  0.00  0.00    -0.075 A 
ATOM      2  C4  UNL d   1       5.659  -1.572  -3.468  0.00  0.00     0.002 A 
ATOM      3  C5  UNL d   1       5.642  -2.800  -2.806  0.00  0.00     0.002 A 
ATOM      4  C6  UNL d   1       5.805  -3.984  -3.522  0.00  0.00    -0.004 A 
ATOM      5  C7  UNL d   1       5.978  -3.939  -4.904  0.00  0.00     0.002 A 
ATOM      6  C8  UNL d   1       6.000  -2.712  -5.568  0.00  0.00     0.002 A 
ENDROOT
BRANCH   1   7
ATOM      7  C2  UNL d   1       5.898  -0.187  -5.575  0.00  0.00     0.056 C 
BRANCH   7   8
ATOM      8  C1  UNL d   1       5.991   1.024  -4.641  0.00  0.00     0.007 C 
ATOM      9  C   UNL d   1       5.870   2.355  -5.371  0.00  0.00     0.009 C 
ENDBRANCH   7   8
ENDBRANCH   1   7
TORSDOF 2
ENDMDL
