MODEL 1
REMARK minimizedAffinity 5.27127123
REMARK minimizedRMSD -1
REMARK  0 active torsions:
REMARK  status: ('A' for Active; 'I' for Inactive)
ROOT
ATOM      1  N1  IND d   1       3.831   3.291  -2.746  0.00  0.00    -0.196 N 
ATOM      2  C2  IND d   1       4.996   3.390  -2.038  0.00  0.00     0.054 A 
ATOM      3  C3  IND d   1       6.000   2.765  -2.694  0.00  0.00    -0.031 A 
ATOM      4  C4  IND d   1       5.978   1.603  -4.991  0.00  0.00     0.051 A 
ATOM      5  C5  IND d   1       5.136   1.227  -6.000  0.00  0.00    -0.031 A 
ATOM      6  C6  IND d   1       3.790   1.528  -5.977  0.00  0.00     0.015 A 
ATOM      7  C7  IND d   1       3.235   2.230  -4.944  0.00  0.00    -0.016 A 
ATOM      8  C8  IND d   1       4.085   2.607  -3.915  0.00  0.00    -0.047 A 
ATOM      9  C9  IND d   1       5.444   2.268  -3.912  0.00  0.00    -0.096 A 
ATOM     10  HN1 IND d   1       3.068   3.604  -2.502  0.00  0.00     0.298 HD
ENDROOT
TORSDOF 0
ENDMDL
