MODEL 1
REMARK minimizedAffinity -1.50147343
REMARK minimizedRMSD -1
REMARK  0 active torsions:
REMARK  status: ('A' for Active; 'I' for Inactive)
ROOT
ATOM      1  N1  IND d   1      -2.298   4.515  -5.991  0.00  0.00    -0.196 N 
ATOM      2  C2  IND d   1      -3.014   3.350  -5.987  0.00  0.00     0.054 A 
ATOM      3  C3  IND d   1      -2.180   2.286  -6.000  0.00  0.00    -0.031 A 
ATOM      4  C4  IND d   1       0.393   2.223  -5.925  0.00  0.00     0.051 A 
ATOM      5  C5  IND d   1       1.491   3.035  -5.956  0.00  0.00    -0.031 A 
ATOM      6  C6  IND d   1       1.381   4.410  -5.999  0.00  0.00     0.015 A 
ATOM      7  C7  IND d   1       0.162   5.027  -6.000  0.00  0.00    -0.016 A 
ATOM      8  C8  IND d   1      -0.956   4.205  -5.976  0.00  0.00    -0.047 A 
ATOM      9  C9  IND d   1      -0.850   2.808  -5.976  0.00  0.00    -0.096 A 
ATOM     10  HN1 IND d   1      -2.631   5.308  -6.001  0.00  0.00     0.298 HD
ENDROOT
TORSDOF 0
ENDMDL
