MODEL 1
REMARK minimizedAffinity -0.270391166
REMARK minimizedRMSD -1
REMARK  0 active torsions:
REMARK  status: ('A' for Active; 'I' for Inactive)
ROOT
ATOM      1  N1  IND d   1      -2.919   4.351  -5.944  0.00  0.00    -0.196 N 
ATOM      2  C2  IND d   1      -3.001   2.986  -5.955  0.00  0.00     0.054 A 
ATOM      3  C3  IND d   1      -1.765   2.441  -5.999  0.00  0.00    -0.031 A 
ATOM      4  C4  IND d   1       0.535   3.597  -5.957  0.00  0.00     0.051 A 
ATOM      5  C5  IND d   1       1.121   4.832  -5.985  0.00  0.00    -0.031 A 
ATOM      6  C6  IND d   1       0.375   5.992  -5.999  0.00  0.00     0.015 A 
ATOM      7  C7  IND d   1      -0.991   5.962  -5.973  0.00  0.00    -0.016 A 
ATOM      8  C8  IND d   1      -1.589   4.710  -5.951  0.00  0.00    -0.047 A 
ATOM      9  C9  IND d   1      -0.838   3.528  -5.980  0.00  0.00    -0.096 A 
ATOM     10  HN1 IND d   1      -3.586   4.893  -5.934  0.00  0.00     0.298 HD
ENDROOT
TORSDOF 0
ENDMDL
