MODEL 1
REMARK minimizedAffinity -1.68426383
REMARK minimizedRMSD -1
REMARK  0 active torsions:
REMARK  status: ('A' for Active; 'I' for Inactive)
ROOT
ATOM      1  N1  IND d   1      -3.964   3.859  -5.970  0.00  0.00    -0.196 N 
ATOM      2  C2  IND d   1      -4.341   5.173  -5.952  0.00  0.00     0.054 A 
ATOM      3  C3  IND d   1      -3.252   5.974  -5.922  0.00  0.00    -0.031 A 
ATOM      4  C4  IND d   1      -0.757   5.346  -6.000  0.00  0.00     0.051 A 
ATOM      5  C5  IND d   1       0.084   4.268  -5.985  0.00  0.00    -0.031 A 
ATOM      6  C6  IND d   1      -0.392   2.973  -5.967  0.00  0.00     0.015 A 
ATOM      7  C7  IND d   1      -1.731   2.706  -5.974  0.00  0.00    -0.016 A 
ATOM      8  C8  IND d   1      -2.588   3.797  -5.982  0.00  0.00    -0.047 A 
ATOM      9  C9  IND d   1      -2.112   5.115  -5.958  0.00  0.00    -0.096 A 
ATOM     10  HN1 IND d   1      -4.497   3.184  -5.973  0.00  0.00     0.298 HD
ENDROOT
TORSDOF 0
ENDMDL
