MODEL 1
REMARK minimizedAffinity -2.43906426
REMARK minimizedRMSD -1
REMARK  0 active torsions:
REMARK  status: ('A' for Active; 'I' for Inactive)
ROOT
ATOM      1  N1  IND d   1      -1.731   5.967  -5.974  0.00  0.00    -0.196 N 
ATOM      2  C2  IND d   1      -2.920   5.293  -5.976  0.00  0.00     0.054 A 
ATOM      3  C3  IND d   1      -2.705   3.959  -6.000  0.00  0.00    -0.031 A 
ATOM      4  C4  IND d   1      -0.483   2.659  -5.936  0.00  0.00     0.051 A 
ATOM      5  C5  IND d   1       0.871   2.839  -5.966  0.00  0.00    -0.031 A 
ATOM      6  C6  IND d   1       1.439   4.096  -5.998  0.00  0.00     0.015 A 
ATOM      7  C7  IND d   1       0.670   5.226  -5.990  0.00  0.00    -0.016 A 
ATOM      8  C8  IND d   1      -0.705   5.047  -5.967  0.00  0.00    -0.047 A 
ATOM      9  C9  IND d   1      -1.288   3.773  -5.977  0.00  0.00    -0.096 A 
ATOM     10  HN1 IND d   1      -1.638   6.822  -5.977  0.00  0.00     0.298 HD
ENDROOT
TORSDOF 0
ENDMDL
