MODEL 1
REMARK minimizedAffinity -3.21646571
REMARK minimizedRMSD -1
REMARK  0 active torsions:
REMARK  status: ('A' for Active; 'I' for Inactive)
ROOT
ATOM      1  N1  IND d   1       0.315   5.224  -5.964  0.00  0.00    -0.196 N 
ATOM      2  C2  IND d   1       1.020   4.053  -5.931  0.00  0.00     0.054 A 
ATOM      3  C3  IND d   1       0.177   2.997  -5.900  0.00  0.00    -0.031 A 
ATOM      4  C4  IND d   1      -2.395   2.953  -5.999  0.00  0.00     0.051 A 
ATOM      5  C5  IND d   1      -3.487   3.775  -6.000  0.00  0.00    -0.031 A 
ATOM      6  C6  IND d   1      -3.365   5.149  -5.992  0.00  0.00     0.015 A 
ATOM      7  C7  IND d   1      -2.141   5.756  -5.994  0.00  0.00    -0.016 A 
ATOM      8  C8  IND d   1      -1.030   4.925  -5.986  0.00  0.00    -0.047 A 
ATOM      9  C9  IND d   1      -1.147   3.529  -5.951  0.00  0.00    -0.096 A 
ATOM     10  HN1 IND d   1       0.654   6.014  -5.971  0.00  0.00     0.298 HD
ENDROOT
TORSDOF 0
ENDMDL
