MODEL 1
REMARK minimizedAffinity -1.96800208
REMARK minimizedRMSD -1
REMARK  0 active torsions:
REMARK  status: ('A' for Active; 'I' for Inactive)
ROOT
ATOM      1  N1  IND d   1      -4.276   3.791  -5.944  0.00  0.00    -0.196 N 
ATOM      2  C2  IND d   1      -4.844   5.034  -5.889  0.00  0.00     0.054 A 
ATOM      3  C3  IND d   1      -3.887   5.987  -5.850  0.00  0.00    -0.031 A 
ATOM      4  C4  IND d   1      -1.327   5.742  -5.969  0.00  0.00     0.051 A 
ATOM      5  C5  IND d   1      -0.335   4.802  -5.990  0.00  0.00    -0.031 A 
ATOM      6  C6  IND d   1      -0.612   3.450  -6.000  0.00  0.00     0.015 A 
ATOM      7  C7  IND d   1      -1.897   2.986  -6.000  0.00  0.00    -0.016 A 
ATOM      8  C8  IND d   1      -2.907   3.937  -5.972  0.00  0.00    -0.047 A 
ATOM      9  C9  IND d   1      -2.632   5.309  -5.919  0.00  0.00    -0.096 A 
ATOM     10  HN1 IND d   1      -4.702   3.045  -5.958  0.00  0.00     0.298 HD
ENDROOT
TORSDOF 0
ENDMDL
