MODEL 1
REMARK minimizedAffinity -1.79198384
REMARK minimizedRMSD -1
REMARK  0 active torsions:
REMARK  status: ('A' for Active; 'I' for Inactive)
ROOT
ATOM      1  N1  IND d   1      -2.882   5.231  -5.990  0.00  0.00    -0.196 N 
ATOM      2  C2  IND d   1      -3.718   4.149  -5.986  0.00  0.00     0.054 A 
ATOM      3  C3  IND d   1      -3.003   3.002  -6.000  0.00  0.00    -0.031 A 
ATOM      4  C4  IND d   1      -0.452   2.664  -5.927  0.00  0.00     0.051 A 
ATOM      5  C5  IND d   1       0.728   3.354  -5.958  0.00  0.00    -0.031 A 
ATOM      6  C6  IND d   1       0.765   4.732  -6.000  0.00  0.00     0.015 A 
ATOM      7  C7  IND d   1      -0.381   5.476  -6.000  0.00  0.00    -0.016 A 
ATOM      8  C8  IND d   1      -1.581   4.779  -5.975  0.00  0.00    -0.047 A 
ATOM      9  C9  IND d   1      -1.625   3.379  -5.976  0.00  0.00    -0.096 A 
ATOM     10  HN1 IND d   1      -3.127   6.055  -5.999  0.00  0.00     0.298 HD
ENDROOT
TORSDOF 0
ENDMDL
