MODEL 1
REMARK minimizedAffinity 2.34517121
REMARK minimizedRMSD -1
REMARK  0 active torsions:
REMARK  status: ('A' for Active; 'I' for Inactive)
ROOT
ATOM      1  N1  IND d   1      -2.999   2.952  -5.999  0.00  0.00    -0.196 N 
ATOM      2  C2  IND d   1      -3.633   4.163  -5.984  0.00  0.00     0.054 A 
ATOM      3  C3  IND d   1      -2.729   5.167  -5.944  0.00  0.00    -0.031 A 
ATOM      4  C4  IND d   1      -0.158   5.056  -6.000  0.00  0.00     0.051 A 
ATOM      5  C5  IND d   1       0.883   4.170  -5.978  0.00  0.00    -0.031 A 
ATOM      6  C6  IND d   1       0.679   2.805  -5.964  0.00  0.00     0.015 A 
ATOM      7  C7  IND d   1      -0.579   2.273  -5.984  0.00  0.00    -0.016 A 
ATOM      8  C8  IND d   1      -1.638   3.170  -5.999  0.00  0.00    -0.047 A 
ATOM      9  C9  IND d   1      -1.438   4.556  -5.970  0.00  0.00    -0.096 A 
ATOM     10  HN1 IND d   1      -3.385   2.183  -6.008  0.00  0.00     0.298 HD
ENDROOT
TORSDOF 0
ENDMDL
