MODEL 1
REMARK minimizedAffinity -1.26542532
REMARK minimizedRMSD -1
REMARK  0 active torsions:
REMARK  status: ('A' for Active; 'I' for Inactive)
ROOT
ATOM      1  N1  IND d   1      -1.600   5.995  -5.988  0.00  0.00    -0.196 N 
ATOM      2  C2  IND d   1      -2.900   5.571  -5.986  0.00  0.00     0.054 A 
ATOM      3  C3  IND d   1      -2.954   4.220  -6.000  0.00  0.00    -0.031 A 
ATOM      4  C4  IND d   1      -1.036   2.505  -5.925  0.00  0.00     0.051 A 
ATOM      5  C5  IND d   1       0.327   2.412  -5.955  0.00  0.00    -0.031 A 
ATOM      6  C6  IND d   1       1.134   3.531  -5.996  0.00  0.00     0.015 A 
ATOM      7  C7  IND d   1       0.605   4.791  -5.996  0.00  0.00    -0.016 A 
ATOM      8  C8  IND d   1      -0.779   4.889  -5.973  0.00  0.00    -0.047 A 
ATOM      9  C9  IND d   1      -1.603   3.757  -5.975  0.00  0.00    -0.096 A 
ATOM     10  HN1 IND d   1      -1.340   6.814  -5.997  0.00  0.00     0.298 HD
ENDROOT
TORSDOF 0
ENDMDL
