MODEL 1
REMARK minimizedAffinity -1.62710392
REMARK minimizedRMSD -1
REMARK  0 active torsions:
REMARK  status: ('A' for Active; 'I' for Inactive)
ROOT
ATOM      1  N1  IND d   1      -0.509   5.644  -5.991  0.00  0.00    -0.196 N 
ATOM      2  C2  IND d   1       0.320   4.557  -5.961  0.00  0.00     0.054 A 
ATOM      3  C3  IND d   1      -0.403   3.416  -5.921  0.00  0.00    -0.031 A 
ATOM      4  C4  IND d   1      -2.956   3.093  -5.999  0.00  0.00     0.051 A 
ATOM      5  C5  IND d   1      -4.131   3.791  -5.992  0.00  0.00    -0.031 A 
ATOM      6  C6  IND d   1      -4.159   5.171  -5.987  0.00  0.00     0.015 A 
ATOM      7  C7  IND d   1      -3.008   5.907  -6.000  0.00  0.00    -0.016 A 
ATOM      8  C8  IND d   1      -1.813   5.201  -6.000  0.00  0.00    -0.047 A 
ATOM      9  C9  IND d   1      -1.778   3.801  -5.962  0.00  0.00    -0.096 A 
ATOM     10  HN1 IND d   1      -0.257   6.467  -6.001  0.00  0.00     0.298 HD
ENDROOT
TORSDOF 0
ENDMDL
