MODEL 1
REMARK minimizedAffinity 1.12174296
REMARK minimizedRMSD -1
REMARK  0 active torsions:
REMARK  status: ('A' for Active; 'I' for Inactive)
ROOT
ATOM      1  N1  IND d   1       0.554   3.017  -5.999  0.00  0.00    -0.196 N 
ATOM      2  C2  IND d   1       1.504   4.000  -5.996  0.00  0.00     0.054 A 
ATOM      3  C3  IND d   1       0.919   5.219  -6.000  0.00  0.00    -0.031 A 
ATOM      4  C4  IND d   1      -1.578   5.836  -5.909  0.00  0.00     0.051 A 
ATOM      5  C5  IND d   1      -2.827   5.280  -5.936  0.00  0.00    -0.031 A 
ATOM      6  C6  IND d   1      -3.016   3.914  -5.984  0.00  0.00     0.015 A 
ATOM      7  C7  IND d   1      -1.959   3.048  -5.995  0.00  0.00    -0.016 A 
ATOM      8  C8  IND d   1      -0.690   3.609  -5.975  0.00  0.00    -0.047 A 
ATOM      9  C9  IND d   1      -0.491   4.996  -5.969  0.00  0.00    -0.096 A 
ATOM     10  HN1 IND d   1       0.707   2.171  -6.014  0.00  0.00     0.298 HD
ENDROOT
TORSDOF 0
ENDMDL
