MODEL 1
REMARK minimizedAffinity -2.4334743
REMARK minimizedRMSD -1
REMARK  0 active torsions:
REMARK  status: ('A' for Active; 'I' for Inactive)
ROOT
ATOM      1  N1  IND d   1      -3.312   3.976  -5.992  0.00  0.00    -0.196 N 
ATOM      2  C2  IND d   1      -3.535   5.325  -5.997  0.00  0.00     0.054 A 
ATOM      3  C3  IND d   1      -2.362   5.996  -5.964  0.00  0.00    -0.031 A 
ATOM      4  C4  IND d   1       0.045   5.085  -6.000  0.00  0.00     0.051 A 
ATOM      5  C5  IND d   1       0.756   3.918  -5.959  0.00  0.00    -0.031 A 
ATOM      6  C6  IND d   1       0.135   2.686  -5.929  0.00  0.00     0.015 A 
ATOM      7  C7  IND d   1      -1.227   2.575  -5.951  0.00  0.00    -0.016 A 
ATOM      8  C8  IND d   1      -1.952   3.757  -5.985  0.00  0.00    -0.047 A 
ATOM      9  C9  IND d   1      -1.327   5.011  -5.972  0.00  0.00    -0.096 A 
ATOM     10  HN1 IND d   1      -3.919   3.367  -5.993  0.00  0.00     0.298 HD
ENDROOT
TORSDOF 0
ENDMDL
