MODEL 1
REMARK minimizedAffinity -1.48210812
REMARK minimizedRMSD -1
REMARK  0 active torsions:
REMARK  status: ('A' for Active; 'I' for Inactive)
ROOT
ATOM      1  N1  IND d   1       0.378   4.034  -5.998  0.00  0.00    -0.196 N 
ATOM      2  C2  IND d   1       0.332   2.668  -5.983  0.00  0.00     0.054 A 
ATOM      3  C3  IND d   1      -0.950   2.240  -5.943  0.00  0.00    -0.031 A 
ATOM      4  C4  IND d   1      -3.132   3.606  -5.999  0.00  0.00     0.051 A 
ATOM      5  C5  IND d   1      -3.600   4.890  -5.976  0.00  0.00    -0.031 A 
ATOM      6  C6  IND d   1      -2.749   5.976  -5.962  0.00  0.00     0.015 A 
ATOM      7  C7  IND d   1      -1.392   5.818  -5.982  0.00  0.00    -0.016 A 
ATOM      8  C8  IND d   1      -0.913   4.516  -5.998  0.00  0.00    -0.047 A 
ATOM      9  C9  IND d   1      -1.771   3.409  -5.969  0.00  0.00    -0.096 A 
ATOM     10  HN1 IND d   1       1.092   4.512  -6.006  0.00  0.00     0.298 HD
ENDROOT
TORSDOF 0
ENDMDL
