MODEL 1
REMARK minimizedAffinity -1.2857089
REMARK minimizedRMSD -1
REMARK  0 active torsions:
REMARK  status: ('A' for Active; 'I' for Inactive)
ROOT
ATOM      1  N1  IND d   1      -3.488   2.722  -5.330  0.00  0.00    -0.196 N 
ATOM      2  C2  IND d   1      -4.563   3.361  -5.882  0.00  0.00     0.054 A 
ATOM      3  C3  IND d   1      -4.312   4.685  -6.000  0.00  0.00    -0.031 A 
ATOM      4  C4  IND d   1      -2.170   6.000  -5.446  0.00  0.00     0.051 A 
ATOM      5  C5  IND d   1      -0.932   5.855  -4.885  0.00  0.00    -0.031 A 
ATOM      6  C6  IND d   1      -0.472   4.634  -4.437  0.00  0.00     0.015 A 
ATOM      7  C7  IND d   1      -1.233   3.504  -4.544  0.00  0.00    -0.016 A 
ATOM      8  C8  IND d   1      -2.493   3.648  -5.107  0.00  0.00    -0.047 A 
ATOM      9  C9  IND d   1      -2.982   4.893  -5.524  0.00  0.00    -0.096 A 
ATOM     10  HN1 IND d   1      -3.441   1.882  -5.152  0.00  0.00     0.298 HD
ENDROOT
TORSDOF 0
ENDMDL
