MODEL 1
REMARK minimizedAffinity -1.63918269
REMARK minimizedRMSD -1
REMARK  0 active torsions:
REMARK  status: ('A' for Active; 'I' for Inactive)
ROOT
ATOM      1  N1  IND d   1       1.117   2.968  -5.940  0.00  0.00    -0.196 N 
ATOM      2  C2  IND d   1       1.828   4.135  -5.952  0.00  0.00     0.054 A 
ATOM      3  C3  IND d   1       0.991   5.196  -5.999  0.00  0.00    -0.031 A 
ATOM      4  C4  IND d   1      -1.582   5.251  -5.960  0.00  0.00     0.051 A 
ATOM      5  C5  IND d   1      -2.678   4.434  -5.988  0.00  0.00    -0.031 A 
ATOM      6  C6  IND d   1      -2.562   3.059  -5.999  0.00  0.00     0.015 A 
ATOM      7  C7  IND d   1      -1.341   2.447  -5.970  0.00  0.00    -0.016 A 
ATOM      8  C8  IND d   1      -0.226   3.273  -5.949  0.00  0.00    -0.047 A 
ATOM      9  C9  IND d   1      -0.337   4.669  -5.981  0.00  0.00    -0.096 A 
ATOM     10  HN1 IND d   1       1.452   2.176  -5.928  0.00  0.00     0.298 HD
ENDROOT
TORSDOF 0
ENDMDL
