MODEL 1
REMARK minimizedAffinity -2.79433179
REMARK minimizedRMSD -1
REMARK  0 active torsions:
REMARK  status: ('A' for Active; 'I' for Inactive)
ROOT
ATOM      1  N1  IND d   1      -3.892   4.028  -5.994  0.00  0.00    -0.196 N 
ATOM      2  C2  IND d   1      -4.050   5.385  -5.980  0.00  0.00     0.054 A 
ATOM      3  C3  IND d   1      -2.846   5.999  -5.936  0.00  0.00    -0.031 A 
ATOM      4  C4  IND d   1      -0.486   4.973  -5.986  0.00  0.00     0.051 A 
ATOM      5  C5  IND d   1       0.168   3.773  -5.963  0.00  0.00    -0.031 A 
ATOM      6  C6  IND d   1      -0.512   2.572  -5.951  0.00  0.00     0.015 A 
ATOM      7  C7  IND d   1      -1.877   2.527  -5.974  0.00  0.00    -0.016 A 
ATOM      8  C8  IND d   1      -2.544   3.743  -5.991  0.00  0.00    -0.047 A 
ATOM      9  C9  IND d   1      -1.860   4.965  -5.960  0.00  0.00    -0.096 A 
ATOM     10  HN1 IND d   1      -4.528   3.449  -6.004  0.00  0.00     0.298 HD
ENDROOT
TORSDOF 0
ENDMDL
