MODEL 1
REMARK minimizedAffinity 4.07468748
REMARK minimizedRMSD -1
REMARK  0 active torsions:
REMARK  status: ('A' for Active; 'I' for Inactive)
ROOT
ATOM      1  N1  IND d   1      -3.008   4.161  -5.993  0.00  0.00    -0.196 N 
ATOM      2  C2  IND d   1      -2.993   5.528  -5.968  0.00  0.00     0.054 A 
ATOM      3  C3  IND d   1      -1.720   5.983  -5.928  0.00  0.00    -0.031 A 
ATOM      4  C4  IND d   1       0.491   4.667  -6.000  0.00  0.00     0.051 A 
ATOM      5  C5  IND d   1       0.987   3.394  -5.989  0.00  0.00    -0.031 A 
ATOM      6  C6  IND d   1       0.160   2.289  -5.981  0.00  0.00     0.015 A 
ATOM      7  C7  IND d   1      -1.200   2.417  -5.996  0.00  0.00    -0.016 A 
ATOM      8  C8  IND d   1      -1.707   3.708  -6.000  0.00  0.00    -0.047 A 
ATOM      9  C9  IND d   1      -0.873   4.833  -5.965  0.00  0.00    -0.096 A 
ATOM     10  HN1 IND d   1      -3.712   3.668  -6.003  0.00  0.00     0.298 HD
ENDROOT
TORSDOF 0
ENDMDL
