MODEL 1
REMARK minimizedAffinity -0.314443976
REMARK minimizedRMSD -1
REMARK  0 active torsions:
REMARK  status: ('A' for Active; 'I' for Inactive)
ROOT
ATOM      1  N1  IND d   1      -4.216   3.758  -5.941  0.00  0.00    -0.196 N 
ATOM      2  C2  IND d   1      -4.910   4.936  -5.988  0.00  0.00     0.054 A 
ATOM      3  C3  IND d   1      -4.057   5.984  -5.981  0.00  0.00    -0.031 A 
ATOM      4  C4  IND d   1      -1.482   5.999  -6.000  0.00  0.00     0.051 A 
ATOM      5  C5  IND d   1      -0.400   5.168  -5.925  0.00  0.00    -0.031 A 
ATOM      6  C6  IND d   1      -0.537   3.797  -5.854  0.00  0.00     0.015 A 
ATOM      7  C7  IND d   1      -1.767   3.202  -5.865  0.00  0.00    -0.016 A 
ATOM      8  C8  IND d   1      -2.869   4.043  -5.933  0.00  0.00    -0.047 A 
ATOM      9  C9  IND d   1      -2.737   5.438  -5.964  0.00  0.00    -0.096 A 
ATOM     10  HN1 IND d   1      -4.564   2.972  -5.919  0.00  0.00     0.298 HD
ENDROOT
TORSDOF 0
ENDMDL
