MODEL 1
REMARK minimizedAffinity 6.34444094
REMARK minimizedRMSD -1
REMARK  0 active torsions:
REMARK  status: ('A' for Active; 'I' for Inactive)
ROOT
ATOM      1  C1  BNZ d   1      -5.999   0.014   5.965  0.00  0.00     0.000 A 
ATOM      2  C2  BNZ d   1      -5.991   1.310   5.522  0.00  0.00     0.000 A 
ATOM      3  C3  BNZ d   1      -5.591   1.612   4.250  0.00  0.00     0.000 A 
ATOM      4  C4  BNZ d   1      -5.161   0.625   3.438  0.00  0.00     0.000 A 
ATOM      5  C5  BNZ d   1      -5.154  -0.685   3.874  0.00  0.00     0.000 A 
ATOM      6  C6  BNZ d   1      -5.595  -0.990   5.141  0.00  0.00     0.000 A 
ENDROOT
TORSDOF 0
ENDMDL
