MODEL 1
REMARK minimizedAffinity 2.27204275
REMARK minimizedRMSD -1
REMARK  0 active torsions:
REMARK  status: ('A' for Active; 'I' for Inactive)
ROOT
ATOM      1  C1  BNZ d   1       4.861  -4.042  -3.101  0.00  0.00     0.000 A 
ATOM      2  C2  BNZ d   1       5.521  -4.297  -1.928  0.00  0.00     0.000 A 
ATOM      3  C3  BNZ d   1       5.085  -5.274  -1.078  0.00  0.00     0.000 A 
ATOM      4  C4  BNZ d   1       3.969  -5.968  -1.383  0.00  0.00     0.000 A 
ATOM      5  C5  BNZ d   1       3.288  -5.716  -2.557  0.00  0.00     0.000 A 
ATOM      6  C6  BNZ d   1       3.752  -4.758  -3.429  0.00  0.00     0.000 A 
ENDROOT
TORSDOF 0
ENDMDL
