MODEL 1
REMARK minimizedAffinity 7.00773954
REMARK minimizedRMSD -1
REMARK  0 active torsions:
REMARK  status: ('A' for Active; 'I' for Inactive)
ROOT
ATOM      1  C1  BNZ d   1      -0.518  -0.310  -1.923  0.00  0.00     0.000 A 
ATOM      2  C2  BNZ d   1      -1.883  -0.256  -1.833  0.00  0.00     0.000 A 
ATOM      3  C3  BNZ d   1      -2.499   0.745  -1.134  0.00  0.00     0.000 A 
ATOM      4  C4  BNZ d   1      -1.749   1.664  -0.493  0.00  0.00     0.000 A 
ATOM      5  C5  BNZ d   1      -0.371   1.618  -0.566  0.00  0.00     0.000 A 
ATOM      6  C6  BNZ d   1       0.244   0.632  -1.303  0.00  0.00     0.000 A 
ENDROOT
TORSDOF 0
ENDMDL
