MODEL 1
REMARK minimizedAffinity 8.06255245
REMARK minimizedRMSD -1
REMARK  0 active torsions:
REMARK  status: ('A' for Active; 'I' for Inactive)
ROOT
ATOM      1  C1  BNZ d   1       5.932  -4.880  -1.126  0.00  0.00     0.000 A 
ATOM      2  C2  BNZ d   1       5.231  -5.998  -0.761  0.00  0.00     0.000 A 
ATOM      3  C3  BNZ d   1       3.864  -6.000  -0.767  0.00  0.00     0.000 A 
ATOM      4  C4  BNZ d   1       3.201  -4.873  -1.098  0.00  0.00     0.000 A 
ATOM      5  C5  BNZ d   1       3.894  -3.735  -1.459  0.00  0.00     0.000 A 
ATOM      6  C6  BNZ d   1       5.269  -3.748  -1.489  0.00  0.00     0.000 A 
ENDROOT
TORSDOF 0
ENDMDL
