MODEL 1
REMARK minimizedAffinity 0.863289893
REMARK minimizedRMSD -1
REMARK  0 active torsions:
REMARK  status: ('A' for Active; 'I' for Inactive)
ROOT
ATOM      1  C1  BNZ d   1      -2.808  -5.924  -3.639  0.00  0.00     0.000 A 
ATOM      2  C2  BNZ d   1      -4.176  -5.982  -3.646  0.00  0.00     0.000 A 
ATOM      3  C3  BNZ d   1      -4.870  -5.998  -4.824  0.00  0.00     0.000 A 
ATOM      4  C4  BNZ d   1      -4.198  -5.915  -5.990  0.00  0.00     0.000 A 
ATOM      5  C5  BNZ d   1      -2.820  -5.846  -5.999  0.00  0.00     0.000 A 
ATOM      6  C6  BNZ d   1      -2.122  -5.870  -4.813  0.00  0.00     0.000 A 
ENDROOT
TORSDOF 0
ENDMDL
