MODEL 1
REMARK minimizedAffinity 3.18999934
REMARK minimizedRMSD -1
REMARK  0 active torsions:
REMARK  status: ('A' for Active; 'I' for Inactive)
ROOT
ATOM      1  C1  BNZ d   1      -5.998   3.869  -5.131  0.00  0.00     0.000 A 
ATOM      2  C2  BNZ d   1      -5.252   3.893  -3.983  0.00  0.00     0.000 A 
ATOM      3  C3  BNZ d   1      -4.464   4.969  -3.683  0.00  0.00     0.000 A 
ATOM      4  C4  BNZ d   1      -4.391   6.000  -4.550  0.00  0.00     0.000 A 
ATOM      5  C5  BNZ d   1      -5.130   5.986  -5.716  0.00  0.00     0.000 A 
ATOM      6  C6  BNZ d   1      -5.953   4.919  -5.996  0.00  0.00     0.000 A 
ENDROOT
TORSDOF 0
ENDMDL
