MODEL 1
REMARK minimizedAffinity 0.816579461
REMARK minimizedRMSD -1
REMARK  0 active torsions:
REMARK  status: ('A' for Active; 'I' for Inactive)
ROOT
ATOM      1  C1  BNZ d   1      -6.000  -0.004   3.459  0.00  0.00     0.000 A 
ATOM      2  C2  BNZ d   1      -5.999  -1.115   4.260  0.00  0.00     0.000 A 
ATOM      3  C3  BNZ d   1      -4.847  -1.815   4.484  0.00  0.00     0.000 A 
ATOM      4  C4  BNZ d   1      -3.707  -1.429   3.876  0.00  0.00     0.000 A 
ATOM      5  C5  BNZ d   1      -3.694  -0.317   3.057  0.00  0.00     0.000 A 
ATOM      6  C6  BNZ d   1      -4.847   0.408   2.865  0.00  0.00     0.000 A 
ENDROOT
TORSDOF 0
ENDMDL
