MODEL 1
REMARK minimizedAffinity 6.68872547
REMARK minimizedRMSD -1
REMARK  1 active torsions:
REMARK  status: ('A' for Active; 'I' for Inactive)
REMARK    1  A    between atoms: N_2  and  C1_3 
ROOT
ATOM      1  C1  UNL d   1      -5.277   1.585  -2.560  0.00  0.00     0.143 A 
ATOM      2  C2  UNL d   1      -5.996   0.539  -1.971  0.00  0.00    -0.057 A 
ATOM      3  C3  UNL d   1      -5.454  -0.748  -1.872  0.00  0.00     0.033 A 
ATOM      4  C4  UNL d   1      -4.191  -1.019  -2.388  0.00  0.00    -0.042 A 
ATOM      5  C5  UNL d   1      -3.469  -0.001  -3.000  0.00  0.00     0.033 A 
ATOM      6  C6  UNL d   1      -4.012   1.284  -3.090  0.00  0.00    -0.057 A 
ENDROOT
BRANCH   1   7
ATOM      7  N   UNL d   1      -5.800   2.863  -2.777  0.00  0.00    -0.732 N 
ATOM      8  C   UNL d   1      -6.000   3.359  -4.122  0.00  0.00     0.284 C 
ATOM      9  H3  UNL d   1      -6.556   3.087  -2.134  0.00  0.00     0.395 HD
ENDBRANCH   1   7
TORSDOF 1
ENDMDL
