MODEL 1
REMARK minimizedAffinity 10.1250715
REMARK minimizedRMSD -1
REMARK  1 active torsions:
REMARK  status: ('A' for Active; 'I' for Inactive)
REMARK    1  A    between atoms: N_2  and  C1_3 
ROOT
ATOM      1  C1  UNL d   1      -4.516   3.234   0.633  0.00  0.00     0.143 A 
ATOM      2  C2  UNL d   1      -4.681   1.966   1.202  0.00  0.00    -0.057 A 
ATOM      3  C3  UNL d   1      -3.667   1.004   1.138  0.00  0.00     0.033 A 
ATOM      4  C4  UNL d   1      -2.476   1.282   0.476  0.00  0.00    -0.042 A 
ATOM      5  C5  UNL d   1      -2.299   2.527  -0.119  0.00  0.00     0.033 A 
ATOM      6  C6  UNL d   1      -3.313   3.486  -0.045  0.00  0.00    -0.057 A 
ENDROOT
BRANCH   1   7
ATOM      7  N   UNL d   1      -5.524   4.199   0.578  0.00  0.00    -0.732 N 
ATOM      8  C   UNL d   1      -5.934   4.765  -0.689  0.00  0.00     0.284 C 
ATOM      9  H3  UNL d   1      -6.294   3.993   1.210  0.00  0.00     0.395 HD
ENDBRANCH   1   7
TORSDOF 1
ENDMDL
