MODEL 1
REMARK minimizedAffinity 0.872867525
REMARK minimizedRMSD -1
REMARK  1 active torsions:
REMARK  status: ('A' for Active; 'I' for Inactive)
REMARK    1  A    between atoms: N_2  and  C1_3 
ROOT
ATOM      1  C1  UNL d   1       2.399  -1.482   2.665  0.00  0.00     0.143 A 
ATOM      2  C2  UNL d   1       1.150  -1.706   3.254  0.00  0.00    -0.057 A 
ATOM      3  C3  UNL d   1       0.929  -2.807   4.090  0.00  0.00     0.033 A 
ATOM      4  C4  UNL d   1       1.949  -3.723   4.329  0.00  0.00    -0.042 A 
ATOM      5  C5  UNL d   1       3.191  -3.533   3.734  0.00  0.00     0.033 A 
ATOM      6  C6  UNL d   1       3.408  -2.428   2.905  0.00  0.00    -0.057 A 
ENDROOT
BRANCH   1   7
ATOM      7  N   UNL d   1       2.654  -0.461   1.746  0.00  0.00    -0.732 N 
ATOM      8  C   UNL d   1       2.181   0.885   1.990  0.00  0.00     0.284 C 
ATOM      9  H3  UNL d   1       3.596  -0.508   1.364  0.00  0.00     0.395 HD
ENDBRANCH   1   7
TORSDOF 1
ENDMDL
