MODEL 1
REMARK minimizedAffinity 4.94389915
REMARK minimizedRMSD -1
REMARK  1 active torsions:
REMARK  status: ('A' for Active; 'I' for Inactive)
REMARK    1  A    between atoms: N_2  and  C1_3 
ROOT
ATOM      1  C1  UNL d   1      -4.994  -3.324  -4.544  0.00  0.00     0.143 A 
ATOM      2  C2  UNL d   1      -3.718  -2.855  -4.213  0.00  0.00    -0.057 A 
ATOM      3  C3  UNL d   1      -3.444  -2.329  -2.944  0.00  0.00     0.033 A 
ATOM      4  C4  UNL d   1      -4.453  -2.236  -1.991  0.00  0.00    -0.042 A 
ATOM      5  C5  UNL d   1      -5.734  -2.673  -2.306  0.00  0.00     0.033 A 
ATOM      6  C6  UNL d   1      -6.000  -3.203  -3.572  0.00  0.00    -0.057 A 
ENDROOT
BRANCH   1   7
ATOM      7  N   UNL d   1      -5.353  -3.766  -5.819  0.00  0.00    -0.732 N 
ATOM      8  C   UNL d   1      -5.997  -5.050  -6.000  0.00  0.00     0.284 C 
ATOM      9  H3  UNL d   1      -5.741  -3.022  -6.394  0.00  0.00     0.395 HD
ENDBRANCH   1   7
TORSDOF 1
ENDMDL
