MODEL 1
REMARK minimizedAffinity 6.16087341
REMARK minimizedRMSD -1
REMARK  1 active torsions:
REMARK  status: ('A' for Active; 'I' for Inactive)
REMARK    1  A    between atoms: N_2  and  C1_3 
ROOT
ATOM      1  C1  UNL d   1       1.811  -2.144   3.209  0.00  0.00     0.143 A 
ATOM      2  C2  UNL d   1       1.212  -3.387   2.980  0.00  0.00    -0.057 A 
ATOM      3  C3  UNL d   1       1.716  -4.555   3.566  0.00  0.00     0.033 A 
ATOM      4  C4  UNL d   1       2.848  -4.503   4.372  0.00  0.00    -0.042 A 
ATOM      5  C5  UNL d   1       3.474  -3.282   4.594  0.00  0.00     0.033 A 
ATOM      6  C6  UNL d   1       2.963  -2.118   4.011  0.00  0.00    -0.057 A 
ENDROOT
BRANCH   1   7
ATOM      7  N   UNL d   1       1.417  -0.962   2.577  0.00  0.00    -0.732 N 
ATOM      8  C   UNL d   1       2.403  -0.009   2.114  0.00  0.00     0.284 C 
ATOM      9  H3  UNL d   1       0.644  -1.106   1.931  0.00  0.00     0.395 HD
ENDBRANCH   1   7
TORSDOF 1
ENDMDL
