MODEL 1
REMARK minimizedAffinity -3.75078297
REMARK minimizedRMSD -1
REMARK  1 active torsions:
REMARK  status: ('A' for Active; 'I' for Inactive)
REMARK    1  A    between atoms: N_2  and  C1_3 
ROOT
ATOM      1  C1  UNL d   1       3.478  -1.677   2.114  0.00  0.00     0.143 A 
ATOM      2  C2  UNL d   1       2.689  -0.916   2.983  0.00  0.00    -0.057 A 
ATOM      3  C3  UNL d   1       1.556  -1.461   3.599  0.00  0.00     0.033 A 
ATOM      4  C4  UNL d   1       1.175  -2.772   3.333  0.00  0.00    -0.042 A 
ATOM      5  C5  UNL d   1       1.930  -3.539   2.454  0.00  0.00     0.033 A 
ATOM      6  C6  UNL d   1       3.064  -2.991   1.846  0.00  0.00    -0.057 A 
ENDROOT
BRANCH   1   7
ATOM      7  N   UNL d   1       4.559  -1.163   1.394  0.00  0.00    -0.732 N 
ATOM      8  C   UNL d   1       5.868  -1.774   1.492  0.00  0.00     0.284 C 
ATOM      9  H3  UNL d   1       4.301  -0.884   0.450  0.00  0.00     0.395 HD
ENDBRANCH   1   7
TORSDOF 1
ENDMDL
