MODEL 1
REMARK minimizedAffinity 1.79431546
REMARK minimizedRMSD -1
REMARK  0 active torsions:
REMARK  status: ('A' for Active; 'I' for Inactive)
ROOT
ATOM      1  C1  BNZ d   1       1.493  -1.403   5.294  0.00  0.00     0.000 A 
ATOM      2  C2  BNZ d   1       1.149  -0.456   4.366  0.00  0.00     0.000 A 
ATOM      3  C3  BNZ d   1       1.389  -0.660   3.036  0.00  0.00     0.000 A 
ATOM      4  C4  BNZ d   1       2.009  -1.790   2.640  0.00  0.00     0.000 A 
ATOM      5  C5  BNZ d   1       2.370  -2.750   3.564  0.00  0.00     0.000 A 
ATOM      6  C6  BNZ d   1       2.091  -2.559   4.897  0.00  0.00     0.000 A 
ENDROOT
TORSDOF 0
ENDMDL
