MODEL 1
REMARK minimizedAffinity 5.38861942
REMARK minimizedRMSD -1
REMARK  0 active torsions:
REMARK  status: ('A' for Active; 'I' for Inactive)
ROOT
ATOM      1  C1  BNZ d   1      -1.894  -3.566  -0.273  0.00  0.00     0.000 A 
ATOM      2  C2  BNZ d   1      -1.040  -2.550   0.065  0.00  0.00     0.000 A 
ATOM      3  C3  BNZ d   1      -1.489  -1.263   0.167  0.00  0.00     0.000 A 
ATOM      4  C4  BNZ d   1      -2.780  -0.987  -0.109  0.00  0.00     0.000 A 
ATOM      5  C5  BNZ d   1      -3.651  -1.999  -0.460  0.00  0.00     0.000 A 
ATOM      6  C6  BNZ d   1      -3.204  -3.299  -0.524  0.00  0.00     0.000 A 
ENDROOT
TORSDOF 0
ENDMDL
