MODEL 1
REMARK minimizedAffinity 0.131914064
REMARK minimizedRMSD -1
REMARK  0 active torsions:
REMARK  status: ('A' for Active; 'I' for Inactive)
ROOT
ATOM      1  C1  BNZ d   1      -1.953  -0.704   0.758  0.00  0.00     0.000 A 
ATOM      2  C2  BNZ d   1      -2.814  -1.652   0.273  0.00  0.00     0.000 A 
ATOM      3  C3  BNZ d   1      -2.374  -2.911  -0.025  0.00  0.00     0.000 A 
ATOM      4  C4  BNZ d   1      -1.067  -3.209   0.125  0.00  0.00     0.000 A 
ATOM      5  C5  BNZ d   1      -0.184  -2.262   0.603  0.00  0.00     0.000 A 
ATOM      6  C6  BNZ d   1      -0.639  -1.007   0.939  0.00  0.00     0.000 A 
ENDROOT
TORSDOF 0
ENDMDL
