MODEL 1
REMARK minimizedAffinity -1.39275122
REMARK minimizedRMSD -1
REMARK  0 active torsions:
REMARK  status: ('A' for Active; 'I' for Inactive)
ROOT
ATOM      1  C1  BNZ d   1      -0.825  -2.946   0.974  0.00  0.00     0.000 A 
ATOM      2  C2  BNZ d   1       0.338  -2.914   1.697  0.00  0.00     0.000 A 
ATOM      3  C3  BNZ d   1       0.908  -1.725   2.054  0.00  0.00     0.000 A 
ATOM      4  C4  BNZ d   1       0.337  -0.570   1.656  0.00  0.00     0.000 A 
ATOM      5  C5  BNZ d   1      -0.831  -0.585   0.920  0.00  0.00     0.000 A 
ATOM      6  C6  BNZ d   1      -1.423  -1.784   0.595  0.00  0.00     0.000 A 
ENDROOT
TORSDOF 0
ENDMDL
