MODEL 1
REMARK minimizedAffinity 3.74212003
REMARK minimizedRMSD -1
REMARK  0 active torsions:
REMARK  status: ('A' for Active; 'I' for Inactive)
ROOT
ATOM      1  C1  BNZ d   1      -3.069  -3.961   0.145  0.00  0.00     0.000 A 
ATOM      2  C2  BNZ d   1      -2.382  -4.986  -0.449  0.00  0.00     0.000 A 
ATOM      3  C3  BNZ d   1      -1.288  -4.736  -1.229  0.00  0.00     0.000 A 
ATOM      4  C4  BNZ d   1      -0.907  -3.461  -1.447  0.00  0.00     0.000 A 
ATOM      5  C5  BNZ d   1      -1.595  -2.416  -0.863  0.00  0.00     0.000 A 
ATOM      6  C6  BNZ d   1      -2.672  -2.674  -0.047  0.00  0.00     0.000 A 
ENDROOT
TORSDOF 0
ENDMDL
