MODEL 1
REMARK minimizedAffinity 1.67793179
REMARK minimizedRMSD -1
REMARK  0 active torsions:
REMARK  status: ('A' for Active; 'I' for Inactive)
ROOT
ATOM      1  C1  BNZ d   1       2.086  -2.921   1.860  0.00  0.00     0.000 A 
ATOM      2  C2  BNZ d   1       1.604  -1.714   1.429  0.00  0.00     0.000 A 
ATOM      3  C3  BNZ d   1       1.055  -0.824   2.309  0.00  0.00     0.000 A 
ATOM      4  C4  BNZ d   1       0.952  -1.158   3.612  0.00  0.00     0.000 A 
ATOM      5  C5  BNZ d   1       1.425  -2.375   4.061  0.00  0.00     0.000 A 
ATOM      6  C6  BNZ d   1       2.012  -3.252   3.178  0.00  0.00     0.000 A 
ENDROOT
TORSDOF 0
ENDMDL
