MODEL 1
REMARK minimizedAffinity 4.71628904
REMARK minimizedRMSD -1
REMARK  0 active torsions:
REMARK  status: ('A' for Active; 'I' for Inactive)
ROOT
ATOM      1  C1  BNZ d   1       1.437  -0.424   4.627  0.00  0.00     0.000 A 
ATOM      2  C2  BNZ d   1       1.838  -1.587   5.228  0.00  0.00     0.000 A 
ATOM      3  C3  BNZ d   1       2.393  -2.598   4.494  0.00  0.00     0.000 A 
ATOM      4  C4  BNZ d   1       2.509  -2.461   3.158  0.00  0.00     0.000 A 
ATOM      5  C5  BNZ d   1       2.101  -1.298   2.536  0.00  0.00     0.000 A 
ATOM      6  C6  BNZ d   1       1.578  -0.267   3.283  0.00  0.00     0.000 A 
ENDROOT
TORSDOF 0
ENDMDL
