MODEL 1
REMARK minimizedAffinity 3.00319767
REMARK minimizedRMSD -1
REMARK  0 active torsions:
REMARK  status: ('A' for Active; 'I' for Inactive)
ROOT
ATOM      1  C   UNL d   1      -3.384  -5.428  -5.993  0.00  0.00     0.172 C 
ATOM      2  N   UNL d   1      -2.565  -4.238  -5.989  0.00  0.00    -0.070 N 
ATOM      3  C1  UNL d   1      -3.029  -2.950  -5.999  0.00  0.00    -0.004 A 
ATOM      4  C2  UNL d   1      -1.937  -2.109  -5.990  0.00  0.00    -0.047 A 
ATOM      5  C3  UNL d   1      -0.778  -2.919  -5.975  0.00  0.00    -0.047 A 
ATOM      6  C4  UNL d   1      -1.196  -4.234  -5.975  0.00  0.00    -0.004 A 
ENDROOT
TORSDOF 0
ENDMDL
