MODEL 1
REMARK minimizedAffinity -2.56161404
REMARK minimizedRMSD -1
REMARK  0 active torsions:
REMARK  status: ('A' for Active; 'I' for Inactive)
ROOT
ATOM      1  C   UNL d   1      -5.205  -5.932  -5.950  0.00  0.00     0.172 C 
ATOM      2  N   UNL d   1      -3.906  -5.302  -5.963  0.00  0.00    -0.070 N 
ATOM      3  C1  UNL d   1      -3.673  -3.953  -6.000  0.00  0.00    -0.004 A 
ATOM      4  C2  UNL d   1      -2.309  -3.759  -6.000  0.00  0.00    -0.047 A 
ATOM      5  C3  UNL d   1      -1.700  -5.036  -5.963  0.00  0.00    -0.047 A 
ATOM      6  C4  UNL d   1      -2.712  -5.973  -5.941  0.00  0.00    -0.004 A 
ENDROOT
TORSDOF 0
ENDMDL
