MODEL 1
REMARK minimizedAffinity -1.2065928
REMARK minimizedRMSD -1
REMARK  0 active torsions:
REMARK  status: ('A' for Active; 'I' for Inactive)
ROOT
ATOM      1  C   UNL d   1      -2.409  -2.990   5.618  0.00  0.00     0.172 C 
ATOM      2  N   UNL d   1      -3.808  -3.006   5.261  0.00  0.00    -0.070 N 
ATOM      3  C1  UNL d   1      -4.814  -3.569   6.000  0.00  0.00    -0.004 A 
ATOM      4  C2  UNL d   1      -5.997  -3.373   5.320  0.00  0.00    -0.047 A 
ATOM      5  C3  UNL d   1      -5.691  -2.670   4.131  0.00  0.00    -0.047 A 
ATOM      6  C4  UNL d   1      -4.329  -2.455   4.120  0.00  0.00    -0.004 A 
ENDROOT
TORSDOF 0
ENDMDL
