MODEL 1
REMARK minimizedAffinity 4.93851566
REMARK minimizedRMSD -1
REMARK  0 active torsions:
REMARK  status: ('A' for Active; 'I' for Inactive)
ROOT
ATOM      1  C   UNL d   1       0.365   1.866   2.206  0.00  0.00     0.172 C 
ATOM      2  N   UNL d   1       0.126   2.293   0.847  0.00  0.00    -0.070 N 
ATOM      3  C1  UNL d   1       0.516   3.489   0.306  0.00  0.00    -0.004 A 
ATOM      4  C2  UNL d   1       0.102   3.513  -1.008  0.00  0.00    -0.047 A 
ATOM      5  C3  UNL d   1      -0.561   2.290  -1.266  0.00  0.00    -0.047 A 
ATOM      6  C4  UNL d   1      -0.531   1.553  -0.100  0.00  0.00    -0.004 A 
ENDROOT
TORSDOF 0
ENDMDL
