MODEL 1
REMARK minimizedAffinity 2.09995437
REMARK minimizedRMSD -1
REMARK  0 active torsions:
REMARK  status: ('A' for Active; 'I' for Inactive)
ROOT
ATOM      1  C   UNL d   1      -4.512  -0.002   1.161  0.00  0.00     0.172 C 
ATOM      2  N   UNL d   1      -5.084  -0.284   2.457  0.00  0.00    -0.070 N 
ATOM      3  C1  UNL d   1      -5.272  -1.531   2.992  0.00  0.00    -0.004 A 
ATOM      4  C2  UNL d   1      -5.840  -1.374   4.238  0.00  0.00    -0.047 A 
ATOM      5  C3  UNL d   1      -6.000   0.015   4.459  0.00  0.00    -0.047 A 
ATOM      6  C4  UNL d   1      -5.524   0.666   3.340  0.00  0.00    -0.004 A 
ENDROOT
TORSDOF 0
ENDMDL
