MODEL 1
REMARK minimizedAffinity 2.9564507
REMARK minimizedRMSD -1
REMARK  0 active torsions:
REMARK  status: ('A' for Active; 'I' for Inactive)
ROOT
ATOM      1  C   UNL d   1      -5.552  -5.630  -3.194  0.00  0.00     0.172 C 
ATOM      2  N   UNL d   1      -4.411  -5.381  -4.045  0.00  0.00    -0.070 N 
ATOM      3  C1  UNL d   1      -3.398  -4.498  -3.783  0.00  0.00    -0.004 A 
ATOM      4  C2  UNL d   1      -2.507  -4.555  -4.833  0.00  0.00    -0.047 A 
ATOM      5  C3  UNL d   1      -3.003  -5.504  -5.758  0.00  0.00    -0.047 A 
ATOM      6  C4  UNL d   1      -4.183  -6.000  -5.245  0.00  0.00    -0.004 A 
ENDROOT
TORSDOF 0
ENDMDL
