MODEL 1
REMARK minimizedAffinity -0.724193573
REMARK minimizedRMSD -1
REMARK  1 active torsions:
REMARK  status: ('A' for Active; 'I' for Inactive)
REMARK    1  A    between atoms: C1_2  and  C2_3 
ROOT
ATOM      1  C2  UNL d   1       5.271   3.003   3.646  0.00  0.00    -0.077 A 
ATOM      2  C3  UNL d   1       4.534   2.181   2.783  0.00  0.00     0.002 A 
ATOM      3  C4  UNL d   1       4.527   0.796   2.960  0.00  0.00     0.002 A 
ATOM      4  C5  UNL d   1       5.253   0.222   4.002  0.00  0.00    -0.004 A 
ATOM      5  C6  UNL d   1       5.990   1.031   4.865  0.00  0.00     0.002 A 
ATOM      6  C7  UNL d   1       5.999   2.415   4.689  0.00  0.00     0.002 A 
ENDROOT
BRANCH   1   7
ATOM      7  C1  UNL d   1       5.239   4.501   3.487  0.00  0.00     0.055 C 
ATOM      8  C   UNL d   1       5.999   4.941   2.244  0.00  0.00     0.019 C 
ENDBRANCH   1   7
TORSDOF 1
ENDMDL
