MODEL 1
REMARK minimizedAffinity -3.29597378
REMARK minimizedRMSD -1
REMARK  1 active torsions:
REMARK  status: ('A' for Active; 'I' for Inactive)
REMARK    1  A    between atoms: C1_2  and  C2_3 
ROOT
ATOM      1  C2  UNL d   1       5.829   3.094   3.422  0.00  0.00    -0.077 A 
ATOM      2  C3  UNL d   1       5.998   3.216   4.809  0.00  0.00     0.002 A 
ATOM      3  C4  UNL d   1       5.999   2.081   5.622  0.00  0.00     0.002 A 
ATOM      4  C5  UNL d   1       5.836   0.817   5.059  0.00  0.00    -0.004 A 
ATOM      5  C6  UNL d   1       5.666   0.686   3.681  0.00  0.00     0.002 A 
ATOM      6  C7  UNL d   1       5.663   1.819   2.866  0.00  0.00     0.002 A 
ENDROOT
BRANCH   1   7
ATOM      7  C1  UNL d   1       5.877   4.312   2.537  0.00  0.00     0.055 C 
ATOM      8  C   UNL d   1       5.995   5.588   3.358  0.00  0.00     0.019 C 
ENDBRANCH   1   7
TORSDOF 1
ENDMDL
