MODEL 1
REMARK minimizedAffinity -0.565496624
REMARK minimizedRMSD -1
REMARK  1 active torsions:
REMARK  status: ('A' for Active; 'I' for Inactive)
REMARK    1  A    between atoms: C1_2  and  C2_3 
ROOT
ATOM      1  C2  UNL d   1       5.999   3.481   4.107  0.00  0.00    -0.077 A 
ATOM      2  C3  UNL d   1       5.993   4.652   4.877  0.00  0.00     0.002 A 
ATOM      3  C4  UNL d   1       5.952   5.903   4.260  0.00  0.00     0.002 A 
ATOM      4  C5  UNL d   1       5.911   5.995   2.870  0.00  0.00    -0.004 A 
ATOM      5  C6  UNL d   1       5.918   4.836   2.095  0.00  0.00     0.002 A 
ATOM      6  C7  UNL d   1       5.961   3.585   2.710  0.00  0.00     0.002 A 
ENDROOT
BRANCH   1   7
ATOM      7  C1  UNL d   1       5.994   2.129   4.772  0.00  0.00     0.055 C 
ATOM      8  C   UNL d   1       5.998   1.006   3.744  0.00  0.00     0.019 C 
ENDBRANCH   1   7
TORSDOF 1
ENDMDL
