MODEL 1
REMARK minimizedAffinity -1.38579762
REMARK minimizedRMSD -1
REMARK  1 active torsions:
REMARK  status: ('A' for Active; 'I' for Inactive)
REMARK    1  A    between atoms: C1_2  and  C2_3 
ROOT
ATOM      1  C2  UNL d   1       5.855   2.411   4.173  0.00  0.00    -0.077 A 
ATOM      2  C3  UNL d   1       6.000   1.681   2.985  0.00  0.00     0.002 A 
ATOM      3  C4  UNL d   1       5.821   0.296   2.980  0.00  0.00     0.002 A 
ATOM      4  C5  UNL d   1       5.491  -0.369   4.159  0.00  0.00    -0.004 A 
ATOM      5  C6  UNL d   1       5.347   0.347   5.346  0.00  0.00     0.002 A 
ATOM      6  C7  UNL d   1       5.527   1.731   5.353  0.00  0.00     0.002 A 
ENDROOT
BRANCH   1   7
ATOM      7  C1  UNL d   1       5.999   3.910   4.170  0.00  0.00     0.055 C 
ATOM      8  C   UNL d   1       6.000   4.464   2.753  0.00  0.00     0.019 C 
ENDBRANCH   1   7
TORSDOF 1
ENDMDL
