MODEL 1
REMARK minimizedAffinity -1.96167111
REMARK minimizedRMSD -1
REMARK  1 active torsions:
REMARK  status: ('A' for Active; 'I' for Inactive)
REMARK    1  A    between atoms: C1_2  and  C2_3 
ROOT
ATOM      1  C2  UNL d   1       5.844  -0.119   5.166  0.00  0.00    -0.077 A 
ATOM      2  C3  UNL d   1       5.919   1.071   5.903  0.00  0.00     0.002 A 
ATOM      3  C4  UNL d   1       5.998   2.302   5.250  0.00  0.00     0.002 A 
ATOM      4  C5  UNL d   1       5.998   2.356   3.858  0.00  0.00    -0.004 A 
ATOM      5  C6  UNL d   1       5.925   1.178   3.115  0.00  0.00     0.002 A 
ATOM      6  C7  UNL d   1       5.848  -0.054   3.766  0.00  0.00     0.002 A 
ENDROOT
BRANCH   1   7
ATOM      7  C1  UNL d   1       5.709  -1.445   5.868  0.00  0.00     0.055 C 
ATOM      8  C   UNL d   1       5.644  -2.595   4.873  0.00  0.00     0.019 C 
ENDBRANCH   1   7
TORSDOF 1
ENDMDL
