MODEL 1
REMARK minimizedAffinity -1.59823775
REMARK minimizedRMSD -1
REMARK  1 active torsions:
REMARK  status: ('A' for Active; 'I' for Inactive)
REMARK    1  A    between atoms: C1_2  and  C2_3 
ROOT
ATOM      1  C2  UNL d   1       5.977   1.786   4.109  0.00  0.00    -0.077 A 
ATOM      2  C3  UNL d   1       5.959   2.274   5.423  0.00  0.00     0.002 A 
ATOM      3  C4  UNL d   1       5.961   3.649   5.665  0.00  0.00     0.002 A 
ATOM      4  C5  UNL d   1       5.977   4.546   4.599  0.00  0.00    -0.004 A 
ATOM      5  C6  UNL d   1       5.997   4.070   3.289  0.00  0.00     0.002 A 
ATOM      6  C7  UNL d   1       5.996   2.696   3.045  0.00  0.00     0.002 A 
ENDROOT
BRANCH   1   7
ATOM      7  C1  UNL d   1       5.925   0.303   3.845  0.00  0.00     0.055 C 
ATOM      8  C   UNL d   1       5.991   0.004   2.355  0.00  0.00     0.019 C 
ENDBRANCH   1   7
TORSDOF 1
ENDMDL
