MODEL 1
REMARK minimizedAffinity -1.78443241
REMARK minimizedRMSD -1
REMARK  1 active torsions:
REMARK  status: ('A' for Active; 'I' for Inactive)
REMARK    1  A    between atoms: C1_2  and  C2_3 
ROOT
ATOM      1  C2  UNL d   1       5.437   0.820   4.645  0.00  0.00    -0.077 A 
ATOM      2  C3  UNL d   1       6.000   0.544   3.391  0.00  0.00     0.002 A 
ATOM      3  C4  UNL d   1       5.998   1.514   2.387  0.00  0.00     0.002 A 
ATOM      4  C5  UNL d   1       5.438   2.767   2.627  0.00  0.00    -0.004 A 
ATOM      5  C6  UNL d   1       4.874   3.051   3.870  0.00  0.00     0.002 A 
ATOM      6  C7  UNL d   1       4.874   2.082   4.875  0.00  0.00     0.002 A 
ENDROOT
BRANCH   1   7
ATOM      7  C1  UNL d   1       5.482  -0.208   5.745  0.00  0.00     0.055 C 
ATOM      8  C   UNL d   1       5.997  -1.545   5.232  0.00  0.00     0.019 C 
ENDBRANCH   1   7
TORSDOF 1
ENDMDL
