MODEL 1
REMARK minimizedAffinity 3.28504395
REMARK minimizedRMSD -1
REMARK  1 active torsions:
REMARK  status: ('A' for Active; 'I' for Inactive)
REMARK    1  A    between atoms: C1_2  and  C2_3 
ROOT
ATOM      1  C2  UNL d   1       5.994   0.906   3.868  0.00  0.00    -0.077 A 
ATOM      2  C3  UNL d   1       5.996  -0.052   2.844  0.00  0.00     0.002 A 
ATOM      3  C4  UNL d   1       5.999  -1.414   3.151  0.00  0.00     0.002 A 
ATOM      4  C5  UNL d   1       5.996  -1.830   4.481  0.00  0.00    -0.004 A 
ATOM      5  C6  UNL d   1       5.997  -0.885   5.506  0.00  0.00     0.002 A 
ATOM      6  C7  UNL d   1       5.995   0.477   5.201  0.00  0.00     0.002 A 
ENDROOT
BRANCH   1   7
ATOM      7  C1  UNL d   1       5.941   2.375   3.539  0.00  0.00     0.055 C 
ATOM      8  C   UNL d   1       4.516   2.828   3.255  0.00  0.00     0.019 C 
ENDBRANCH   1   7
TORSDOF 1
ENDMDL
