MODEL 1
REMARK minimizedAffinity -2.89172983
REMARK minimizedRMSD -1
REMARK  1 active torsions:
REMARK  status: ('A' for Active; 'I' for Inactive)
REMARK    1  A    between atoms: C1_2  and  C2_3 
ROOT
ATOM      1  C2  UNL d   1       5.298   2.346   3.463  0.00  0.00    -0.077 A 
ATOM      2  C3  UNL d   1       5.830   1.328   2.660  0.00  0.00     0.002 A 
ATOM      3  C4  UNL d   1       5.989   0.037   3.169  0.00  0.00     0.002 A 
ATOM      4  C5  UNL d   1       5.614  -0.247   4.481  0.00  0.00    -0.004 A 
ATOM      5  C6  UNL d   1       5.087   0.760   5.288  0.00  0.00     0.002 A 
ATOM      6  C7  UNL d   1       4.928   2.050   4.781  0.00  0.00     0.002 A 
ENDROOT
BRANCH   1   7
ATOM      7  C1  UNL d   1       5.081   3.727   2.901  0.00  0.00     0.055 C 
ATOM      8  C   UNL d   1       5.968   4.752   3.592  0.00  0.00     0.019 C 
ENDBRANCH   1   7
TORSDOF 1
ENDMDL
