MODEL 1
REMARK minimizedAffinity -1.07125211
REMARK minimizedRMSD -1
REMARK  1 active torsions:
REMARK  status: ('A' for Active; 'I' for Inactive)
REMARK    1  A    between atoms: C1_2  and  C2_3 
ROOT
ATOM      1  C2  UNL d   1       5.966   2.961   4.321  0.00  0.00    -0.077 A 
ATOM      2  C3  UNL d   1       5.968   3.457   3.009  0.00  0.00     0.002 A 
ATOM      3  C4  UNL d   1       5.983   4.833   2.774  0.00  0.00     0.002 A 
ATOM      4  C5  UNL d   1       6.000   5.724   3.845  0.00  0.00    -0.004 A 
ATOM      5  C6  UNL d   1       5.996   5.241   5.153  0.00  0.00     0.002 A 
ATOM      6  C7  UNL d   1       5.980   3.866   5.390  0.00  0.00     0.002 A 
ENDROOT
BRANCH   1   7
ATOM      7  C1  UNL d   1       6.000   1.477   4.576  0.00  0.00     0.055 C 
ATOM      8  C   UNL d   1       5.977   0.690   3.274  0.00  0.00     0.019 C 
ENDBRANCH   1   7
TORSDOF 1
ENDMDL
