MODEL 1
REMARK minimizedAffinity -1.77726007
REMARK minimizedRMSD -1
REMARK  1 active torsions:
REMARK  status: ('A' for Active; 'I' for Inactive)
REMARK    1  A    between atoms: C1_2  and  C2_3 
ROOT
ATOM      1  C2  UNL d   1       5.934   2.635   4.051  0.00  0.00    -0.077 A 
ATOM      2  C3  UNL d   1       5.858   2.037   5.316  0.00  0.00     0.002 A 
ATOM      3  C4  UNL d   1       5.843   0.647   5.441  0.00  0.00     0.002 A 
ATOM      4  C5  UNL d   1       5.908  -0.157   4.305  0.00  0.00    -0.004 A 
ATOM      5  C6  UNL d   1       5.981   0.428   3.041  0.00  0.00     0.002 A 
ATOM      6  C7  UNL d   1       5.995   1.817   2.915  0.00  0.00     0.002 A 
ENDROOT
BRANCH   1   7
ATOM      7  C1  UNL d   1       6.000   4.134   3.917  0.00  0.00     0.055 C 
ATOM      8  C   UNL d   1       5.996   4.560   2.456  0.00  0.00     0.019 C 
ENDBRANCH   1   7
TORSDOF 1
ENDMDL
