MODEL 1
REMARK minimizedAffinity -1.24073815
REMARK minimizedRMSD -1
REMARK  1 active torsions:
REMARK  status: ('A' for Active; 'I' for Inactive)
REMARK    1  A    between atoms: C1_2  and  C2_3 
ROOT
ATOM      1  C2  UNL d   1       5.613   0.671   5.081  0.00  0.00    -0.077 A 
ATOM      2  C3  UNL d   1       5.226   0.614   3.734  0.00  0.00     0.002 A 
ATOM      3  C4  UNL d   1       5.225   1.770   2.951  0.00  0.00     0.002 A 
ATOM      4  C5  UNL d   1       5.615   2.989   3.503  0.00  0.00    -0.004 A 
ATOM      5  C6  UNL d   1       5.999   3.055   4.842  0.00  0.00     0.002 A 
ATOM      6  C7  UNL d   1       5.999   1.901   5.627  0.00  0.00     0.002 A 
ENDROOT
BRANCH   1   7
ATOM      7  C1  UNL d   1       5.662  -0.583   5.914  0.00  0.00     0.055 C 
ATOM      8  C   UNL d   1       5.981  -1.803   5.061  0.00  0.00     0.019 C 
ENDBRANCH   1   7
TORSDOF 1
ENDMDL
