MODEL 1
REMARK minimizedAffinity 7.94077444
REMARK minimizedRMSD -1
REMARK  1 active torsions:
REMARK  status: ('A' for Active; 'I' for Inactive)
REMARK    1  A    between atoms: C1_2  and  C2_3 
ROOT
ATOM      1  C2  UNL d   1       0.870  -1.035  -1.114  0.00  0.00    -0.077 A 
ATOM      2  C3  UNL d   1       1.435  -1.269  -2.376  0.00  0.00     0.002 A 
ATOM      3  C4  UNL d   1       2.615  -0.625  -2.751  0.00  0.00     0.002 A 
ATOM      4  C5  UNL d   1       3.242   0.253  -1.870  0.00  0.00    -0.004 A 
ATOM      5  C6  UNL d   1       2.687   0.494  -0.614  0.00  0.00     0.002 A 
ATOM      6  C7  UNL d   1       1.507  -0.148  -0.237  0.00  0.00     0.002 A 
ENDROOT
BRANCH   1   7
ATOM      7  C1  UNL d   1      -0.376  -1.766  -0.688  0.00  0.00     0.055 C 
ATOM      8  C   UNL d   1      -0.194  -3.274  -0.784  0.00  0.00     0.019 C 
ENDBRANCH   1   7
TORSDOF 1
ENDMDL
