MODEL 1
REMARK minimizedAffinity 2.35341787
REMARK minimizedRMSD -1
REMARK  1 active torsions:
REMARK  status: ('A' for Active; 'I' for Inactive)
REMARK    1  A    between atoms: C1_2  and  C2_3 
ROOT
ATOM      1  C2  UNL d   1       5.759   3.100   3.807  0.00  0.00    -0.077 A 
ATOM      2  C3  UNL d   1       5.832   2.823   5.179  0.00  0.00     0.002 A 
ATOM      3  C4  UNL d   1       5.665   1.518   5.646  0.00  0.00     0.002 A 
ATOM      4  C5  UNL d   1       5.430   0.479   4.747  0.00  0.00    -0.004 A 
ATOM      5  C6  UNL d   1       5.353   0.745   3.381  0.00  0.00     0.002 A 
ATOM      6  C7  UNL d   1       5.518   2.049   2.912  0.00  0.00     0.002 A 
ENDROOT
BRANCH   1   7
ATOM      7  C1  UNL d   1       5.987   4.499   3.297  0.00  0.00     0.055 C 
ATOM      8  C   UNL d   1       5.999   4.540   1.776  0.00  0.00     0.019 C 
ENDBRANCH   1   7
TORSDOF 1
ENDMDL
