MODEL 1
REMARK minimizedAffinity 7.15751553
REMARK minimizedRMSD -1
REMARK  1 active torsions:
REMARK  status: ('A' for Active; 'I' for Inactive)
REMARK    1  A    between atoms: C1_2  and  C2_3 
ROOT
ATOM      1  C2  UNL d   1       5.988   3.168   3.260  0.00  0.00    -0.077 A 
ATOM      2  C3  UNL d   1       5.985   3.311   4.655  0.00  0.00     0.002 A 
ATOM      3  C4  UNL d   1       5.984   4.581   5.235  0.00  0.00     0.002 A 
ATOM      4  C5  UNL d   1       5.982   5.717   4.428  0.00  0.00    -0.004 A 
ATOM      5  C6  UNL d   1       5.988   5.586   3.040  0.00  0.00     0.002 A 
ATOM      6  C7  UNL d   1       5.990   4.317   2.459  0.00  0.00     0.002 A 
ENDROOT
BRANCH   1   7
ATOM      7  C1  UNL d   1       5.939   1.800   2.632  0.00  0.00     0.055 C 
ATOM      8  C   UNL d   1       5.927   0.706   3.690  0.00  0.00     0.019 C 
ENDBRANCH   1   7
TORSDOF 1
ENDMDL
