MODEL 1
REMARK minimizedAffinity 14.7927427
REMARK minimizedRMSD -1
REMARK  0 active torsions:
REMARK  status: ('A' for Active; 'I' for Inactive)
ROOT
ATOM      1  C   UNL d   1      -1.543   1.237  -1.458  0.00  0.00     0.124 A 
ATOM      2  C1  UNL d   1      -0.244   1.725  -1.411  0.00  0.00     0.062 A 
ATOM      3  C2  UNL d   1       0.217   2.380  -0.273  0.00  0.00     0.162 A 
ATOM      4  C3  UNL d   1      -0.622   2.552   0.829  0.00  0.00    -0.034 A 
ATOM      5  C4  UNL d   1      -1.927   2.060   0.774  0.00  0.00     0.162 A 
ATOM      6  C5  UNL d   1      -2.383   1.405  -0.366  0.00  0.00     0.062 A 
ATOM      7  F   UNL d   1      -3.638   0.935  -0.409  0.00  0.00    -0.097 F 
ATOM      8  F1  UNL d   1      -2.759   2.207   1.815  0.00  0.00    -0.096 F 
ATOM      9  I   UNL d   1       0.064   3.531   2.533  0.00  0.00    -0.060 I 
ATOM     10  F2  UNL d   1       1.476   2.841  -0.255  0.00  0.00    -0.096 F 
ATOM     11  F3  UNL d   1       0.569   1.565  -2.465  0.00  0.00    -0.097 F 
ATOM     12  F4  UNL d   1      -1.984   0.608  -2.554  0.00  0.00    -0.092 F 
ENDROOT
TORSDOF 0
ENDMDL
