MODEL 1
REMARK minimizedAffinity -2.49358344
REMARK minimizedRMSD -1
REMARK  0 active torsions:
REMARK  status: ('A' for Active; 'I' for Inactive)
ROOT
ATOM      1  C   UNL d   1       0.850  -0.209   0.525  0.00  0.00     0.124 A 
ATOM      2  C1  UNL d   1       0.608   0.680  -0.514  0.00  0.00     0.062 A 
ATOM      3  C2  UNL d   1      -0.236   1.769  -0.320  0.00  0.00     0.162 A 
ATOM      4  C3  UNL d   1      -0.844   1.977   0.919  0.00  0.00    -0.034 A 
ATOM      5  C4  UNL d   1      -0.596   1.079   1.958  0.00  0.00     0.162 A 
ATOM      6  C5  UNL d   1       0.249  -0.009   1.759  0.00  0.00     0.062 A 
ATOM      7  F   UNL d   1       0.482  -0.866   2.763  0.00  0.00    -0.097 F 
ATOM      8  F1  UNL d   1      -1.164   1.249   3.161  0.00  0.00    -0.096 F 
ATOM      9  I   UNL d   1      -2.107   3.605   1.213  0.00  0.00    -0.060 I 
ATOM     10  F2  UNL d   1      -0.453   2.612  -1.341  0.00  0.00    -0.096 F 
ATOM     11  F3  UNL d   1       1.187   0.488  -1.707  0.00  0.00    -0.097 F 
ATOM     12  F4  UNL d   1       1.662  -1.257   0.335  0.00  0.00    -0.092 F 
ENDROOT
TORSDOF 0
ENDMDL
