MODEL 1
REMARK minimizedAffinity -2.39684248
REMARK minimizedRMSD -1
REMARK  0 active torsions:
REMARK  status: ('A' for Active; 'I' for Inactive)
ROOT
ATOM      1  C   UNL d   1      -0.855   1.707   1.252  0.00  0.00     0.124 A 
ATOM      2  C1  UNL d   1      -0.703   1.654  -0.126  0.00  0.00     0.062 A 
ATOM      3  C2  UNL d   1      -0.068   0.566  -0.718  0.00  0.00     0.162 A 
ATOM      4  C3  UNL d   1       0.419  -0.479   0.068  0.00  0.00    -0.034 A 
ATOM      5  C4  UNL d   1       0.263  -0.417   1.454  0.00  0.00     0.162 A 
ATOM      6  C5  UNL d   1      -0.373   0.673   2.041  0.00  0.00     0.062 A 
ATOM      7  F   UNL d   1      -0.519   0.723   3.373  0.00  0.00    -0.097 F 
ATOM      8  F1  UNL d   1       0.719  -1.404   2.240  0.00  0.00    -0.096 F 
ATOM      9  I   UNL d   1       1.369  -2.107  -0.814  0.00  0.00    -0.060 I 
ATOM     10  F2  UNL d   1       0.065   0.540  -2.053  0.00  0.00    -0.096 F 
ATOM     11  F3  UNL d   1      -1.168   2.653  -0.890  0.00  0.00    -0.097 F 
ATOM     12  F4  UNL d   1      -1.466   2.756   1.819  0.00  0.00    -0.092 F 
ENDROOT
TORSDOF 0
ENDMDL
