MODEL 1
REMARK minimizedAffinity -0.656431794
REMARK minimizedRMSD -1
REMARK  0 active torsions:
REMARK  status: ('A' for Active; 'I' for Inactive)
ROOT
ATOM      1  C   UNL d   1      -1.291   1.986   1.590  0.00  0.00     0.124 A 
ATOM      2  C1  UNL d   1      -0.854   0.887   2.318  0.00  0.00     0.062 A 
ATOM      3  C2  UNL d   1      -0.284  -0.202   1.667  0.00  0.00     0.162 A 
ATOM      4  C3  UNL d   1      -0.145  -0.199   0.279  0.00  0.00    -0.034 A 
ATOM      5  C4  UNL d   1      -0.588   0.909  -0.447  0.00  0.00     0.162 A 
ATOM      6  C5  UNL d   1      -1.157   1.995   0.209  0.00  0.00     0.062 A 
ATOM      7  F   UNL d   1      -1.578   3.055  -0.496  0.00  0.00    -0.097 F 
ATOM      8  F1  UNL d   1      -0.470   0.945  -1.783  0.00  0.00    -0.096 F 
ATOM      9  I   UNL d   1       0.707  -1.827  -0.699  0.00  0.00    -0.060 I 
ATOM     10  F2  UNL d   1       0.129  -1.250   2.395  0.00  0.00    -0.096 F 
ATOM     11  F3  UNL d   1      -0.983   0.875   3.652  0.00  0.00    -0.097 F 
ATOM     12  F4  UNL d   1      -1.840   3.032   2.219  0.00  0.00    -0.092 F 
ENDROOT
TORSDOF 0
ENDMDL
