MODEL 1
REMARK minimizedAffinity 0.994978189
REMARK minimizedRMSD -1
REMARK  0 active torsions:
REMARK  status: ('A' for Active; 'I' for Inactive)
ROOT
ATOM      1  C   UNL d   1      -1.245   1.804   0.943  0.00  0.00     0.124 A 
ATOM      2  C1  UNL d   1      -0.919   0.782   1.823  0.00  0.00     0.062 A 
ATOM      3  C2  UNL d   1      -0.204  -0.325   1.376  0.00  0.00     0.162 A 
ATOM      4  C3  UNL d   1       0.190  -0.416   0.041  0.00  0.00    -0.034 A 
ATOM      5  C4  UNL d   1      -0.143   0.615  -0.839  0.00  0.00     0.162 A 
ATOM      6  C5  UNL d   1      -0.857   1.720  -0.387  0.00  0.00     0.062 A 
ATOM      7  F   UNL d   1      -1.171   2.707  -1.239  0.00  0.00    -0.097 F 
ATOM      8  F1  UNL d   1       0.221   0.560  -2.129  0.00  0.00    -0.096 F 
ATOM      9  I   UNL d   1       1.259  -2.071  -0.632  0.00  0.00    -0.060 I 
ATOM     10  F2  UNL d   1       0.098  -1.298   2.249  0.00  0.00    -0.096 F 
ATOM     11  F3  UNL d   1      -1.293   0.861   3.108  0.00  0.00    -0.097 F 
ATOM     12  F4  UNL d   1      -1.933   2.868   1.376  0.00  0.00    -0.092 F 
ENDROOT
TORSDOF 0
ENDMDL
