MODEL 1
REMARK minimizedAffinity -1.22997427
REMARK minimizedRMSD -1
REMARK  0 active torsions:
REMARK  status: ('A' for Active; 'I' for Inactive)
ROOT
ATOM      1  C   UNL d   1      -1.172   0.602   1.942  0.00  0.00     0.124 A 
ATOM      2  C1  UNL d   1      -1.253   1.453   0.848  0.00  0.00     0.062 A 
ATOM      3  C2  UNL d   1      -0.439   1.246  -0.262  0.00  0.00     0.162 A 
ATOM      4  C3  UNL d   1       0.463   0.182  -0.284  0.00  0.00    -0.034 A 
ATOM      5  C4  UNL d   1       0.540  -0.669   0.820  0.00  0.00     0.162 A 
ATOM      6  C5  UNL d   1      -0.276  -0.458   1.927  0.00  0.00     0.062 A 
ATOM      7  F   UNL d   1      -0.196  -1.281   2.982  0.00  0.00    -0.097 F 
ATOM      8  F1  UNL d   1       1.396  -1.701   0.831  0.00  0.00    -0.096 F 
ATOM      9  I   UNL d   1       1.681  -0.131  -1.942  0.00  0.00    -0.060 I 
ATOM     10  F2  UNL d   1      -0.539   2.084  -1.304  0.00  0.00    -0.096 F 
ATOM     11  F3  UNL d   1      -2.118   2.478   0.861  0.00  0.00    -0.097 F 
ATOM     12  F4  UNL d   1      -1.955   0.804   3.009  0.00  0.00    -0.092 F 
ENDROOT
TORSDOF 0
ENDMDL
