MODEL 1
REMARK minimizedAffinity -3.94389224
REMARK minimizedRMSD -1
REMARK  0 active torsions:
REMARK  status: ('A' for Active; 'I' for Inactive)
ROOT
ATOM      1  C   UNL d   1      -0.419   0.608   2.796  0.00  0.00     0.124 A 
ATOM      2  C1  UNL d   1      -0.865   1.269   1.660  0.00  0.00     0.062 A 
ATOM      3  C2  UNL d   1      -0.474   0.833   0.397  0.00  0.00     0.162 A 
ATOM      4  C3  UNL d   1       0.368  -0.272   0.264  0.00  0.00    -0.034 A 
ATOM      5  C4  UNL d   1       0.813  -0.930   1.411  0.00  0.00     0.162 A 
ATOM      6  C5  UNL d   1       0.419  -0.491   2.671  0.00  0.00     0.062 A 
ATOM      7  F   UNL d   1       0.851  -1.130   3.768  0.00  0.00    -0.097 F 
ATOM      8  F1  UNL d   1       1.624  -1.995   1.319  0.00  0.00    -0.096 F 
ATOM      9  I   UNL d   1       0.955  -0.927  -1.622  0.00  0.00    -0.060 I 
ATOM     10  F2  UNL d   1      -0.920   1.490  -0.683  0.00  0.00    -0.096 F 
ATOM     11  F3  UNL d   1      -1.675   2.331   1.778  0.00  0.00    -0.097 F 
ATOM     12  F4  UNL d   1      -0.796   1.031   4.010  0.00  0.00    -0.092 F 
ENDROOT
TORSDOF 0
ENDMDL
