MODEL 1
REMARK minimizedAffinity -2.25272274
REMARK minimizedRMSD -1
REMARK  0 active torsions:
REMARK  status: ('A' for Active; 'I' for Inactive)
ROOT
ATOM      1  C   UNL d   1      -1.018   0.522   2.086  0.00  0.00     0.124 A 
ATOM      2  C1  UNL d   1      -0.252  -0.635   2.081  0.00  0.00     0.062 A 
ATOM      3  C2  UNL d   1       0.402  -1.037   0.920  0.00  0.00     0.162 A 
ATOM      4  C3  UNL d   1       0.293  -0.280  -0.246  0.00  0.00    -0.034 A 
ATOM      5  C4  UNL d   1      -0.480   0.882  -0.234  0.00  0.00     0.162 A 
ATOM      6  C5  UNL d   1      -1.131   1.279   0.929  0.00  0.00     0.062 A 
ATOM      7  F   UNL d   1      -1.871   2.398   0.931  0.00  0.00    -0.097 F 
ATOM      8  F1  UNL d   1      -0.606   1.633  -1.339  0.00  0.00    -0.096 F 
ATOM      9  I   UNL d   1       1.270  -0.878  -1.984  0.00  0.00    -0.060 I 
ATOM     10  F2  UNL d   1       1.136  -2.160   0.945  0.00  0.00    -0.096 F 
ATOM     11  F3  UNL d   1      -0.142  -1.369   3.198  0.00  0.00    -0.097 F 
ATOM     12  F4  UNL d   1      -1.647   0.906   3.204  0.00  0.00    -0.092 F 
ENDROOT
TORSDOF 0
ENDMDL
