MODEL 1
REMARK minimizedAffinity -3.90704012
REMARK minimizedRMSD -1
REMARK  0 active torsions:
REMARK  status: ('A' for Active; 'I' for Inactive)
ROOT
ATOM      1  C   UNL d   1      -0.356   1.629  -0.613  0.00  0.00     0.124 A 
ATOM      2  C1  UNL d   1       0.398   0.465  -0.674  0.00  0.00     0.062 A 
ATOM      3  C2  UNL d   1       0.342  -0.460   0.365  0.00  0.00     0.162 A 
ATOM      4  C3  UNL d   1      -0.472  -0.225   1.473  0.00  0.00    -0.034 A 
ATOM      5  C4  UNL d   1      -1.227   0.948   1.527  0.00  0.00     0.162 A 
ATOM      6  C5  UNL d   1      -1.167   1.869   0.486  0.00  0.00     0.062 A 
ATOM      7  F   UNL d   1      -1.896   2.993   0.547  0.00  0.00    -0.097 F 
ATOM      8  F1  UNL d   1      -2.020   1.205   2.577  0.00  0.00    -0.096 F 
ATOM      9  I   UNL d   1      -0.559  -1.606   3.028  0.00  0.00    -0.060 I 
ATOM     10  F2  UNL d   1       1.081  -1.576   0.280  0.00  0.00    -0.096 F 
ATOM     11  F3  UNL d   1       1.183   0.231  -1.735  0.00  0.00    -0.097 F 
ATOM     12  F4  UNL d   1      -0.299   2.518  -1.614  0.00  0.00    -0.092 F 
ENDROOT
TORSDOF 0
ENDMDL
