MODEL 1
REMARK minimizedAffinity -5.41326761
REMARK minimizedRMSD -1
REMARK  0 active torsions:
REMARK  status: ('A' for Active; 'I' for Inactive)
ROOT
ATOM      1  C   UNL d   1      -1.441   1.515   1.284  0.00  0.00     0.124 A 
ATOM      2  C1  UNL d   1      -1.150   1.583  -0.072  0.00  0.00     0.062 A 
ATOM      3  C2  UNL d   1      -0.396   0.581  -0.677  0.00  0.00     0.162 A 
ATOM      4  C3  UNL d   1       0.071  -0.498   0.073  0.00  0.00    -0.034 A 
ATOM      5  C4  UNL d   1      -0.225  -0.559   1.436  0.00  0.00     0.162 A 
ATOM      6  C5  UNL d   1      -0.978   0.445   2.036  0.00  0.00     0.062 A 
ATOM      7  F   UNL d   1      -1.258   0.378   3.346  0.00  0.00    -0.097 F 
ATOM      8  F1  UNL d   1       0.209  -1.582   2.187  0.00  0.00    -0.096 F 
ATOM      9  I   UNL d   1       1.199  -1.997  -0.827  0.00  0.00    -0.060 I 
ATOM     10  F2  UNL d   1      -0.130   0.673  -1.988  0.00  0.00    -0.096 F 
ATOM     11  F3  UNL d   1      -1.595   2.616  -0.801  0.00  0.00    -0.097 F 
ATOM     12  F4  UNL d   1      -2.166   2.481   1.864  0.00  0.00    -0.092 F 
ENDROOT
TORSDOF 0
ENDMDL
