MODEL 1
REMARK minimizedAffinity -4.58894491
REMARK minimizedRMSD -1
REMARK  0 active torsions:
REMARK  status: ('A' for Active; 'I' for Inactive)
ROOT
ATOM      1  C   UNL d   1      -1.443   1.614   1.687  0.00  0.00     0.124 A 
ATOM      2  C1  UNL d   1      -1.199   1.929   0.357  0.00  0.00     0.062 A 
ATOM      3  C2  UNL d   1      -0.481   1.052  -0.450  0.00  0.00     0.162 A 
ATOM      4  C3  UNL d   1      -0.004  -0.152   0.069  0.00  0.00    -0.034 A 
ATOM      5  C4  UNL d   1      -0.253  -0.462   1.407  0.00  0.00     0.162 A 
ATOM      6  C5  UNL d   1      -0.970   0.419   2.210  0.00  0.00     0.062 A 
ATOM      7  F   UNL d   1      -1.206   0.112   3.494  0.00  0.00    -0.097 F 
ATOM      8  F1  UNL d   1       0.191  -1.611   1.939  0.00  0.00    -0.096 F 
ATOM      9  I   UNL d   1       1.069  -1.467  -1.135  0.00  0.00    -0.060 I 
ATOM     10  F2  UNL d   1      -0.260   1.382  -1.731  0.00  0.00    -0.096 F 
ATOM     11  F3  UNL d   1      -1.654   3.084  -0.151  0.00  0.00    -0.097 F 
ATOM     12  F4  UNL d   1      -2.133   2.461   2.462  0.00  0.00    -0.092 F 
ENDROOT
TORSDOF 0
ENDMDL
