MODEL 1
REMARK minimizedAffinity 5.81272411
REMARK minimizedRMSD -1
REMARK  1 active torsions:
REMARK  status: ('A' for Active; 'I' for Inactive)
REMARK    1  A    between atoms: C3_4  and  O_7 
ROOT
ATOM      1  C   UNL d   1      -5.280   0.894   0.022  0.00  0.00    -0.033 A 
ATOM      2  C1  UNL d   1      -5.750   1.979  -0.721  0.00  0.00     0.039 A 
ATOM      3  C2  UNL d   1      -5.999   1.836  -2.088  0.00  0.00    -0.080 A 
ATOM      4  C3  UNL d   1      -5.775   0.605  -2.698  0.00  0.00     0.150 A 
ATOM      5  C4  UNL d   1      -5.311  -0.481  -1.963  0.00  0.00    -0.007 A 
ATOM      6  C5  UNL d   1      -5.062  -0.336  -0.599  0.00  0.00     0.039 A 
ENDROOT
BRANCH   4   7
ATOM      7  O   UNL d   1      -5.999   0.419  -4.030  0.00  0.00    -0.526 OA
ATOM      8  H5  UNL d   1      -6.290   1.263  -4.414  0.00  0.00     0.418 HD
ENDBRANCH   4   7
TORSDOF 1
ENDMDL
