MODEL 1
REMARK minimizedAffinity 7.7141881
REMARK minimizedRMSD -1
REMARK  1 active torsions:
REMARK  status: ('A' for Active; 'I' for Inactive)
REMARK    1  A    between atoms: C3_4  and  O_7 
ROOT
ATOM      1  C   UNL d   1       0.432  -1.881   3.178  0.00  0.00    -0.033 A 
ATOM      2  C1  UNL d   1       1.038  -3.061   2.740  0.00  0.00     0.039 A 
ATOM      3  C2  UNL d   1       0.344  -3.934   1.900  0.00  0.00    -0.080 A 
ATOM      4  C3  UNL d   1      -0.953  -3.615   1.505  0.00  0.00     0.150 A 
ATOM      5  C4  UNL d   1      -1.561  -2.440   1.934  0.00  0.00    -0.007 A 
ATOM      6  C5  UNL d   1      -0.867  -1.570   2.774  0.00  0.00     0.039 A 
ENDROOT
BRANCH   4   7
ATOM      7  O   UNL d   1      -1.671  -4.439   0.690  0.00  0.00    -0.526 OA
ATOM      8  H5  UNL d   1      -1.135  -5.226   0.497  0.00  0.00     0.418 HD
ENDBRANCH   4   7
TORSDOF 1
ENDMDL
