MODEL 1
REMARK minimizedAffinity 6.79373026
REMARK minimizedRMSD -1
REMARK  1 active torsions:
REMARK  status: ('A' for Active; 'I' for Inactive)
REMARK    1  A    between atoms: C3_4  and  O_7 
ROOT
ATOM      1  C   UNL d   1       5.655   5.041   0.620  0.00  0.00    -0.033 A 
ATOM      2  C1  UNL d   1       5.318   5.986  -0.351  0.00  0.00     0.039 A 
ATOM      3  C2  UNL d   1       5.323   5.634  -1.702  0.00  0.00    -0.080 A 
ATOM      4  C3  UNL d   1       5.664   4.335  -2.068  0.00  0.00     0.150 A 
ATOM      5  C4  UNL d   1       5.997   3.388  -1.106  0.00  0.00    -0.007 A 
ATOM      6  C5  UNL d   1       5.993   3.741   0.243  0.00  0.00     0.039 A 
ENDROOT
BRANCH   4   7
ATOM      7  O   UNL d   1       5.688   3.946  -3.374  0.00  0.00    -0.526 OA
ATOM      8  H5  UNL d   1       5.464   4.713  -3.928  0.00  0.00     0.418 HD
ENDBRANCH   4   7
TORSDOF 1
ENDMDL
