MODEL 1
REMARK minimizedAffinity 11.6016531
REMARK minimizedRMSD -1
REMARK  1 active torsions:
REMARK  status: ('A' for Active; 'I' for Inactive)
REMARK    1  A    between atoms: C3_4  and  O_7 
ROOT
ATOM      1  C   UNL d   1       5.228   4.523  -2.403  0.00  0.00    -0.033 A 
ATOM      2  C1  UNL d   1       5.789   4.804  -3.650  0.00  0.00     0.039 A 
ATOM      3  C2  UNL d   1       5.075   4.527  -4.818  0.00  0.00    -0.080 A 
ATOM      4  C3  UNL d   1       3.802   3.971  -4.724  0.00  0.00     0.150 A 
ATOM      5  C4  UNL d   1       3.235   3.692  -3.485  0.00  0.00    -0.007 A 
ATOM      6  C5  UNL d   1       3.951   3.968  -2.320  0.00  0.00     0.039 A 
ENDROOT
BRANCH   4   7
ATOM      7  O   UNL d   1       3.069   3.678  -5.835  0.00  0.00    -0.526 OA
ATOM      8  H5  UNL d   1       3.599   3.898  -6.620  0.00  0.00     0.418 HD
ENDBRANCH   4   7
TORSDOF 1
ENDMDL
