MODEL 1
REMARK minimizedAffinity 11.2516918
REMARK minimizedRMSD -1
REMARK  1 active torsions:
REMARK  status: ('A' for Active; 'I' for Inactive)
REMARK    1  A    between atoms: C3_4  and  O_7 
ROOT
ATOM      1  C   UNL d   1       6.000   5.135  -0.211  0.00  0.00    -0.033 A 
ATOM      2  C1  UNL d   1       5.623   5.399   1.107  0.00  0.00     0.039 A 
ATOM      3  C2  UNL d   1       5.241   4.352   1.948  0.00  0.00    -0.080 A 
ATOM      4  C3  UNL d   1       5.241   3.048   1.460  0.00  0.00     0.150 A 
ATOM      5  C4  UNL d   1       5.619   2.778   0.149  0.00  0.00    -0.007 A 
ATOM      6  C5  UNL d   1       5.999   3.825  -0.690  0.00  0.00     0.039 A 
ENDROOT
BRANCH   4   7
ATOM      7  O   UNL d   1       4.871   1.995   2.242  0.00  0.00    -0.526 OA
ATOM      8  H5  UNL d   1       4.609   2.335   3.113  0.00  0.00     0.418 HD
ENDBRANCH   4   7
TORSDOF 1
ENDMDL
