MODEL 1
REMARK minimizedAffinity 17.9002514
REMARK minimizedRMSD -1
REMARK  1 active torsions:
REMARK  status: ('A' for Active; 'I' for Inactive)
REMARK    1  A    between atoms: C3_4  and  O_7 
ROOT
ATOM      1  C   UNL d   1       2.589  -4.367   1.000  0.00  0.00    -0.033 A 
ATOM      2  C1  UNL d   1       3.363  -4.817  -0.071  0.00  0.00     0.039 A 
ATOM      3  C2  UNL d   1       3.976  -3.899  -0.926  0.00  0.00    -0.080 A 
ATOM      4  C3  UNL d   1       3.809  -2.535  -0.698  0.00  0.00     0.150 A 
ATOM      5  C4  UNL d   1       3.042  -2.080   0.370  0.00  0.00    -0.007 A 
ATOM      6  C5  UNL d   1       2.429  -2.999   1.221  0.00  0.00     0.039 A 
ENDROOT
BRANCH   4   7
ATOM      7  O   UNL d   1       4.384  -1.602  -1.508  0.00  0.00    -0.526 OA
ATOM      8  H5  UNL d   1       4.859  -2.062  -2.219  0.00  0.00     0.418 HD
ENDBRANCH   4   7
TORSDOF 1
ENDMDL
