MODEL 1
REMARK minimizedAffinity 8.13212204
REMARK minimizedRMSD -1
REMARK  1 active torsions:
REMARK  status: ('A' for Active; 'I' for Inactive)
REMARK    1  A    between atoms: C3_4  and  O_7 
ROOT
ATOM      1  C   UNL d   1       5.060  -6.000   0.029  0.00  0.00    -0.033 A 
ATOM      2  C1  UNL d   1       3.695  -5.716  -0.061  0.00  0.00     0.039 A 
ATOM      3  C2  UNL d   1       3.269  -4.448  -0.460  0.00  0.00    -0.080 A 
ATOM      4  C3  UNL d   1       4.215  -3.474  -0.766  0.00  0.00     0.150 A 
ATOM      5  C4  UNL d   1       5.575  -3.750  -0.682  0.00  0.00    -0.007 A 
ATOM      6  C5  UNL d   1       6.000  -5.017  -0.283  0.00  0.00     0.039 A 
ENDROOT
BRANCH   4   7
ATOM      7  O   UNL d   1       3.846  -2.220  -1.155  0.00  0.00    -0.526 OA
ATOM      8  H5  UNL d   1       2.876  -2.166  -1.140  0.00  0.00     0.418 HD
ENDBRANCH   4   7
TORSDOF 1
ENDMDL
