MODEL 1
REMARK minimizedAffinity 1.59287035
REMARK minimizedRMSD -1
REMARK  1 active torsions:
REMARK  status: ('A' for Active; 'I' for Inactive)
REMARK    1  A    between atoms: C3_4  and  O_7 
ROOT
ATOM      1  C   UNL d   1       2.470   0.927  -0.925  0.00  0.00    -0.033 A 
ATOM      2  C1  UNL d   1       3.830   1.143  -1.152  0.00  0.00     0.039 A 
ATOM      3  C2  UNL d   1       4.588   1.866  -0.228  0.00  0.00    -0.080 A 
ATOM      4  C3  UNL d   1       3.974   2.364   0.918  0.00  0.00     0.150 A 
ATOM      5  C4  UNL d   1       2.620   2.149   1.153  0.00  0.00    -0.007 A 
ATOM      6  C5  UNL d   1       1.865   1.428   0.228  0.00  0.00     0.039 A 
ENDROOT
BRANCH   4   7
ATOM      7  O   UNL d   1       4.672   3.079   1.846  0.00  0.00    -0.526 OA
ATOM      8  H5  UNL d   1       5.588   3.173   1.537  0.00  0.00     0.418 HD
ENDBRANCH   4   7
TORSDOF 1
ENDMDL
