MODEL 1
REMARK minimizedAffinity 7.24351931
REMARK minimizedRMSD -1
REMARK  1 active torsions:
REMARK  status: ('A' for Active; 'I' for Inactive)
REMARK    1  A    between atoms: C3_4  and  O_7 
ROOT
ATOM      1  C   UNL d   1      -2.568  -1.181   0.792  0.00  0.00    -0.033 A 
ATOM      2  C1  UNL d   1      -3.655  -0.425   1.234  0.00  0.00     0.039 A 
ATOM      3  C2  UNL d   1      -3.574   0.281   2.436  0.00  0.00    -0.080 A 
ATOM      4  C3  UNL d   1      -2.402   0.223   3.184  0.00  0.00     0.150 A 
ATOM      5  C4  UNL d   1      -1.314  -0.525   2.748  0.00  0.00    -0.007 A 
ATOM      6  C5  UNL d   1      -1.397  -1.230   1.548  0.00  0.00     0.039 A 
ENDROOT
BRANCH   4   7
ATOM      7  O   UNL d   1      -2.277   0.891   4.366  0.00  0.00    -0.526 OA
ATOM      8  H5  UNL d   1      -3.117   1.342   4.555  0.00  0.00     0.418 HD
ENDBRANCH   4   7
TORSDOF 1
ENDMDL
