MODEL 1
REMARK minimizedAffinity 10.8311949
REMARK minimizedRMSD -1
REMARK  1 active torsions:
REMARK  status: ('A' for Active; 'I' for Inactive)
REMARK    1  A    between atoms: C3_4  and  O_7 
ROOT
ATOM      1  C   UNL d   1      -2.423  -2.911   1.149  0.00  0.00    -0.033 A 
ATOM      2  C1  UNL d   1      -2.525  -4.220   1.624  0.00  0.00     0.039 A 
ATOM      3  C2  UNL d   1      -3.723  -4.924   1.483  0.00  0.00    -0.080 A 
ATOM      4  C3  UNL d   1      -4.809  -4.309   0.867  0.00  0.00     0.150 A 
ATOM      5  C4  UNL d   1      -4.713  -3.006   0.388  0.00  0.00    -0.007 A 
ATOM      6  C5  UNL d   1      -3.516  -2.305   0.530  0.00  0.00     0.039 A 
ENDROOT
BRANCH   4   7
ATOM      7  O   UNL d   1      -6.000  -4.954   0.712  0.00  0.00    -0.526 OA
ATOM      8  H5  UNL d   1      -5.928  -5.835   1.115  0.00  0.00     0.418 HD
ENDBRANCH   4   7
TORSDOF 1
ENDMDL
