MODEL 1
REMARK minimizedAffinity 2.60159969
REMARK minimizedRMSD -1
REMARK  1 active torsions:
REMARK  status: ('A' for Active; 'I' for Inactive)
REMARK    1  A    between atoms: C3_4  and  O_7 
ROOT
ATOM      1  C   UNL d   1       1.576   3.252  -0.838  0.00  0.00    -0.033 A 
ATOM      2  C1  UNL d   1       1.508   4.328  -1.724  0.00  0.00     0.039 A 
ATOM      3  C2  UNL d   1       2.048   4.215  -3.007  0.00  0.00    -0.080 A 
ATOM      4  C3  UNL d   1       2.653   3.020  -3.390  0.00  0.00     0.150 A 
ATOM      5  C4  UNL d   1       2.721   1.943  -2.513  0.00  0.00    -0.007 A 
ATOM      6  C5  UNL d   1       2.182   2.058  -1.233  0.00  0.00     0.039 A 
ENDROOT
BRANCH   4   7
ATOM      7  O   UNL d   1       3.198   2.864  -4.629  0.00  0.00    -0.526 OA
ATOM      8  H5  UNL d   1       3.103   3.700  -5.116  0.00  0.00     0.418 HD
ENDBRANCH   4   7
TORSDOF 1
ENDMDL
