MODEL 1
REMARK minimizedAffinity 5.73218632
REMARK minimizedRMSD -1
REMARK  1 active torsions:
REMARK  status: ('A' for Active; 'I' for Inactive)
REMARK    1  A    between atoms: C3_4  and  O_7 
ROOT
ATOM      1  C   UNL d   1       2.553   1.007  -0.548  0.00  0.00    -0.033 A 
ATOM      2  C1  UNL d   1       3.883   1.356  -0.794  0.00  0.00     0.039 A 
ATOM      3  C2  UNL d   1       4.568   2.178   0.103  0.00  0.00    -0.080 A 
ATOM      4  C3  UNL d   1       3.913   2.643   1.241  0.00  0.00     0.150 A 
ATOM      5  C4  UNL d   1       2.590   2.296   1.494  0.00  0.00    -0.007 A 
ATOM      6  C5  UNL d   1       1.907   1.476   0.596  0.00  0.00     0.039 A 
ENDROOT
BRANCH   4   7
ATOM      7  O   UNL d   1       4.539   3.451   2.143  0.00  0.00    -0.526 OA
ATOM      8  H5  UNL d   1       5.439   3.630   1.823  0.00  0.00     0.418 HD
ENDBRANCH   4   7
TORSDOF 1
ENDMDL
