MODEL 1
REMARK minimizedAffinity 7.08876467
REMARK minimizedRMSD -1
REMARK  1 active torsions:
REMARK  status: ('A' for Active; 'I' for Inactive)
REMARK    1  A    between atoms: C3_4  and  O_7 
ROOT
ATOM      1  C   UNL d   1       4.872  -5.868   0.608  0.00  0.00    -0.033 A 
ATOM      2  C1  UNL d   1       6.000  -5.045   0.612  0.00  0.00     0.039 A 
ATOM      3  C2  UNL d   1       5.964  -3.805  -0.030  0.00  0.00    -0.080 A 
ATOM      4  C3  UNL d   1       4.796  -3.400  -0.669  0.00  0.00     0.150 A 
ATOM      5  C4  UNL d   1       3.667  -4.213  -0.673  0.00  0.00    -0.007 A 
ATOM      6  C5  UNL d   1       3.705  -5.451  -0.033  0.00  0.00     0.039 A 
ENDROOT
BRANCH   4   7
ATOM      7  O   UNL d   1       4.715  -2.201  -1.312  0.00  0.00    -0.526 OA
ATOM      8  H5  UNL d   1       5.579  -1.760  -1.251  0.00  0.00     0.418 HD
ENDBRANCH   4   7
TORSDOF 1
ENDMDL
