MODEL 1
REMARK minimizedAffinity 9.48375893
REMARK minimizedRMSD -1
REMARK  1 active torsions:
REMARK  status: ('A' for Active; 'I' for Inactive)
REMARK    1  A    between atoms: C3_4  and  O_7 
ROOT
ATOM      1  C   UNL d   1       3.551   4.297  -1.690  0.00  0.00    -0.033 A 
ATOM      2  C1  UNL d   1       2.645   3.359  -2.187  0.00  0.00     0.039 A 
ATOM      3  C2  UNL d   1       2.907   2.701  -3.391  0.00  0.00    -0.080 A 
ATOM      4  C3  UNL d   1       4.078   2.991  -4.086  0.00  0.00     0.150 A 
ATOM      5  C4  UNL d   1       4.987   3.922  -3.595  0.00  0.00    -0.007 A 
ATOM      6  C5  UNL d   1       4.723   4.578  -2.393  0.00  0.00     0.039 A 
ENDROOT
BRANCH   4   7
ATOM      7  O   UNL d   1       4.375   2.378  -5.267  0.00  0.00    -0.526 OA
ATOM      8  H5  UNL d   1       3.643   1.782  -5.497  0.00  0.00     0.418 HD
ENDBRANCH   4   7
TORSDOF 1
ENDMDL
