MODEL 1
REMARK minimizedAffinity 17.4389153
REMARK minimizedRMSD -1
REMARK  0 active torsions:
REMARK  status: ('A' for Active; 'I' for Inactive)
ROOT
ATOM      1  O1  BZF d   1       0.050   4.536  -1.422  0.00  0.00    -0.204 OA
ATOM      2  C2  BZF d   1       0.096   5.839  -0.965  0.00  0.00     0.174 A 
ATOM      3  C3  BZF d   1       0.285   5.871   0.370  0.00  0.00    -0.012 A 
ATOM      4  C3A BZF d   1       0.453   4.504   0.759  0.00  0.00    -0.107 A 
ATOM      5  C4  BZF d   1       0.689   3.891   1.957  0.00  0.00     0.055 A 
ATOM      6  C5  BZF d   1       0.728   2.534   2.008  0.00  0.00    -0.016 A 
ATOM      7  C6  BZF d   1       0.529   1.759   0.884  0.00  0.00     0.022 A 
ATOM      8  C7  BZF d   1       0.296   2.322  -0.327  0.00  0.00     0.029 A 
ATOM      9  C7A BZF d   1       0.289   3.694  -0.388  0.00  0.00     0.058 A 
ENDROOT
TORSDOF 0
ENDMDL
