MODEL 1
REMARK minimizedAffinity 7.43630886
REMARK minimizedRMSD -1
REMARK  0 active torsions:
REMARK  status: ('A' for Active; 'I' for Inactive)
ROOT
ATOM      1  O1  BZF d   1       1.195   4.897   0.143  0.00  0.00    -0.204 OA
ATOM      2  C2  BZF d   1       0.075   5.389  -0.499  0.00  0.00     0.174 A 
ATOM      3  C3  BZF d   1      -1.036   4.752  -0.078  0.00  0.00    -0.012 A 
ATOM      4  C3A BZF d   1      -0.594   3.867   0.956  0.00  0.00    -0.107 A 
ATOM      5  C4  BZF d   1      -1.236   2.978   1.770  0.00  0.00     0.055 A 
ATOM      6  C5  BZF d   1      -0.504   2.215   2.623  0.00  0.00    -0.016 A 
ATOM      7  C6  BZF d   1       0.871   2.311   2.685  0.00  0.00     0.022 A 
ATOM      8  C7  BZF d   1       1.553   3.181   1.900  0.00  0.00     0.029 A 
ATOM      9  C7A BZF d   1       0.812   3.977   1.061  0.00  0.00     0.058 A 
ENDROOT
TORSDOF 0
ENDMDL
