MODEL 1
REMARK minimizedAffinity 12.8192406
REMARK minimizedRMSD -1
REMARK  0 active torsions:
REMARK  status: ('A' for Active; 'I' for Inactive)
ROOT
ATOM      1  O1  BZF d   1       3.898  -0.635   0.694  0.00  0.00    -0.204 OA
ATOM      2  C2  BZF d   1       3.008  -1.253   1.550  0.00  0.00     0.174 A 
ATOM      3  C3  BZF d   1       3.033  -2.591   1.382  0.00  0.00    -0.012 A 
ATOM      4  C3A BZF d   1       4.066  -2.831   0.421  0.00  0.00    -0.107 A 
ATOM      5  C4  BZF d   1       4.577  -3.963  -0.145  0.00  0.00     0.055 A 
ATOM      6  C5  BZF d   1       5.533  -3.848  -1.104  0.00  0.00    -0.016 A 
ATOM      7  C6  BZF d   1       5.995  -2.619  -1.525  0.00  0.00     0.022 A 
ATOM      8  C7  BZF d   1       5.522  -1.467  -0.989  0.00  0.00     0.029 A 
ATOM      9  C7A BZF d   1       4.580  -1.581   0.004  0.00  0.00     0.058 A 
ENDROOT
TORSDOF 0
ENDMDL
