MODEL 1
REMARK minimizedAffinity 11.3119087
REMARK minimizedRMSD -1
REMARK  0 active torsions:
REMARK  status: ('A' for Active; 'I' for Inactive)
ROOT
ATOM      1  O1  BZF d   1       4.119  -3.191  -3.845  0.00  0.00    -0.204 OA
ATOM      2  C2  BZF d   1       3.725  -4.495  -4.076  0.00  0.00     0.174 A 
ATOM      3  C3  BZF d   1       4.108  -5.297  -3.061  0.00  0.00    -0.012 A 
ATOM      4  C3A BZF d   1       4.703  -4.425  -2.096  0.00  0.00    -0.107 A 
ATOM      5  C4  BZF d   1       5.260  -4.627  -0.865  0.00  0.00     0.055 A 
ATOM      6  C5  BZF d   1       5.818  -3.574  -0.212  0.00  0.00    -0.016 A 
ATOM      7  C6  BZF d   1       5.840  -2.309  -0.760  0.00  0.00     0.022 A 
ATOM      8  C7  BZF d   1       5.296  -2.058  -1.976  0.00  0.00     0.029 A 
ATOM      9  C7A BZF d   1       4.703  -3.114  -2.625  0.00  0.00     0.058 A 
ENDROOT
TORSDOF 0
ENDMDL
