MODEL 1
REMARK minimizedAffinity 9.059865
REMARK minimizedRMSD -1
REMARK  0 active torsions:
REMARK  status: ('A' for Active; 'I' for Inactive)
ROOT
ATOM      1  O1  BZF d   1       0.593   3.906  -1.146  0.00  0.00    -0.204 OA
ATOM      2  C2  BZF d   1       0.432   5.016  -1.953  0.00  0.00     0.174 A 
ATOM      3  C3  BZF d   1      -0.238   5.988  -1.301  0.00  0.00    -0.012 A 
ATOM      4  C3A BZF d   1      -0.433   5.487   0.025  0.00  0.00    -0.107 A 
ATOM      5  C4  BZF d   1      -1.021   5.999   1.145  0.00  0.00     0.055 A 
ATOM      6  C5  BZF d   1      -1.110   5.225   2.258  0.00  0.00    -0.016 A 
ATOM      7  C6  BZF d   1      -0.625   3.933   2.285  0.00  0.00     0.022 A 
ATOM      8  C7  BZF d   1      -0.028   3.383   1.199  0.00  0.00     0.029 A 
ATOM      9  C7A BZF d   1       0.092   4.175   0.083  0.00  0.00     0.058 A 
ENDROOT
TORSDOF 0
ENDMDL
