MODEL 1
REMARK minimizedAffinity 12.0861197
REMARK minimizedRMSD -1
REMARK  0 active torsions:
REMARK  status: ('A' for Active; 'I' for Inactive)
ROOT
ATOM      1  O1  BZF d   1       1.223   3.823   0.488  0.00  0.00    -0.204 OA
ATOM      2  C2  BZF d   1       0.146   4.257  -0.261  0.00  0.00     0.174 A 
ATOM      3  C3  BZF d   1      -1.016   3.868   0.302  0.00  0.00    -0.012 A 
ATOM      4  C3A BZF d   1      -0.645   3.225   1.525  0.00  0.00    -0.107 A 
ATOM      5  C4  BZF d   1      -1.359   2.641   2.532  0.00  0.00     0.055 A 
ATOM      6  C5  BZF d   1      -0.691   2.039   3.551  0.00  0.00    -0.016 A 
ATOM      7  C6  BZF d   1       0.687   1.998   3.593  0.00  0.00     0.022 A 
ATOM      8  C7  BZF d   1       1.438   2.568   2.619  0.00  0.00     0.029 A 
ATOM      9  C7A BZF d   1       0.766   3.206   1.604  0.00  0.00     0.058 A 
ENDROOT
TORSDOF 0
ENDMDL
