MODEL 1
REMARK minimizedAffinity 13.5929918
REMARK minimizedRMSD -1
REMARK  0 active torsions:
REMARK  status: ('A' for Active; 'I' for Inactive)
ROOT
ATOM      1  O1  BZF d   1       3.709  -0.857  -0.130  0.00  0.00    -0.204 OA
ATOM      2  C2  BZF d   1       3.177  -1.308   1.062  0.00  0.00     0.174 A 
ATOM      3  C3  BZF d   1       3.591  -2.564   1.326  0.00  0.00    -0.012 A 
ATOM      4  C3A BZF d   1       4.508  -2.887   0.276  0.00  0.00    -0.107 A 
ATOM      5  C4  BZF d   1       5.263  -3.989  -0.006  0.00  0.00     0.055 A 
ATOM      6  C5  BZF d   1       5.997  -4.012  -1.149  0.00  0.00    -0.016 A 
ATOM      7  C6  BZF d   1       5.997  -2.954  -2.034  0.00  0.00     0.022 A 
ATOM      8  C7  BZF d   1       5.268  -1.837  -1.795  0.00  0.00     0.029 A 
ATOM      9  C7A BZF d   1       4.550  -1.797  -0.625  0.00  0.00     0.058 A 
ENDROOT
TORSDOF 0
ENDMDL
