MODEL 1
REMARK minimizedAffinity -4.55281353
REMARK minimizedRMSD -1
REMARK  0 active torsions:
REMARK  status: ('A' for Active; 'I' for Inactive)
ROOT
ATOM      1  C1  DEN d   1      -5.268   4.775   2.540  0.00  0.00     0.130 A 
ATOM      2  C2  DEN d   1      -5.844   5.999   3.090  0.00  0.00    -0.031 A 
ATOM      3  C3  DEN d   1      -5.998   5.817   4.547  0.00  0.00     0.027 A 
ATOM      4  C4  DEN d   1      -5.398   3.771   5.999  0.00  0.00     0.027 A 
ATOM      5  C5  DEN d   1      -4.894   2.490   5.979  0.00  0.00    -0.003 A 
ATOM      6  C6  DEN d   1      -4.514   1.873   4.817  0.00  0.00     0.001 A 
ATOM      7  C7  DEN d   1      -4.590   2.553   3.631  0.00  0.00     0.017 A 
ATOM      8  C8  DEN d   1      -5.104   3.843   3.642  0.00  0.00    -0.094 A 
ATOM      9  C9  DEN d   1      -5.472   4.454   4.829  0.00  0.00    -0.072 A 
ENDROOT
TORSDOF 0
ENDMDL
