MODEL 1
REMARK minimizedAffinity -4.43204975
REMARK minimizedRMSD -1
REMARK  0 active torsions:
REMARK  status: ('A' for Active; 'I' for Inactive)
ROOT
ATOM      1  C1  DEN d   1      -4.140   5.426   3.055  0.00  0.00     0.130 A 
ATOM      2  C2  DEN d   1      -5.090   5.272   1.956  0.00  0.00    -0.031 A 
ATOM      3  C3  DEN d   1      -5.987   4.146   2.284  0.00  0.00     0.027 A 
ATOM      4  C4  DEN d   1      -6.000   2.636   4.375  0.00  0.00     0.027 A 
ATOM      5  C5  DEN d   1      -5.376   2.376   5.575  0.00  0.00    -0.003 A 
ATOM      6  C6  DEN d   1      -4.284   3.086   6.000  0.00  0.00     0.001 A 
ATOM      7  C7  DEN d   1      -3.811   4.122   5.239  0.00  0.00     0.017 A 
ATOM      8  C8  DEN d   1      -4.430   4.386   4.024  0.00  0.00    -0.094 A 
ATOM      9  C9  DEN d   1      -5.540   3.664   3.618  0.00  0.00    -0.072 A 
ENDROOT
TORSDOF 0
ENDMDL
