MODEL 1
REMARK minimizedAffinity 3.22211194
REMARK minimizedRMSD -1
REMARK  0 active torsions:
REMARK  status: ('A' for Active; 'I' for Inactive)
ROOT
ATOM      1  C1  DEN d   1      -1.486  -3.499  -1.574  0.00  0.00     0.130 A 
ATOM      2  C2  DEN d   1      -2.447  -4.201  -0.727  0.00  0.00    -0.031 A 
ATOM      3  C3  DEN d   1      -3.047  -3.217   0.196  0.00  0.00     0.027 A 
ATOM      4  C4  DEN d   1      -2.587  -0.687   0.392  0.00  0.00     0.027 A 
ATOM      5  C5  DEN d   1      -1.844   0.361  -0.105  0.00  0.00    -0.003 A 
ATOM      6  C6  DEN d   1      -0.913   0.191  -1.095  0.00  0.00     0.001 A 
ATOM      7  C7  DEN d   1      -0.732  -1.048  -1.652  0.00  0.00     0.017 A 
ATOM      8  C8  DEN d   1      -1.472  -2.111  -1.150  0.00  0.00    -0.094 A 
ATOM      9  C9  DEN d   1      -2.417  -1.916  -0.157  0.00  0.00    -0.072 A 
ENDROOT
TORSDOF 0
ENDMDL
