MODEL 1
REMARK minimizedAffinity 3.48183298
REMARK minimizedRMSD -1
REMARK  0 active torsions:
REMARK  status: ('A' for Active; 'I' for Inactive)
ROOT
ATOM      1  C1  DEN d   1      -1.838  -3.364  -1.425  0.00  0.00     0.130 A 
ATOM      2  C2  DEN d   1      -2.984  -3.784  -0.623  0.00  0.00    -0.031 A 
ATOM      3  C3  DEN d   1      -3.262  -2.725   0.367  0.00  0.00     0.027 A 
ATOM      4  C4  DEN d   1      -2.039  -0.483   0.731  0.00  0.00     0.027 A 
ATOM      5  C5  DEN d   1      -0.998   0.311   0.301  0.00  0.00    -0.003 A 
ATOM      6  C6  DEN d   1      -0.151  -0.076  -0.703  0.00  0.00     0.001 A 
ATOM      7  C7  DEN d   1      -0.357  -1.270  -1.342  0.00  0.00     0.017 A 
ATOM      8  C8  DEN d   1      -1.399  -2.080  -0.909  0.00  0.00    -0.094 A 
ATOM      9  C9  DEN d   1      -2.252  -1.665   0.099  0.00  0.00    -0.072 A 
ENDROOT
TORSDOF 0
ENDMDL
