MODEL 1
REMARK minimizedAffinity 0.0555942878
REMARK minimizedRMSD -1
REMARK  0 active torsions:
REMARK  status: ('A' for Active; 'I' for Inactive)
ROOT
ATOM      1  C1  DEN d   1      -1.371  -1.684  -2.071  0.00  0.00     0.130 A 
ATOM      2  C2  DEN d   1      -0.266  -0.801  -1.707  0.00  0.00    -0.031 A 
ATOM      3  C3  DEN d   1      -0.517  -0.294  -0.343  0.00  0.00     0.027 A 
ATOM      4  C4  DEN d   1      -2.496  -0.790   1.234  0.00  0.00     0.027 A 
ATOM      5  C5  DEN d   1      -3.686  -1.472   1.362  0.00  0.00    -0.003 A 
ATOM      6  C6  DEN d   1      -4.201  -2.239   0.350  0.00  0.00     0.001 A 
ATOM      7  C7  DEN d   1      -3.500  -2.379  -0.819  0.00  0.00     0.017 A 
ATOM      8  C8  DEN d   1      -2.303  -1.688  -0.958  0.00  0.00    -0.094 A 
ATOM      9  C9  DEN d   1      -1.794  -0.928   0.081  0.00  0.00    -0.072 A 
ENDROOT
TORSDOF 0
ENDMDL
