MODEL 1
REMARK minimizedAffinity 0.825725436
REMARK minimizedRMSD -1
REMARK  0 active torsions:
REMARK  status: ('A' for Active; 'I' for Inactive)
ROOT
ATOM      1  C1  DEN d   1      -5.757   6.000   3.227  0.00  0.00     0.130 A 
ATOM      2  C2  DEN d   1      -5.316   4.974   4.168  0.00  0.00    -0.031 A 
ATOM      3  C3  DEN d   1      -4.947   3.772   3.393  0.00  0.00     0.027 A 
ATOM      4  C4  DEN d   1      -5.011   3.404   0.841  0.00  0.00     0.027 A 
ATOM      5  C5  DEN d   1      -5.326   3.982  -0.369  0.00  0.00    -0.003 A 
ATOM      6  C6  DEN d   1      -5.833   5.251  -0.462  0.00  0.00     0.001 A 
ATOM      7  C7  DEN d   1      -6.000   6.000   0.672  0.00  0.00     0.017 A 
ATOM      8  C8  DEN d   1      -5.692   5.421   1.897  0.00  0.00    -0.094 A 
ATOM      9  C9  DEN d   1      -5.169   4.142   1.969  0.00  0.00    -0.072 A 
ENDROOT
TORSDOF 0
ENDMDL
