MODEL 1
REMARK minimizedAffinity 0.437889397
REMARK minimizedRMSD -1
REMARK  0 active torsions:
REMARK  status: ('A' for Active; 'I' for Inactive)
ROOT
ATOM      1  C1  DEN d   1      -5.997   4.611   4.840  0.00  0.00     0.130 A 
ATOM      2  C2  DEN d   1      -5.515   3.266   5.140  0.00  0.00    -0.031 A 
ATOM      3  C3  DEN d   1      -4.920   2.708   3.909  0.00  0.00     0.027 A 
ATOM      4  C4  DEN d   1      -4.697   3.793   1.579  0.00  0.00     0.027 A 
ATOM      5  C5  DEN d   1      -4.970   4.919   0.835  0.00  0.00    -0.003 A 
ATOM      6  C6  DEN d   1      -5.629   5.999   1.359  0.00  0.00     0.001 A 
ATOM      7  C7  DEN d   1      -5.998   5.994   2.679  0.00  0.00     0.017 A 
ATOM      8  C8  DEN d   1      -5.733   4.860   3.434  0.00  0.00    -0.094 A 
ATOM      9  C9  DEN d   1      -5.054   3.783   2.889  0.00  0.00    -0.072 A 
ENDROOT
TORSDOF 0
ENDMDL
