MODEL 1
REMARK minimizedAffinity -3.21472144
REMARK minimizedRMSD -1
REMARK  0 active torsions:
REMARK  status: ('A' for Active; 'I' for Inactive)
ROOT
ATOM      1  C1  DEN d   1      -4.130   2.712   4.612  0.00  0.00     0.130 A 
ATOM      2  C2  DEN d   1      -4.515   3.001   5.991  0.00  0.00    -0.031 A 
ATOM      3  C3  DEN d   1      -5.261   4.275   6.000  0.00  0.00     0.027 A 
ATOM      4  C4  DEN d   1      -5.857   5.820   4.022  0.00  0.00     0.027 A 
ATOM      5  C5  DEN d   1      -5.735   6.000   2.662  0.00  0.00    -0.003 A 
ATOM      6  C6  DEN d   1      -5.046   5.121   1.868  0.00  0.00     0.001 A 
ATOM      7  C7  DEN d   1      -4.491   3.998   2.422  0.00  0.00     0.017 A 
ATOM      8  C8  DEN d   1      -4.603   3.814   3.793  0.00  0.00    -0.094 A 
ATOM      9  C9  DEN d   1      -5.314   4.707   4.577  0.00  0.00    -0.072 A 
ENDROOT
TORSDOF 0
ENDMDL
