MODEL 1
REMARK minimizedAffinity -4.03647089
REMARK minimizedRMSD -1
REMARK  0 active torsions:
REMARK  status: ('A' for Active; 'I' for Inactive)
ROOT
ATOM      1  C1  DEN d   1      -5.264   3.610   2.127  0.00  0.00     0.130 A 
ATOM      2  C2  DEN d   1      -5.319   4.879   1.406  0.00  0.00    -0.031 A 
ATOM      3  C3  DEN d   1      -5.597   5.948   2.386  0.00  0.00     0.027 A 
ATOM      4  C4  DEN d   1      -5.942   5.764   4.935  0.00  0.00     0.027 A 
ATOM      5  C5  DEN d   1      -6.000   4.892   6.000  0.00  0.00    -0.003 A 
ATOM      6  C6  DEN d   1      -5.851   3.539   5.845  0.00  0.00     0.001 A 
ATOM      7  C7  DEN d   1      -5.593   3.023   4.603  0.00  0.00     0.017 A 
ATOM      8  C8  DEN d   1      -5.541   3.895   3.523  0.00  0.00    -0.094 A 
ATOM      9  C9  DEN d   1      -5.681   5.261   3.702  0.00  0.00    -0.072 A 
ENDROOT
TORSDOF 0
ENDMDL
