MODEL 1
REMARK minimizedAffinity -2.43469
REMARK minimizedRMSD -1
REMARK  0 active torsions:
REMARK  status: ('A' for Active; 'I' for Inactive)
ROOT
ATOM      1  C1  DEN d   1      -5.106   3.374   2.304  0.00  0.00     0.130 A 
ATOM      2  C2  DEN d   1      -5.255   4.521   1.413  0.00  0.00    -0.031 A 
ATOM      3  C3  DEN d   1      -5.634   5.690   2.232  0.00  0.00     0.027 A 
ATOM      4  C4  DEN d   1      -6.000   5.834   4.781  0.00  0.00     0.027 A 
ATOM      5  C5  DEN d   1      -6.000   5.118   5.958  0.00  0.00    -0.003 A 
ATOM      6  C6  DEN d   1      -5.738   3.774   5.994  0.00  0.00     0.001 A 
ATOM      7  C7  DEN d   1      -5.420   3.113   4.837  0.00  0.00     0.017 A 
ATOM      8  C8  DEN d   1      -5.425   3.827   3.646  0.00  0.00    -0.094 A 
ATOM      9  C9  DEN d   1      -5.680   5.188   3.632  0.00  0.00    -0.072 A 
ENDROOT
TORSDOF 0
ENDMDL
