MODEL 1
REMARK minimizedAffinity -3.47531366
REMARK minimizedRMSD -1
REMARK  0 active torsions:
REMARK  status: ('A' for Active; 'I' for Inactive)
ROOT
ATOM      1  C1  DEN d   1      -3.754   3.748   4.849  0.00  0.00     0.130 A 
ATOM      2  C2  DEN d   1      -4.563   4.142   5.999  0.00  0.00    -0.031 A 
ATOM      3  C3  DEN d   1      -5.588   5.097   5.531  0.00  0.00     0.027 A 
ATOM      4  C4  DEN d   1      -6.000   5.996   3.149  0.00  0.00     0.027 A 
ATOM      5  C5  DEN d   1      -5.561   5.960   1.844  0.00  0.00    -0.003 A 
ATOM      6  C6  DEN d   1      -4.478   5.216   1.459  0.00  0.00     0.001 A 
ATOM      7  C7  DEN d   1      -3.823   4.443   2.380  0.00  0.00     0.017 A 
ATOM      8  C8  DEN d   1      -4.254   4.480   3.699  0.00  0.00    -0.094 A 
ATOM      9  C9  DEN d   1      -5.360   5.229   4.067  0.00  0.00    -0.072 A 
ENDROOT
TORSDOF 0
ENDMDL
