MODEL 1
REMARK minimizedAffinity -2.02725744
REMARK minimizedRMSD -1
REMARK  0 active torsions:
REMARK  status: ('A' for Active; 'I' for Inactive)
ROOT
ATOM      1  C1  DEN d   1      -5.397   1.748   4.714  0.00  0.00     0.130 A 
ATOM      2  C2  DEN d   1      -5.820   2.296   6.000  0.00  0.00    -0.031 A 
ATOM      3  C3  DEN d   1      -5.996   3.754   5.839  0.00  0.00     0.027 A 
ATOM      4  C4  DEN d   1      -5.661   5.206   3.734  0.00  0.00     0.027 A 
ATOM      5  C5  DEN d   1      -5.296   5.190   2.406  0.00  0.00    -0.003 A 
ATOM      6  C6  DEN d   1      -4.909   4.041   1.768  0.00  0.00     0.001 A 
ATOM      7  C7  DEN d   1      -4.922   2.851   2.447  0.00  0.00     0.017 A 
ATOM      8  C8  DEN d   1      -5.282   2.860   3.788  0.00  0.00    -0.094 A 
ATOM      9  C9  DEN d   1      -5.682   4.030   4.411  0.00  0.00    -0.072 A 
ENDROOT
TORSDOF 0
ENDMDL
