MODEL 1
REMARK minimizedAffinity -2.95958281
REMARK minimizedRMSD -1
REMARK  0 active torsions:
REMARK  status: ('A' for Active; 'I' for Inactive)
ROOT
ATOM      1  C1  DEN d   1      -4.538   4.286   1.862  0.00  0.00     0.130 A 
ATOM      2  C2  DEN d   1      -5.263   5.498   1.488  0.00  0.00    -0.031 A 
ATOM      3  C3  DEN d   1      -5.966   5.997   2.686  0.00  0.00     0.027 A 
ATOM      4  C4  DEN d   1      -6.000   5.020   5.073  0.00  0.00     0.027 A 
ATOM      5  C5  DEN d   1      -5.545   3.995   5.873  0.00  0.00    -0.003 A 
ATOM      6  C6  DEN d   1      -4.757   2.985   5.388  0.00  0.00     0.001 A 
ATOM      7  C7  DEN d   1      -4.362   3.003   4.077  0.00  0.00     0.017 A 
ATOM      8  C8  DEN d   1      -4.823   4.029   3.262  0.00  0.00    -0.094 A 
ATOM      9  C9  DEN d   1      -5.609   5.047   3.774  0.00  0.00    -0.072 A 
ENDROOT
TORSDOF 0
ENDMDL
