MODEL 1
REMARK minimizedAffinity -4.08255291
REMARK minimizedRMSD -1
REMARK  0 active torsions:
REMARK  status: ('A' for Active; 'I' for Inactive)
ROOT
ATOM      1  C1  DEN d   1      -5.978   2.709   4.185  0.00  0.00     0.130 A 
ATOM      2  C2  DEN d   1      -5.829   3.193   5.555  0.00  0.00    -0.031 A 
ATOM      3  C3  DEN d   1      -5.292   4.567   5.498  0.00  0.00     0.027 A 
ATOM      4  C4  DEN d   1      -4.684   5.987   3.432  0.00  0.00     0.027 A 
ATOM      5  C5  DEN d   1      -4.627   6.000   2.056  0.00  0.00    -0.003 A 
ATOM      6  C6  DEN d   1      -4.982   4.914   1.301  0.00  0.00     0.001 A 
ATOM      7  C7  DEN d   1      -5.453   3.784   1.916  0.00  0.00     0.017 A 
ATOM      8  C8  DEN d   1      -5.505   3.761   3.303  0.00  0.00    -0.094 A 
ATOM      9  C9  DEN d   1      -5.154   4.873   4.049  0.00  0.00    -0.072 A 
ENDROOT
TORSDOF 0
ENDMDL
