MODEL 1
REMARK minimizedAffinity -3.44235682
REMARK minimizedRMSD -1
REMARK  0 active torsions:
REMARK  status: ('A' for Active; 'I' for Inactive)
ROOT
ATOM      1  C1  DEN d   1      -5.999   3.733   2.236  0.00  0.00     0.130 A 
ATOM      2  C2  DEN d   1      -5.690   4.891   1.402  0.00  0.00    -0.031 A 
ATOM      3  C3  DEN d   1      -5.241   5.984   2.286  0.00  0.00     0.027 A 
ATOM      4  C4  DEN d   1      -4.992   5.996   4.853  0.00  0.00     0.027 A 
ATOM      5  C5  DEN d   1      -5.146   5.248   6.000  0.00  0.00    -0.003 A 
ATOM      6  C6  DEN d   1      -5.623   3.964   5.975  0.00  0.00     0.001 A 
ATOM      7  C7  DEN d   1      -5.921   3.374   4.776  0.00  0.00     0.017 A 
ATOM      8  C8  DEN d   1      -5.776   4.124   3.616  0.00  0.00    -0.094 A 
ATOM      9  C9  DEN d   1      -5.280   5.416   3.661  0.00  0.00    -0.072 A 
ENDROOT
TORSDOF 0
ENDMDL
