MODEL 1
REMARK minimizedAffinity -5.65131044
REMARK minimizedRMSD -1
REMARK  0 active torsions:
REMARK  status: ('A' for Active; 'I' for Inactive)
ROOT
ATOM      1  C   UNL d   1       0.291   0.558   3.249  0.00  0.00     0.124 A 
ATOM      2  C1  UNL d   1      -0.688   0.816   2.301  0.00  0.00     0.062 A 
ATOM      3  C2  UNL d   1      -0.481   0.469   0.969  0.00  0.00     0.162 A 
ATOM      4  C3  UNL d   1       0.710  -0.141   0.577  0.00  0.00    -0.034 A 
ATOM      5  C4  UNL d   1       1.691  -0.396   1.537  0.00  0.00     0.162 A 
ATOM      6  C5  UNL d   1       1.480  -0.048   2.867  0.00  0.00     0.062 A 
ATOM      7  F   UNL d   1       2.428  -0.298   3.782  0.00  0.00    -0.097 F 
ATOM      8  F1  UNL d   1       2.849  -0.982   1.195  0.00  0.00    -0.096 F 
ATOM      9  I   UNL d   1       1.024  -0.661  -1.414  0.00  0.00    -0.060 I 
ATOM     10  F2  UNL d   1      -1.445   0.731   0.073  0.00  0.00    -0.096 F 
ATOM     11  F3  UNL d   1      -1.837   1.402   2.667  0.00  0.00    -0.097 F 
ATOM     12  F4  UNL d   1       0.090   0.894   4.530  0.00  0.00    -0.092 F 
ENDROOT
TORSDOF 0
ENDMDL
