MODEL 1
REMARK minimizedAffinity -1.99968946
REMARK minimizedRMSD -1
REMARK  0 active torsions:
REMARK  status: ('A' for Active; 'I' for Inactive)
ROOT
ATOM      1  C   UNL d   1      -0.921   1.013   2.968  0.00  0.00     0.124 A 
ATOM      2  C1  UNL d   1       0.452   0.867   2.832  0.00  0.00     0.062 A 
ATOM      3  C2  UNL d   1       0.985   0.299   1.678  0.00  0.00     0.162 A 
ATOM      4  C3  UNL d   1       0.143  -0.128   0.651  0.00  0.00    -0.034 A 
ATOM      5  C4  UNL d   1      -1.238   0.021   0.796  0.00  0.00     0.162 A 
ATOM      6  C5  UNL d   1      -1.765   0.590   1.951  0.00  0.00     0.062 A 
ATOM      7  F   UNL d   1      -3.092   0.730   2.081  0.00  0.00    -0.097 F 
ATOM      8  F1  UNL d   1      -2.076  -0.378  -0.172  0.00  0.00    -0.096 F 
ATOM      9  I   UNL d   1       0.935  -0.978  -1.076  0.00  0.00    -0.060 I 
ATOM     10  F2  UNL d   1       2.316   0.170   1.573  0.00  0.00    -0.096 F 
ATOM     11  F3  UNL d   1       1.269   1.274   3.814  0.00  0.00    -0.097 F 
ATOM     12  F4  UNL d   1      -1.431   1.560   4.080  0.00  0.00    -0.092 F 
ENDROOT
TORSDOF 0
ENDMDL
