MODEL 1
REMARK minimizedAffinity -4.55843067
REMARK minimizedRMSD -1
REMARK  0 active torsions:
REMARK  status: ('A' for Active; 'I' for Inactive)
ROOT
ATOM      1  C   UNL d   1       0.317   0.189   2.638  0.00  0.00     0.124 A 
ATOM      2  C1  UNL d   1      -0.581   0.746   1.738  0.00  0.00     0.062 A 
ATOM      3  C2  UNL d   1      -0.441   0.511   0.373  0.00  0.00     0.162 A 
ATOM      4  C3  UNL d   1       0.601  -0.286  -0.100  0.00  0.00    -0.034 A 
ATOM      5  C4  UNL d   1       1.500  -0.843   0.811  0.00  0.00     0.162 A 
ATOM      6  C5  UNL d   1       1.356  -0.605   2.174  0.00  0.00     0.062 A 
ATOM      7  F   UNL d   1       2.224  -1.144   3.042  0.00  0.00    -0.097 F 
ATOM      8  F1  UNL d   1       2.514  -1.615   0.390  0.00  0.00    -0.096 F 
ATOM      9  I   UNL d   1       0.814  -0.640  -2.140  0.00  0.00    -0.060 I 
ATOM     10  F2  UNL d   1      -1.323   1.063  -0.474  0.00  0.00    -0.096 F 
ATOM     11  F3  UNL d   1      -1.585   1.514   2.183  0.00  0.00    -0.097 F 
ATOM     12  F4  UNL d   1       0.180   0.418   3.950  0.00  0.00    -0.092 F 
ENDROOT
TORSDOF 0
ENDMDL
