MODEL 1
REMARK minimizedAffinity -0.944401681
REMARK minimizedRMSD -1
REMARK  0 active torsions:
REMARK  status: ('A' for Active; 'I' for Inactive)
ROOT
ATOM      1  C   UNL d   1       1.129   0.200  -3.342  0.00  0.00     0.124 A 
ATOM      2  C1  UNL d   1       0.459  -0.854  -2.736  0.00  0.00     0.062 A 
ATOM      3  C2  UNL d   1       0.060  -0.757  -1.406  0.00  0.00     0.162 A 
ATOM      4  C3  UNL d   1       0.327   0.399  -0.673  0.00  0.00    -0.034 A 
ATOM      5  C4  UNL d   1       1.002   1.455  -1.289  0.00  0.00     0.162 A 
ATOM      6  C5  UNL d   1       1.400   1.353  -2.618  0.00  0.00     0.062 A 
ATOM      7  F   UNL d   1       2.047   2.372  -3.202  0.00  0.00    -0.097 F 
ATOM      8  F1  UNL d   1       1.276   2.581  -0.614  0.00  0.00    -0.096 F 
ATOM      9  I   UNL d   1      -0.269   0.548   1.315  0.00  0.00    -0.060 I 
ATOM     10  F2  UNL d   1      -0.586  -1.791  -0.846  0.00  0.00    -0.096 F 
ATOM     11  F3  UNL d   1       0.197  -1.969  -3.432  0.00  0.00    -0.097 F 
ATOM     12  F4  UNL d   1       1.514   0.103  -4.621  0.00  0.00    -0.092 F 
ENDROOT
TORSDOF 0
ENDMDL
