MODEL 1
REMARK minimizedAffinity -5.65938377
REMARK minimizedRMSD -1
REMARK  0 active torsions:
REMARK  status: ('A' for Active; 'I' for Inactive)
ROOT
ATOM      1  C   UNL d   1       1.338  -0.023   2.201  0.00  0.00     0.124 A 
ATOM      2  C1  UNL d   1       1.310  -0.579   0.930  0.00  0.00     0.062 A 
ATOM      3  C2  UNL d   1       0.183  -0.433   0.126  0.00  0.00     0.162 A 
ATOM      4  C3  UNL d   1      -0.926   0.273   0.591  0.00  0.00    -0.034 A 
ATOM      5  C4  UNL d   1      -0.891   0.828   1.872  0.00  0.00     0.162 A 
ATOM      6  C5  UNL d   1       0.237   0.680   2.671  0.00  0.00     0.062 A 
ATOM      7  F   UNL d   1       0.262   1.218   3.899  0.00  0.00    -0.097 F 
ATOM      8  F1  UNL d   1      -1.941   1.513   2.350  0.00  0.00    -0.096 F 
ATOM      9  I   UNL d   1      -2.613   0.493  -0.607  0.00  0.00    -0.060 I 
ATOM     10  F2  UNL d   1       0.185  -0.981  -1.098  0.00  0.00    -0.096 F 
ATOM     11  F3  UNL d   1       2.372  -1.259   0.474  0.00  0.00    -0.097 F 
ATOM     12  F4  UNL d   1       2.423  -0.166   2.973  0.00  0.00    -0.092 F 
ENDROOT
TORSDOF 0
ENDMDL
