MODEL 1
REMARK minimizedAffinity -3.22852993
REMARK minimizedRMSD -1
REMARK  0 active torsions:
REMARK  status: ('A' for Active; 'I' for Inactive)
ROOT
ATOM      1  C   UNL d   1       0.351   0.357   2.821  0.00  0.00     0.124 A 
ATOM      2  C1  UNL d   1      -0.655   0.834   1.991  0.00  0.00     0.062 A 
ATOM      3  C2  UNL d   1      -0.623   0.564   0.626  0.00  0.00     0.162 A 
ATOM      4  C3  UNL d   1       0.418  -0.188   0.081  0.00  0.00    -0.034 A 
ATOM      5  C4  UNL d   1       1.426  -0.663   0.922  0.00  0.00     0.162 A 
ATOM      6  C5  UNL d   1       1.390  -0.391   2.286  0.00  0.00     0.062 A 
ATOM      7  F   UNL d   1       2.362  -0.852   3.085  0.00  0.00    -0.097 F 
ATOM      8  F1  UNL d   1       2.442  -1.389   0.432  0.00  0.00    -0.096 F 
ATOM      9  I   UNL d   1       0.469  -0.594  -1.959  0.00  0.00    -0.060 I 
ATOM     10  F2  UNL d   1      -1.608   1.038  -0.152  0.00  0.00    -0.096 F 
ATOM     11  F3  UNL d   1      -1.660   1.558   2.505  0.00  0.00    -0.097 F 
ATOM     12  F4  UNL d   1       0.318   0.620   4.133  0.00  0.00    -0.092 F 
ENDROOT
TORSDOF 0
ENDMDL
