MODEL 1
REMARK minimizedAffinity -3.77791595
REMARK minimizedRMSD -1
REMARK  0 active torsions:
REMARK  status: ('A' for Active; 'I' for Inactive)
ROOT
ATOM      1  C   UNL d   1       0.354   0.843   3.159  0.00  0.00     0.124 A 
ATOM      2  C1  UNL d   1      -0.690   0.918   2.248  0.00  0.00     0.062 A 
ATOM      3  C2  UNL d   1      -0.558   0.350   0.984  0.00  0.00     0.162 A 
ATOM      4  C3  UNL d   1       0.624  -0.298   0.624  0.00  0.00    -0.034 A 
ATOM      5  C4  UNL d   1       1.670  -0.368   1.546  0.00  0.00     0.162 A 
ATOM      6  C5  UNL d   1       1.532   0.201   2.807  0.00  0.00     0.062 A 
ATOM      7  F   UNL d   1       2.542   0.128   3.687  0.00  0.00    -0.097 F 
ATOM      8  F1  UNL d   1       2.819  -0.984   1.232  0.00  0.00    -0.096 F 
ATOM      9  I   UNL d   1       0.826  -1.148  -1.265  0.00  0.00    -0.060 I 
ATOM     10  F2  UNL d   1      -1.583   0.437   0.123  0.00  0.00    -0.096 F 
ATOM     11  F3  UNL d   1      -1.830   1.539   2.585  0.00  0.00    -0.097 F 
ATOM     12  F4  UNL d   1       0.224   1.391   4.374  0.00  0.00    -0.092 F 
ENDROOT
TORSDOF 0
ENDMDL
