MODEL 1
REMARK minimizedAffinity -4.06610346
REMARK minimizedRMSD -1
REMARK  0 active torsions:
REMARK  status: ('A' for Active; 'I' for Inactive)
ROOT
ATOM      1  C   UNL d   1       0.135   0.741   3.344  0.00  0.00     0.124 A 
ATOM      2  C1  UNL d   1       1.171  -0.087   2.934  0.00  0.00     0.062 A 
ATOM      3  C2  UNL d   1       1.281  -0.462   1.599  0.00  0.00     0.162 A 
ATOM      4  C3  UNL d   1       0.353  -0.009   0.662  0.00  0.00    -0.034 A 
ATOM      5  C4  UNL d   1      -0.688   0.822   1.082  0.00  0.00     0.162 A 
ATOM      6  C5  UNL d   1      -0.793   1.194   2.418  0.00  0.00     0.062 A 
ATOM      7  F   UNL d   1      -1.795   1.994   2.812  0.00  0.00    -0.097 F 
ATOM      8  F1  UNL d   1      -1.598   1.276   0.207  0.00  0.00    -0.096 F 
ATOM      9  I   UNL d   1       0.513  -0.567  -1.337  0.00  0.00    -0.060 I 
ATOM     10  F2  UNL d   1       2.293  -1.262   1.231  0.00  0.00    -0.096 F 
ATOM     11  F3  UNL d   1       2.069  -0.527   3.828  0.00  0.00    -0.097 F 
ATOM     12  F4  UNL d   1       0.031   1.099   4.630  0.00  0.00    -0.092 F 
ENDROOT
TORSDOF 0
ENDMDL
