MODEL 1
REMARK minimizedAffinity -3.07774925
REMARK minimizedRMSD -1
REMARK  0 active torsions:
REMARK  status: ('A' for Active; 'I' for Inactive)
ROOT
ATOM      1  C   UNL d   1      -0.052   0.735   2.935  0.00  0.00     0.124 A 
ATOM      2  C1  UNL d   1       1.061   0.013   2.527  0.00  0.00     0.062 A 
ATOM      3  C2  UNL d   1       1.216  -0.338   1.189  0.00  0.00     0.162 A 
ATOM      4  C3  UNL d   1       0.255   0.034   0.248  0.00  0.00    -0.034 A 
ATOM      5  C4  UNL d   1      -0.862   0.760   0.666  0.00  0.00     0.162 A 
ATOM      6  C5  UNL d   1      -1.012   1.108   2.004  0.00  0.00     0.062 A 
ATOM      7  F   UNL d   1      -2.088   1.806   2.397  0.00  0.00    -0.097 F 
ATOM      8  F1  UNL d   1      -1.804   1.134  -0.212  0.00  0.00    -0.096 F 
ATOM      9  I   UNL d   1       0.483  -0.488  -1.754  0.00  0.00    -0.060 I 
ATOM     10  F2  UNL d   1       2.301  -1.036   0.823  0.00  0.00    -0.096 F 
ATOM     11  F3  UNL d   1       1.989  -0.349   3.424  0.00  0.00    -0.097 F 
ATOM     12  F4  UNL d   1      -0.199   1.071   4.223  0.00  0.00    -0.092 F 
ENDROOT
TORSDOF 0
ENDMDL
