MODEL 1
REMARK minimizedAffinity -0.482560217
REMARK minimizedRMSD -1
REMARK  1 active torsions:
REMARK  status: ('A' for Active; 'I' for Inactive)
REMARK    1  A    between atoms: C3_4  and  O_7 
ROOT
ATOM      1  C   UNL d   1       2.563   0.609   2.307  0.00  0.00    -0.033 A 
ATOM      2  C1  UNL d   1       1.748   0.749   3.433  0.00  0.00     0.039 A 
ATOM      3  C2  UNL d   1       1.076  -0.359   3.952  0.00  0.00    -0.080 A 
ATOM      4  C3  UNL d   1       1.228  -1.600   3.339  0.00  0.00     0.150 A 
ATOM      5  C4  UNL d   1       2.041  -1.747   2.221  0.00  0.00    -0.007 A 
ATOM      6  C5  UNL d   1       2.711  -0.639   1.702  0.00  0.00     0.039 A 
ENDROOT
BRANCH   4   7
ATOM      7  O   UNL d   1       0.588  -2.709   3.807  0.00  0.00    -0.526 OA
ATOM      8  H5  UNL d   1       0.039  -2.450   4.567  0.00  0.00     0.418 HD
ENDBRANCH   4   7
TORSDOF 1
ENDMDL
