MODEL 1
REMARK minimizedAffinity 2.38111758
REMARK minimizedRMSD -1
REMARK  1 active torsions:
REMARK  status: ('A' for Active; 'I' for Inactive)
REMARK    1  A    between atoms: C3_4  and  O_7 
ROOT
ATOM      1  C   UNL d   1       2.296  -5.683   1.763  0.00  0.00    -0.033 A 
ATOM      2  C1  UNL d   1       3.664  -5.561   1.510  0.00  0.00     0.039 A 
ATOM      3  C2  UNL d   1       4.146  -5.660   0.204  0.00  0.00    -0.080 A 
ATOM      4  C3  UNL d   1       3.251  -5.881  -0.840  0.00  0.00     0.150 A 
ATOM      5  C4  UNL d   1       1.887  -6.000  -0.596  0.00  0.00    -0.007 A 
ATOM      6  C5  UNL d   1       1.407  -5.902   0.710  0.00  0.00     0.039 A 
ENDROOT
BRANCH   4   7
ATOM      7  O   UNL d   1       3.675  -5.990  -2.131  0.00  0.00    -0.526 OA
ATOM      8  H5  UNL d   1       4.644  -5.915  -2.144  0.00  0.00     0.418 HD
ENDBRANCH   4   7
TORSDOF 1
ENDMDL
