MODEL 1
REMARK minimizedAffinity -0.74596715
REMARK minimizedRMSD -1
REMARK  1 active torsions:
REMARK  status: ('A' for Active; 'I' for Inactive)
REMARK    1  A    between atoms: C3_4  and  O_7 
ROOT
ATOM      1  C   UNL d   1       3.052  -5.999   1.102  0.00  0.00    -0.033 A 
ATOM      2  C1  UNL d   1       4.438  -5.993   1.263  0.00  0.00     0.039 A 
ATOM      3  C2  UNL d   1       5.273  -5.992   0.144  0.00  0.00    -0.080 A 
ATOM      4  C3  UNL d   1       4.709  -5.995  -1.129  0.00  0.00     0.150 A 
ATOM      5  C4  UNL d   1       3.328  -5.998  -1.296  0.00  0.00    -0.007 A 
ATOM      6  C5  UNL d   1       2.496  -6.000  -0.177  0.00  0.00     0.039 A 
ENDROOT
BRANCH   4   7
ATOM      7  O   UNL d   1       5.482  -5.999  -2.251  0.00  0.00    -0.526 OA
ATOM      8  H5  UNL d   1       6.415  -6.026  -1.982  0.00  0.00     0.418 HD
ENDBRANCH   4   7
TORSDOF 1
ENDMDL
