MODEL 1
REMARK minimizedAffinity -3.11032534
REMARK minimizedRMSD -1
REMARK  1 active torsions:
REMARK  status: ('A' for Active; 'I' for Inactive)
REMARK    1  A    between atoms: C3_4  and  O_7 
ROOT
ATOM      1  C   UNL d   1       2.769  -5.887  -5.658  0.00  0.00    -0.033 A 
ATOM      2  C1  UNL d   1       4.123  -5.832  -5.992  0.00  0.00     0.039 A 
ATOM      3  C2  UNL d   1       5.093  -5.833  -4.987  0.00  0.00    -0.080 A 
ATOM      4  C3  UNL d   1       4.695  -5.890  -3.654  0.00  0.00     0.150 A 
ATOM      5  C4  UNL d   1       3.347  -5.949  -3.314  0.00  0.00    -0.007 A 
ATOM      6  C5  UNL d   1       2.381  -5.947  -4.319  0.00  0.00     0.039 A 
ENDROOT
BRANCH   4   7
ATOM      7  O   UNL d   1       5.604  -5.889  -2.638  0.00  0.00    -0.526 OA
ATOM      8  H5  UNL d   1       6.494  -5.816  -3.022  0.00  0.00     0.418 HD
ENDBRANCH   4   7
TORSDOF 1
ENDMDL
