MODEL 1
REMARK minimizedAffinity -0.0285952743
REMARK minimizedRMSD -1
REMARK  1 active torsions:
REMARK  status: ('A' for Active; 'I' for Inactive)
REMARK    1  A    between atoms: C3_4  and  O_7 
ROOT
ATOM      1  C   UNL d   1       4.431  -5.977  -1.511  0.00  0.00    -0.033 A 
ATOM      2  C1  UNL d   1       3.062  -5.980  -1.236  0.00  0.00     0.039 A 
ATOM      3  C2  UNL d   1       2.138  -5.989  -2.283  0.00  0.00    -0.080 A 
ATOM      4  C3  UNL d   1       2.595  -5.995  -3.598  0.00  0.00     0.150 A 
ATOM      5  C4  UNL d   1       3.958  -5.996  -3.879  0.00  0.00    -0.007 A 
ATOM      6  C5  UNL d   1       4.879  -5.986  -2.833  0.00  0.00     0.039 A 
ENDROOT
BRANCH   4   7
ATOM      7  O   UNL d   1       1.732  -5.999  -4.653  0.00  0.00    -0.526 OA
ATOM      8  H5  UNL d   1       0.824  -5.969  -4.307  0.00  0.00     0.418 HD
ENDBRANCH   4   7
TORSDOF 1
ENDMDL
