MODEL 1
REMARK minimizedAffinity 0.374749035
REMARK minimizedRMSD -1
REMARK  1 active torsions:
REMARK  status: ('A' for Active; 'I' for Inactive)
REMARK    1  A    between atoms: C3_4  and  O_7 
ROOT
ATOM      1  C   UNL d   1       3.940  -5.999  -5.143  0.00  0.00    -0.033 A 
ATOM      2  C1  UNL d   1       2.777  -6.000  -4.371  0.00  0.00     0.039 A 
ATOM      3  C2  UNL d   1       2.862  -5.999  -2.977  0.00  0.00    -0.080 A 
ATOM      4  C3  UNL d   1       4.115  -5.996  -2.369  0.00  0.00     0.150 A 
ATOM      5  C4  UNL d   1       5.278  -5.991  -3.133  0.00  0.00    -0.007 A 
ATOM      6  C5  UNL d   1       5.190  -5.993  -4.524  0.00  0.00     0.039 A 
ENDROOT
BRANCH   4   7
ATOM      7  O   UNL d   1       4.248  -6.000  -1.013  0.00  0.00    -0.526 OA
ATOM      8  H5  UNL d   1       3.362  -6.032  -0.616  0.00  0.00     0.418 HD
ENDBRANCH   4   7
TORSDOF 1
ENDMDL
