MODEL 1
REMARK minimizedAffinity 2.23602009
REMARK minimizedRMSD -1
REMARK  1 active torsions:
REMARK  status: ('A' for Active; 'I' for Inactive)
REMARK    1  A    between atoms: C3_4  and  O_7 
ROOT
ATOM      1  C   UNL d   1       2.057  -1.877   3.072  0.00  0.00    -0.033 A 
ATOM      2  C1  UNL d   1       2.336  -2.755   4.122  0.00  0.00     0.039 A 
ATOM      3  C2  UNL d   1       3.659  -3.016   4.483  0.00  0.00    -0.080 A 
ATOM      4  C3  UNL d   1       4.693  -2.393   3.789  0.00  0.00     0.150 A 
ATOM      5  C4  UNL d   1       4.422  -1.515   2.745  0.00  0.00    -0.007 A 
ATOM      6  C5  UNL d   1       3.100  -1.256   2.385  0.00  0.00     0.039 A 
ENDROOT
BRANCH   4   7
ATOM      7  O   UNL d   1       6.000  -2.621   4.102  0.00  0.00    -0.526 OA
ATOM      8  H5  UNL d   1       6.035  -3.271   4.824  0.00  0.00     0.418 HD
ENDBRANCH   4   7
TORSDOF 1
ENDMDL
