MODEL 1
REMARK minimizedAffinity -0.659549713
REMARK minimizedRMSD -1
REMARK  1 active torsions:
REMARK  status: ('A' for Active; 'I' for Inactive)
REMARK    1  A    between atoms: C3_4  and  O_7 
ROOT
ATOM      1  C   UNL d   1       2.668  -4.289   3.296  0.00  0.00    -0.033 A 
ATOM      2  C1  UNL d   1       1.646  -3.669   2.574  0.00  0.00     0.039 A 
ATOM      3  C2  UNL d   1       1.235  -2.378   2.910  0.00  0.00    -0.080 A 
ATOM      4  C3  UNL d   1       1.852  -1.719   3.969  0.00  0.00     0.150 A 
ATOM      5  C4  UNL d   1       2.873  -2.328   4.691  0.00  0.00    -0.007 A 
ATOM      6  C5  UNL d   1       3.282  -3.618   4.354  0.00  0.00     0.039 A 
ENDROOT
BRANCH   4   7
ATOM      7  O   UNL d   1       1.482  -0.460   4.338  0.00  0.00    -0.526 OA
ATOM      8  H5  UNL d   1       0.746  -0.177   3.770  0.00  0.00     0.418 HD
ENDBRANCH   4   7
TORSDOF 1
ENDMDL
