MODEL 1
REMARK minimizedAffinity 2.31870985
REMARK minimizedRMSD -1
REMARK  1 active torsions:
REMARK  status: ('A' for Active; 'I' for Inactive)
REMARK    1  A    between atoms: C3_4  and  O_7 
ROOT
ATOM      1  C   UNL d   1       5.163  -5.991  -1.699  0.00  0.00    -0.033 A 
ATOM      2  C1  UNL d   1       3.787  -5.979  -1.935  0.00  0.00     0.039 A 
ATOM      3  C2  UNL d   1       2.893  -5.980  -0.862  0.00  0.00    -0.080 A 
ATOM      4  C3  UNL d   1       3.387  -5.992   0.439  0.00  0.00     0.150 A 
ATOM      5  C4  UNL d   1       4.757  -6.000   0.681  0.00  0.00    -0.007 A 
ATOM      6  C5  UNL d   1       5.648  -6.000  -0.391  0.00  0.00     0.039 A 
ENDROOT
BRANCH   4   7
ATOM      7  O   UNL d   1       2.554  -5.998   1.518  0.00  0.00    -0.526 OA
ATOM      8  H5  UNL d   1       1.636  -6.020   1.198  0.00  0.00     0.418 HD
ENDBRANCH   4   7
TORSDOF 1
ENDMDL
