MODEL 1
REMARK minimizedAffinity -2.29591036
REMARK minimizedRMSD -1
REMARK  1 active torsions:
REMARK  status: ('A' for Active; 'I' for Inactive)
REMARK    1  A    between atoms: C3_4  and  O_7 
ROOT
ATOM      1  C   UNL d   1       3.249  -5.976  -6.000  0.00  0.00    -0.033 A 
ATOM      2  C1  UNL d   1       4.590  -5.969  -5.613  0.00  0.00     0.039 A 
ATOM      3  C2  UNL d   1       4.928  -5.975  -4.258  0.00  0.00    -0.080 A 
ATOM      4  C3  UNL d   1       3.916  -5.989  -3.302  0.00  0.00     0.150 A 
ATOM      5  C4  UNL d   1       2.577  -6.000  -3.680  0.00  0.00    -0.007 A 
ATOM      6  C5  UNL d   1       2.242  -5.993  -5.034  0.00  0.00     0.039 A 
ENDROOT
BRANCH   4   7
ATOM      7  O   UNL d   1       4.196  -5.990  -1.968  0.00  0.00    -0.526 OA
ATOM      8  H5  UNL d   1       5.161  -5.952  -1.856  0.00  0.00     0.418 HD
ENDBRANCH   4   7
TORSDOF 1
ENDMDL
