MODEL 1
REMARK minimizedAffinity -0.514137685
REMARK minimizedRMSD -1
REMARK  1 active torsions:
REMARK  status: ('A' for Active; 'I' for Inactive)
REMARK    1  A    between atoms: C3_4  and  O_7 
ROOT
ATOM      1  C   UNL d   1       3.004  -5.993  -0.879  0.00  0.00    -0.033 A 
ATOM      2  C1  UNL d   1       4.183  -5.982  -1.627  0.00  0.00     0.039 A 
ATOM      3  C2  UNL d   1       4.127  -5.981  -3.022  0.00  0.00    -0.080 A 
ATOM      4  C3  UNL d   1       2.887  -5.990  -3.656  0.00  0.00     0.150 A 
ATOM      5  C4  UNL d   1       1.709  -5.997  -2.917  0.00  0.00    -0.007 A 
ATOM      6  C5  UNL d   1       1.767  -5.999  -1.524  0.00  0.00     0.039 A 
ENDROOT
BRANCH   4   7
ATOM      7  O   UNL d   1       2.782  -5.994  -5.015  0.00  0.00    -0.526 OA
ATOM      8  H5  UNL d   1       3.677  -6.018  -5.393  0.00  0.00     0.418 HD
ENDBRANCH   4   7
TORSDOF 1
ENDMDL
