MODEL 1
REMARK minimizedAffinity 3.21457577
REMARK minimizedRMSD -1
REMARK  1 active torsions:
REMARK  status: ('A' for Active; 'I' for Inactive)
REMARK    1  A    between atoms: C3_4  and  O_7 
ROOT
ATOM      1  C   UNL d   1       3.441  -1.564   2.860  0.00  0.00    -0.033 A 
ATOM      2  C1  UNL d   1       3.061  -0.311   2.375  0.00  0.00     0.039 A 
ATOM      3  C2  UNL d   1       1.769  -0.113   1.884  0.00  0.00    -0.080 A 
ATOM      4  C3  UNL d   1       0.868  -1.174   1.884  0.00  0.00     0.150 A 
ATOM      5  C4  UNL d   1       1.239  -2.424   2.369  0.00  0.00    -0.007 A 
ATOM      6  C5  UNL d   1       2.530  -2.620   2.858  0.00  0.00     0.039 A 
ENDROOT
BRANCH   4   7
ATOM      7  O   UNL d   1      -0.402  -1.030   1.411  0.00  0.00    -0.526 OA
ATOM      8  H5  UNL d   1      -0.507  -0.122   1.082  0.00  0.00     0.418 HD
ENDBRANCH   4   7
TORSDOF 1
ENDMDL
