MODEL 1
REMARK minimizedAffinity 11.9716558
REMARK minimizedRMSD -1
REMARK  2 active torsions:
REMARK  status: ('A' for Active; 'I' for Inactive)
REMARK    1  A    between atoms: C2'_3  and  C1'_4 
REMARK    2  A    between atoms: C1'_4  and  C1_5 
ROOT
ATOM      1  C1  I4B d   1       3.773   0.215  -0.663  0.00  0.00    -0.075 A 
ATOM      2  C2  I4B d   1       4.332   0.698  -1.820  0.00  0.00     0.003 A 
ATOM      3  C3  I4B d   1       5.474   1.533  -1.765  0.00  0.00     0.002 A 
ATOM      4  C4  I4B d   1       5.990   1.899  -0.538  0.00  0.00    -0.004 A 
ATOM      5  C5  I4B d   1       5.436   1.389   0.633  0.00  0.00     0.002 A 
ATOM      6  C6  I4B d   1       4.327   0.532   0.570  0.00  0.00     0.003 A 
ENDROOT
BRANCH   1   7
ATOM      7  C1' I4B d   1       2.547  -0.637  -0.757  0.00  0.00     0.060 C 
BRANCH   7   8
ATOM      8  C2' I4B d   1       2.989  -2.086  -0.810  0.00  0.00    -0.013 C 
ATOM      9  C4' I4B d   1       2.063  -2.968  -0.016  0.00  0.00     0.013 C 
ATOM     10  C3' I4B d   1       3.033  -2.504  -2.250  0.00  0.00     0.013 C 
ENDBRANCH   7   8
ENDBRANCH   1   7
TORSDOF 2
ENDMDL
