MODEL 1
REMARK minimizedAffinity 16.0460186
REMARK minimizedRMSD -1
REMARK  2 active torsions:
REMARK  status: ('A' for Active; 'I' for Inactive)
REMARK    1  A    between atoms: C2'_3  and  C1'_4 
REMARK    2  A    between atoms: C1'_4  and  C1_5 
ROOT
ATOM      1  C1  I4B d   1       3.055  -2.425  -1.786  0.00  0.00    -0.075 A 
ATOM      2  C2  I4B d   1       3.214  -1.173  -1.246  0.00  0.00     0.003 A 
ATOM      3  C3  I4B d   1       4.108  -0.249  -1.839  0.00  0.00     0.002 A 
ATOM      4  C4  I4B d   1       4.855  -0.633  -2.934  0.00  0.00    -0.004 A 
ATOM      5  C5  I4B d   1       4.676  -1.895  -3.494  0.00  0.00     0.002 A 
ATOM      6  C6  I4B d   1       3.761  -2.792  -2.924  0.00  0.00     0.003 A 
ENDROOT
BRANCH   1   7
ATOM      7  C1' I4B d   1       2.127  -3.387  -1.115  0.00  0.00     0.060 C 
BRANCH   7   8
ATOM      8  C2' I4B d   1       1.070  -2.584  -0.385  0.00  0.00    -0.013 C 
ATOM      9  C4' I4B d   1      -0.316  -3.057  -0.739  0.00  0.00     0.013 C 
ATOM     10  C3' I4B d   1       1.326  -2.713   1.087  0.00  0.00     0.013 C 
ENDBRANCH   7   8
ENDBRANCH   1   7
TORSDOF 2
ENDMDL
