MODEL 1
REMARK minimizedAffinity 11.2864332
REMARK minimizedRMSD -1
REMARK  2 active torsions:
REMARK  status: ('A' for Active; 'I' for Inactive)
REMARK    1  A    between atoms: C2'_3  and  C1'_4 
REMARK    2  A    between atoms: C1'_4  and  C1_5 
ROOT
ATOM      1  C1  I4B d   1       1.441   0.388  -0.073  0.00  0.00    -0.075 A 
ATOM      2  C2  I4B d   1       0.329   0.817  -0.755  0.00  0.00     0.003 A 
ATOM      3  C3  I4B d   1      -0.798   1.301  -0.047  0.00  0.00     0.002 A 
ATOM      4  C4  I4B d   1      -0.790   1.291   1.333  0.00  0.00    -0.004 A 
ATOM      5  C5  I4B d   1       0.347   0.877   2.022  0.00  0.00     0.002 A 
ATOM      6  C6  I4B d   1       1.474   0.434   1.314  0.00  0.00     0.003 A 
ENDROOT
BRANCH   1   7
ATOM      7  C1' I4B d   1       2.601  -0.148  -0.851  0.00  0.00     0.060 C 
BRANCH   7   8
ATOM      8  C2' I4B d   1       3.833   0.639  -0.453  0.00  0.00    -0.013 C 
ATOM      9  C4' I4B d   1       4.899  -0.265   0.107  0.00  0.00     0.013 C 
ATOM     10  C3' I4B d   1       4.325   1.372  -1.665  0.00  0.00     0.013 C 
ENDBRANCH   7   8
ENDBRANCH   1   7
TORSDOF 2
ENDMDL
