MODEL 1
REMARK minimizedAffinity 6.1864953
REMARK minimizedRMSD -1
REMARK  2 active torsions:
REMARK  status: ('A' for Active; 'I' for Inactive)
REMARK    1  A    between atoms: C2'_3  and  C1'_4 
REMARK    2  A    between atoms: C1'_4  and  C1_5 
ROOT
ATOM      1  C1  I4B d   1       3.556   0.325  -0.606  0.00  0.00    -0.075 A 
ATOM      2  C2  I4B d   1       3.897   1.075  -1.704  0.00  0.00     0.003 A 
ATOM      3  C3  I4B d   1       5.072   1.864  -1.692  0.00  0.00     0.002 A 
ATOM      4  C4  I4B d   1       5.846   1.913  -0.550  0.00  0.00    -0.004 A 
ATOM      5  C5  I4B d   1       5.511   1.134   0.554  0.00  0.00     0.002 A 
ATOM      6  C6  I4B d   1       4.366   0.325   0.522  0.00  0.00     0.003 A 
ENDROOT
BRANCH   1   7
ATOM      7  C1' I4B d   1       2.290  -0.472  -0.642  0.00  0.00     0.060 C 
BRANCH   7   8
ATOM      8  C2' I4B d   1       2.658  -1.938  -0.538  0.00  0.00    -0.013 C 
ATOM      9  C4' I4B d   1       2.335  -2.486   0.827  0.00  0.00     0.013 C 
ATOM     10  C3' I4B d   1       1.914  -2.678  -1.609  0.00  0.00     0.013 C 
ENDBRANCH   7   8
ENDBRANCH   1   7
TORSDOF 2
ENDMDL
