MODEL 1
REMARK minimizedAffinity 4.95995235
REMARK minimizedRMSD -1
REMARK  2 active torsions:
REMARK  status: ('A' for Active; 'I' for Inactive)
REMARK    1  A    between atoms: C2'_3  and  C1'_4 
REMARK    2  A    between atoms: C1'_4  and  C1_5 
ROOT
ATOM      1  C1  I4B d   1       3.437  -1.113  -1.375  0.00  0.00    -0.075 A 
ATOM      2  C2  I4B d   1       2.704  -2.085  -0.740  0.00  0.00     0.003 A 
ATOM      3  C3  I4B d   1       2.428  -3.310  -1.393  0.00  0.00     0.002 A 
ATOM      4  C4  I4B d   1       2.857  -3.501  -2.691  0.00  0.00    -0.004 A 
ATOM      5  C5  I4B d   1       3.619  -2.524  -3.325  0.00  0.00     0.002 A 
ATOM      6  C6  I4B d   1       3.922  -1.327  -2.659  0.00  0.00     0.003 A 
ENDROOT
BRANCH   1   7
ATOM      7  C1' I4B d   1       3.682   0.182  -0.669  0.00  0.00     0.060 C 
BRANCH   7   8
ATOM      8  C2' I4B d   1       5.127   0.575  -0.901  0.00  0.00    -0.013 C 
ATOM      9  C4' I4B d   1       5.404   1.963  -0.388  0.00  0.00     0.013 C 
ATOM     10  C3' I4B d   1       5.997  -0.439  -0.220  0.00  0.00     0.013 C 
ENDBRANCH   7   8
ENDBRANCH   1   7
TORSDOF 2
ENDMDL
