MODEL 1
REMARK minimizedAffinity 15.3105717
REMARK minimizedRMSD -1
REMARK  2 active torsions:
REMARK  status: ('A' for Active; 'I' for Inactive)
REMARK    1  A    between atoms: C2'_3  and  C1'_4 
REMARK    2  A    between atoms: C1'_4  and  C1_5 
ROOT
ATOM      1  C1  I4B d   1       1.868   0.175   0.120  0.00  0.00    -0.075 A 
ATOM      2  C2  I4B d   1       1.612   0.306   1.462  0.00  0.00     0.003 A 
ATOM      3  C3  I4B d   1       0.418   0.927   1.902  0.00  0.00     0.002 A 
ATOM      4  C4  I4B d   1      -0.461   1.445   0.973  0.00  0.00    -0.004 A 
ATOM      5  C5  I4B d   1      -0.210   1.292  -0.387  0.00  0.00     0.002 A 
ATOM      6  C6  I4B d   1       0.956   0.642  -0.817  0.00  0.00     0.003 A 
ENDROOT
BRANCH   1   7
ATOM      7  C1' I4B d   1       3.154  -0.457  -0.309  0.00  0.00     0.060 C 
BRANCH   7   8
ATOM      8  C2' I4B d   1       4.158   0.650  -0.558  0.00  0.00    -0.013 C 
ATOM      9  C4' I4B d   1       5.429   0.418   0.216  0.00  0.00     0.013 C 
ATOM     10  C3' I4B d   1       4.426   0.709  -2.033  0.00  0.00     0.013 C 
ENDBRANCH   7   8
ENDBRANCH   1   7
TORSDOF 2
ENDMDL
