MODEL 1
REMARK minimizedAffinity -4.77428055
REMARK minimizedRMSD -1
REMARK  1 active torsions:
REMARK  status: ('A' for Active; 'I' for Inactive)
REMARK    1  A    between atoms: C1_2  and  C2_3 
ROOT
ATOM      1  C2  UNL d   1       0.228   0.146  -1.097  0.00  0.00    -0.081 A 
ATOM      2  C3  UNL d   1       1.168   0.211  -0.061  0.00  0.00     0.006 A 
ATOM      3  C4  UNL d   1       0.767   0.056   1.269  0.00  0.00     0.002 A 
ATOM      4  C5  UNL d   1      -0.577  -0.174   1.583  0.00  0.00    -0.080 A 
ATOM      5  C6  UNL d   1      -1.015  -0.372   3.004  0.00  0.00     0.076 C 
ATOM      6  C7  UNL d   1      -1.518  -0.222   0.549  0.00  0.00     0.002 A 
ATOM      7  C8  UNL d   1      -1.118  -0.066  -0.780  0.00  0.00     0.006 A 
ENDROOT
BRANCH   1   8
ATOM      8  C1  UNL d   1       0.666   0.248  -2.536  0.00  0.00     0.054 C 
ATOM      9  C   UNL d   1       0.649  -1.113  -3.217  0.00  0.00     0.018 C 
ENDBRANCH   1   8
TORSDOF 1
ENDMDL
