MODEL 1
REMARK minimizedAffinity -4.12951565
REMARK minimizedRMSD -1
REMARK  1 active torsions:
REMARK  status: ('A' for Active; 'I' for Inactive)
REMARK    1  A    between atoms: C1_2  and  C2_3 
ROOT
ATOM      1  C2  UNL d   1       0.029  -0.211  -0.538  0.00  0.00    -0.081 A 
ATOM      2  C3  UNL d   1       0.999  -0.152   0.471  0.00  0.00     0.006 A 
ATOM      3  C4  UNL d   1       0.639  -0.330   1.809  0.00  0.00     0.002 A 
ATOM      4  C5  UNL d   1      -0.692  -0.576   2.160  0.00  0.00    -0.080 A 
ATOM      5  C6  UNL d   1      -1.086  -0.798   3.590  0.00  0.00     0.076 C 
ATOM      6  C7  UNL d   1      -1.663  -0.617   1.154  0.00  0.00     0.002 A 
ATOM      7  C8  UNL d   1      -1.305  -0.439  -0.184  0.00  0.00     0.006 A 
ENDROOT
BRANCH   1   8
ATOM      8  C1  UNL d   1       0.423  -0.085  -1.988  0.00  0.00     0.054 C 
ATOM      9  C   UNL d   1       0.333  -1.424  -2.704  0.00  0.00     0.018 C 
ENDBRANCH   1   8
TORSDOF 1
ENDMDL
