MODEL 1
REMARK minimizedAffinity -3.98638344
REMARK minimizedRMSD -1
REMARK  1 active torsions:
REMARK  status: ('A' for Active; 'I' for Inactive)
REMARK    1  A    between atoms: C1_2  and  C2_3 
ROOT
ATOM      1  C2  UNL d   1       0.347  -0.218   0.734  0.00  0.00    -0.081 A 
ATOM      2  C3  UNL d   1       0.653  -1.550   0.427  0.00  0.00     0.006 A 
ATOM      3  C4  UNL d   1       0.754  -1.964  -0.903  0.00  0.00     0.002 A 
ATOM      4  C5  UNL d   1       0.559  -1.054  -1.948  0.00  0.00    -0.080 A 
ATOM      5  C6  UNL d   1       0.695  -1.479  -3.379  0.00  0.00     0.076 C 
ATOM      6  C7  UNL d   1       0.237   0.272  -1.641  0.00  0.00     0.002 A 
ATOM      7  C8  UNL d   1       0.135   0.687  -0.311  0.00  0.00     0.006 A 
ENDROOT
BRANCH   1   8
ATOM      8  C1  UNL d   1       0.301   0.246   2.167  0.00  0.00     0.054 C 
ATOM      9  C   UNL d   1      -0.577  -0.662   3.015  0.00  0.00     0.018 C 
ENDBRANCH   1   8
TORSDOF 1
ENDMDL
