MODEL 1
REMARK minimizedAffinity -3.76209855
REMARK minimizedRMSD -1
REMARK  1 active torsions:
REMARK  status: ('A' for Active; 'I' for Inactive)
REMARK    1  A    between atoms: C1_2  and  C2_3 
ROOT
ATOM      1  C2  UNL d   1       0.302  -0.396  -1.466  0.00  0.00    -0.081 A 
ATOM      2  C3  UNL d   1      -0.815   0.245  -0.915  0.00  0.00     0.006 A 
ATOM      3  C4  UNL d   1      -0.928   0.408   0.467  0.00  0.00     0.002 A 
ATOM      4  C5  UNL d   1       0.076  -0.060   1.322  0.00  0.00    -0.080 A 
ATOM      5  C6  UNL d   1      -0.019   0.135   2.806  0.00  0.00     0.076 C 
ATOM      6  C7  UNL d   1       1.184  -0.716   0.773  0.00  0.00     0.002 A 
ATOM      7  C8  UNL d   1       1.297  -0.879  -0.609  0.00  0.00     0.006 A 
ENDROOT
BRANCH   1   8
ATOM      8  C1  UNL d   1       0.458  -0.515  -2.960  0.00  0.00     0.054 C 
ATOM      9  C   UNL d   1       1.745  -1.241  -3.326  0.00  0.00     0.018 C 
ENDBRANCH   1   8
TORSDOF 1
ENDMDL
