MODEL 1
REMARK minimizedAffinity -5.81859303
REMARK minimizedRMSD -1
REMARK  1 active torsions:
REMARK  status: ('A' for Active; 'I' for Inactive)
REMARK    1  A    between atoms: C1_2  and  C2_3 
ROOT
ATOM      1  C2  UNL d   1       0.088  -0.474   1.038  0.00  0.00    -0.081 A 
ATOM      2  C3  UNL d   1       0.134   0.758   0.375  0.00  0.00     0.006 A 
ATOM      3  C4  UNL d   1       0.489   0.824  -0.974  0.00  0.00     0.002 A 
ATOM      4  C5  UNL d   1       0.798  -0.342  -1.685  0.00  0.00    -0.080 A 
ATOM      5  C6  UNL d   1       1.152  -0.288  -3.141  0.00  0.00     0.076 C 
ATOM      6  C7  UNL d   1       0.769  -1.571  -1.018  0.00  0.00     0.002 A 
ATOM      7  C8  UNL d   1       0.415  -1.637   0.332  0.00  0.00     0.006 A 
ENDROOT
BRANCH   1   8
ATOM      8  C1  UNL d   1      -0.357  -0.555   2.476  0.00  0.00     0.054 C 
ATOM      9  C   UNL d   1      -1.800  -0.096   2.634  0.00  0.00     0.018 C 
ENDBRANCH   1   8
TORSDOF 1
ENDMDL
