MODEL 1
REMARK minimizedAffinity -3.159163
REMARK minimizedRMSD -1
REMARK  1 active torsions:
REMARK  status: ('A' for Active; 'I' for Inactive)
REMARK    1  A    between atoms: C1_2  and  C2_3 
ROOT
ATOM      1  C2  UNL d   1       0.250  -0.400  -1.671  0.00  0.00    -0.081 A 
ATOM      2  C3  UNL d   1      -0.868   0.253  -1.138  0.00  0.00     0.006 A 
ATOM      3  C4  UNL d   1      -1.071   0.297   0.243  0.00  0.00     0.002 A 
ATOM      4  C5  UNL d   1      -0.156  -0.303   1.115  0.00  0.00    -0.080 A 
ATOM      5  C6  UNL d   1      -0.346  -0.236   2.601  0.00  0.00     0.076 C 
ATOM      6  C7  UNL d   1       0.952  -0.970   0.582  0.00  0.00     0.002 A 
ATOM      7  C8  UNL d   1       1.155  -1.016  -0.799  0.00  0.00     0.006 A 
ENDROOT
BRANCH   1   8
ATOM      8  C1  UNL d   1       0.506  -0.395  -3.156  0.00  0.00     0.054 C 
ATOM      9  C   UNL d   1       1.138  -1.701  -3.614  0.00  0.00     0.018 C 
ENDBRANCH   1   8
TORSDOF 1
ENDMDL
