MODEL 1
REMARK minimizedAffinity -3.69946456
REMARK minimizedRMSD -1
REMARK  1 active torsions:
REMARK  status: ('A' for Active; 'I' for Inactive)
REMARK    1  A    between atoms: C1_2  and  C2_3 
ROOT
ATOM      1  C2  UNL d   1       0.654  -0.652  -1.354  0.00  0.00    -0.081 A 
ATOM      2  C3  UNL d   1       1.638   0.165  -0.785  0.00  0.00     0.006 A 
ATOM      3  C4  UNL d   1       1.556   0.545   0.556  0.00  0.00     0.002 A 
ATOM      4  C5  UNL d   1       0.492   0.108   1.353  0.00  0.00    -0.080 A 
ATOM      5  C6  UNL d   1       0.408   0.484   2.803  0.00  0.00     0.076 C 
ATOM      6  C7  UNL d   1      -0.501  -0.694   0.781  0.00  0.00     0.002 A 
ATOM      7  C8  UNL d   1      -0.419  -1.073  -0.561  0.00  0.00     0.006 A 
ENDROOT
BRANCH   1   8
ATOM      8  C1  UNL d   1       0.774  -1.116  -2.783  0.00  0.00     0.054 C 
ATOM      9  C   UNL d   1       2.198  -0.964  -3.296  0.00  0.00     0.018 C 
ENDBRANCH   1   8
TORSDOF 1
ENDMDL
