MODEL 1
REMARK minimizedAffinity -5.24117994
REMARK minimizedRMSD -1
REMARK  1 active torsions:
REMARK  status: ('A' for Active; 'I' for Inactive)
REMARK    1  A    between atoms: C1_2  and  C2_3 
ROOT
ATOM      1  C2  UNL d   1       0.271  -0.219   0.338  0.00  0.00    -0.081 A 
ATOM      2  C3  UNL d   1       0.406  -1.601   0.161  0.00  0.00     0.006 A 
ATOM      3  C4  UNL d   1       0.490  -2.147  -1.122  0.00  0.00     0.002 A 
ATOM      4  C5  UNL d   1       0.449  -1.319  -2.249  0.00  0.00    -0.080 A 
ATOM      5  C6  UNL d   1       0.568  -1.889  -3.631  0.00  0.00     0.076 C 
ATOM      6  C7  UNL d   1       0.297   0.061  -2.074  0.00  0.00     0.002 A 
ATOM      7  C8  UNL d   1       0.212   0.606  -0.791  0.00  0.00     0.006 A 
ENDROOT
BRANCH   1   8
ATOM      8  C1  UNL d   1       0.245   0.378   1.721  0.00  0.00     0.054 C 
ATOM      9  C   UNL d   1      -0.520  -0.509   2.693  0.00  0.00     0.018 C 
ENDBRANCH   1   8
TORSDOF 1
ENDMDL
