MODEL 1
REMARK minimizedAffinity -5.86457109
REMARK minimizedRMSD -1
REMARK  1 active torsions:
REMARK  status: ('A' for Active; 'I' for Inactive)
REMARK    1  A    between atoms: C1_2  and  C2_3 
ROOT
ATOM      1  C2  UNL d   1       0.629  -0.138  -1.452  0.00  0.00    -0.081 A 
ATOM      2  C3  UNL d   1       1.391  -1.063  -0.728  0.00  0.00     0.006 A 
ATOM      3  C4  UNL d   1       1.316  -1.106   0.666  0.00  0.00     0.002 A 
ATOM      4  C5  UNL d   1       0.472  -0.231   1.359  0.00  0.00    -0.080 A 
ATOM      5  C6  UNL d   1       0.359  -0.287   2.853  0.00  0.00     0.076 C 
ATOM      6  C7  UNL d   1      -0.276   0.705   0.637  0.00  0.00     0.002 A 
ATOM      7  C8  UNL d   1      -0.201   0.749  -0.757  0.00  0.00     0.006 A 
ENDROOT
BRANCH   1   8
ATOM      8  C1  UNL d   1       0.659  -0.133  -2.959  0.00  0.00     0.054 C 
ATOM      9  C   UNL d   1       0.294  -1.498  -3.525  0.00  0.00     0.018 C 
ENDBRANCH   1   8
TORSDOF 1
ENDMDL
