MODEL 1
REMARK minimizedAffinity -1.65702927
REMARK minimizedRMSD -1
REMARK  1 active torsions:
REMARK  status: ('A' for Active; 'I' for Inactive)
REMARK    1  A    between atoms: C1_2  and  C2_3 
ROOT
ATOM      1  C2  UNL d   1       0.397  -0.258  -1.296  0.00  0.00    -0.081 A 
ATOM      2  C3  UNL d   1       0.492   1.071  -0.864  0.00  0.00     0.006 A 
ATOM      3  C4  UNL d   1       0.478   1.374   0.500  0.00  0.00     0.002 A 
ATOM      4  C5  UNL d   1       0.378   0.354   1.453  0.00  0.00    -0.080 A 
ATOM      5  C6  UNL d   1       0.392   0.664   2.920  0.00  0.00     0.076 C 
ATOM      6  C7  UNL d   1       0.265  -0.971   1.020  0.00  0.00     0.002 A 
ATOM      7  C8  UNL d   1       0.279  -1.275  -0.343  0.00  0.00     0.006 A 
ENDROOT
BRANCH   1   8
ATOM      8  C1  UNL d   1       0.477  -0.593  -2.764  0.00  0.00     0.054 C 
ATOM      9  C   UNL d   1       1.895  -0.430  -3.293  0.00  0.00     0.018 C 
ENDBRANCH   1   8
TORSDOF 1
ENDMDL
