MODEL 1
REMARK minimizedAffinity -4.4219532
REMARK minimizedRMSD -1
REMARK  0 active torsions:
REMARK  status: ('A' for Active; 'I' for Inactive)
ROOT
ATOM      1  N1  IND d   1       2.095   1.577   0.092  0.00  0.00    -0.196 N 
ATOM      2  C2  IND d   1       3.362   1.647  -0.416  0.00  0.00     0.054 A 
ATOM      3  C3  IND d   1       3.819   0.409  -0.710  0.00  0.00    -0.031 A 
ATOM      4  C4  IND d   1       2.621  -1.863  -0.535  0.00  0.00     0.051 A 
ATOM      5  C5  IND d   1       1.463  -2.438  -0.092  0.00  0.00    -0.031 A 
ATOM      6  C6  IND d   1       0.435  -1.690   0.443  0.00  0.00     0.015 A 
ATOM      7  C7  IND d   1       0.522  -0.330   0.545  0.00  0.00    -0.016 A 
ATOM      8  C8  IND d   1       1.699   0.257   0.103  0.00  0.00    -0.047 A 
ATOM      9  C9  IND d   1       2.763  -0.502  -0.402  0.00  0.00    -0.096 A 
ATOM     10  HN1 IND d   1       1.624   2.245   0.359  0.00  0.00     0.298 HD
ENDROOT
TORSDOF 0
ENDMDL
