MODEL 1
REMARK minimizedAffinity -3.99335766
REMARK minimizedRMSD -1
REMARK  0 active torsions:
REMARK  status: ('A' for Active; 'I' for Inactive)
ROOT
ATOM      1  N1  IND d   1       1.744   1.811  -0.080  0.00  0.00    -0.196 N 
ATOM      2  C2  IND d   1       3.086   1.904  -0.324  0.00  0.00     0.054 A 
ATOM      3  C3  IND d   1       3.620   0.673  -0.494  0.00  0.00    -0.031 A 
ATOM      4  C4  IND d   1       2.458  -1.624  -0.515  0.00  0.00     0.051 A 
ATOM      5  C5  IND d   1       1.248  -2.221  -0.302  0.00  0.00    -0.031 A 
ATOM      6  C6  IND d   1       0.117  -1.490  -0.001  0.00  0.00     0.015 A 
ATOM      7  C7  IND d   1       0.153  -0.127   0.088  0.00  0.00    -0.016 A 
ATOM      8  C8  IND d   1       1.382   0.482  -0.121  0.00  0.00    -0.047 A 
ATOM      9  C9  IND d   1       2.542  -0.258  -0.385  0.00  0.00    -0.096 A 
ATOM     10  HN1 IND d   1       1.215   2.471   0.074  0.00  0.00     0.298 HD
ENDROOT
TORSDOF 0
ENDMDL
