MODEL 1
REMARK minimizedAffinity -0.371225834
REMARK minimizedRMSD -1
REMARK  0 active torsions:
REMARK  status: ('A' for Active; 'I' for Inactive)
ROOT
ATOM      1  N1  IND d   1      -0.424   1.128  -1.097  0.00  0.00    -0.196 N 
ATOM      2  C2  IND d   1      -1.041  -0.091  -1.092  0.00  0.00     0.054 A 
ATOM      3  C3  IND d   1      -0.470  -0.904  -0.175  0.00  0.00    -0.031 A 
ATOM      4  C4  IND d   1       1.422  -0.408   1.497  0.00  0.00     0.051 A 
ATOM      5  C5  IND d   1       2.325   0.556   1.847  0.00  0.00    -0.031 A 
ATOM      6  C6  IND d   1       2.357   1.787   1.223  0.00  0.00     0.015 A 
ATOM      7  C7  IND d   1       1.475   2.104   0.229  0.00  0.00    -0.016 A 
ATOM      8  C8  IND d   1       0.562   1.124  -0.134  0.00  0.00    -0.047 A 
ATOM      9  C9  IND d   1       0.553  -0.141   0.467  0.00  0.00    -0.096 A 
ATOM     10  HN1 IND d   1      -0.618   1.787  -1.614  0.00  0.00     0.298 HD
ENDROOT
TORSDOF 0
ENDMDL
