MODEL 1
REMARK minimizedAffinity -4.13571739
REMARK minimizedRMSD -1
REMARK  0 active torsions:
REMARK  status: ('A' for Active; 'I' for Inactive)
ROOT
ATOM      1  N1  IND d   1       0.390  -0.842  -1.944  0.00  0.00    -0.196 N 
ATOM      2  C2  IND d   1      -0.570   0.085  -1.647  0.00  0.00     0.054 A 
ATOM      3  C3  IND d   1      -0.381   0.576  -0.402  0.00  0.00    -0.031 A 
ATOM      4  C4  IND d   1       1.497   0.075   1.286  0.00  0.00     0.051 A 
ATOM      5  C5  IND d   1       2.584  -0.730   1.481  0.00  0.00    -0.031 A 
ATOM      6  C6  IND d   1       3.005  -1.630   0.524  0.00  0.00     0.015 A 
ATOM      7  C7  IND d   1       2.359  -1.751  -0.674  0.00  0.00    -0.016 A 
ATOM      8  C8  IND d   1       1.251  -0.939  -0.872  0.00  0.00    -0.047 A 
ATOM      9  C9  IND d   1       0.793  -0.054   0.112  0.00  0.00    -0.096 A 
ATOM     10  HN1 IND d   1       0.447  -1.288  -2.676  0.00  0.00     0.298 HD
ENDROOT
TORSDOF 0
ENDMDL
