MODEL 1
REMARK minimizedAffinity -4.48378706
REMARK minimizedRMSD -1
REMARK  0 active torsions:
REMARK  status: ('A' for Active; 'I' for Inactive)
ROOT
ATOM      1  N1  IND d   1       0.066  -0.923  -1.595  0.00  0.00    -0.196 N 
ATOM      2  C2  IND d   1      -0.720   0.171  -1.358  0.00  0.00     0.054 A 
ATOM      3  C3  IND d   1      -0.233   0.884  -0.318  0.00  0.00    -0.031 A 
ATOM      4  C4  IND d   1       1.896   0.496   1.076  0.00  0.00     0.051 A 
ATOM      5  C5  IND d   1       2.918  -0.393   1.257  0.00  0.00    -0.031 A 
ATOM      6  C6  IND d   1       3.046  -1.526   0.479  0.00  0.00     0.015 A 
ATOM      7  C7  IND d   1       2.158  -1.807  -0.521  0.00  0.00    -0.016 A 
ATOM      8  C8  IND d   1       1.115  -0.910  -0.703  0.00  0.00    -0.047 A 
ATOM      9  C9  IND d   1       0.957   0.220   0.111  0.00  0.00    -0.096 A 
ATOM     10  HN1 IND d   1      -0.073  -1.518  -2.200  0.00  0.00     0.298 HD
ENDROOT
TORSDOF 0
ENDMDL
