MODEL 1
REMARK minimizedAffinity 7.41357088
REMARK minimizedRMSD -1
REMARK  0 active torsions:
REMARK  status: ('A' for Active; 'I' for Inactive)
ROOT
ATOM      1  N1  IND d   1       1.530   2.337   0.461  0.00  0.00    -0.196 N 
ATOM      2  C2  IND d   1       0.313   2.959   0.464  0.00  0.00     0.054 A 
ATOM      3  C3  IND d   1      -0.660   2.091   0.107  0.00  0.00    -0.031 A 
ATOM      4  C4  IND d   1      -0.494  -0.421  -0.428  0.00  0.00     0.051 A 
ATOM      5  C5  IND d   1       0.413  -1.429  -0.598  0.00  0.00    -0.031 A 
ATOM      6  C6  IND d   1       1.767  -1.230  -0.417  0.00  0.00     0.015 A 
ATOM      7  C7  IND d   1       2.264  -0.012  -0.047  0.00  0.00    -0.016 A 
ATOM      8  C8  IND d   1       1.346   1.015   0.119  0.00  0.00    -0.047 A 
ATOM      9  C9  IND d   1      -0.024   0.829  -0.104  0.00  0.00    -0.096 A 
ATOM     10  HN1 IND d   1       2.284   2.709   0.641  0.00  0.00     0.298 HD
ENDROOT
TORSDOF 0
ENDMDL
