MODEL 1
REMARK minimizedAffinity -0.705815673
REMARK minimizedRMSD -1
REMARK  0 active torsions:
REMARK  status: ('A' for Active; 'I' for Inactive)
ROOT
ATOM      1  N1  IND d   1       0.425   0.015  -1.346  0.00  0.00    -0.196 N 
ATOM      2  C2  IND d   1       0.540  -1.326  -1.586  0.00  0.00     0.054 A 
ATOM      3  C3  IND d   1       1.443  -1.879  -0.746  0.00  0.00    -0.031 A 
ATOM      4  C4  IND d   1       2.776  -0.789   1.169  0.00  0.00     0.051 A 
ATOM      5  C5  IND d   1       3.033   0.421   1.750  0.00  0.00    -0.031 A 
ATOM      6  C6  IND d   1       2.420   1.580   1.321  0.00  0.00     0.015 A 
ATOM      7  C7  IND d   1       1.514   1.571   0.299  0.00  0.00    -0.016 A 
ATOM      8  C8  IND d   1       1.255   0.345  -0.298  0.00  0.00    -0.047 A 
ATOM      9  C9  IND d   1       1.906  -0.828   0.105  0.00  0.00    -0.096 A 
ATOM     10  HN1 IND d   1      -0.081   0.560  -1.777  0.00  0.00     0.298 HD
ENDROOT
TORSDOF 0
ENDMDL
