MODEL 1
REMARK minimizedAffinity -0.132278726
REMARK minimizedRMSD -1
REMARK  0 active torsions:
REMARK  status: ('A' for Active; 'I' for Inactive)
ROOT
ATOM      1  N1  IND d   1      -0.820   0.193  -1.054  0.00  0.00    -0.196 N 
ATOM      2  C2  IND d   1      -0.931  -1.153  -1.264  0.00  0.00     0.054 A 
ATOM      3  C3  IND d   1       0.056  -1.812  -0.617  0.00  0.00    -0.031 A 
ATOM      4  C4  IND d   1       1.899  -0.892   0.927  0.00  0.00     0.051 A 
ATOM      5  C5  IND d   1       2.427   0.278   1.395  0.00  0.00    -0.031 A 
ATOM      6  C6  IND d   1       1.888   1.505   1.066  0.00  0.00     0.015 A 
ATOM      7  C7  IND d   1       0.788   1.606   0.262  0.00  0.00    -0.016 A 
ATOM      8  C8  IND d   1       0.253   0.420  -0.220  0.00  0.00    -0.047 A 
ATOM      9  C9  IND d   1       0.821  -0.825   0.076  0.00  0.00    -0.096 A 
ATOM     10  HN1 IND d   1      -1.335   0.797  -1.386  0.00  0.00     0.298 HD
ENDROOT
TORSDOF 0
ENDMDL
