MODEL 1
REMARK minimizedAffinity -4.93218899
REMARK minimizedRMSD -1
REMARK  1 active torsions:
REMARK  status: ('A' for Active; 'I' for Inactive)
REMARK    1  A    between atoms: C1_2  and  C2_3 
ROOT
ATOM      1  C2  UNL d   1       0.771   0.650   0.955  0.00  0.00    -0.081 A 
ATOM      2  C3  UNL d   1       1.277  -0.500   0.336  0.00  0.00     0.006 A 
ATOM      3  C4  UNL d   1       0.465  -1.267  -0.503  0.00  0.00     0.002 A 
ATOM      4  C5  UNL d   1      -0.861  -0.893  -0.744  0.00  0.00    -0.080 A 
ATOM      5  C6  UNL d   1      -1.734  -1.691  -1.667  0.00  0.00     0.076 C 
ATOM      6  C7  UNL d   1      -1.371   0.246  -0.112  0.00  0.00     0.002 A 
ATOM      7  C8  UNL d   1      -0.561   1.013   0.728  0.00  0.00     0.006 A 
ENDROOT
BRANCH   1   8
ATOM      8  C1  UNL d   1       1.663   1.515   1.809  0.00  0.00     0.054 C 
ATOM      9  C   UNL d   1       2.926   1.916   1.061  0.00  0.00     0.018 C 
ENDBRANCH   1   8
TORSDOF 1
ENDMDL
