MODEL 1
REMARK minimizedAffinity -2.56557465
REMARK minimizedRMSD -1
REMARK  1 active torsions:
REMARK  status: ('A' for Active; 'I' for Inactive)
REMARK    1  A    between atoms: C1_2  and  C2_3 
ROOT
ATOM      1  C2  UNL d   1       0.833   0.916   0.670  0.00  0.00    -0.081 A 
ATOM      2  C3  UNL d   1      -0.532   1.125   0.437  0.00  0.00     0.006 A 
ATOM      3  C4  UNL d   1      -1.251   0.255  -0.387  0.00  0.00     0.002 A 
ATOM      4  C5  UNL d   1      -0.620  -0.842  -0.983  0.00  0.00    -0.080 A 
ATOM      5  C6  UNL d   1      -1.387  -1.800  -1.845  0.00  0.00     0.076 C 
ATOM      6  C7  UNL d   1       0.747  -1.041  -0.764  0.00  0.00     0.002 A 
ATOM      7  C8  UNL d   1       1.467  -0.171   0.058  0.00  0.00     0.006 A 
ENDROOT
BRANCH   1   8
ATOM      8  C1  UNL d   1       1.596   1.814   1.609  0.00  0.00     0.054 C 
ATOM      9  C   UNL d   1       3.098   1.604   1.477  0.00  0.00     0.018 C 
ENDBRANCH   1   8
TORSDOF 1
ENDMDL
