MODEL 1
REMARK minimizedAffinity -4.69224691
REMARK minimizedRMSD -1
REMARK  1 active torsions:
REMARK  status: ('A' for Active; 'I' for Inactive)
REMARK    1  A    between atoms: C1_2  and  C2_3 
ROOT
ATOM      1  C2  UNL d   1       0.392   0.213   0.535  0.00  0.00    -0.081 A 
ATOM      2  C3  UNL d   1       0.122   0.867   1.743  0.00  0.00     0.006 A 
ATOM      3  C4  UNL d   1       0.892   1.961   2.144  0.00  0.00     0.002 A 
ATOM      4  C5  UNL d   1       1.940   2.424   1.341  0.00  0.00    -0.080 A 
ATOM      5  C6  UNL d   1       2.755   3.616   1.746  0.00  0.00     0.076 C 
ATOM      6  C7  UNL d   1       2.221   1.760   0.142  0.00  0.00     0.002 A 
ATOM      7  C8  UNL d   1       1.452   0.666  -0.259  0.00  0.00     0.006 A 
ENDROOT
BRANCH   1   8
ATOM      8  C1  UNL d   1      -0.477  -0.926   0.068  0.00  0.00     0.054 C 
ATOM      9  C   UNL d   1      -0.664  -0.897  -1.442  0.00  0.00     0.018 C 
ENDBRANCH   1   8
TORSDOF 1
ENDMDL
