MODEL 1
REMARK minimizedAffinity -0.0531392284
REMARK minimizedRMSD -1
REMARK  1 active torsions:
REMARK  status: ('A' for Active; 'I' for Inactive)
REMARK    1  A    between atoms: C1_2  and  C2_3 
ROOT
ATOM      1  C2  UNL d   1      -1.099  -1.090  -0.618  0.00  0.00    -0.081 A 
ATOM      2  C3  UNL d   1       0.233  -1.188  -0.196  0.00  0.00     0.006 A 
ATOM      3  C4  UNL d   1       0.829  -0.143   0.516  0.00  0.00     0.002 A 
ATOM      4  C5  UNL d   1       0.101   1.011   0.824  0.00  0.00    -0.080 A 
ATOM      5  C6  UNL d   1       0.720   2.126   1.613  0.00  0.00     0.076 C 
ATOM      6  C7  UNL d   1      -1.224   1.116   0.387  0.00  0.00     0.002 A 
ATOM      7  C8  UNL d   1      -1.820   0.073  -0.325  0.00  0.00     0.006 A 
ENDROOT
BRANCH   1   8
ATOM      8  C1  UNL d   1      -1.763  -2.241  -1.329  0.00  0.00     0.054 C 
ATOM      9  C   UNL d   1      -2.541  -1.764  -2.547  0.00  0.00     0.018 C 
ENDBRANCH   1   8
TORSDOF 1
ENDMDL
