MODEL 1
REMARK minimizedAffinity 3.24749565
REMARK minimizedRMSD -1
REMARK  1 active torsions:
REMARK  status: ('A' for Active; 'I' for Inactive)
REMARK    1  A    between atoms: C1_2  and  C2_3 
ROOT
ATOM      1  C2  UNL d   1       0.229  -0.164  -0.136  0.00  0.00    -0.081 A 
ATOM      2  C3  UNL d   1      -0.986   0.458  -0.448  0.00  0.00     0.006 A 
ATOM      3  C4  UNL d   1      -1.843   0.887   0.568  0.00  0.00     0.002 A 
ATOM      4  C5  UNL d   1      -1.496   0.709   1.911  0.00  0.00    -0.080 A 
ATOM      5  C6  UNL d   1      -2.393   1.193   3.012  0.00  0.00     0.076 C 
ATOM      6  C7  UNL d   1      -0.290   0.072   2.223  0.00  0.00     0.002 A 
ATOM      7  C8  UNL d   1       0.567  -0.358   1.207  0.00  0.00     0.006 A 
ENDROOT
BRANCH   1   8
ATOM      8  C1  UNL d   1       1.185  -0.569  -1.229  0.00  0.00     0.054 C 
ATOM      9  C   UNL d   1       2.618  -0.628  -0.718  0.00  0.00     0.018 C 
ENDBRANCH   1   8
TORSDOF 1
ENDMDL
