MODEL 1
REMARK minimizedAffinity -5.25631952
REMARK minimizedRMSD -1
REMARK  1 active torsions:
REMARK  status: ('A' for Active; 'I' for Inactive)
REMARK    1  A    between atoms: C1_2  and  C2_3 
ROOT
ATOM      1  C2  UNL d   1      -0.323  -0.735  -0.226  0.00  0.00    -0.081 A 
ATOM      2  C3  UNL d   1      -0.759   0.300   0.610  0.00  0.00     0.006 A 
ATOM      3  C4  UNL d   1       0.143   1.256   1.083  0.00  0.00     0.002 A 
ATOM      4  C5  UNL d   1       1.493   1.198   0.722  0.00  0.00    -0.080 A 
ATOM      5  C6  UNL d   1       2.466   2.236   1.198  0.00  0.00     0.076 C 
ATOM      6  C7  UNL d   1       1.932   0.154  -0.099  0.00  0.00     0.002 A 
ATOM      7  C8  UNL d   1       1.031  -0.803  -0.572  0.00  0.00     0.006 A 
ENDROOT
BRANCH   1   8
ATOM      8  C1  UNL d   1      -1.305  -1.731  -0.790  0.00  0.00     0.054 C 
ATOM      9  C   UNL d   1      -1.563  -1.477  -2.268  0.00  0.00     0.018 C 
ENDBRANCH   1   8
TORSDOF 1
ENDMDL
