MODEL 1
REMARK minimizedAffinity -1.41051948
REMARK minimizedRMSD -1
REMARK  1 active torsions:
REMARK  status: ('A' for Active; 'I' for Inactive)
REMARK    1  A    between atoms: C1_2  and  C2_3 
ROOT
ATOM      1  C2  UNL d   1      -0.336  -0.341  -1.639  0.00  0.00    -0.081 A 
ATOM      2  C3  UNL d   1      -1.358   0.208  -0.855  0.00  0.00     0.006 A 
ATOM      3  C4  UNL d   1      -1.092   0.662   0.439  0.00  0.00     0.002 A 
ATOM      4  C5  UNL d   1       0.201   0.583   0.967  0.00  0.00    -0.080 A 
ATOM      5  C6  UNL d   1       0.507   1.095   2.343  0.00  0.00     0.076 C 
ATOM      6  C7  UNL d   1       1.219   0.018   0.190  0.00  0.00     0.002 A 
ATOM      7  C8  UNL d   1       0.953  -0.437  -1.103  0.00  0.00     0.006 A 
ENDROOT
BRANCH   1   8
ATOM      8  C1  UNL d   1      -0.607  -0.772  -3.058  0.00  0.00     0.054 C 
ATOM      9  C   UNL d   1      -2.100  -0.809  -3.350  0.00  0.00     0.018 C 
ENDBRANCH   1   8
TORSDOF 1
ENDMDL
