MODEL 1
REMARK minimizedAffinity -1.55230868
REMARK minimizedRMSD -1
REMARK  1 active torsions:
REMARK  status: ('A' for Active; 'I' for Inactive)
REMARK    1  A    between atoms: C1_2  and  C2_3 
ROOT
ATOM      1  C2  UNL d   1       0.220   0.780   1.320  0.00  0.00    -0.081 A 
ATOM      2  C3  UNL d   1       0.175   0.851  -0.078  0.00  0.00     0.006 A 
ATOM      3  C4  UNL d   1      -0.386  -0.189  -0.823  0.00  0.00     0.002 A 
ATOM      4  C5  UNL d   1      -0.918  -1.313  -0.182  0.00  0.00    -0.080 A 
ATOM      5  C6  UNL d   1      -1.551  -2.423  -0.968  0.00  0.00     0.076 C 
ATOM      6  C7  UNL d   1      -0.858  -1.392   1.213  0.00  0.00     0.002 A 
ATOM      7  C8  UNL d   1      -0.296  -0.353   1.958  0.00  0.00     0.006 A 
ENDROOT
BRANCH   1   8
ATOM      8  C1  UNL d   1       0.766   1.929   2.128  0.00  0.00     0.054 C 
ATOM      9  C   UNL d   1       2.247   2.145   1.853  0.00  0.00     0.018 C 
ENDBRANCH   1   8
TORSDOF 1
ENDMDL
