MODEL 1
REMARK minimizedAffinity -3.36959553
REMARK minimizedRMSD -1
REMARK  1 active torsions:
REMARK  status: ('A' for Active; 'I' for Inactive)
REMARK    1  A    between atoms: C1_2  and  C2_3 
ROOT
ATOM      1  C2  UNL d   1      -1.048  -0.825  -1.188  0.00  0.00    -0.081 A 
ATOM      2  C3  UNL d   1       0.234  -0.979  -0.646  0.00  0.00     0.006 A 
ATOM      3  C4  UNL d   1       0.699  -0.097   0.333  0.00  0.00     0.002 A 
ATOM      4  C5  UNL d   1      -0.111   0.947   0.790  0.00  0.00    -0.080 A 
ATOM      5  C6  UNL d   1       0.365   1.883   1.862  0.00  0.00     0.076 C 
ATOM      6  C7  UNL d   1      -1.385   1.112   0.236  0.00  0.00     0.002 A 
ATOM      7  C8  UNL d   1      -1.851   0.231  -0.743  0.00  0.00     0.006 A 
ENDROOT
BRANCH   1   8
ATOM      8  C1  UNL d   1      -1.577  -1.813  -2.197  0.00  0.00     0.054 C 
ATOM      9  C   UNL d   1      -3.049  -1.565  -2.494  0.00  0.00     0.018 C 
ENDBRANCH   1   8
TORSDOF 1
ENDMDL
