MODEL 1
REMARK minimizedAffinity -1.76292384
REMARK minimizedRMSD -1
REMARK  3 active torsions:
REMARK  status: ('A' for Active; 'I' for Inactive)
REMARK    1  A    between atoms: C3'_2  and  C2'_3 
REMARK    2  A    between atoms: C2'_3  and  C1'_4 
REMARK    3  A    between atoms: C1'_4  and  C1_5 
ROOT
ATOM      1  C1  N4B d   1      -1.548   0.182  -1.930  0.00  0.00    -0.075 A 
ATOM      2  C2  N4B d   1      -1.790   0.156  -0.539  0.00  0.00     0.002 A 
ATOM      3  C3  N4B d   1      -0.785  -0.204   0.325  0.00  0.00     0.002 A 
ATOM      4  C4  N4B d   1       0.458  -0.559  -0.177  0.00  0.00    -0.004 A 
ATOM      5  C5  N4B d   1       0.690  -0.507  -1.521  0.00  0.00     0.002 A 
ATOM      6  C6  N4B d   1      -0.309  -0.143  -2.401  0.00  0.00     0.002 A 
ENDROOT
BRANCH   1   7
ATOM      7  C1' N4B d   1      -2.640   0.486  -2.920  0.00  0.00     0.057 C 
BRANCH   7   8
ATOM      8  C2' N4B d   1      -3.801   1.159  -2.194  0.00  0.00     0.009 C 
BRANCH   8   9
ATOM      9  C3' N4B d   1      -4.308   2.379  -2.943  0.00  0.00     0.004 C 
ATOM     10  C4' N4B d   1      -5.343   3.144  -2.173  0.00  0.00     0.003 C 
ENDBRANCH   8   9
ENDBRANCH   7   8
ENDBRANCH   1   7
TORSDOF 3
ENDMDL
