MODEL 1
REMARK minimizedAffinity -5.90275669
REMARK minimizedRMSD -1
REMARK  3 active torsions:
REMARK  status: ('A' for Active; 'I' for Inactive)
REMARK    1  A    between atoms: C3'_2  and  C2'_3 
REMARK    2  A    between atoms: C2'_3  and  C1'_4 
REMARK    3  A    between atoms: C1'_4  and  C1_5 
ROOT
ATOM      1  C1  N4B d   1       0.349   1.517  -0.128  0.00  0.00    -0.075 A 
ATOM      2  C2  N4B d   1       0.649   2.861   0.187  0.00  0.00     0.002 A 
ATOM      3  C3  N4B d   1       1.956   3.266   0.296  0.00  0.00     0.002 A 
ATOM      4  C4  N4B d   1       2.977   2.345   0.114  0.00  0.00    -0.004 A 
ATOM      5  C5  N4B d   1       2.680   1.055  -0.215  0.00  0.00     0.002 A 
ATOM      6  C6  N4B d   1       1.370   0.635  -0.332  0.00  0.00     0.002 A 
ENDROOT
BRANCH   1   7
ATOM      7  C1' N4B d   1      -1.065   1.009  -0.173  0.00  0.00     0.057 C 
BRANCH   7   8
ATOM      8  C2' N4B d   1      -1.427   0.661  -1.614  0.00  0.00     0.009 C 
BRANCH   8   9
ATOM      9  C3' N4B d   1      -2.689   1.373  -2.071  0.00  0.00     0.004 C 
ATOM     10  C4' N4B d   1      -2.404   2.541  -2.968  0.00  0.00     0.003 C 
ENDBRANCH   8   9
ENDBRANCH   7   8
ENDBRANCH   1   7
TORSDOF 3
ENDMDL
