MODEL 1
REMARK minimizedAffinity -0.573819458
REMARK minimizedRMSD -1
REMARK  3 active torsions:
REMARK  status: ('A' for Active; 'I' for Inactive)
REMARK    1  A    between atoms: C3'_2  and  C2'_3 
REMARK    2  A    between atoms: C2'_3  and  C1'_4 
REMARK    3  A    between atoms: C1'_4  and  C1_5 
ROOT
ATOM      1  C1  N4B d   1      -1.742   1.036  -1.509  0.00  0.00    -0.075 A 
ATOM      2  C2  N4B d   1      -0.891   1.381  -2.581  0.00  0.00     0.002 A 
ATOM      3  C3  N4B d   1      -1.396   1.481  -3.854  0.00  0.00     0.002 A 
ATOM      4  C4  N4B d   1      -2.740   1.222  -4.081  0.00  0.00    -0.004 A 
ATOM      5  C5  N4B d   1      -3.560   0.914  -3.036  0.00  0.00     0.002 A 
ATOM      6  C6  N4B d   1      -3.067   0.814  -1.750  0.00  0.00     0.002 A 
ENDROOT
BRANCH   1   7
ATOM      7  C1' N4B d   1      -1.218   0.830  -0.113  0.00  0.00     0.057 C 
BRANCH   7   8
ATOM      8  C2' N4B d   1      -0.056  -0.157  -0.155  0.00  0.00     0.009 C 
BRANCH   8   9
ATOM      9  C3' N4B d   1      -0.145  -1.188   0.957  0.00  0.00     0.004 C 
ATOM     10  C4' N4B d   1      -1.133  -0.811   2.020  0.00  0.00     0.003 C 
ENDBRANCH   8   9
ENDBRANCH   7   8
ENDBRANCH   1   7
TORSDOF 3
ENDMDL
