MODEL 1
REMARK minimizedAffinity -4.06888485
REMARK minimizedRMSD -1
REMARK  3 active torsions:
REMARK  status: ('A' for Active; 'I' for Inactive)
REMARK    1  A    between atoms: C3'_2  and  C2'_3 
REMARK    2  A    between atoms: C2'_3  and  C1'_4 
REMARK    3  A    between atoms: C1'_4  and  C1_5 
ROOT
ATOM      1  C1  N4B d   1      -1.709   0.258  -2.719  0.00  0.00    -0.075 A 
ATOM      2  C2  N4B d   1      -3.087   0.376  -3.005  0.00  0.00     0.002 A 
ATOM      3  C3  N4B d   1      -3.560   1.489  -3.656  0.00  0.00     0.002 A 
ATOM      4  C4  N4B d   1      -2.681   2.501  -4.011  0.00  0.00    -0.004 A 
ATOM      5  C5  N4B d   1      -1.348   2.367  -3.754  0.00  0.00     0.002 A 
ATOM      6  C6  N4B d   1      -0.858   1.252  -3.105  0.00  0.00     0.002 A 
ENDROOT
BRANCH   1   7
ATOM      7  C1' N4B d   1      -1.158  -0.901  -1.934  0.00  0.00     0.057 C 
BRANCH   7   8
ATOM      8  C2' N4B d   1      -0.491  -0.375  -0.667  0.00  0.00     0.009 C 
BRANCH   8   9
ATOM      9  C3' N4B d   1       0.162  -1.488   0.135  0.00  0.00     0.004 C 
ATOM     10  C4' N4B d   1       1.488  -1.088   0.710  0.00  0.00     0.003 C 
ENDBRANCH   8   9
ENDBRANCH   7   8
ENDBRANCH   1   7
TORSDOF 3
ENDMDL
