MODEL 1
REMARK minimizedAffinity -4.30038929
REMARK minimizedRMSD -1
REMARK  3 active torsions:
REMARK  status: ('A' for Active; 'I' for Inactive)
REMARK    1  A    between atoms: C3'_2  and  C2'_3 
REMARK    2  A    between atoms: C2'_3  and  C1'_4 
REMARK    3  A    between atoms: C1'_4  and  C1_5 
ROOT
ATOM      1  C1  N4B d   1       0.220  -0.183  -0.119  0.00  0.00    -0.075 A 
ATOM      2  C2  N4B d   1       1.400  -0.277   0.651  0.00  0.00     0.002 A 
ATOM      3  C3  N4B d   1       2.072  -1.471   0.734  0.00  0.00     0.002 A 
ATOM      4  C4  N4B d   1       1.576  -2.585   0.074  0.00  0.00    -0.004 A 
ATOM      5  C5  N4B d   1       0.450  -2.480  -0.689  0.00  0.00     0.002 A 
ATOM      6  C6  N4B d   1      -0.234  -1.285  -0.785  0.00  0.00     0.002 A 
ENDROOT
BRANCH   1   7
ATOM      7  C1' N4B d   1      -0.597   1.079  -0.170  0.00  0.00     0.057 C 
BRANCH   7   8
ATOM      8  C2' N4B d   1      -1.941   0.779  -0.826  0.00  0.00     0.009 C 
BRANCH   8   9
ATOM      9  C3' N4B d   1      -2.343   1.858  -1.818  0.00  0.00     0.004 C 
ATOM     10  C4' N4B d   1      -1.198   2.319  -2.670  0.00  0.00     0.003 C 
ENDBRANCH   8   9
ENDBRANCH   7   8
ENDBRANCH   1   7
TORSDOF 3
ENDMDL
