MODEL 1
REMARK minimizedAffinity -2.55179095
REMARK minimizedRMSD -1
REMARK  3 active torsions:
REMARK  status: ('A' for Active; 'I' for Inactive)
REMARK    1  A    between atoms: C3'_2  and  C2'_3 
REMARK    2  A    between atoms: C2'_3  and  C1'_4 
REMARK    3  A    between atoms: C1'_4  and  C1_5 
ROOT
ATOM      1  C1  N4B d   1      -0.034  -1.551   0.752  0.00  0.00    -0.075 A 
ATOM      2  C2  N4B d   1      -0.980  -1.545   1.801  0.00  0.00     0.002 A 
ATOM      3  C3  N4B d   1      -1.696  -0.405   2.073  0.00  0.00     0.002 A 
ATOM      4  C4  N4B d   1      -1.470   0.741   1.327  0.00  0.00    -0.004 A 
ATOM      5  C5  N4B d   1      -0.573   0.720   0.299  0.00  0.00     0.002 A 
ATOM      6  C6  N4B d   1       0.151  -0.420   0.012  0.00  0.00     0.002 A 
ENDROOT
BRANCH   1   7
ATOM      7  C1' N4B d   1       0.834  -2.747   0.472  0.00  0.00     0.057 C 
BRANCH   7   8
ATOM      8  C2' N4B d   1       1.929  -2.831   1.532  0.00  0.00     0.009 C 
BRANCH   8   9
ATOM      9  C3' N4B d   1       2.774  -1.570   1.577  0.00  0.00     0.004 C 
ATOM     10  C4' N4B d   1       3.308  -1.277   2.947  0.00  0.00     0.003 C 
ENDBRANCH   8   9
ENDBRANCH   7   8
ENDBRANCH   1   7
TORSDOF 3
ENDMDL
