MODEL 1
REMARK minimizedAffinity -4.39333153
REMARK minimizedRMSD -1
REMARK  3 active torsions:
REMARK  status: ('A' for Active; 'I' for Inactive)
REMARK    1  A    between atoms: C3'_2  and  C2'_3 
REMARK    2  A    between atoms: C2'_3  and  C1'_4 
REMARK    3  A    between atoms: C1'_4  and  C1_5 
ROOT
ATOM      1  C1  N4B d   1       0.806   1.705  -0.240  0.00  0.00    -0.075 A 
ATOM      2  C2  N4B d   1       0.789   3.055   0.176  0.00  0.00     0.002 A 
ATOM      3  C3  N4B d   1       1.938   3.805   0.121  0.00  0.00     0.002 A 
ATOM      4  C4  N4B d   1       3.115   3.225  -0.327  0.00  0.00    -0.004 A 
ATOM      5  C5  N4B d   1       3.117   1.929  -0.752  0.00  0.00     0.002 A 
ATOM      6  C6  N4B d   1       1.969   1.164  -0.706  0.00  0.00     0.002 A 
ENDROOT
BRANCH   1   7
ATOM      7  C1' N4B d   1      -0.404   0.821  -0.118  0.00  0.00     0.057 C 
BRANCH   7   8
ATOM      8  C2' N4B d   1       0.007  -0.628  -0.362  0.00  0.00     0.009 C 
BRANCH   8   9
ATOM      9  C3' N4B d   1      -0.295  -1.514   0.834  0.00  0.00     0.004 C 
ATOM     10  C4' N4B d   1      -1.000  -0.781   1.936  0.00  0.00     0.003 C 
ENDBRANCH   8   9
ENDBRANCH   7   8
ENDBRANCH   1   7
TORSDOF 3
ENDMDL
