MODEL 1
REMARK minimizedAffinity -5.06755447
REMARK minimizedRMSD -1
REMARK  3 active torsions:
REMARK  status: ('A' for Active; 'I' for Inactive)
REMARK    1  A    between atoms: C3'_2  and  C2'_3 
REMARK    2  A    between atoms: C2'_3  and  C1'_4 
REMARK    3  A    between atoms: C1'_4  and  C1_5 
ROOT
ATOM      1  C1  N4B d   1       2.045   1.934  -0.132  0.00  0.00    -0.075 A 
ATOM      2  C2  N4B d   1       1.157   2.932   0.323  0.00  0.00     0.002 A 
ATOM      3  C3  N4B d   1       1.582   4.234   0.427  0.00  0.00     0.002 A 
ATOM      4  C4  N4B d   1       2.891   4.556   0.101  0.00  0.00    -0.004 A 
ATOM      5  C5  N4B d   1       3.735   3.590  -0.363  0.00  0.00     0.002 A 
ATOM      6  C6  N4B d   1       3.320   2.278  -0.476  0.00  0.00     0.002 A 
ENDROOT
BRANCH   1   7
ATOM      7  C1' N4B d   1       1.651   0.483  -0.181  0.00  0.00     0.057 C 
BRANCH   7   8
ATOM      8  C2' N4B d   1       0.130   0.375  -0.146  0.00  0.00     0.009 C 
BRANCH   8   9
ATOM      9  C3' N4B d   1      -0.343  -0.683   0.835  0.00  0.00     0.004 C 
ATOM     10  C4' N4B d   1      -1.325  -0.151   1.836  0.00  0.00     0.003 C 
ENDBRANCH   8   9
ENDBRANCH   7   8
ENDBRANCH   1   7
TORSDOF 3
ENDMDL
