MODEL 1
REMARK minimizedAffinity 1.34423757
REMARK minimizedRMSD -1
REMARK  0 active torsions:
REMARK  status: ('A' for Active; 'I' for Inactive)
ROOT
ATOM      1  O1  BZF d   1       3.342  -0.591   0.956  0.00  0.00    -0.204 OA
ATOM      2  C2  BZF d   1       3.670   0.744   0.818  0.00  0.00     0.174 A 
ATOM      3  C3  BZF d   1       3.059   1.487   1.763  0.00  0.00    -0.012 A 
ATOM      4  C3A BZF d   1       2.375   0.547   2.597  0.00  0.00    -0.107 A 
ATOM      5  C4  BZF d   1       1.602   0.673   3.716  0.00  0.00     0.055 A 
ATOM      6  C5  BZF d   1       1.022  -0.435   4.247  0.00  0.00    -0.016 A 
ATOM      7  C6  BZF d   1       1.190  -1.683   3.682  0.00  0.00     0.022 A 
ATOM      8  C7  BZF d   1       1.952  -1.859   2.575  0.00  0.00     0.029 A 
ATOM      9  C7A BZF d   1       2.566  -0.745   2.056  0.00  0.00     0.058 A 
ENDROOT
TORSDOF 0
ENDMDL
