MODEL 1
REMARK minimizedAffinity 5.82934046
REMARK minimizedRMSD -1
REMARK  0 active torsions:
REMARK  status: ('A' for Active; 'I' for Inactive)
ROOT
ATOM      1  O1  BZF d   1       2.318  -5.999  -2.338  0.00  0.00    -0.204 OA
ATOM      2  C2  BZF d   1       3.571  -5.842  -2.899  0.00  0.00     0.174 A 
ATOM      3  C3  BZF d   1       4.496  -5.608  -1.946  0.00  0.00    -0.012 A 
ATOM      4  C3A BZF d   1       3.792  -5.712  -0.705  0.00  0.00    -0.107 A 
ATOM      5  C4  BZF d   1       4.172  -5.597   0.602  0.00  0.00     0.055 A 
ATOM      6  C5  BZF d   1       3.226  -5.681   1.574  0.00  0.00    -0.016 A 
ATOM      7  C6  BZF d   1       1.893  -5.874   1.276  0.00  0.00     0.022 A 
ATOM      8  C7  BZF d   1       1.470  -5.999  -0.005  0.00  0.00     0.029 A 
ATOM      9  C7A BZF d   1       2.427  -5.948  -0.988  0.00  0.00     0.058 A 
ENDROOT
TORSDOF 0
ENDMDL
