MODEL 1
REMARK minimizedAffinity 10.41397
REMARK minimizedRMSD -1
REMARK  0 active torsions:
REMARK  status: ('A' for Active; 'I' for Inactive)
ROOT
ATOM      1  O1  BZF d   1       2.425   5.126  -0.945  0.00  0.00    -0.204 OA
ATOM      2  C2  BZF d   1       1.828   5.747  -2.025  0.00  0.00     0.174 A 
ATOM      3  C3  BZF d   1       0.684   5.119  -2.366  0.00  0.00    -0.012 A 
ATOM      4  C3A BZF d   1       0.511   4.093  -1.383  0.00  0.00    -0.107 A 
ATOM      5  C4  BZF d   1      -0.449   3.145  -1.175  0.00  0.00     0.055 A 
ATOM      6  C5  BZF d   1      -0.285   2.248  -0.167  0.00  0.00    -0.016 A 
ATOM      7  C6  BZF d   1       0.829   2.267   0.647  0.00  0.00     0.022 A 
ATOM      8  C7  BZF d   1       1.806   3.192   0.482  0.00  0.00     0.029 A 
ATOM      9  C7A BZF d   1       1.626   4.120  -0.514  0.00  0.00     0.058 A 
ENDROOT
TORSDOF 0
ENDMDL
