MODEL 1
REMARK minimizedAffinity -2.66968107
REMARK minimizedRMSD -1
REMARK  0 active torsions:
REMARK  status: ('A' for Active; 'I' for Inactive)
ROOT
ATOM      1  O1  BZF d   1       3.300  -5.671  -6.000  0.00  0.00    -0.204 OA
ATOM      2  C2  BZF d   1       1.929  -5.782  -5.876  0.00  0.00     0.174 A 
ATOM      3  C3  BZF d   1       1.578  -5.979  -4.589  0.00  0.00    -0.012 A 
ATOM      4  C3A BZF d   1       2.801  -5.899  -3.850  0.00  0.00    -0.107 A 
ATOM      5  C4  BZF d   1       3.103  -5.998  -2.522  0.00  0.00     0.055 A 
ATOM      6  C5  BZF d   1       4.405  -5.947  -2.135  0.00  0.00    -0.016 A 
ATOM      7  C6  BZF d   1       5.429  -5.804  -3.049  0.00  0.00     0.022 A 
ATOM      8  C7  BZF d   1       5.178  -5.698  -4.377  0.00  0.00     0.029 A 
ATOM      9  C7A BZF d   1       3.861  -5.715  -4.767  0.00  0.00     0.058 A 
ENDROOT
TORSDOF 0
ENDMDL
