MODEL 1
REMARK minimizedAffinity 2.12331796
REMARK minimizedRMSD -1
REMARK  0 active torsions:
REMARK  status: ('A' for Active; 'I' for Inactive)
ROOT
ATOM      1  O1  BZF d   1       2.142  -5.994  -4.831  0.00  0.00    -0.204 OA
ATOM      2  C2  BZF d   1       2.880  -5.999  -5.999  0.00  0.00     0.174 A 
ATOM      3  C3  BZF d   1       4.199  -5.928  -5.732  0.00  0.00    -0.012 A 
ATOM      4  C3A BZF d   1       4.297  -5.969  -4.305  0.00  0.00    -0.107 A 
ATOM      5  C4  BZF d   1       5.349  -5.949  -3.435  0.00  0.00     0.055 A 
ATOM      6  C5  BZF d   1       5.101  -5.927  -2.099  0.00  0.00    -0.016 A 
ATOM      7  C6  BZF d   1       3.815  -5.920  -1.599  0.00  0.00     0.022 A 
ATOM      8  C7  BZF d   1       2.739  -5.945  -2.423  0.00  0.00     0.029 A 
ATOM      9  C7A BZF d   1       2.987  -6.000  -3.773  0.00  0.00     0.058 A 
ENDROOT
TORSDOF 0
ENDMDL
