MODEL 1
REMARK minimizedAffinity 2.05051923
REMARK minimizedRMSD -1
REMARK  0 active torsions:
REMARK  status: ('A' for Active; 'I' for Inactive)
ROOT
ATOM      1  O1  BZF d   1       1.986  -3.224   2.333  0.00  0.00    -0.204 OA
ATOM      2  C2  BZF d   1       1.726  -3.863   3.530  0.00  0.00     0.174 A 
ATOM      3  C3  BZF d   1       1.691  -2.977   4.547  0.00  0.00    -0.012 A 
ATOM      4  C3A BZF d   1       1.853  -1.694   3.935  0.00  0.00    -0.107 A 
ATOM      5  C4  BZF d   1       1.886  -0.419   4.422  0.00  0.00     0.055 A 
ATOM      6  C5  BZF d   1       2.133   0.608   3.567  0.00  0.00    -0.016 A 
ATOM      7  C6  BZF d   1       2.355   0.396   2.222  0.00  0.00     0.022 A 
ATOM      8  C7  BZF d   1       2.326  -0.850   1.692  0.00  0.00     0.029 A 
ATOM      9  C7A BZF d   1       2.045  -1.887   2.547  0.00  0.00     0.058 A 
ENDROOT
TORSDOF 0
ENDMDL
