MODEL 1
REMARK minimizedAffinity 4.47673368
REMARK minimizedRMSD -1
REMARK  0 active torsions:
REMARK  status: ('A' for Active; 'I' for Inactive)
ROOT
ATOM      1  O1  BZF d   1       5.691  -1.588   2.963  0.00  0.00    -0.204 OA
ATOM      2  C2  BZF d   1       5.941  -2.433   4.026  0.00  0.00     0.174 A 
ATOM      3  C3  BZF d   1       4.787  -2.876   4.567  0.00  0.00    -0.012 A 
ATOM      4  C3A BZF d   1       3.753  -2.343   3.735  0.00  0.00    -0.107 A 
ATOM      5  C4  BZF d   1       2.391  -2.443   3.750  0.00  0.00     0.055 A 
ATOM      6  C5  BZF d   1       1.667  -1.740   2.839  0.00  0.00    -0.016 A 
ATOM      7  C6  BZF d   1       2.271  -0.925   1.905  0.00  0.00     0.022 A 
ATOM      8  C7  BZF d   1       3.619  -0.797   1.848  0.00  0.00     0.029 A 
ATOM      9  C7A BZF d   1       4.355  -1.532   2.745  0.00  0.00     0.058 A 
ENDROOT
TORSDOF 0
ENDMDL
