MODEL 1
REMARK minimizedAffinity 3.36039305
REMARK minimizedRMSD -1
REMARK  0 active torsions:
REMARK  status: ('A' for Active; 'I' for Inactive)
ROOT
ATOM      1  O1  BZF d   1       5.365  -5.712  -4.934  0.00  0.00    -0.204 OA
ATOM      2  C2  BZF d   1       4.489  -5.793  -6.000  0.00  0.00     0.174 A 
ATOM      3  C3  BZF d   1       3.224  -5.969  -5.567  0.00  0.00    -0.012 A 
ATOM      4  C3A BZF d   1       3.302  -5.908  -4.140  0.00  0.00    -0.107 A 
ATOM      5  C4  BZF d   1       2.373  -5.999  -3.144  0.00  0.00     0.055 A 
ATOM      6  C5  BZF d   1       2.786  -5.973  -1.850  0.00  0.00    -0.016 A 
ATOM      7  C6  BZF d   1       4.120  -5.862  -1.516  0.00  0.00     0.022 A 
ATOM      8  C7  BZF d   1       5.079  -5.764  -2.469  0.00  0.00     0.029 A 
ATOM      9  C7A BZF d   1       4.661  -5.757  -3.778  0.00  0.00     0.058 A 
ENDROOT
TORSDOF 0
ENDMDL
