MODEL 1
REMARK minimizedAffinity 10.5819826
REMARK minimizedRMSD -1
REMARK  0 active torsions:
REMARK  status: ('A' for Active; 'I' for Inactive)
ROOT
ATOM      1  O1  BZF d   1       0.929  -1.883   2.198  0.00  0.00    -0.204 OA
ATOM      2  C2  BZF d   1       1.800  -0.817   2.087  0.00  0.00     0.174 A 
ATOM      3  C3  BZF d   1       2.907  -1.024   2.829  0.00  0.00    -0.012 A 
ATOM      4  C3A BZF d   1       2.756  -2.340   3.370  0.00  0.00    -0.107 A 
ATOM      5  C4  BZF d   1       3.536  -3.118   4.177  0.00  0.00     0.055 A 
ATOM      6  C5  BZF d   1       3.068  -4.328   4.581  0.00  0.00    -0.016 A 
ATOM      7  C6  BZF d   1       1.823  -4.787   4.203  0.00  0.00     0.022 A 
ATOM      8  C7  BZF d   1       1.015  -4.053   3.399  0.00  0.00     0.029 A 
ATOM      9  C7A BZF d   1       1.500  -2.845   2.962  0.00  0.00     0.058 A 
ENDROOT
TORSDOF 0
ENDMDL
