MODEL 1
REMARK minimizedAffinity 1.63170874
REMARK minimizedRMSD -1
REMARK  0 active torsions:
REMARK  status: ('A' for Active; 'I' for Inactive)
ROOT
ATOM      1  O1  BZF d   1      -2.968  -5.840  -4.166  0.00  0.00    -0.204 OA
ATOM      2  C2  BZF d   1      -2.970  -5.828  -2.785  0.00  0.00     0.174 A 
ATOM      3  C3  BZF d   1      -1.714  -5.926  -2.304  0.00  0.00    -0.012 A 
ATOM      4  C3A BZF d   1      -0.867  -5.910  -3.457  0.00  0.00    -0.107 A 
ATOM      5  C4  BZF d   1       0.487  -5.961  -3.628  0.00  0.00     0.055 A 
ATOM      6  C5  BZF d   1       0.992  -6.000  -4.889  0.00  0.00    -0.016 A 
ATOM      7  C6  BZF d   1       0.174  -5.994  -6.000  0.00  0.00     0.022 A 
ATOM      8  C7  BZF d   1      -1.175  -5.938  -5.880  0.00  0.00     0.029 A 
ATOM      9  C7A BZF d   1      -1.687  -5.865  -4.608  0.00  0.00     0.058 A 
ENDROOT
TORSDOF 0
ENDMDL
