MODEL 1
REMARK minimizedAffinity 0.265133649
REMARK minimizedRMSD -1
REMARK  0 active torsions:
REMARK  status: ('A' for Active; 'I' for Inactive)
ROOT
ATOM      1  O1  BZF d   1      -0.169  -5.970  -2.006  0.00  0.00    -0.204 OA
ATOM      2  C2  BZF d   1      -1.549  -5.974  -1.937  0.00  0.00     0.174 A 
ATOM      3  C3  BZF d   1      -2.090  -5.926  -3.171  0.00  0.00    -0.012 A 
ATOM      4  C3A BZF d   1      -0.980  -5.983  -4.071  0.00  0.00    -0.107 A 
ATOM      5  C4  BZF d   1      -0.874  -5.988  -5.433  0.00  0.00     0.055 A 
ATOM      6  C5  BZF d   1       0.361  -5.978  -6.000  0.00  0.00    -0.016 A 
ATOM      7  C6  BZF d   1       1.510  -5.956  -5.236  0.00  0.00     0.022 A 
ATOM      8  C7  BZF d   1       1.456  -5.956  -3.882  0.00  0.00     0.029 A 
ATOM      9  C7A BZF d   1       0.210  -6.000  -3.306  0.00  0.00     0.058 A 
ENDROOT
TORSDOF 0
ENDMDL
