MODEL 1
REMARK minimizedAffinity 4.97459888
REMARK minimizedRMSD -1
REMARK  0 active torsions:
REMARK  status: ('A' for Active; 'I' for Inactive)
ROOT
ATOM      1  O1  BZF d   1       2.480   1.985  -0.570  0.00  0.00    -0.204 OA
ATOM      2  C2  BZF d   1       1.690   2.957   0.012  0.00  0.00     0.174 A 
ATOM      3  C3  BZF d   1       2.414   4.061   0.286  0.00  0.00    -0.012 A 
ATOM      4  C3A BZF d   1       3.720   3.794  -0.236  0.00  0.00    -0.107 A 
ATOM      5  C4  BZF d   1       4.878   4.516  -0.283  0.00  0.00     0.055 A 
ATOM      6  C5  BZF d   1       5.995   3.938  -0.797  0.00  0.00    -0.016 A 
ATOM      7  C6  BZF d   1       5.992   2.641  -1.266  0.00  0.00     0.022 A 
ATOM      8  C7  BZF d   1       4.866   1.887  -1.245  0.00  0.00     0.029 A 
ATOM      9  C7A BZF d   1       3.727   2.479  -0.757  0.00  0.00     0.058 A 
ENDROOT
TORSDOF 0
ENDMDL
