MODEL 1
REMARK minimizedAffinity -2.35581374
REMARK minimizedRMSD -1
REMARK  0 active torsions:
REMARK  status: ('A' for Active; 'I' for Inactive)
ROOT
ATOM      1  O1  BZF d   1       0.892  -5.964  -4.255  0.00  0.00    -0.204 OA
ATOM      2  C2  BZF d   1       0.702  -5.950  -5.624  0.00  0.00     0.174 A 
ATOM      3  C3  BZF d   1      -0.611  -5.997  -5.925  0.00  0.00    -0.012 A 
ATOM      4  C3A BZF d   1      -1.288  -5.950  -4.665  0.00  0.00    -0.107 A 
ATOM      5  C4  BZF d   1      -2.606  -5.950  -4.307  0.00  0.00     0.055 A 
ATOM      6  C5  BZF d   1      -2.932  -5.971  -2.987  0.00  0.00    -0.016 A 
ATOM      7  C6  BZF d   1      -1.967  -6.000  -2.002  0.00  0.00     0.022 A 
ATOM      8  C7  BZF d   1      -0.647  -5.996  -2.308  0.00  0.00     0.029 A 
ATOM      9  C7A BZF d   1      -0.314  -5.941  -3.640  0.00  0.00     0.058 A 
ENDROOT
TORSDOF 0
ENDMDL
