MODEL 1
REMARK minimizedAffinity 1.64326227
REMARK minimizedRMSD -1
REMARK  0 active torsions:
REMARK  status: ('A' for Active; 'I' for Inactive)
ROOT
ATOM      1  O1  BZF d   1       0.010  -5.791  -5.955  0.00  0.00    -0.204 OA
ATOM      2  C2  BZF d   1       1.383  -5.946  -5.979  0.00  0.00     0.174 A 
ATOM      3  C3  BZF d   1       1.880  -5.999  -4.726  0.00  0.00    -0.012 A 
ATOM      4  C3A BZF d   1       0.738  -5.962  -3.866  0.00  0.00    -0.107 A 
ATOM      5  C4  BZF d   1       0.582  -5.999  -2.509  0.00  0.00     0.055 A 
ATOM      6  C5  BZF d   1      -0.664  -5.870  -1.984  0.00  0.00    -0.016 A 
ATOM      7  C6  BZF d   1      -1.775  -5.696  -2.783  0.00  0.00     0.022 A 
ATOM      8  C7  BZF d   1      -1.671  -5.658  -4.134  0.00  0.00     0.029 A 
ATOM      9  C7A BZF d   1      -0.417  -5.821  -4.669  0.00  0.00     0.058 A 
ENDROOT
TORSDOF 0
ENDMDL
