MODEL 1
REMARK minimizedAffinity 5.00046873
REMARK minimizedRMSD -1
REMARK  0 active torsions:
REMARK  status: ('A' for Active; 'I' for Inactive)
ROOT
ATOM      1  O1  BZF d   1      -0.761   0.025  -0.622  0.00  0.00    -0.204 OA
ATOM      2  C2  BZF d   1      -0.622   0.557  -1.890  0.00  0.00     0.174 A 
ATOM      3  C3  BZF d   1       0.674   0.802  -2.166  0.00  0.00    -0.012 A 
ATOM      4  C3A BZF d   1       1.400   0.314  -1.034  0.00  0.00    -0.107 A 
ATOM      5  C4  BZF d   1       2.729   0.259  -0.723  0.00  0.00     0.055 A 
ATOM      6  C5  BZF d   1       3.102  -0.213   0.495  0.00  0.00    -0.016 A 
ATOM      7  C6  BZF d   1       2.176  -0.633   1.427  0.00  0.00     0.022 A 
ATOM      8  C7  BZF d   1       0.847  -0.603   1.162  0.00  0.00     0.029 A 
ATOM      9  C7A BZF d   1       0.468  -0.157  -0.081  0.00  0.00     0.058 A 
ENDROOT
TORSDOF 0
ENDMDL
