MODEL 1
REMARK minimizedAffinity 1.30232143
REMARK minimizedRMSD -1
REMARK  0 active torsions:
REMARK  status: ('A' for Active; 'I' for Inactive)
ROOT
ATOM      1  O1  BZF d   1      -0.440  -5.977  -1.965  0.00  0.00    -0.204 OA
ATOM      2  C2  BZF d   1      -1.780  -6.000  -1.629  0.00  0.00     0.174 A 
ATOM      3  C3  BZF d   1      -2.551  -5.958  -2.735  0.00  0.00    -0.012 A 
ATOM      4  C3A BZF d   1      -1.635  -5.998  -3.834  0.00  0.00    -0.107 A 
ATOM      5  C4  BZF d   1      -1.796  -6.000  -5.190  0.00  0.00     0.055 A 
ATOM      6  C5  BZF d   1      -0.695  -5.971  -5.986  0.00  0.00    -0.016 A 
ATOM      7  C6  BZF d   1       0.580  -5.935  -5.460  0.00  0.00     0.022 A 
ATOM      8  C7  BZF d   1       0.790  -5.937  -4.121  0.00  0.00     0.029 A 
ATOM      9  C7A BZF d   1      -0.320  -6.000  -3.314  0.00  0.00     0.058 A 
ENDROOT
TORSDOF 0
ENDMDL
