MODEL 1
REMARK minimizedAffinity -0.926602125
REMARK minimizedRMSD -1
REMARK  0 active torsions:
REMARK  status: ('A' for Active; 'I' for Inactive)
ROOT
ATOM      1  O1  BZF d   1      -3.157  -5.994  -4.481  0.00  0.00    -0.204 OA
ATOM      2  C2  BZF d   1      -3.307  -5.987  -3.107  0.00  0.00     0.174 A 
ATOM      3  C3  BZF d   1      -2.106  -5.998  -2.495  0.00  0.00    -0.012 A 
ATOM      4  C3A BZF d   1      -1.144  -5.920  -3.551  0.00  0.00    -0.107 A 
ATOM      5  C4  BZF d   1       0.220  -5.876  -3.577  0.00  0.00     0.055 A 
ATOM      6  C5  BZF d   1       0.859  -5.875  -4.777  0.00  0.00    -0.016 A 
ATOM      7  C6  BZF d   1       0.165  -5.922  -5.968  0.00  0.00     0.022 A 
ATOM      8  C7  BZF d   1      -1.190  -5.961  -5.993  0.00  0.00     0.029 A 
ATOM      9  C7A BZF d   1      -1.838  -5.929  -4.783  0.00  0.00     0.058 A 
ENDROOT
TORSDOF 0
ENDMDL
