MODEL 1
REMARK minimizedAffinity 4.57877016
REMARK minimizedRMSD -1
REMARK  0 active torsions:
REMARK  status: ('A' for Active; 'I' for Inactive)
ROOT
ATOM      1  O1  BZF d   1       0.998   0.438   0.527  0.00  0.00    -0.204 OA
ATOM      2  C2  BZF d   1       0.255   0.733  -0.600  0.00  0.00     0.174 A 
ATOM      3  C3  BZF d   1      -0.406  -0.358  -1.036  0.00  0.00    -0.012 A 
ATOM      4  C3A BZF d   1      -0.128  -1.378  -0.071  0.00  0.00    -0.107 A 
ATOM      5  C4  BZF d   1      -0.514  -2.681   0.055  0.00  0.00     0.055 A 
ATOM      6  C5  BZF d   1      -0.007  -3.425   1.073  0.00  0.00    -0.016 A 
ATOM      7  C6  BZF d   1       0.891  -2.899   1.979  0.00  0.00     0.022 A 
ATOM      8  C7  BZF d   1       1.299  -1.609   1.897  0.00  0.00     0.029 A 
ATOM      9  C7A BZF d   1       0.763  -0.846   0.889  0.00  0.00     0.058 A 
ENDROOT
TORSDOF 0
ENDMDL
