MODEL 1
REMARK minimizedAffinity -2.04463863
REMARK minimizedRMSD -1
REMARK  0 active torsions:
REMARK  status: ('A' for Active; 'I' for Inactive)
ROOT
ATOM      1  O1  BZF d   1       1.534  -5.926  -4.351  0.00  0.00    -0.204 OA
ATOM      2  C2  BZF d   1       1.326  -5.919  -5.717  0.00  0.00     0.174 A 
ATOM      3  C3  BZF d   1       0.009  -5.987  -6.000  0.00  0.00    -0.012 A 
ATOM      4  C3A BZF d   1      -0.651  -5.947  -4.731  0.00  0.00    -0.107 A 
ATOM      5  C4  BZF d   1      -1.964  -5.965  -4.355  0.00  0.00     0.055 A 
ATOM      6  C5  BZF d   1      -2.272  -5.988  -3.032  0.00  0.00    -0.016 A 
ATOM      7  C6  BZF d   1      -1.294  -5.998  -2.059  0.00  0.00     0.022 A 
ATOM      8  C7  BZF d   1       0.022  -5.975  -2.383  0.00  0.00     0.029 A 
ATOM      9  C7A BZF d   1       0.336  -5.919  -3.719  0.00  0.00     0.058 A 
ENDROOT
TORSDOF 0
ENDMDL
