MODEL 1
REMARK minimizedAffinity 4.90799093
REMARK minimizedRMSD -1
REMARK  0 active torsions:
REMARK  status: ('A' for Active; 'I' for Inactive)
ROOT
ATOM      1  O1  BZF d   1       2.285  -1.619   5.308  0.00  0.00    -0.204 OA
ATOM      2  C2  BZF d   1       1.358  -2.609   5.573  0.00  0.00     0.174 A 
ATOM      3  C3  BZF d   1       0.615  -2.873   4.479  0.00  0.00    -0.012 A 
ATOM      4  C3A BZF d   1       1.169  -2.059   3.442  0.00  0.00    -0.107 A 
ATOM      5  C4  BZF d   1       0.871  -1.891   2.120  0.00  0.00     0.055 A 
ATOM      6  C5  BZF d   1       1.557  -0.964   1.401  0.00  0.00    -0.016 A 
ATOM      7  C6  BZF d   1       2.543  -0.186   1.972  0.00  0.00     0.022 A 
ATOM      8  C7  BZF d   1       2.877  -0.320   3.278  0.00  0.00     0.029 A 
ATOM      9  C7A BZF d   1       2.208  -1.279   4.000  0.00  0.00     0.058 A 
ENDROOT
TORSDOF 0
ENDMDL
