MODEL 1
REMARK minimizedAffinity 2.32617474
REMARK minimizedRMSD -1
REMARK  0 active torsions:
REMARK  status: ('A' for Active; 'I' for Inactive)
ROOT
ATOM      1  O1  BZF d   1      -4.143  -6.000  -3.472  0.00  0.00    -0.204 OA
ATOM      2  C2  BZF d   1      -4.221  -5.981  -2.093  0.00  0.00     0.174 A 
ATOM      3  C3  BZF d   1      -2.989  -6.000  -1.544  0.00  0.00    -0.012 A 
ATOM      4  C3A BZF d   1      -2.084  -5.940  -2.650  0.00  0.00    -0.107 A 
ATOM      5  C4  BZF d   1      -0.722  -5.911  -2.747  0.00  0.00     0.055 A 
ATOM      6  C5  BZF d   1      -0.147  -5.927  -3.979  0.00  0.00    -0.016 A 
ATOM      7  C6  BZF d   1      -0.903  -5.976  -5.132  0.00  0.00     0.022 A 
ATOM      8  C7  BZF d   1      -2.258  -6.000  -5.085  0.00  0.00     0.029 A 
ATOM      9  C7A BZF d   1      -2.842  -5.951  -3.843  0.00  0.00     0.058 A 
ENDROOT
TORSDOF 0
ENDMDL
