MODEL 1
REMARK minimizedAffinity -3.23383808
REMARK minimizedRMSD -1
REMARK  0 active torsions:
REMARK  status: ('A' for Active; 'I' for Inactive)
ROOT
ATOM      1  O1  BZF d   1       0.085  -5.936  -4.699  0.00  0.00    -0.204 OA
ATOM      2  C2  BZF d   1      -0.503  -5.932  -5.949  0.00  0.00     0.174 A 
ATOM      3  C3  BZF d   1      -1.846  -6.000  -5.846  0.00  0.00    -0.012 A 
ATOM      4  C3A BZF d   1      -2.118  -5.955  -4.442  0.00  0.00    -0.107 A 
ATOM      5  C4  BZF d   1      -3.269  -5.971  -3.707  0.00  0.00     0.055 A 
ATOM      6  C5  BZF d   1      -3.187  -5.990  -2.351  0.00  0.00    -0.016 A 
ATOM      7  C6  BZF d   1      -1.973  -5.998  -1.697  0.00  0.00     0.022 A 
ATOM      8  C7  BZF d   1      -0.804  -5.977  -2.382  0.00  0.00     0.029 A 
ATOM      9  C7A BZF d   1      -0.884  -5.925  -3.753  0.00  0.00     0.058 A 
ENDROOT
TORSDOF 0
ENDMDL
