MODEL 1
REMARK minimizedAffinity -3.00019407
REMARK minimizedRMSD -1
REMARK  0 active torsions:
REMARK  status: ('A' for Active; 'I' for Inactive)
ROOT
ATOM      1  O1  BZF d   1       0.086  -5.954  -5.941  0.00  0.00    -0.204 OA
ATOM      2  C2  BZF d   1       1.310  -5.976  -5.301  0.00  0.00     0.174 A 
ATOM      3  C3  BZF d   1       1.151  -5.941  -3.962  0.00  0.00    -0.012 A 
ATOM      4  C3A BZF d   1      -0.263  -5.986  -3.750  0.00  0.00    -0.107 A 
ATOM      5  C4  BZF d   1      -1.044  -5.995  -2.630  0.00  0.00     0.055 A 
ATOM      6  C5  BZF d   1      -2.396  -5.970  -2.767  0.00  0.00    -0.016 A 
ATOM      7  C6  BZF d   1      -2.999  -5.930  -4.007  0.00  0.00     0.022 A 
ATOM      8  C7  BZF d   1      -2.266  -5.925  -5.147  0.00  0.00     0.029 A 
ATOM      9  C7A BZF d   1      -0.900  -5.984  -5.012  0.00  0.00     0.058 A 
ENDROOT
TORSDOF 0
ENDMDL
