MODEL 1
REMARK minimizedAffinity -2.61302471
REMARK minimizedRMSD -1
REMARK  0 active torsions:
REMARK  status: ('A' for Active; 'I' for Inactive)
ROOT
ATOM      1  O1  BZF d   1      -1.477  -5.949  -5.962  0.00  0.00    -0.204 OA
ATOM      2  C2  BZF d   1      -0.097  -5.919  -5.995  0.00  0.00     0.174 A 
ATOM      3  C3  BZF d   1       0.411  -5.868  -4.747  0.00  0.00    -0.012 A 
ATOM      4  C3A BZF d   1      -0.721  -5.958  -3.876  0.00  0.00    -0.107 A 
ATOM      5  C4  BZF d   1      -0.861  -5.976  -2.518  0.00  0.00     0.055 A 
ATOM      6  C5  BZF d   1      -2.111  -5.999  -1.983  0.00  0.00    -0.016 A 
ATOM      7  C6  BZF d   1      -3.240  -6.000  -2.776  0.00  0.00     0.022 A 
ATOM      8  C7  BZF d   1      -3.150  -5.988  -4.129  0.00  0.00     0.029 A 
ATOM      9  C7A BZF d   1      -1.889  -5.998  -4.672  0.00  0.00     0.058 A 
ENDROOT
TORSDOF 0
ENDMDL
