MODEL 1
REMARK minimizedAffinity 0.483355433
REMARK minimizedRMSD -1
REMARK  0 active torsions:
REMARK  status: ('A' for Active; 'I' for Inactive)
ROOT
ATOM      1  O1  BZF d   1      -3.226  -5.887  -3.733  0.00  0.00    -0.204 OA
ATOM      2  C2  BZF d   1      -3.247  -5.905  -2.352  0.00  0.00     0.174 A 
ATOM      3  C3  BZF d   1      -1.997  -6.000  -1.855  0.00  0.00    -0.012 A 
ATOM      4  C3A BZF d   1      -1.134  -5.952  -2.996  0.00  0.00    -0.107 A 
ATOM      5  C4  BZF d   1       0.222  -5.987  -3.149  0.00  0.00     0.055 A 
ATOM      6  C5  BZF d   1       0.745  -5.994  -4.403  0.00  0.00    -0.016 A 
ATOM      7  C6  BZF d   1      -0.058  -5.972  -5.525  0.00  0.00     0.022 A 
ATOM      8  C7  BZF d   1      -1.409  -5.932  -5.423  0.00  0.00     0.029 A 
ATOM      9  C7A BZF d   1      -1.939  -5.891  -4.157  0.00  0.00     0.058 A 
ENDROOT
TORSDOF 0
ENDMDL
