MODEL 1
REMARK minimizedAffinity 2.14876938
REMARK minimizedRMSD -1
REMARK  0 active torsions:
REMARK  status: ('A' for Active; 'I' for Inactive)
ROOT
ATOM      1  O1  BZF d   1      -4.312  -5.977  -1.989  0.00  0.00    -0.204 OA
ATOM      2  C2  BZF d   1      -2.933  -5.999  -2.054  0.00  0.00     0.174 A 
ATOM      3  C3  BZF d   1      -2.394  -5.956  -0.819  0.00  0.00    -0.012 A 
ATOM      4  C3A BZF d   1      -3.508  -5.997   0.079  0.00  0.00    -0.107 A 
ATOM      5  C4  BZF d   1      -3.617  -5.998   1.440  0.00  0.00     0.055 A 
ATOM      6  C5  BZF d   1      -4.854  -5.969   2.003  0.00  0.00    -0.016 A 
ATOM      7  C6  BZF d   1      -6.000  -5.934   1.237  0.00  0.00     0.022 A 
ATOM      8  C7  BZF d   1      -5.942  -5.937  -0.117  0.00  0.00     0.029 A 
ATOM      9  C7A BZF d   1      -4.695  -5.999  -0.689  0.00  0.00     0.058 A 
ENDROOT
TORSDOF 0
ENDMDL
