MODEL 1
REMARK minimizedAffinity 0.792910695
REMARK minimizedRMSD -1
REMARK  0 active torsions:
REMARK  status: ('A' for Active; 'I' for Inactive)
ROOT
ATOM      1  O1  BZF d   1      -5.891  -0.784  -0.007  0.00  0.00    -0.204 OA
ATOM      2  C2  BZF d   1      -5.342  -0.467   1.221  0.00  0.00     0.174 A 
ATOM      3  C3  BZF d   1      -4.420   0.510   1.095  0.00  0.00    -0.012 A 
ATOM      4  C3A BZF d   1      -4.458   0.887  -0.285  0.00  0.00    -0.107 A 
ATOM      5  C4  BZF d   1      -3.783   1.818  -1.022  0.00  0.00     0.055 A 
ATOM      6  C5  BZF d   1      -4.001   1.883  -2.362  0.00  0.00    -0.016 A 
ATOM      7  C6  BZF d   1      -4.881   1.031  -2.997  0.00  0.00     0.022 A 
ATOM      8  C7  BZF d   1      -5.577   0.095  -2.307  0.00  0.00     0.029 A 
ATOM      9  C7A BZF d   1      -5.383   0.048  -0.948  0.00  0.00     0.058 A 
ENDROOT
TORSDOF 0
ENDMDL
