MODEL 1
REMARK minimizedAffinity -0.791465044
REMARK minimizedRMSD -1
REMARK  0 active torsions:
REMARK  status: ('A' for Active; 'I' for Inactive)
ROOT
ATOM      1  O1  BZF d   1      -1.174  -5.939  -2.079  0.00  0.00    -0.204 OA
ATOM      2  C2  BZF d   1      -2.553  -6.000  -2.150  0.00  0.00     0.174 A 
ATOM      3  C3  BZF d   1      -2.967  -5.979  -3.433  0.00  0.00    -0.012 A 
ATOM      4  C3A BZF d   1      -1.770  -5.993  -4.216  0.00  0.00    -0.107 A 
ATOM      5  C4  BZF d   1      -1.527  -5.999  -5.560  0.00  0.00     0.055 A 
ATOM      6  C5  BZF d   1      -0.242  -5.939  -5.998  0.00  0.00    -0.016 A 
ATOM      7  C6  BZF d   1       0.822  -5.867  -5.123  0.00  0.00     0.022 A 
ATOM      8  C7  BZF d   1       0.631  -5.864  -3.781  0.00  0.00     0.029 A 
ATOM      9  C7A BZF d   1      -0.665  -5.958  -3.334  0.00  0.00     0.058 A 
ENDROOT
TORSDOF 0
ENDMDL
