MODEL 1
REMARK minimizedAffinity -1.30396235
REMARK minimizedRMSD -1
REMARK  0 active torsions:
REMARK  status: ('A' for Active; 'I' for Inactive)
ROOT
ATOM      1  O1  BZF d   1       0.254  -5.979  -3.605  0.00  0.00    -0.204 OA
ATOM      2  C2  BZF d   1       1.035  -5.951  -4.743  0.00  0.00     0.174 A 
ATOM      3  C3  BZF d   1       0.267  -5.974  -5.852  0.00  0.00    -0.012 A 
ATOM      4  C3A BZF d   1      -1.081  -5.925  -5.376  0.00  0.00    -0.107 A 
ATOM      5  C4  BZF d   1      -2.297  -5.905  -5.998  0.00  0.00     0.055 A 
ATOM      6  C5  BZF d   1      -3.426  -5.932  -5.243  0.00  0.00    -0.016 A 
ATOM      7  C6  BZF d   1      -3.378  -5.983  -3.866  0.00  0.00     0.022 A 
ATOM      8  C7  BZF d   1      -2.195  -6.000  -3.203  0.00  0.00     0.029 A 
ATOM      9  C7A BZF d   1      -1.052  -5.940  -3.962  0.00  0.00     0.058 A 
ENDROOT
TORSDOF 0
ENDMDL
