MODEL 1
REMARK minimizedAffinity -4.8508687
REMARK minimizedRMSD -1
REMARK  0 active torsions:
REMARK  status: ('A' for Active; 'I' for Inactive)
ROOT
ATOM      1  C1  BNZ d   1       0.836  -0.105   2.348  0.00  0.00     0.000 A 
ATOM      2  C2  BNZ d   1       1.781   0.776   1.895  0.00  0.00     0.000 A 
ATOM      3  C3  BNZ d   1       1.523   2.118   1.850  0.00  0.00     0.000 A 
ATOM      4  C4  BNZ d   1       0.307   2.571   2.219  0.00  0.00     0.000 A 
ATOM      5  C5  BNZ d   1      -0.659   1.694   2.669  0.00  0.00     0.000 A 
ATOM      6  C6  BNZ d   1      -0.382   0.349   2.750  0.00  0.00     0.000 A 
ENDROOT
TORSDOF 0
ENDMDL
