MODEL 1
REMARK minimizedAffinity -0.972022295
REMARK minimizedRMSD -1
REMARK  0 active torsions:
REMARK  status: ('A' for Active; 'I' for Inactive)
ROOT
ATOM      1  C1  BNZ d   1       2.416   0.390   0.323  0.00  0.00     0.000 A 
ATOM      2  C2  BNZ d   1       1.426  -0.469   0.721  0.00  0.00     0.000 A 
ATOM      3  C3  BNZ d   1       0.120  -0.065   0.754  0.00  0.00     0.000 A 
ATOM      4  C4  BNZ d   1      -0.189   1.206   0.427  0.00  0.00     0.000 A 
ATOM      5  C5  BNZ d   1       0.799   2.087   0.033  0.00  0.00     0.000 A 
ATOM      6  C6  BNZ d   1       2.107   1.666  -0.036  0.00  0.00     0.000 A 
ENDROOT
TORSDOF 0
ENDMDL
