MODEL 1
REMARK minimizedAffinity 0.526884556
REMARK minimizedRMSD -1
REMARK  0 active torsions:
REMARK  status: ('A' for Active; 'I' for Inactive)
ROOT
ATOM      1  C1  BNZ d   1       5.271   5.999   0.605  0.00  0.00     0.000 A 
ATOM      2  C2  BNZ d   1       4.220   6.000  -0.272  0.00  0.00     0.000 A 
ATOM      3  C3  BNZ d   1       2.947   5.750   0.160  0.00  0.00     0.000 A 
ATOM      4  C4  BNZ d   1       2.734   5.461   1.459  0.00  0.00     0.000 A 
ATOM      5  C5  BNZ d   1       3.785   5.447   2.355  0.00  0.00     0.000 A 
ATOM      6  C6  BNZ d   1       5.059   5.737   1.923  0.00  0.00     0.000 A 
ENDROOT
TORSDOF 0
ENDMDL
