MODEL 1
REMARK minimizedAffinity -3.33489776
REMARK minimizedRMSD -1
REMARK  0 active torsions:
REMARK  status: ('A' for Active; 'I' for Inactive)
ROOT
ATOM      1  C1  BNZ d   1       1.009   0.078   2.220  0.00  0.00     0.000 A 
ATOM      2  C2  BNZ d   1       1.118  -0.348   0.924  0.00  0.00     0.000 A 
ATOM      3  C3  BNZ d   1       0.023  -0.393   0.107  0.00  0.00     0.000 A 
ATOM      4  C4  BNZ d   1      -1.185  -0.049   0.599  0.00  0.00     0.000 A 
ATOM      5  C5  BNZ d   1      -1.313   0.374   1.907  0.00  0.00     0.000 A 
ATOM      6  C6  BNZ d   1      -0.202   0.455   2.715  0.00  0.00     0.000 A 
ENDROOT
TORSDOF 0
ENDMDL
