MODEL 1
REMARK minimizedAffinity -2.58864856
REMARK minimizedRMSD -1
REMARK  0 active torsions:
REMARK  status: ('A' for Active; 'I' for Inactive)
ROOT
ATOM      1  C1  BNZ d   1      -0.033   1.440   3.860  0.00  0.00     0.000 A 
ATOM      2  C2  BNZ d   1      -1.014   0.707   4.473  0.00  0.00     0.000 A 
ATOM      3  C3  BNZ d   1      -0.922  -0.654   4.558  0.00  0.00     0.000 A 
ATOM      4  C4  BNZ d   1       0.131  -1.283   3.996  0.00  0.00     0.000 A 
ATOM      5  C5  BNZ d   1       1.123  -0.559   3.367  0.00  0.00     0.000 A 
ATOM      6  C6  BNZ d   1       1.046   0.814   3.317  0.00  0.00     0.000 A 
ENDROOT
TORSDOF 0
ENDMDL
