MODEL 1
REMARK minimizedAffinity -5.06423616
REMARK minimizedRMSD -1
REMARK  0 active torsions:
REMARK  status: ('A' for Active; 'I' for Inactive)
ROOT
ATOM      1  C1  BNZ d   1       1.159   0.198   0.617  0.00  0.00     0.000 A 
ATOM      2  C2  BNZ d   1      -0.054   0.690   1.021  0.00  0.00     0.000 A 
ATOM      3  C3  BNZ d   1      -0.274   1.023   2.328  0.00  0.00     0.000 A 
ATOM      4  C4  BNZ d   1       0.703   0.827   3.236  0.00  0.00     0.000 A 
ATOM      5  C5  BNZ d   1       1.929   0.323   2.847  0.00  0.00     0.000 A 
ATOM      6  C6  BNZ d   1       2.160   0.026   1.523  0.00  0.00     0.000 A 
ENDROOT
TORSDOF 0
ENDMDL
