MODEL 1
REMARK minimizedAffinity -4.30512619
REMARK minimizedRMSD -1
REMARK  0 active torsions:
REMARK  status: ('A' for Active; 'I' for Inactive)
ROOT
ATOM      1  C1  BNZ d   1      -1.872   0.783   1.362  0.00  0.00     0.000 A 
ATOM      2  C2  BNZ d   1      -1.768  -0.102   0.322  0.00  0.00     0.000 A 
ATOM      3  C3  BNZ d   1      -0.545  -0.517  -0.125  0.00  0.00     0.000 A 
ATOM      4  C4  BNZ d   1       0.572  -0.017   0.442  0.00  0.00     0.000 A 
ATOM      5  C5  BNZ d   1       0.484   0.883   1.485  0.00  0.00     0.000 A 
ATOM      6  C6  BNZ d   1      -0.749   1.269   1.958  0.00  0.00     0.000 A 
ENDROOT
TORSDOF 0
ENDMDL
