MODEL 1
REMARK minimizedAffinity -3.03223228
REMARK minimizedRMSD -1
REMARK  0 active torsions:
REMARK  status: ('A' for Active; 'I' for Inactive)
ROOT
ATOM      1  C1  BNZ d   1       0.753   0.739  -1.894  0.00  0.00     0.000 A 
ATOM      2  C2  BNZ d   1       0.053   0.533  -0.736  0.00  0.00     0.000 A 
ATOM      3  C3  BNZ d   1       0.488  -0.369   0.195  0.00  0.00     0.000 A 
ATOM      4  C4  BNZ d   1       1.600  -1.091  -0.052  0.00  0.00     0.000 A 
ATOM      5  C5  BNZ d   1       2.312  -0.901  -1.220  0.00  0.00     0.000 A 
ATOM      6  C6  BNZ d   1       1.892   0.035  -2.136  0.00  0.00     0.000 A 
ENDROOT
TORSDOF 0
ENDMDL
