MODEL 1
REMARK minimizedAffinity -3.02362323
REMARK minimizedRMSD -1
REMARK  0 active torsions:
REMARK  status: ('A' for Active; 'I' for Inactive)
ROOT
ATOM      1  C1  BNZ d   1      -0.669  -0.377   0.503  0.00  0.00     0.000 A 
ATOM      2  C2  BNZ d   1      -1.912  -0.020   0.954  0.00  0.00     0.000 A 
ATOM      3  C3  BNZ d   1      -2.183   0.028   2.293  0.00  0.00     0.000 A 
ATOM      4  C4  BNZ d   1      -1.226  -0.320   3.176  0.00  0.00     0.000 A 
ATOM      5  C5  BNZ d   1       0.029  -0.691   2.737  0.00  0.00     0.000 A 
ATOM      6  C6  BNZ d   1       0.311  -0.701   1.390  0.00  0.00     0.000 A 
ENDROOT
TORSDOF 0
ENDMDL
