MODEL 1
REMARK minimizedAffinity -0.966279745
REMARK minimizedRMSD -1
REMARK  0 active torsions:
REMARK  status: ('A' for Active; 'I' for Inactive)
ROOT
ATOM      1  C1  BNZ d   1      -0.398   0.254   3.583  0.00  0.00     0.000 A 
ATOM      2  C2  BNZ d   1       0.785   0.190   2.896  0.00  0.00     0.000 A 
ATOM      3  C3  BNZ d   1       0.799   0.056   1.536  0.00  0.00     0.000 A 
ATOM      4  C4  BNZ d   1      -0.368  -0.054   0.869  0.00  0.00     0.000 A 
ATOM      5  C5  BNZ d   1      -1.569  -0.000   1.548  0.00  0.00     0.000 A 
ATOM      6  C6  BNZ d   1      -1.579   0.173   2.913  0.00  0.00     0.000 A 
ENDROOT
TORSDOF 0
ENDMDL
