MODEL 1
REMARK minimizedAffinity 1.80993724
REMARK minimizedRMSD -1
REMARK  0 active torsions:
REMARK  status: ('A' for Active; 'I' for Inactive)
ROOT
ATOM      1  C1  BNZ d   1      -0.762  -0.050   0.716  0.00  0.00     0.000 A 
ATOM      2  C2  BNZ d   1      -2.000   0.282   1.199  0.00  0.00     0.000 A 
ATOM      3  C3  BNZ d   1      -2.280   0.187   2.533  0.00  0.00     0.000 A 
ATOM      4  C4  BNZ d   1      -1.335  -0.276   3.377  0.00  0.00     0.000 A 
ATOM      5  C5  BNZ d   1      -0.085  -0.624   2.905  0.00  0.00     0.000 A 
ATOM      6  C6  BNZ d   1       0.205  -0.490   1.566  0.00  0.00     0.000 A 
ENDROOT
TORSDOF 0
ENDMDL
