MODEL 1
REMARK minimizedAffinity -0.945483208
REMARK minimizedRMSD -1
REMARK  0 active torsions:
REMARK  status: ('A' for Active; 'I' for Inactive)
ROOT
ATOM      1  C   UNL d   1      -0.348   2.598  -4.287  0.00  0.00    -0.002 A 
ATOM      2  C1  UNL d   1      -0.554   2.960  -2.963  0.00  0.00     0.010 A 
ATOM      3  C2  UNL d   1       0.505   2.963  -2.054  0.00  0.00     0.041 A 
ATOM      4  C3  UNL d   1       1.789   2.594  -2.503  0.00  0.00    -0.075 A 
ATOM      5  S   UNL d   1       3.236   2.524  -1.569  0.00  0.00     0.015 SA
ATOM      6  C4  UNL d   1       4.163   2.013  -2.905  0.00  0.00     0.022 A 
ATOM      7  C5  UNL d   1       3.402   1.893  -4.044  0.00  0.00     0.026 A 
ATOM      8  C6  UNL d   1       2.022   2.226  -3.831  0.00  0.00    -0.082 A 
ATOM      9  C7  UNL d   1       0.926   2.232  -4.728  0.00  0.00     0.045 A 
ENDROOT
TORSDOF 0
ENDMDL
