MODEL 1
REMARK minimizedAffinity -2.66924047
REMARK minimizedRMSD -1
REMARK  0 active torsions:
REMARK  status: ('A' for Active; 'I' for Inactive)
ROOT
ATOM      1  C   UNL d   1       1.902   2.688  -4.092  0.00  0.00    -0.002 A 
ATOM      2  C1  UNL d   1       3.185   2.796  -3.574  0.00  0.00     0.010 A 
ATOM      3  C2  UNL d   1       3.427   2.548  -2.221  0.00  0.00     0.041 A 
ATOM      4  C3  UNL d   1       2.349   2.185  -1.391  0.00  0.00    -0.075 A 
ATOM      5  S   UNL d   1       2.408   1.834   0.296  0.00  0.00     0.015 SA
ATOM      6  C4  UNL d   1       0.732   1.532   0.368  0.00  0.00     0.022 A 
ATOM      7  C5  UNL d   1       0.127   1.691  -0.856  0.00  0.00     0.026 A 
ATOM      8  C6  UNL d   1       1.048   2.069  -1.890  0.00  0.00    -0.082 A 
ATOM      9  C7  UNL d   1       0.835   2.328  -3.265  0.00  0.00     0.045 A 
ENDROOT
TORSDOF 0
ENDMDL
