MODEL 1
REMARK minimizedAffinity -1.63744211
REMARK minimizedRMSD -1
REMARK  0 active torsions:
REMARK  status: ('A' for Active; 'I' for Inactive)
ROOT
ATOM      1  C   UNL d   1      -1.983  -2.057   0.577  0.00  0.00    -0.002 A 
ATOM      2  C1  UNL d   1      -1.061  -2.595   1.463  0.00  0.00     0.010 A 
ATOM      3  C2  UNL d   1       0.201  -2.019   1.612  0.00  0.00     0.041 A 
ATOM      4  C3  UNL d   1       0.524  -0.879   0.850  0.00  0.00    -0.075 A 
ATOM      5  S   UNL d   1       2.009  -0.003   0.867  0.00  0.00     0.015 SA
ATOM      6  C4  UNL d   1       1.455   1.107  -0.301  0.00  0.00     0.022 A 
ATOM      7  C5  UNL d   1       0.170   0.832  -0.705  0.00  0.00     0.026 A 
ATOM      8  C6  UNL d   1      -0.388  -0.317  -0.048  0.00  0.00    -0.082 A 
ATOM      9  C7  UNL d   1      -1.659  -0.926  -0.178  0.00  0.00     0.045 A 
ENDROOT
TORSDOF 0
ENDMDL
