MODEL 1
REMARK minimizedAffinity 2.98142457
REMARK minimizedRMSD -1
REMARK  0 active torsions:
REMARK  status: ('A' for Active; 'I' for Inactive)
ROOT
ATOM      1  C   UNL d   1       0.894   2.275  -3.927  0.00  0.00    -0.002 A 
ATOM      2  C1  UNL d   1       0.092   3.371  -3.645  0.00  0.00     0.010 A 
ATOM      3  C2  UNL d   1      -0.644   3.427  -2.459  0.00  0.00     0.041 A 
ATOM      4  C3  UNL d   1      -0.557   2.352  -1.552  0.00  0.00    -0.075 A 
ATOM      5  S   UNL d   1      -1.367   2.202  -0.038  0.00  0.00     0.015 SA
ATOM      6  C4  UNL d   1      -0.666   0.679   0.271  0.00  0.00     0.022 A 
ATOM      7  C5  UNL d   1       0.168   0.280  -0.746  0.00  0.00     0.026 A 
ATOM      8  C6  UNL d   1       0.245   1.238  -1.814  0.00  0.00    -0.082 A 
ATOM      9  C7  UNL d   1       0.978   1.211  -3.025  0.00  0.00     0.045 A 
ENDROOT
TORSDOF 0
ENDMDL
