MODEL 1
REMARK minimizedAffinity -1.64808261
REMARK minimizedRMSD -1
REMARK  0 active torsions:
REMARK  status: ('A' for Active; 'I' for Inactive)
ROOT
ATOM      1  C   UNL d   1      -2.380  -1.992   0.718  0.00  0.00    -0.002 A 
ATOM      2  C1  UNL d   1      -1.524  -2.643   1.596  0.00  0.00     0.010 A 
ATOM      3  C2  UNL d   1      -0.210  -2.202   1.764  0.00  0.00     0.041 A 
ATOM      4  C3  UNL d   1       0.234  -1.085   1.030  0.00  0.00    -0.075 A 
ATOM      5  S   UNL d   1       1.801  -0.367   1.074  0.00  0.00     0.015 SA
ATOM      6  C4  UNL d   1       1.371   0.820  -0.070  0.00  0.00     0.022 A 
ATOM      7  C5  UNL d   1       0.068   0.687  -0.487  0.00  0.00     0.026 A 
ATOM      8  C6  UNL d   1      -0.609  -0.413   0.140  0.00  0.00    -0.082 A 
ATOM      9  C7  UNL d   1      -1.936  -0.884  -0.009  0.00  0.00     0.045 A 
ENDROOT
TORSDOF 0
ENDMDL
