MODEL 1
REMARK minimizedAffinity 6.90600252
REMARK minimizedRMSD -1
REMARK  0 active torsions:
REMARK  status: ('A' for Active; 'I' for Inactive)
ROOT
ATOM      1  C   UNL d   1       3.416   4.360   0.186  0.00  0.00    -0.002 A 
ATOM      2  C1  UNL d   1       3.906   5.030   1.298  0.00  0.00     0.010 A 
ATOM      3  C2  UNL d   1       4.379   4.321   2.403  0.00  0.00     0.041 A 
ATOM      4  C3  UNL d   1       4.353   2.912   2.371  0.00  0.00    -0.075 A 
ATOM      5  S   UNL d   1       4.881   1.834   3.609  0.00  0.00     0.015 SA
ATOM      6  C4  UNL d   1       4.469   0.459   2.690  0.00  0.00     0.022 A 
ATOM      7  C5  UNL d   1       3.940   0.796   1.467  0.00  0.00     0.026 A 
ATOM      8  C6  UNL d   1       3.865   2.215   1.262  0.00  0.00    -0.082 A 
ATOM      9  C7  UNL d   1       3.391   2.963   0.158  0.00  0.00     0.045 A 
ENDROOT
TORSDOF 0
ENDMDL
