MODEL 1
REMARK minimizedAffinity 0.885070026
REMARK minimizedRMSD -1
REMARK  0 active torsions:
REMARK  status: ('A' for Active; 'I' for Inactive)
ROOT
ATOM      1  C   UNL d   1       4.230   0.140   2.266  0.00  0.00    -0.002 A 
ATOM      2  C1  UNL d   1       4.262   1.509   2.043  0.00  0.00     0.010 A 
ATOM      3  C2  UNL d   1       3.207   2.147   1.388  0.00  0.00     0.041 A 
ATOM      4  C3  UNL d   1       2.107   1.378   0.957  0.00  0.00    -0.075 A 
ATOM      5  S   UNL d   1       0.701   1.944   0.135  0.00  0.00     0.015 SA
ATOM      6  C4  UNL d   1       0.025   0.381   0.061  0.00  0.00     0.022 A 
ATOM      7  C5  UNL d   1       0.839  -0.561   0.644  0.00  0.00     0.026 A 
ATOM      8  C6  UNL d   1       2.052  -0.002   1.171  0.00  0.00    -0.082 A 
ATOM      9  C7  UNL d   1       3.138  -0.619   1.837  0.00  0.00     0.045 A 
ENDROOT
TORSDOF 0
ENDMDL
