MODEL 1
REMARK minimizedAffinity 2.12078667
REMARK minimizedRMSD -1
REMARK  0 active torsions:
REMARK  status: ('A' for Active; 'I' for Inactive)
ROOT
ATOM      1  C   UNL d   1       3.292  -0.243   0.973  0.00  0.00    -0.002 A 
ATOM      2  C1  UNL d   1       3.341   1.141   0.885  0.00  0.00     0.010 A 
ATOM      3  C2  UNL d   1       2.183   1.878   0.629  0.00  0.00     0.041 A 
ATOM      4  C3  UNL d   1       0.963   1.193   0.463  0.00  0.00    -0.075 A 
ATOM      5  S   UNL d   1      -0.583   1.887   0.142  0.00  0.00     0.015 SA
ATOM      6  C4  UNL d   1      -1.344   0.363   0.115  0.00  0.00     0.022 A 
ATOM      7  C5  UNL d   1      -0.456  -0.662   0.343  0.00  0.00     0.026 A 
ATOM      8  C6  UNL d   1       0.888  -0.200   0.548  0.00  0.00    -0.082 A 
ATOM      9  C7  UNL d   1       2.080  -0.918   0.808  0.00  0.00     0.045 A 
ENDROOT
TORSDOF 0
ENDMDL
