MODEL 1
REMARK minimizedAffinity -3.95458198
REMARK minimizedRMSD -1
REMARK  0 active torsions:
REMARK  status: ('A' for Active; 'I' for Inactive)
ROOT
ATOM      1  C   UNL d   1      -1.034  -2.898   0.972  0.00  0.00    -0.002 A 
ATOM      2  C1  UNL d   1      -1.819  -1.851   0.511  0.00  0.00     0.010 A 
ATOM      3  C2  UNL d   1      -1.280  -0.571   0.364  0.00  0.00     0.041 A 
ATOM      4  C3  UNL d   1       0.074  -0.360   0.688  0.00  0.00    -0.075 A 
ATOM      5  S   UNL d   1       0.949   1.122   0.586  0.00  0.00     0.015 SA
ATOM      6  C4  UNL d   1       2.386   0.399   1.150  0.00  0.00     0.022 A 
ATOM      7  C5  UNL d   1       2.220  -0.940   1.416  0.00  0.00     0.026 A 
ATOM      8  C6  UNL d   1       0.885  -1.399   1.153  0.00  0.00    -0.082 A 
ATOM      9  C7  UNL d   1       0.309  -2.685   1.293  0.00  0.00     0.045 A 
ENDROOT
TORSDOF 0
ENDMDL
