MODEL 1
REMARK minimizedAffinity 0.452177435
REMARK minimizedRMSD -1
REMARK  0 active torsions:
REMARK  status: ('A' for Active; 'I' for Inactive)
ROOT
ATOM      1  C   UNL d   1       0.195  -0.703  -0.324  0.00  0.00    -0.002 A 
ATOM      2  C1  UNL d   1      -0.754   0.310  -0.311  0.00  0.00     0.010 A 
ATOM      3  C2  UNL d   1      -0.590   1.446  -1.105  0.00  0.00     0.041 A 
ATOM      4  C3  UNL d   1       0.553   1.548  -1.922  0.00  0.00    -0.075 A 
ATOM      5  S   UNL d   1       0.964   2.847  -2.979  0.00  0.00     0.015 SA
ATOM      6  C4  UNL d   1       2.407   2.088  -3.473  0.00  0.00     0.022 A 
ATOM      7  C5  UNL d   1       2.588   0.872  -2.857  0.00  0.00     0.026 A 
ATOM      8  C6  UNL d   1       1.522   0.541  -1.953  0.00  0.00    -0.082 A 
ATOM      9  C7  UNL d   1       1.328  -0.599  -1.136  0.00  0.00     0.045 A 
ENDROOT
TORSDOF 0
ENDMDL
