MODEL 1
REMARK minimizedAffinity -3.10945129
REMARK minimizedRMSD -1
REMARK  0 active torsions:
REMARK  status: ('A' for Active; 'I' for Inactive)
ROOT
ATOM      1  C   UNL d   1      -1.528  -2.669   1.507  0.00  0.00    -0.002 A 
ATOM      2  C1  UNL d   1      -2.418  -2.022   0.662  0.00  0.00     0.010 A 
ATOM      3  C2  UNL d   1      -2.026  -0.881  -0.042  0.00  0.00     0.041 A 
ATOM      4  C3  UNL d   1      -0.712  -0.400   0.117  0.00  0.00    -0.075 A 
ATOM      5  S   UNL d   1      -0.011   0.979  -0.645  0.00  0.00     0.015 SA
ATOM      6  C4  UNL d   1       1.487   0.740   0.133  0.00  0.00     0.022 A 
ATOM      7  C5  UNL d   1       1.470  -0.360   0.958  0.00  0.00     0.026 A 
ATOM      8  C6  UNL d   1       0.202  -1.035   0.962  0.00  0.00    -0.082 A 
ATOM      9  C7  UNL d   1      -0.225  -2.188   1.663  0.00  0.00     0.045 A 
ENDROOT
TORSDOF 0
ENDMDL
