MODEL 1
REMARK minimizedAffinity -3.69055986
REMARK minimizedRMSD -1
REMARK  0 active torsions:
REMARK  status: ('A' for Active; 'I' for Inactive)
ROOT
ATOM      1  C   UNL d   1      -1.035  -3.083   0.629  0.00  0.00    -0.002 A 
ATOM      2  C1  UNL d   1       0.331  -2.905   0.461  0.00  0.00     0.010 A 
ATOM      3  C2  UNL d   1       0.874  -1.622   0.372  0.00  0.00     0.041 A 
ATOM      4  C3  UNL d   1       0.013  -0.510   0.458  0.00  0.00    -0.075 A 
ATOM      5  S   UNL d   1       0.454   1.155   0.377  0.00  0.00     0.015 SA
ATOM      6  C4  UNL d   1      -1.160   1.669   0.564  0.00  0.00     0.022 A 
ATOM      7  C5  UNL d   1      -2.027   0.609   0.687  0.00  0.00     0.026 A 
ATOM      8  C6  UNL d   1      -1.365  -0.664   0.628  0.00  0.00    -0.082 A 
ATOM      9  C7  UNL d   1      -1.886  -1.978   0.714  0.00  0.00     0.045 A 
ENDROOT
TORSDOF 0
ENDMDL
