MODEL 1
REMARK minimizedAffinity 5.98308277
REMARK minimizedRMSD -1
REMARK  0 active torsions:
REMARK  status: ('A' for Active; 'I' for Inactive)
ROOT
ATOM      1  C   UNL d   1      -3.607  -1.432  -3.509  0.00  0.00     0.020 A 
ATOM      2  C1  UNL d   1      -2.740  -1.217  -2.438  0.00  0.00     0.020 A 
ATOM      3  C2  UNL d   1      -2.533   0.077  -1.957  0.00  0.00     0.034 A 
ATOM      4  C3  UNL d   1      -3.193   1.161  -2.547  0.00  0.00     0.017 A 
ATOM      5  C4  UNL d   1      -4.062   0.945  -3.622  0.00  0.00     0.017 A 
ATOM      6  C5  UNL d   1      -4.267  -0.354  -4.099  0.00  0.00     0.034 A 
ATOM      7 Cl   UNL d   1      -4.912   2.232  -4.401  0.00  0.00    -0.070 Cl
ATOM      8 Cl1  UNL d   1      -2.889   2.735  -1.901  0.00  0.00    -0.070 Cl
ENDROOT
TORSDOF 0
ENDMDL
