MODEL 1
REMARK minimizedAffinity 5.20159245
REMARK minimizedRMSD -1
REMARK  0 active torsions:
REMARK  status: ('A' for Active; 'I' for Inactive)
ROOT
ATOM      1  C   UNL d   1       2.974  -5.997  -1.459  0.00  0.00     0.020 A 
ATOM      2  C1  UNL d   1       4.314  -5.999  -1.847  0.00  0.00     0.020 A 
ATOM      3  C2  UNL d   1       4.648  -5.999  -3.202  0.00  0.00     0.034 A 
ATOM      4  C3  UNL d   1       3.642  -5.998  -4.175  0.00  0.00     0.017 A 
ATOM      5  C4  UNL d   1       2.298  -5.997  -3.785  0.00  0.00     0.017 A 
ATOM      6  C5  UNL d   1       1.969  -5.996  -2.426  0.00  0.00     0.034 A 
ATOM      7 Cl   UNL d   1       1.001  -5.995  -4.928  0.00  0.00    -0.070 Cl
ATOM      8 Cl1  UNL d   1       4.128  -5.999  -5.834  0.00  0.00    -0.070 Cl
ENDROOT
TORSDOF 0
ENDMDL
