MODEL 1
REMARK minimizedAffinity 10.2692814
REMARK minimizedRMSD -1
REMARK  0 active torsions:
REMARK  status: ('A' for Active; 'I' for Inactive)
ROOT
ATOM      1  C   UNL d   1      -3.640   2.588   1.920  0.00  0.00     0.020 A 
ATOM      2  C1  UNL d   1      -4.881   3.175   2.170  0.00  0.00     0.020 A 
ATOM      3  C2  UNL d   1      -5.555   3.845   1.147  0.00  0.00     0.034 A 
ATOM      4  C3  UNL d   1      -4.990   3.930  -0.130  0.00  0.00     0.017 A 
ATOM      5  C4  UNL d   1      -3.745   3.342  -0.380  0.00  0.00     0.017 A 
ATOM      6  C5  UNL d   1      -3.074   2.672   0.648  0.00  0.00     0.034 A 
ATOM      7 Cl   UNL d   1      -2.984   3.406  -1.931  0.00  0.00    -0.070 Cl
ATOM      8 Cl1  UNL d   1      -5.880   4.774  -1.347  0.00  0.00    -0.070 Cl
ENDROOT
TORSDOF 0
ENDMDL
