MODEL 1
REMARK minimizedAffinity 0.26832822
REMARK minimizedRMSD -1
REMARK  0 active torsions:
REMARK  status: ('A' for Active; 'I' for Inactive)
ROOT
ATOM      1  C   UNL d   1       2.380  -1.458   2.287  0.00  0.00     0.020 A 
ATOM      2  C1  UNL d   1       1.363  -2.220   2.860  0.00  0.00     0.020 A 
ATOM      3  C2  UNL d   1       1.667  -3.163   3.844  0.00  0.00     0.034 A 
ATOM      4  C3  UNL d   1       2.992  -3.347   4.257  0.00  0.00     0.017 A 
ATOM      5  C4  UNL d   1       4.012  -2.581   3.681  0.00  0.00     0.017 A 
ATOM      6  C5  UNL d   1       3.702  -1.638   2.697  0.00  0.00     0.034 A 
ATOM      7 Cl   UNL d   1       5.670  -2.751   4.140  0.00  0.00    -0.070 Cl
ATOM      8 Cl1  UNL d   1       3.296  -4.531   5.479  0.00  0.00    -0.070 Cl
ENDROOT
TORSDOF 0
ENDMDL
