MODEL 1
REMARK minimizedAffinity 5.50565863
REMARK minimizedRMSD -1
REMARK  0 active torsions:
REMARK  status: ('A' for Active; 'I' for Inactive)
ROOT
ATOM      1  C   UNL d   1      -5.417   3.458   1.034  0.00  0.00     0.020 A 
ATOM      2  C1  UNL d   1      -5.248   2.235   1.682  0.00  0.00     0.020 A 
ATOM      3  C2  UNL d   1      -4.114   1.460   1.428  0.00  0.00     0.034 A 
ATOM      4  C3  UNL d   1      -3.144   1.908   0.524  0.00  0.00     0.017 A 
ATOM      5  C4  UNL d   1      -3.314   3.135  -0.126  0.00  0.00     0.017 A 
ATOM      6  C5  UNL d   1      -4.452   3.907   0.132  0.00  0.00     0.034 A 
ATOM      7 Cl   UNL d   1      -2.161   3.754  -1.255  0.00  0.00    -0.070 Cl
ATOM      8 Cl1  UNL d   1      -1.767   0.899   0.259  0.00  0.00    -0.070 Cl
ENDROOT
TORSDOF 0
ENDMDL
