MODEL 1
REMARK minimizedAffinity 9.53212261
REMARK minimizedRMSD -1
REMARK  0 active torsions:
REMARK  status: ('A' for Active; 'I' for Inactive)
ROOT
ATOM      1  C   UNL d   1       2.001  -1.144   2.610  0.00  0.00     0.020 A 
ATOM      2  C1  UNL d   1       1.221  -2.288   2.441  0.00  0.00     0.020 A 
ATOM      3  C2  UNL d   1       1.602  -3.487   3.047  0.00  0.00     0.034 A 
ATOM      4  C3  UNL d   1       2.764  -3.546   3.824  0.00  0.00     0.017 A 
ATOM      5  C4  UNL d   1       3.546  -2.397   3.993  0.00  0.00     0.017 A 
ATOM      6  C5  UNL d   1       3.160  -1.198   3.384  0.00  0.00     0.034 A 
ATOM      7 Cl   UNL d   1       4.993  -2.391   4.938  0.00  0.00    -0.070 Cl
ATOM      8 Cl1  UNL d   1       3.174  -5.062   4.545  0.00  0.00    -0.070 Cl
ENDROOT
TORSDOF 0
ENDMDL
