MODEL 1
REMARK minimizedAffinity 10.4326668
REMARK minimizedRMSD -1
REMARK  0 active torsions:
REMARK  status: ('A' for Active; 'I' for Inactive)
ROOT
ATOM      1  C   UNL d   1      -2.747   0.254  -2.788  0.00  0.00     0.020 A 
ATOM      2  C1  UNL d   1      -2.877  -1.111  -3.042  0.00  0.00     0.020 A 
ATOM      3  C2  UNL d   1      -3.750  -1.556  -4.036  0.00  0.00     0.034 A 
ATOM      4  C3  UNL d   1      -4.498  -0.636  -4.780  0.00  0.00     0.017 A 
ATOM      5  C4  UNL d   1      -4.368   0.734  -4.524  0.00  0.00     0.017 A 
ATOM      6  C5  UNL d   1      -3.491   1.174  -3.527  0.00  0.00     0.034 A 
ATOM      7 Cl   UNL d   1      -5.257   1.929  -5.400  0.00  0.00    -0.070 Cl
ATOM      8 Cl1  UNL d   1      -5.559  -1.257  -5.994  0.00  0.00    -0.070 Cl
ENDROOT
TORSDOF 0
ENDMDL
