MODEL 1
REMARK minimizedAffinity 10.0473328
REMARK minimizedRMSD -1
REMARK  0 active torsions:
REMARK  status: ('A' for Active; 'I' for Inactive)
ROOT
ATOM      1  C   UNL d   1       3.719  -4.421   4.289  0.00  0.00     0.020 A 
ATOM      2  C1  UNL d   1       2.857  -5.266   3.590  0.00  0.00     0.020 A 
ATOM      3  C2  UNL d   1       1.867  -4.727   2.766  0.00  0.00     0.034 A 
ATOM      4  C3  UNL d   1       1.735  -3.339   2.639  0.00  0.00     0.017 A 
ATOM      5  C4  UNL d   1       2.600  -2.492   3.341  0.00  0.00     0.017 A 
ATOM      6  C5  UNL d   1       3.590  -3.037   4.164  0.00  0.00     0.034 A 
ATOM      7 Cl   UNL d   1       2.499  -0.770   3.234  0.00  0.00    -0.070 Cl
ATOM      8 Cl1  UNL d   1       0.488  -2.742   1.602  0.00  0.00    -0.070 Cl
ENDROOT
TORSDOF 0
ENDMDL
