MODEL 1
REMARK minimizedAffinity 6.73543072
REMARK minimizedRMSD -1
REMARK  0 active torsions:
REMARK  status: ('A' for Active; 'I' for Inactive)
ROOT
ATOM      1  C   UNL d   1       2.203  -1.434   3.980  0.00  0.00     0.020 A 
ATOM      2  C1  UNL d   1       1.853  -1.506   2.632  0.00  0.00     0.020 A 
ATOM      3  C2  UNL d   1       1.506  -2.734   2.066  0.00  0.00     0.034 A 
ATOM      4  C3  UNL d   1       1.508  -3.896   2.847  0.00  0.00     0.017 A 
ATOM      5  C4  UNL d   1       1.860  -3.823   4.199  0.00  0.00     0.017 A 
ATOM      6  C5  UNL d   1       2.206  -2.590   4.762  0.00  0.00     0.034 A 
ATOM      7 Cl   UNL d   1       1.886  -5.212   5.227  0.00  0.00    -0.070 Cl
ATOM      8 Cl1  UNL d   1       1.068  -5.380   2.080  0.00  0.00    -0.070 Cl
ENDROOT
TORSDOF 0
ENDMDL
