MODEL 1
REMARK minimizedAffinity 7.11412239
REMARK minimizedRMSD -1
REMARK  0 active torsions:
REMARK  status: ('A' for Active; 'I' for Inactive)
ROOT
ATOM      1  C   UNL d   1       1.848  -0.717   3.700  0.00  0.00     0.020 A 
ATOM      2  C1  UNL d   1       1.922  -1.165   2.382  0.00  0.00     0.020 A 
ATOM      3  C2  UNL d   1       2.348  -0.299   1.372  0.00  0.00     0.034 A 
ATOM      4  C3  UNL d   1       2.701   1.020   1.680  0.00  0.00     0.017 A 
ATOM      5  C4  UNL d   1       2.627   1.469   3.003  0.00  0.00     0.017 A 
ATOM      6  C5  UNL d   1       2.200   0.597   4.010  0.00  0.00     0.034 A 
ATOM      7 Cl   UNL d   1       3.046   3.082   3.460  0.00  0.00    -0.070 Cl
ATOM      8 Cl1  UNL d   1       3.219   2.037   0.382  0.00  0.00    -0.070 Cl
ENDROOT
TORSDOF 0
ENDMDL
