MODEL 1
REMARK minimizedAffinity -0.359385878
REMARK minimizedRMSD -1
REMARK  1 active torsions:
REMARK  status: ('A' for Active; 'I' for Inactive)
REMARK    1  A    between atoms: C1_2  and  C2_3 
ROOT
ATOM      1  C2  UNL d   1       5.626  -3.905   3.062  0.00  0.00    -0.073 A 
ATOM      2  C3  UNL d   1       5.999  -5.104   3.681  0.00  0.00    -0.002 A 
ATOM      3  C4  UNL d   1       5.773  -5.293   5.045  0.00  0.00     0.004 A 
ATOM      4  C5  UNL d   1       5.167  -4.290   5.802  0.00  0.00    -0.004 A 
ATOM      5  C6  UNL d   1       4.776  -3.090   5.199  0.00  0.00    -0.075 A 
ATOM      6  C7  UNL d   1       4.124  -2.001   5.999  0.00  0.00     0.076 C 
ATOM      7  C8  UNL d   1       5.009  -2.907   3.829  0.00  0.00     0.001 A 
ENDROOT
BRANCH   1   8
ATOM      8  C1  UNL d   1       5.862  -3.699   1.588  0.00  0.00     0.053 C 
ATOM      9  C   UNL d   1       5.999  -5.017   0.843  0.00  0.00     0.018 C 
ENDBRANCH   1   8
TORSDOF 1
ENDMDL
