MODEL 1
REMARK minimizedAffinity -1.75341856
REMARK minimizedRMSD -1
REMARK  1 active torsions:
REMARK  status: ('A' for Active; 'I' for Inactive)
REMARK    1  A    between atoms: C1_2  and  C2_3 
ROOT
ATOM      1  C2  UNL d   1       5.802  -3.645   3.134  0.00  0.00    -0.073 A 
ATOM      2  C3  UNL d   1       5.992  -2.441   3.821  0.00  0.00    -0.002 A 
ATOM      3  C4  UNL d   1       5.813  -2.383   5.204  0.00  0.00     0.004 A 
ATOM      4  C5  UNL d   1       5.450  -3.527   5.914  0.00  0.00    -0.004 A 
ATOM      5  C6  UNL d   1       5.267  -4.742   5.247  0.00  0.00    -0.075 A 
ATOM      6  C7  UNL d   1       4.874  -5.982   5.996  0.00  0.00     0.076 C 
ATOM      7  C8  UNL d   1       5.445  -4.793   3.858  0.00  0.00     0.001 A 
ENDROOT
BRANCH   1   8
ATOM      8  C1  UNL d   1       6.000  -3.715   1.642  0.00  0.00     0.053 C 
ATOM      9  C   UNL d   1       5.999  -5.148   1.133  0.00  0.00     0.018 C 
ENDBRANCH   1   8
TORSDOF 1
ENDMDL
