MODEL 1
REMARK minimizedAffinity -1.21280754
REMARK minimizedRMSD -1
REMARK  1 active torsions:
REMARK  status: ('A' for Active; 'I' for Inactive)
REMARK    1  A    between atoms: C1_2  and  C2_3 
ROOT
ATOM      1  C2  UNL d   1       5.936  -3.437   3.180  0.00  0.00    -0.073 A 
ATOM      2  C3  UNL d   1       5.965  -2.240   3.905  0.00  0.00    -0.002 A 
ATOM      3  C4  UNL d   1       5.965  -2.261   5.300  0.00  0.00     0.004 A 
ATOM      4  C5  UNL d   1       5.941  -3.476   5.984  0.00  0.00    -0.004 A 
ATOM      5  C6  UNL d   1       5.923  -4.683   5.277  0.00  0.00    -0.075 A 
ATOM      6  C7  UNL d   1       5.895  -5.999   5.998  0.00  0.00     0.076 C 
ATOM      7  C8  UNL d   1       5.921  -4.654   3.876  0.00  0.00     0.001 A 
ENDROOT
BRANCH   1   8
ATOM      8  C1  UNL d   1       5.943  -3.419   1.673  0.00  0.00     0.053 C 
ATOM      9  C   UNL d   1       5.993  -4.821   1.087  0.00  0.00     0.018 C 
ENDBRANCH   1   8
TORSDOF 1
ENDMDL
