MODEL 1
REMARK minimizedAffinity -3.62595034
REMARK minimizedRMSD -1
REMARK  1 active torsions:
REMARK  status: ('A' for Active; 'I' for Inactive)
REMARK    1  A    between atoms: C1_2  and  C2_3 
ROOT
ATOM      1  C2  UNL d   1       5.275  -3.806   4.710  0.00  0.00    -0.073 A 
ATOM      2  C3  UNL d   1       5.459  -2.420   4.657  0.00  0.00    -0.002 A 
ATOM      3  C4  UNL d   1       5.822  -1.803   3.459  0.00  0.00     0.004 A 
ATOM      4  C5  UNL d   1       6.000  -2.563   2.303  0.00  0.00    -0.004 A 
ATOM      5  C6  UNL d   1       5.810  -3.948   2.334  0.00  0.00    -0.075 A 
ATOM      6  C7  UNL d   1       5.999  -4.781   1.100  0.00  0.00     0.076 C 
ATOM      7  C8  UNL d   1       5.447  -4.561   3.541  0.00  0.00     0.001 A 
ENDROOT
BRANCH   1   8
ATOM      8  C1  UNL d   1       4.876  -4.476   6.000  0.00  0.00     0.053 C 
ATOM      9  C   UNL d   1       4.140  -5.784   5.758  0.00  0.00     0.018 C 
ENDBRANCH   1   8
TORSDOF 1
ENDMDL
