MODEL 1
REMARK minimizedAffinity 0.620048881
REMARK minimizedRMSD -1
REMARK  1 active torsions:
REMARK  status: ('A' for Active; 'I' for Inactive)
REMARK    1  A    between atoms: C1_2  and  C2_3 
ROOT
ATOM      1  C2  UNL d   1       5.893  -4.878   4.109  0.00  0.00    -0.073 A 
ATOM      2  C3  UNL d   1       5.915  -3.491   4.293  0.00  0.00    -0.002 A 
ATOM      3  C4  UNL d   1       5.972  -2.634   3.193  0.00  0.00     0.004 A 
ATOM      4  C5  UNL d   1       5.999  -3.154   1.899  0.00  0.00    -0.004 A 
ATOM      5  C6  UNL d   1       5.966  -4.537   1.694  0.00  0.00    -0.075 A 
ATOM      6  C7  UNL d   1       5.997  -5.112   0.308  0.00  0.00     0.076 C 
ATOM      7  C8  UNL d   1       5.912  -5.391   2.804  0.00  0.00     0.001 A 
ENDROOT
BRANCH   1   8
ATOM      8  C1  UNL d   1       5.826  -5.807   5.293  0.00  0.00     0.053 C 
ATOM      9  C   UNL d   1       4.415  -5.924   5.847  0.00  0.00     0.018 C 
ENDBRANCH   1   8
TORSDOF 1
ENDMDL
