MODEL 1
REMARK minimizedAffinity -3.16308355
REMARK minimizedRMSD -1
REMARK  1 active torsions:
REMARK  status: ('A' for Active; 'I' for Inactive)
REMARK    1  A    between atoms: C1_2  and  C2_3 
ROOT
ATOM      1  C2  UNL d   1       5.378  -4.579   4.626  0.00  0.00    -0.073 A 
ATOM      2  C3  UNL d   1       5.265  -3.313   5.212  0.00  0.00    -0.002 A 
ATOM      3  C4  UNL d   1       5.397  -2.162   4.434  0.00  0.00     0.004 A 
ATOM      4  C5  UNL d   1       5.636  -2.264   3.064  0.00  0.00    -0.004 A 
ATOM      5  C6  UNL d   1       5.740  -3.520   2.458  0.00  0.00    -0.075 A 
ATOM      6  C7  UNL d   1       5.999  -3.647   0.985  0.00  0.00     0.076 C 
ATOM      7  C8  UNL d   1       5.609  -4.671   3.246  0.00  0.00     0.001 A 
ENDROOT
BRANCH   1   8
ATOM      8  C1  UNL d   1       5.230  -5.825   5.460  0.00  0.00     0.053 C 
ATOM      9  C   UNL d   1       3.811  -5.999   5.978  0.00  0.00     0.018 C 
ENDBRANCH   1   8
TORSDOF 1
ENDMDL
