MODEL 1
REMARK minimizedAffinity -3.34706926
REMARK minimizedRMSD -1
REMARK  1 active torsions:
REMARK  status: ('A' for Active; 'I' for Inactive)
REMARK    1  A    between atoms: C1_2  and  C2_3 
ROOT
ATOM      1  C2  UNL d   1       4.686  -4.603   5.285  0.00  0.00    -0.073 A 
ATOM      2  C3  UNL d   1       4.887  -3.391   5.955  0.00  0.00    -0.002 A 
ATOM      3  C4  UNL d   1       5.452  -2.302   5.290  0.00  0.00     0.004 A 
ATOM      4  C5  UNL d   1       5.816  -2.412   3.948  0.00  0.00    -0.004 A 
ATOM      5  C6  UNL d   1       5.612  -3.611   3.257  0.00  0.00    -0.075 A 
ATOM      6  C7  UNL d   1       6.000  -3.745   1.814  0.00  0.00     0.076 C 
ATOM      7  C8  UNL d   1       5.046  -4.700   3.933  0.00  0.00     0.001 A 
ENDROOT
BRANCH   1   8
ATOM      8  C1  UNL d   1       4.070  -5.779   5.997  0.00  0.00     0.053 C 
ATOM      9  C   UNL d   1       2.612  -5.978   5.613  0.00  0.00     0.018 C 
ENDBRANCH   1   8
TORSDOF 1
ENDMDL
