MODEL 1
REMARK minimizedAffinity -1.11652613
REMARK minimizedRMSD -1
REMARK  1 active torsions:
REMARK  status: ('A' for Active; 'I' for Inactive)
REMARK    1  A    between atoms: C1_2  and  C2_3 
ROOT
ATOM      1  C2  UNL d   1       5.311  -4.501   4.941  0.00  0.00    -0.073 A 
ATOM      2  C3  UNL d   1       5.474  -3.536   5.941  0.00  0.00    -0.002 A 
ATOM      3  C4  UNL d   1       5.813  -2.225   5.607  0.00  0.00     0.004 A 
ATOM      4  C5  UNL d   1       5.986  -1.863   4.270  0.00  0.00    -0.004 A 
ATOM      5  C6  UNL d   1       5.815  -2.811   3.256  0.00  0.00    -0.075 A 
ATOM      6  C7  UNL d   1       6.000  -2.439   1.814  0.00  0.00     0.076 C 
ATOM      7  C8  UNL d   1       5.477  -4.126   3.600  0.00  0.00     0.001 A 
ENDROOT
BRANCH   1   8
ATOM      8  C1  UNL d   1       4.938  -5.917   5.297  0.00  0.00     0.053 C 
ATOM      9  C   UNL d   1       3.572  -5.997   5.961  0.00  0.00     0.018 C 
ENDBRANCH   1   8
TORSDOF 1
ENDMDL
