MODEL 1
REMARK minimizedAffinity -1.85513055
REMARK minimizedRMSD -1
REMARK  1 active torsions:
REMARK  status: ('A' for Active; 'I' for Inactive)
REMARK    1  A    between atoms: C1_2  and  C2_3 
ROOT
ATOM      1  C2  UNL d   1       5.439  -4.479   4.815  0.00  0.00    -0.073 A 
ATOM      2  C3  UNL d   1       5.516  -3.354   5.644  0.00  0.00    -0.002 A 
ATOM      3  C4  UNL d   1       5.756  -2.092   5.099  0.00  0.00     0.004 A 
ATOM      4  C5  UNL d   1       5.914  -1.941   3.722  0.00  0.00    -0.004 A 
ATOM      5  C6  UNL d   1       5.828  -3.051   2.875  0.00  0.00    -0.075 A 
ATOM      6  C7  UNL d   1       5.998  -2.905   1.392  0.00  0.00     0.076 C 
ATOM      7  C8  UNL d   1       5.590  -4.316   3.430  0.00  0.00     0.001 A 
ENDROOT
BRANCH   1   8
ATOM      8  C1  UNL d   1       5.174  -5.843   5.398  0.00  0.00     0.053 C 
ATOM      9  C   UNL d   1       3.730  -5.999   5.849  0.00  0.00     0.018 C 
ENDBRANCH   1   8
TORSDOF 1
ENDMDL
