MODEL 1
REMARK minimizedAffinity -3.39730883
REMARK minimizedRMSD -1
REMARK  1 active torsions:
REMARK  status: ('A' for Active; 'I' for Inactive)
REMARK    1  A    between atoms: C1_2  and  C2_3 
ROOT
ATOM      1  C2  UNL d   1       5.730  -3.179   3.254  0.00  0.00    -0.073 A 
ATOM      2  C3  UNL d   1       5.253  -2.104   4.012  0.00  0.00    -0.002 A 
ATOM      3  C4  UNL d   1       5.010  -2.257   5.378  0.00  0.00     0.004 A 
ATOM      4  C5  UNL d   1       5.249  -3.483   6.000  0.00  0.00    -0.004 A 
ATOM      5  C6  UNL d   1       5.737  -4.566   5.261  0.00  0.00    -0.075 A 
ATOM      6  C7  UNL d   1       5.997  -5.891   5.915  0.00  0.00     0.076 C 
ATOM      7  C8  UNL d   1       5.975  -4.404   3.890  0.00  0.00     0.001 A 
ENDROOT
BRANCH   1   8
ATOM      8  C1  UNL d   1       5.999  -3.016   1.780  0.00  0.00     0.053 C 
ATOM      9  C   UNL d   1       6.000  -4.350   1.050  0.00  0.00     0.018 C 
ENDBRANCH   1   8
TORSDOF 1
ENDMDL
