MODEL 1
REMARK minimizedAffinity -0.932359278
REMARK minimizedRMSD -1
REMARK  1 active torsions:
REMARK  status: ('A' for Active; 'I' for Inactive)
REMARK    1  A    between atoms: C1_2  and  C2_3 
ROOT
ATOM      1  C2  UNL d   1       4.887  -4.608   4.775  0.00  0.00    -0.073 A 
ATOM      2  C3  UNL d   1       5.155  -3.932   5.970  0.00  0.00    -0.002 A 
ATOM      3  C4  UNL d   1       5.700  -2.647   5.947  0.00  0.00     0.004 A 
ATOM      4  C5  UNL d   1       5.977  -2.024   4.730  0.00  0.00    -0.004 A 
ATOM      5  C6  UNL d   1       5.706  -2.679   3.524  0.00  0.00    -0.075 A 
ATOM      6  C7  UNL d   1       5.999  -2.024   2.207  0.00  0.00     0.076 C 
ATOM      7  C8  UNL d   1       5.160  -3.970   3.556  0.00  0.00     0.001 A 
ENDROOT
BRANCH   1   8
ATOM      8  C1  UNL d   1       4.292  -5.992   4.795  0.00  0.00     0.053 C 
ATOM      9  C   UNL d   1       2.822  -5.987   4.407  0.00  0.00     0.018 C 
ENDBRANCH   1   8
TORSDOF 1
ENDMDL
