MODEL 1
REMARK minimizedAffinity -1.86078691
REMARK minimizedRMSD -1
REMARK  1 active torsions:
REMARK  status: ('A' for Active; 'I' for Inactive)
REMARK    1  A    between atoms: C1_2  and  C2_3 
ROOT
ATOM      1  C2  UNL d   1       5.998  -4.417   2.881  0.00  0.00    -0.073 A 
ATOM      2  C3  UNL d   1       5.999  -5.621   3.593  0.00  0.00    -0.002 A 
ATOM      3  C4  UNL d   1       5.993  -5.615   4.988  0.00  0.00     0.004 A 
ATOM      4  C5  UNL d   1       5.980  -4.407   5.685  0.00  0.00    -0.004 A 
ATOM      5  C6  UNL d   1       5.967  -3.193   4.991  0.00  0.00    -0.075 A 
ATOM      6  C7  UNL d   1       5.954  -1.885   5.726  0.00  0.00     0.076 C 
ATOM      7  C8  UNL d   1       5.975  -3.207   3.590  0.00  0.00     0.001 A 
ENDROOT
BRANCH   1   8
ATOM      8  C1  UNL d   1       5.997  -4.418   1.374  0.00  0.00     0.053 C 
ATOM      9  C   UNL d   1       5.991  -5.828   0.805  0.00  0.00     0.018 C 
ENDBRANCH   1   8
TORSDOF 1
ENDMDL
