MODEL 1
REMARK minimizedAffinity -3.27378678
REMARK minimizedRMSD -1
REMARK  1 active torsions:
REMARK  status: ('A' for Active; 'I' for Inactive)
REMARK    1  A    between atoms: C1_2  and  C2_3 
ROOT
ATOM      1  C2  UNL d   1       5.236  -3.302   3.322  0.00  0.00    -0.073 A 
ATOM      2  C3  UNL d   1       6.000  -2.751   4.357  0.00  0.00    -0.002 A 
ATOM      3  C4  UNL d   1       5.666  -2.999   5.689  0.00  0.00     0.004 A 
ATOM      4  C5  UNL d   1       4.571  -3.805   6.000  0.00  0.00    -0.004 A 
ATOM      5  C6  UNL d   1       3.802  -4.375   4.980  0.00  0.00    -0.075 A 
ATOM      6  C7  UNL d   1       2.620  -5.243   5.298  0.00  0.00     0.076 C 
ATOM      7  C8  UNL d   1       4.142  -4.119   3.645  0.00  0.00     0.001 A 
ENDROOT
BRANCH   1   8
ATOM      8  C1  UNL d   1       5.596  -3.042   1.882  0.00  0.00     0.053 C 
ATOM      9  C   UNL d   1       5.999  -4.316   1.157  0.00  0.00     0.018 C 
ENDBRANCH   1   8
TORSDOF 1
ENDMDL
