MODEL 1
REMARK minimizedAffinity 0.877355635
REMARK minimizedRMSD -1
REMARK  1 active torsions:
REMARK  status: ('A' for Active; 'I' for Inactive)
REMARK    1  A    between atoms: C1_2  and  C2_3 
ROOT
ATOM      1  C2  UNL d   1       5.405  -4.434   3.530  0.00  0.00    -0.073 A 
ATOM      2  C3  UNL d   1       4.407  -5.176   4.173  0.00  0.00    -0.002 A 
ATOM      3  C4  UNL d   1       3.899  -4.757   5.403  0.00  0.00     0.004 A 
ATOM      4  C5  UNL d   1       4.378  -3.590   6.000  0.00  0.00    -0.004 A 
ATOM      5  C6  UNL d   1       5.367  -2.829   5.367  0.00  0.00    -0.075 A 
ATOM      6  C7  UNL d   1       5.894  -1.573   5.997  0.00  0.00     0.076 C 
ATOM      7  C8  UNL d   1       5.873  -3.258   4.133  0.00  0.00     0.001 A 
ENDROOT
BRANCH   1   8
ATOM      8  C1  UNL d   1       5.951  -4.879   2.198  0.00  0.00     0.053 C 
ATOM      9  C   UNL d   1       5.999  -3.740   1.192  0.00  0.00     0.018 C 
ENDBRANCH   1   8
TORSDOF 1
ENDMDL
