MODEL 1
REMARK minimizedAffinity 1.04912519
REMARK minimizedRMSD -1
REMARK  0 active torsions:
REMARK  status: ('A' for Active; 'I' for Inactive)
ROOT
ATOM      1  C   UNL d   1       4.916   6.000   5.638  0.00  0.00     0.078 C 
ATOM      2  C1  UNL d   1       3.545   5.696   5.110  0.00  0.00    -0.077 A 
ATOM      3  C2  UNL d   1       3.370   5.121   3.845  0.00  0.00    -0.001 A 
ATOM      4  C3  UNL d   1       2.088   4.853   3.363  0.00  0.00     0.003 A 
ATOM      5  C4  UNL d   1       0.971   5.157   4.139  0.00  0.00    -0.005 A 
ATOM      6  C5  UNL d   1       1.135   5.731   5.398  0.00  0.00     0.003 A 
ATOM      7  C6  UNL d   1       2.416   6.000   5.882  0.00  0.00    -0.001 A 
ENDROOT
TORSDOF 0
ENDMDL
