MODEL 1
REMARK minimizedAffinity 4.26246643
REMARK minimizedRMSD -1
REMARK  0 active torsions:
REMARK  status: ('A' for Active; 'I' for Inactive)
ROOT
ATOM      1  C   UNL d   1       1.979   2.568   3.575  0.00  0.00     0.078 C 
ATOM      2  C1  UNL d   1       2.476   3.762   4.333  0.00  0.00    -0.077 A 
ATOM      3  C2  UNL d   1       3.753   3.771   4.909  0.00  0.00    -0.001 A 
ATOM      4  C3  UNL d   1       4.199   4.885   5.621  0.00  0.00     0.003 A 
ATOM      5  C4  UNL d   1       3.375   6.000   5.764  0.00  0.00    -0.005 A 
ATOM      6  C5  UNL d   1       2.102   6.000   5.196  0.00  0.00     0.003 A 
ATOM      7  C6  UNL d   1       1.654   4.886   4.485  0.00  0.00    -0.001 A 
ENDROOT
TORSDOF 0
ENDMDL
