MODEL 1
REMARK minimizedAffinity -1.6009649
REMARK minimizedRMSD -1
REMARK  0 active torsions:
REMARK  status: ('A' for Active; 'I' for Inactive)
ROOT
ATOM      1  C   UNL d   1       4.095   5.999   5.979  0.00  0.00     0.078 C 
ATOM      2  C1  UNL d   1       3.084   5.351   5.082  0.00  0.00    -0.077 A 
ATOM      3  C2  UNL d   1       3.336   4.106   4.492  0.00  0.00    -0.001 A 
ATOM      4  C3  UNL d   1       2.389   3.519   3.651  0.00  0.00     0.003 A 
ATOM      5  C4  UNL d   1       1.185   4.170   3.391  0.00  0.00    -0.005 A 
ATOM      6  C5  UNL d   1       0.926   5.410   3.972  0.00  0.00     0.003 A 
ATOM      7  C6  UNL d   1       1.871   5.999   4.813  0.00  0.00    -0.001 A 
ENDROOT
TORSDOF 0
ENDMDL
