MODEL 1
REMARK minimizedAffinity -2.51111984
REMARK minimizedRMSD -1
REMARK  0 active torsions:
REMARK  status: ('A' for Active; 'I' for Inactive)
ROOT
ATOM      1  C   UNL d   1       1.629   4.549  -6.000  0.00  0.00     0.078 C 
ATOM      2  C1  UNL d   1       3.128   4.501  -5.998  0.00  0.00    -0.077 A 
ATOM      3  C2  UNL d   1       3.810   3.278  -5.999  0.00  0.00    -0.001 A 
ATOM      4  C3  UNL d   1       5.206   3.249  -5.988  0.00  0.00     0.003 A 
ATOM      5  C4  UNL d   1       5.931   4.438  -5.973  0.00  0.00    -0.005 A 
ATOM      6  C5  UNL d   1       5.261   5.660  -5.969  0.00  0.00     0.003 A 
ATOM      7  C6  UNL d   1       3.865   5.692  -5.981  0.00  0.00    -0.001 A 
ENDROOT
TORSDOF 0
ENDMDL
