MODEL 1
REMARK minimizedAffinity -1.45847881
REMARK minimizedRMSD -1
REMARK  0 active torsions:
REMARK  status: ('A' for Active; 'I' for Inactive)
ROOT
ATOM      1  C   UNL d   1       3.928   5.997   5.672  0.00  0.00     0.078 C 
ATOM      2  C1  UNL d   1       2.782   5.356   4.947  0.00  0.00    -0.077 A 
ATOM      3  C2  UNL d   1       1.542   5.998   4.848  0.00  0.00    -0.001 A 
ATOM      4  C3  UNL d   1       0.481   5.385   4.179  0.00  0.00     0.003 A 
ATOM      5  C4  UNL d   1       0.650   4.127   3.605  0.00  0.00    -0.005 A 
ATOM      6  C5  UNL d   1       1.880   3.479   3.700  0.00  0.00     0.003 A 
ATOM      7  C6  UNL d   1       2.942   4.091   4.369  0.00  0.00    -0.001 A 
ENDROOT
TORSDOF 0
ENDMDL
