MODEL 1
REMARK minimizedAffinity -0.575655758
REMARK minimizedRMSD -1
REMARK  0 active torsions:
REMARK  status: ('A' for Active; 'I' for Inactive)
ROOT
ATOM      1  C   UNL d   1       2.503   3.021   2.662  0.00  0.00     0.078 C 
ATOM      2  C1  UNL d   1       1.756   4.067   3.435  0.00  0.00    -0.077 A 
ATOM      3  C2  UNL d   1       2.429   4.957   4.280  0.00  0.00    -0.001 A 
ATOM      4  C3  UNL d   1       1.720   5.920   5.001  0.00  0.00     0.003 A 
ATOM      5  C4  UNL d   1       0.333   6.000   4.884  0.00  0.00    -0.005 A 
ATOM      6  C5  UNL d   1      -0.345   5.116   4.047  0.00  0.00     0.003 A 
ATOM      7  C6  UNL d   1       0.363   4.153   3.326  0.00  0.00    -0.001 A 
ENDROOT
TORSDOF 0
ENDMDL
