MODEL 1
REMARK minimizedAffinity -2.78214645
REMARK minimizedRMSD -1
REMARK  0 active torsions:
REMARK  status: ('A' for Active; 'I' for Inactive)
ROOT
ATOM      1  C   UNL d   1       2.415   5.676  -5.999  0.00  0.00     0.078 C 
ATOM      2  C1  UNL d   1       3.489   4.630  -5.990  0.00  0.00    -0.077 A 
ATOM      3  C2  UNL d   1       4.843   4.987  -5.987  0.00  0.00    -0.001 A 
ATOM      4  C3  UNL d   1       5.833   4.003  -5.988  0.00  0.00     0.003 A 
ATOM      5  C4  UNL d   1       5.479   2.655  -5.993  0.00  0.00    -0.005 A 
ATOM      6  C5  UNL d   1       4.134   2.290  -5.998  0.00  0.00     0.003 A 
ATOM      7  C6  UNL d   1       3.143   3.273  -5.997  0.00  0.00    -0.001 A 
ENDROOT
TORSDOF 0
ENDMDL
