MODEL 1
REMARK minimizedAffinity -0.0598094985
REMARK minimizedRMSD -1
REMARK  0 active torsions:
REMARK  status: ('A' for Active; 'I' for Inactive)
ROOT
ATOM      1  C   UNL d   1      -0.407   5.997   4.493  0.00  0.00     0.078 C 
ATOM      2  C1  UNL d   1       0.987   5.480   4.692  0.00  0.00    -0.077 A 
ATOM      3  C2  UNL d   1       1.510   4.480   3.864  0.00  0.00    -0.001 A 
ATOM      4  C3  UNL d   1       2.806   4.002   4.066  0.00  0.00     0.003 A 
ATOM      5  C4  UNL d   1       3.589   4.518   5.097  0.00  0.00    -0.005 A 
ATOM      6  C5  UNL d   1       3.076   5.512   5.927  0.00  0.00     0.003 A 
ATOM      7  C6  UNL d   1       1.781   5.991   5.726  0.00  0.00    -0.001 A 
ENDROOT
TORSDOF 0
ENDMDL
