MODEL 1
REMARK minimizedAffinity -1.53657842
REMARK minimizedRMSD -1
REMARK  0 active torsions:
REMARK  status: ('A' for Active; 'I' for Inactive)
ROOT
ATOM      1  C   UNL d   1       4.359   5.998   5.603  0.00  0.00     0.078 C 
ATOM      2  C1  UNL d   1       2.956   5.809   5.108  0.00  0.00    -0.077 A 
ATOM      3  C2  UNL d   1       2.702   5.455   3.777  0.00  0.00    -0.001 A 
ATOM      4  C3  UNL d   1       1.391   5.292   3.328  0.00  0.00     0.003 A 
ATOM      5  C4  UNL d   1       0.323   5.481   4.203  0.00  0.00    -0.005 A 
ATOM      6  C5  UNL d   1       0.565   5.836   5.528  0.00  0.00     0.003 A 
ATOM      7  C6  UNL d   1       1.876   6.000   5.979  0.00  0.00    -0.001 A 
ENDROOT
TORSDOF 0
ENDMDL
