MODEL 1
REMARK minimizedAffinity -0.356577247
REMARK minimizedRMSD -1
REMARK  0 active torsions:
REMARK  status: ('A' for Active; 'I' for Inactive)
ROOT
ATOM      1  C   UNL d   1       3.038   3.384   2.681  0.00  0.00     0.078 C 
ATOM      2  C1  UNL d   1       2.332   4.286   3.650  0.00  0.00    -0.077 A 
ATOM      3  C2  UNL d   1       0.964   4.554   3.520  0.00  0.00    -0.001 A 
ATOM      4  C3  UNL d   1       0.323   5.403   4.423  0.00  0.00     0.003 A 
ATOM      5  C4  UNL d   1       1.041   5.992   5.461  0.00  0.00    -0.005 A 
ATOM      6  C5  UNL d   1       2.404   5.733   5.597  0.00  0.00     0.003 A 
ATOM      7  C6  UNL d   1       3.047   4.884   4.695  0.00  0.00    -0.001 A 
ENDROOT
TORSDOF 0
ENDMDL
