MODEL 1
REMARK minimizedAffinity -2.58225274
REMARK minimizedRMSD -1
REMARK  0 active torsions:
REMARK  status: ('A' for Active; 'I' for Inactive)
ROOT
ATOM      1  C   UNL d   1       3.013   3.008   2.584  0.00  0.00     0.078 C 
ATOM      2  C1  UNL d   1       2.351   4.054   3.431  0.00  0.00    -0.077 A 
ATOM      3  C2  UNL d   1       2.976   4.553   4.581  0.00  0.00    -0.001 A 
ATOM      4  C3  UNL d   1       2.344   5.519   5.365  0.00  0.00     0.003 A 
ATOM      5  C4  UNL d   1       1.083   5.994   5.009  0.00  0.00    -0.005 A 
ATOM      6  C5  UNL d   1       0.452   5.502   3.868  0.00  0.00     0.003 A 
ATOM      7  C6  UNL d   1       1.083   4.535   3.083  0.00  0.00    -0.001 A 
ENDROOT
TORSDOF 0
ENDMDL
