MODEL 1
REMARK minimizedAffinity -2.85321856
REMARK minimizedRMSD -1
REMARK  0 active torsions:
REMARK  status: ('A' for Active; 'I' for Inactive)
ROOT
ATOM      1  C   UNL d   1       2.090   3.762   0.918  0.00  0.00     0.023 A 
ATOM      2  C1  UNL d   1       2.746   2.531   0.911  0.00  0.00     0.003 A 
ATOM      3  C2  UNL d   1       2.043   1.365   0.604  0.00  0.00     0.048 A 
ATOM      4  C3  UNL d   1       0.683   1.436   0.305  0.00  0.00     0.023 A 
ATOM      5  C4  UNL d   1       0.022   2.666   0.310  0.00  0.00     0.048 A 
ATOM      6  C5  UNL d   1       0.729   3.829   0.618  0.00  0.00     0.003 A 
ATOM      7  I   UNL d   1      -0.367  -0.299  -0.152  0.00  0.00    -0.146 I 
ENDROOT
TORSDOF 0
ENDMDL
