MODEL 1
REMARK minimizedAffinity -3.77265859
REMARK minimizedRMSD -1
REMARK  0 active torsions:
REMARK  status: ('A' for Active; 'I' for Inactive)
ROOT
ATOM      1  C   UNL d   1      -0.917  -0.781  -0.287  0.00  0.00     0.023 A 
ATOM      2  C1  UNL d   1      -0.866  -0.441   1.065  0.00  0.00     0.003 A 
ATOM      3  C2  UNL d   1      -0.118   0.663   1.481  0.00  0.00     0.048 A 
ATOM      4  C3  UNL d   1       0.574   1.424   0.539  0.00  0.00     0.023 A 
ATOM      5  C4  UNL d   1       0.525   1.088  -0.815  0.00  0.00     0.048 A 
ATOM      6  C5  UNL d   1      -0.223  -0.017  -1.225  0.00  0.00     0.003 A 
ATOM      7  I   UNL d   1       1.687   3.067   1.155  0.00  0.00    -0.146 I 
ENDROOT
TORSDOF 0
ENDMDL
