MODEL 1
REMARK minimizedAffinity -1.43894112
REMARK minimizedRMSD -1
REMARK  0 active torsions:
REMARK  status: ('A' for Active; 'I' for Inactive)
ROOT
ATOM      1  C   UNL d   1      -0.286  -3.732   0.126  0.00  0.00     0.023 A 
ATOM      2  C1  UNL d   1      -1.216  -2.917   0.772  0.00  0.00     0.003 A 
ATOM      3  C2  UNL d   1      -1.058  -1.529   0.760  0.00  0.00     0.048 A 
ATOM      4  C3  UNL d   1       0.032  -0.963   0.099  0.00  0.00     0.023 A 
ATOM      5  C4  UNL d   1       0.964  -1.775  -0.550  0.00  0.00     0.048 A 
ATOM      6  C5  UNL d   1       0.802  -3.161  -0.534  0.00  0.00     0.003 A 
ATOM      7  I   UNL d   1       0.269   1.101   0.080  0.00  0.00    -0.146 I 
ENDROOT
TORSDOF 0
ENDMDL
