MODEL 1
REMARK minimizedAffinity -1.85642612
REMARK minimizedRMSD -1
REMARK  0 active torsions:
REMARK  status: ('A' for Active; 'I' for Inactive)
ROOT
ATOM      1  C   UNL d   1      -0.411  -2.203  -0.197  0.00  0.00     0.023 A 
ATOM      2  C1  UNL d   1      -0.841  -1.585   0.977  0.00  0.00     0.003 A 
ATOM      3  C2  UNL d   1      -0.603  -0.224   1.178  0.00  0.00     0.048 A 
ATOM      4  C3  UNL d   1       0.066   0.513   0.202  0.00  0.00     0.023 A 
ATOM      5  C4  UNL d   1       0.498  -0.101  -0.975  0.00  0.00     0.048 A 
ATOM      6  C5  UNL d   1       0.258  -1.462  -1.172  0.00  0.00     0.003 A 
ATOM      7  I   UNL d   1       0.421   2.539   0.500  0.00  0.00    -0.146 I 
ENDROOT
TORSDOF 0
ENDMDL
