MODEL 1
REMARK minimizedAffinity 0.604974329
REMARK minimizedRMSD -1
REMARK  0 active torsions:
REMARK  status: ('A' for Active; 'I' for Inactive)
ROOT
ATOM      1  C   UNL d   1       5.865  -3.401   5.999  0.00  0.00     0.023 A 
ATOM      2  C1  UNL d   1       5.961  -2.153   5.384  0.00  0.00     0.003 A 
ATOM      3  C2  UNL d   1       5.997  -2.059   3.992  0.00  0.00     0.048 A 
ATOM      4  C3  UNL d   1       5.935  -3.219   3.219  0.00  0.00     0.023 A 
ATOM      5  C4  UNL d   1       5.837  -4.470   3.830  0.00  0.00     0.048 A 
ATOM      6  C5  UNL d   1       5.803  -4.559   5.222  0.00  0.00     0.003 A 
ATOM      7  I   UNL d   1       5.988  -3.083   1.146  0.00  0.00    -0.146 I 
ENDROOT
TORSDOF 0
ENDMDL
