MODEL 1
REMARK minimizedAffinity 0.703821301
REMARK minimizedRMSD -1
REMARK  0 active torsions:
REMARK  status: ('A' for Active; 'I' for Inactive)
ROOT
ATOM      1  C   UNL d   1      -0.627  -0.779  -0.613  0.00  0.00     0.023 A 
ATOM      2  C1  UNL d   1      -0.668  -0.381   0.723  0.00  0.00     0.003 A 
ATOM      3  C2  UNL d   1      -0.105   0.837   1.108  0.00  0.00     0.048 A 
ATOM      4  C3  UNL d   1       0.498   1.653   0.151  0.00  0.00     0.023 A 
ATOM      5  C4  UNL d   1       0.541   1.260  -1.188  0.00  0.00     0.048 A 
ATOM      6  C5  UNL d   1      -0.023   0.041  -1.567  0.00  0.00     0.003 A 
ATOM      7  I   UNL d   1       1.337   3.467   0.721  0.00  0.00    -0.146 I 
ENDROOT
TORSDOF 0
ENDMDL
