MODEL 1
REMARK minimizedAffinity -2.19510221
REMARK minimizedRMSD -1
REMARK  0 active torsions:
REMARK  status: ('A' for Active; 'I' for Inactive)
ROOT
ATOM      1  C   UNL d   1      -0.851  -3.007  -0.314  0.00  0.00     0.023 A 
ATOM      2  C1  UNL d   1      -0.335  -2.534  -1.520  0.00  0.00     0.003 A 
ATOM      3  C2  UNL d   1       0.086  -1.207  -1.628  0.00  0.00     0.048 A 
ATOM      4  C3  UNL d   1      -0.012  -0.358  -0.526  0.00  0.00     0.023 A 
ATOM      5  C4  UNL d   1      -0.528  -0.828   0.683  0.00  0.00     0.048 A 
ATOM      6  C5  UNL d   1      -0.948  -2.155   0.786  0.00  0.00     0.003 A 
ATOM      7  I   UNL d   1       0.613   1.617  -0.685  0.00  0.00    -0.146 I 
ENDROOT
TORSDOF 0
ENDMDL
