MODEL 1
REMARK minimizedAffinity -3.54651475
REMARK minimizedRMSD -1
REMARK  0 active torsions:
REMARK  status: ('A' for Active; 'I' for Inactive)
ROOT
ATOM      1  C   UNL d   1      -0.805  -3.000  -0.263  0.00  0.00     0.023 A 
ATOM      2  C1  UNL d   1      -0.232  -2.369  -1.367  0.00  0.00     0.003 A 
ATOM      3  C2  UNL d   1       0.123  -1.020  -1.296  0.00  0.00     0.048 A 
ATOM      4  C3  UNL d   1      -0.096  -0.309  -0.117  0.00  0.00     0.023 A 
ATOM      5  C4  UNL d   1      -0.668  -0.937   0.991  0.00  0.00     0.048 A 
ATOM      6  C5  UNL d   1      -1.022  -2.285   0.915  0.00  0.00     0.003 A 
ATOM      7  I   UNL d   1       0.432   1.698  -0.008  0.00  0.00    -0.146 I 
ENDROOT
TORSDOF 0
ENDMDL
