MODEL 1
REMARK minimizedAffinity -1.75330782
REMARK minimizedRMSD -1
REMARK  0 active torsions:
REMARK  status: ('A' for Active; 'I' for Inactive)
ROOT
ATOM      1  C   UNL d   1       2.224   4.050   0.791  0.00  0.00     0.023 A 
ATOM      2  C1  UNL d   1       0.889   4.035   1.196  0.00  0.00     0.003 A 
ATOM      3  C2  UNL d   1       0.155   2.848   1.145  0.00  0.00     0.048 A 
ATOM      4  C3  UNL d   1       0.763   1.679   0.690  0.00  0.00     0.023 A 
ATOM      5  C4  UNL d   1       2.099   1.688   0.285  0.00  0.00     0.048 A 
ATOM      6  C5  UNL d   1       2.828   2.878   0.336  0.00  0.00     0.003 A 
ATOM      7  I   UNL d   1      -0.326  -0.090   0.614  0.00  0.00    -0.146 I 
ENDROOT
TORSDOF 0
ENDMDL
