MODEL 1
REMARK minimizedAffinity 1.42520154
REMARK minimizedRMSD -1
REMARK  0 active torsions:
REMARK  status: ('A' for Active; 'I' for Inactive)
ROOT
ATOM      1  C   UNL d   1       0.075   1.809   0.337  0.00  0.00     0.023 A 
ATOM      2  C1  UNL d   1      -0.517   1.141   1.409  0.00  0.00     0.003 A 
ATOM      3  C2  UNL d   1      -0.756  -0.232   1.333  0.00  0.00     0.048 A 
ATOM      4  C3  UNL d   1      -0.399  -0.933   0.181  0.00  0.00     0.023 A 
ATOM      5  C4  UNL d   1       0.194  -0.270  -0.895  0.00  0.00     0.048 A 
ATOM      6  C5  UNL d   1       0.430   1.104  -0.814  0.00  0.00     0.003 A 
ATOM      7  I   UNL d   1      -0.754  -2.977   0.065  0.00  0.00    -0.146 I 
ENDROOT
TORSDOF 0
ENDMDL
