MODEL 1
REMARK minimizedAffinity 0.0796072632
REMARK minimizedRMSD -1
REMARK  0 active torsions:
REMARK  status: ('A' for Active; 'I' for Inactive)
ROOT
ATOM      1  C   UNL d   1       0.256   1.782  -0.174  0.00  0.00     0.023 A 
ATOM      2  C1  UNL d   1      -0.438   1.451   0.990  0.00  0.00     0.003 A 
ATOM      3  C2  UNL d   1      -0.808   0.126   1.231  0.00  0.00     0.048 A 
ATOM      4  C3  UNL d   1      -0.479  -0.863   0.305  0.00  0.00     0.023 A 
ATOM      5  C4  UNL d   1       0.217  -0.536  -0.861  0.00  0.00     0.048 A 
ATOM      6  C5  UNL d   1       0.584   0.790  -1.098  0.00  0.00     0.003 A 
ATOM      7  I   UNL d   1      -1.027  -2.835   0.661  0.00  0.00    -0.146 I 
ENDROOT
TORSDOF 0
ENDMDL
