MODEL 1
REMARK minimizedAffinity -0.634132504
REMARK minimizedRMSD -1
REMARK  0 active torsions:
REMARK  status: ('A' for Active; 'I' for Inactive)
ROOT
ATOM      1  C   UNL d   1      -1.256  -1.629   0.845  0.00  0.00     0.023 A 
ATOM      2  C1  UNL d   1      -1.912  -0.530   1.400  0.00  0.00     0.003 A 
ATOM      3  C2  UNL d   1      -1.395   0.755   1.224  0.00  0.00     0.048 A 
ATOM      4  C3  UNL d   1      -0.222   0.935   0.491  0.00  0.00     0.023 A 
ATOM      5  C4  UNL d   1       0.437  -0.161  -0.067  0.00  0.00     0.048 A 
ATOM      6  C5  UNL d   1      -0.083  -1.445   0.113  0.00  0.00     0.003 A 
ATOM      7  I   UNL d   1       0.548   2.847   0.228  0.00  0.00    -0.146 I 
ENDROOT
TORSDOF 0
ENDMDL
