MODEL 1
REMARK minimizedAffinity -3.38472223
REMARK minimizedRMSD -1
REMARK  0 active torsions:
REMARK  status: ('A' for Active; 'I' for Inactive)
ROOT
ATOM      1  C   UNL d   1      -0.538  -2.286  -0.427  0.00  0.00     0.023 A 
ATOM      2  C1  UNL d   1      -0.559  -1.589   0.782  0.00  0.00     0.003 A 
ATOM      3  C2  UNL d   1      -0.036  -0.296   0.853  0.00  0.00     0.048 A 
ATOM      4  C3  UNL d   1       0.505   0.295  -0.288  0.00  0.00     0.023 A 
ATOM      5  C4  UNL d   1       0.527  -0.398  -1.500  0.00  0.00     0.048 A 
ATOM      6  C5  UNL d   1       0.004  -1.691  -1.566  0.00  0.00     0.003 A 
ATOM      7  I   UNL d   1       1.283   2.219  -0.185  0.00  0.00    -0.146 I 
ENDROOT
TORSDOF 0
ENDMDL
