MODEL 1
REMARK minimizedAffinity -2.78356242
REMARK minimizedRMSD -1
REMARK  0 active torsions:
REMARK  status: ('A' for Active; 'I' for Inactive)
ROOT
ATOM      1  C   UNL d   1      -0.649   0.353   0.319  0.00  0.00     0.023 A 
ATOM      2  C1  UNL d   1      -0.577  -1.037   0.409  0.00  0.00     0.003 A 
ATOM      3  C2  UNL d   1      -0.013  -1.777  -0.632  0.00  0.00     0.048 A 
ATOM      4  C3  UNL d   1       0.479  -1.120  -1.760  0.00  0.00     0.023 A 
ATOM      5  C4  UNL d   1       0.410   0.271  -1.853  0.00  0.00     0.048 A 
ATOM      6  C5  UNL d   1      -0.156   1.006  -0.810  0.00  0.00     0.003 A 
ATOM      7  I   UNL d   1       1.320  -2.219  -3.310  0.00  0.00    -0.146 I 
ENDROOT
TORSDOF 0
ENDMDL
