MODEL 1
REMARK minimizedAffinity -3.9220643
REMARK minimizedRMSD -1
REMARK  0 active torsions:
REMARK  status: ('A' for Active; 'I' for Inactive)
ROOT
ATOM      1  C   UNL d   1      -0.466  -3.758  -0.990  0.00  0.00     0.023 A 
ATOM      2  C1  UNL d   1      -0.271  -2.801  -1.985  0.00  0.00     0.003 A 
ATOM      3  C2  UNL d   1       0.003  -1.476  -1.637  0.00  0.00     0.048 A 
ATOM      4  C3  UNL d   1       0.081  -1.117  -0.292  0.00  0.00     0.023 A 
ATOM      5  C4  UNL d   1      -0.113  -2.072   0.707  0.00  0.00     0.048 A 
ATOM      6  C5  UNL d   1      -0.387  -3.394   0.355  0.00  0.00     0.003 A 
ATOM      7  I   UNL d   1       0.488   0.854   0.228  0.00  0.00    -0.146 I 
ENDROOT
TORSDOF 0
ENDMDL
