MODEL 1
REMARK minimizedAffinity 6.49978399
REMARK minimizedRMSD -1
REMARK  0 active torsions:
REMARK  status: ('A' for Active; 'I' for Inactive)
ROOT
ATOM      1  C   UNL d   1      -2.941   0.935   2.807  0.00  0.00     0.077 C 
ATOM      2  C1  UNL d   1      -1.660   1.600   2.399  0.00  0.00    -0.074 A 
ATOM      3  C2  UNL d   1      -0.700   1.958   3.352  0.00  0.00    -0.005 A 
ATOM      4  C3  UNL d   1       0.490   2.567   2.956  0.00  0.00     0.006 A 
ATOM      5  C4  UNL d   1       0.734   2.824   1.606  0.00  0.00    -0.005 A 
ATOM      6  C5  UNL d   1      -0.213   2.472   0.639  0.00  0.00    -0.074 A 
ATOM      7  C6  UNL d   1       0.037   2.732  -0.817  0.00  0.00     0.077 C 
ATOM      8  C7  UNL d   1      -1.404   1.854   1.044  0.00  0.00    -0.001 A 
ENDROOT
TORSDOF 0
ENDMDL
