MODEL 1
REMARK minimizedAffinity 2.09174776
REMARK minimizedRMSD -1
REMARK  0 active torsions:
REMARK  status: ('A' for Active; 'I' for Inactive)
ROOT
ATOM      1  C   UNL d   1       0.841   5.472   0.346  0.00  0.00     0.077 C 
ATOM      2  C1  UNL d   1       0.238   4.168  -0.085  0.00  0.00    -0.074 A 
ATOM      3  C2  UNL d   1       0.083   3.113   0.820  0.00  0.00    -0.005 A 
ATOM      4  C3  UNL d   1      -0.489   1.910   0.406  0.00  0.00     0.006 A 
ATOM      5  C4  UNL d   1      -0.910   1.750  -0.914  0.00  0.00    -0.005 A 
ATOM      6  C5  UNL d   1      -0.764   2.794  -1.833  0.00  0.00    -0.074 A 
ATOM      7  C6  UNL d   1      -1.222   2.642  -3.253  0.00  0.00     0.077 C 
ATOM      8  C7  UNL d   1      -0.196   4.002  -1.408  0.00  0.00    -0.001 A 
ENDROOT
TORSDOF 0
ENDMDL
