MODEL 1
REMARK minimizedAffinity -1.80756998
REMARK minimizedRMSD -1
REMARK  0 active torsions:
REMARK  status: ('A' for Active; 'I' for Inactive)
ROOT
ATOM      1  C   UNL d   1      -3.057   1.783  -3.223  0.00  0.00     0.077 C 
ATOM      2  C1  UNL d   1      -2.047   2.175  -2.185  0.00  0.00    -0.074 A 
ATOM      3  C2  UNL d   1      -2.053   1.584  -0.917  0.00  0.00    -0.005 A 
ATOM      4  C3  UNL d   1      -1.101   1.951   0.034  0.00  0.00     0.006 A 
ATOM      5  C4  UNL d   1      -0.136   2.911  -0.272  0.00  0.00    -0.005 A 
ATOM      6  C5  UNL d   1      -0.114   3.512  -1.534  0.00  0.00    -0.074 A 
ATOM      7  C6  UNL d   1       0.922   4.539  -1.882  0.00  0.00     0.077 C 
ATOM      8  C7  UNL d   1      -1.069   3.133  -2.487  0.00  0.00    -0.001 A 
ENDROOT
TORSDOF 0
ENDMDL
