MODEL 1
REMARK minimizedAffinity -1.66654134
REMARK minimizedRMSD -1
REMARK  0 active torsions:
REMARK  status: ('A' for Active; 'I' for Inactive)
ROOT
ATOM      1  C   UNL d   1      -0.871   3.137  -1.236  0.00  0.00     0.077 C 
ATOM      2  C1  UNL d   1      -0.386   3.008   0.177  0.00  0.00    -0.074 A 
ATOM      3  C2  UNL d   1       0.795   3.632   0.592  0.00  0.00    -0.005 A 
ATOM      4  C3  UNL d   1       1.228   3.510   1.912  0.00  0.00     0.006 A 
ATOM      5  C4  UNL d   1       0.487   2.764   2.829  0.00  0.00    -0.005 A 
ATOM      6  C5  UNL d   1      -0.697   2.134   2.433  0.00  0.00    -0.074 A 
ATOM      7  C6  UNL d   1      -1.511   1.337   3.409  0.00  0.00     0.077 C 
ATOM      8  C7  UNL d   1      -1.130   2.267   1.107  0.00  0.00    -0.001 A 
ENDROOT
TORSDOF 0
ENDMDL
