MODEL 1
REMARK minimizedAffinity 12.3745289
REMARK minimizedRMSD -1
REMARK  0 active torsions:
REMARK  status: ('A' for Active; 'I' for Inactive)
ROOT
ATOM      1  C   UNL d   1      -0.920   3.721  -3.473  0.00  0.00     0.077 C 
ATOM      2  C1  UNL d   1      -0.403   3.488  -2.084  0.00  0.00    -0.074 A 
ATOM      3  C2  UNL d   1       0.796   4.067  -1.657  0.00  0.00    -0.005 A 
ATOM      4  C3  UNL d   1       1.259   3.849  -0.359  0.00  0.00     0.006 A 
ATOM      5  C4  UNL d   1       0.529   3.051   0.523  0.00  0.00    -0.005 A 
ATOM      6  C5  UNL d   1      -0.673   2.465   0.113  0.00  0.00    -0.074 A 
ATOM      7  C6  UNL d   1      -1.475   1.612   1.052  0.00  0.00     0.077 C 
ATOM      8  C7  UNL d   1      -1.135   2.694  -1.190  0.00  0.00    -0.001 A 
ENDROOT
TORSDOF 0
ENDMDL
