MODEL 1
REMARK minimizedAffinity 9.94631577
REMARK minimizedRMSD -1
REMARK  0 active torsions:
REMARK  status: ('A' for Active; 'I' for Inactive)
ROOT
ATOM      1  C   UNL d   1      -5.423   6.000   3.631  0.00  0.00     0.077 C 
ATOM      2  C1  UNL d   1      -4.852   5.982   2.244  0.00  0.00    -0.074 A 
ATOM      3  C2  UNL d   1      -5.688   5.991   1.123  0.00  0.00    -0.005 A 
ATOM      4  C3  UNL d   1      -5.143   5.984  -0.161  0.00  0.00     0.006 A 
ATOM      5  C4  UNL d   1      -3.759   5.968  -0.336  0.00  0.00    -0.005 A 
ATOM      6  C5  UNL d   1      -2.907   5.960   0.773  0.00  0.00    -0.074 A 
ATOM      7  C6  UNL d   1      -1.417   5.952   0.602  0.00  0.00     0.077 C 
ATOM      8  C7  UNL d   1      -3.463   5.974   2.060  0.00  0.00    -0.001 A 
ENDROOT
TORSDOF 0
ENDMDL
