MODEL 1
REMARK minimizedAffinity 3.76193047
REMARK minimizedRMSD -1
REMARK  0 active torsions:
REMARK  status: ('A' for Active; 'I' for Inactive)
ROOT
ATOM      1  C   UNL d   1      -5.922  -0.289   0.742  0.00  0.00     0.077 C 
ATOM      2  C1  UNL d   1      -5.956  -1.788   0.777  0.00  0.00    -0.074 A 
ATOM      3  C2  UNL d   1      -5.972  -2.534  -0.406  0.00  0.00    -0.005 A 
ATOM      4  C3  UNL d   1      -5.994  -3.928  -0.357  0.00  0.00     0.006 A 
ATOM      5  C4  UNL d   1      -6.000  -4.589   0.872  0.00  0.00    -0.005 A 
ATOM      6  C5  UNL d   1      -5.983  -3.859   2.065  0.00  0.00    -0.074 A 
ATOM      7  C6  UNL d   1      -5.979  -4.553   3.394  0.00  0.00     0.077 C 
ATOM      8  C7  UNL d   1      -5.954  -2.459   2.008  0.00  0.00    -0.001 A 
ENDROOT
TORSDOF 0
ENDMDL
