MODEL 1
REMARK minimizedAffinity 3.46642995
REMARK minimizedRMSD -1
REMARK  0 active torsions:
REMARK  status: ('A' for Active; 'I' for Inactive)
ROOT
ATOM      1  C   UNL d   1      -3.308   5.637   0.746  0.00  0.00     0.077 C 
ATOM      2  C1  UNL d   1      -2.218   4.615   0.617  0.00  0.00    -0.074 A 
ATOM      3  C2  UNL d   1      -2.321   3.371   1.248  0.00  0.00    -0.005 A 
ATOM      4  C3  UNL d   1      -1.304   2.427   1.111  0.00  0.00     0.006 A 
ATOM      5  C4  UNL d   1      -0.175   2.716   0.343  0.00  0.00    -0.005 A 
ATOM      6  C5  UNL d   1      -0.055   3.955  -0.296  0.00  0.00    -0.074 A 
ATOM      7  C6  UNL d   1       1.147   4.278  -1.133  0.00  0.00     0.077 C 
ATOM      8  C7  UNL d   1      -1.085   4.895  -0.159  0.00  0.00    -0.001 A 
ENDROOT
TORSDOF 0
ENDMDL
