MODEL 1
REMARK minimizedAffinity 19.2190895
REMARK minimizedRMSD -1
REMARK  0 active torsions:
REMARK  status: ('A' for Active; 'I' for Inactive)
ROOT
ATOM      1  C   UNL d   1      -4.639   5.999   2.747  0.00  0.00     0.077 C 
ATOM      2  C1  UNL d   1      -4.486   5.740   1.277  0.00  0.00    -0.074 A 
ATOM      3  C2  UNL d   1      -5.534   6.000   0.388  0.00  0.00    -0.005 A 
ATOM      4  C3  UNL d   1      -5.373   5.763  -0.977  0.00  0.00     0.006 A 
ATOM      5  C4  UNL d   1      -4.165   5.266  -1.466  0.00  0.00    -0.005 A 
ATOM      6  C5  UNL d   1      -3.105   5.001  -0.593  0.00  0.00    -0.074 A 
ATOM      7  C6  UNL d   1      -1.797   4.476  -1.104  0.00  0.00     0.077 C 
ATOM      8  C7  UNL d   1      -3.272   5.248   0.777  0.00  0.00    -0.001 A 
ENDROOT
TORSDOF 0
ENDMDL
