MODEL 1
REMARK minimizedAffinity 3.11102986
REMARK minimizedRMSD -1
REMARK  0 active torsions:
REMARK  status: ('A' for Active; 'I' for Inactive)
ROOT
ATOM      1  C   UNL d   1      -2.068  -1.791   4.867  0.00  0.00     0.077 C 
ATOM      2  C1  UNL d   1      -1.971  -0.689   3.854  0.00  0.00    -0.074 A 
ATOM      3  C2  UNL d   1      -0.802   0.068   3.725  0.00  0.00    -0.005 A 
ATOM      4  C3  UNL d   1      -0.723   1.083   2.772  0.00  0.00     0.006 A 
ATOM      5  C4  UNL d   1      -1.810   1.351   1.939  0.00  0.00    -0.005 A 
ATOM      6  C5  UNL d   1      -2.986   0.604   2.052  0.00  0.00    -0.074 A 
ATOM      7  C6  UNL d   1      -4.160   0.872   1.158  0.00  0.00     0.077 C 
ATOM      8  C7  UNL d   1      -3.056  -0.419   3.008  0.00  0.00    -0.001 A 
ENDROOT
TORSDOF 0
ENDMDL
