MODEL 1
REMARK minimizedAffinity 5.73523188
REMARK minimizedRMSD -1
REMARK  0 active torsions:
REMARK  status: ('A' for Active; 'I' for Inactive)
ROOT
ATOM      1  C   UNL d   1      -1.758   0.320   3.484  0.00  0.00     0.077 C 
ATOM      2  C1  UNL d   1      -1.391  -1.126   3.333  0.00  0.00    -0.074 A 
ATOM      3  C2  UNL d   1      -1.960  -2.101   4.158  0.00  0.00    -0.005 A 
ATOM      4  C3  UNL d   1      -1.617  -3.444   4.000  0.00  0.00     0.006 A 
ATOM      5  C4  UNL d   1      -0.702  -3.824   3.018  0.00  0.00    -0.005 A 
ATOM      6  C5  UNL d   1      -0.124  -2.863   2.183  0.00  0.00    -0.074 A 
ATOM      7  C6  UNL d   1       0.854  -3.256   1.115  0.00  0.00     0.077 C 
ATOM      8  C7  UNL d   1      -0.479  -1.517   2.343  0.00  0.00    -0.001 A 
ENDROOT
TORSDOF 0
ENDMDL
