MODEL 1
REMARK minimizedAffinity -0.695493579
REMARK minimizedRMSD -1
REMARK  0 active torsions:
REMARK  status: ('A' for Active; 'I' for Inactive)
ROOT
ATOM      1  C   UNL d   1       0.398   2.633  -0.771  0.00  0.00     0.077 C 
ATOM      2  C1  UNL d   1       0.152   2.441   0.696  0.00  0.00    -0.074 A 
ATOM      3  C2  UNL d   1       0.490   3.437   1.618  0.00  0.00    -0.005 A 
ATOM      4  C3  UNL d   1       0.247   3.248   2.978  0.00  0.00     0.006 A 
ATOM      5  C4  UNL d   1      -0.336   2.063   3.430  0.00  0.00    -0.005 A 
ATOM      6  C5  UNL d   1      -0.681   1.056   2.523  0.00  0.00    -0.074 A 
ATOM      7  C6  UNL d   1      -1.316  -0.219   2.991  0.00  0.00     0.077 C 
ATOM      8  C7  UNL d   1      -0.439   1.256   1.157  0.00  0.00    -0.001 A 
ENDROOT
TORSDOF 0
ENDMDL
