MODEL 1
REMARK minimizedAffinity -1.35638797
REMARK minimizedRMSD -1
REMARK  0 active torsions:
REMARK  status: ('A' for Active; 'I' for Inactive)
ROOT
ATOM      1  C   UNL d   1       0.302   2.572   4.344  0.00  0.00     0.077 C 
ATOM      2  C1  UNL d   1      -0.217   2.320   2.960  0.00  0.00    -0.074 A 
ATOM      3  C2  UNL d   1      -1.203   1.356   2.726  0.00  0.00    -0.005 A 
ATOM      4  C3  UNL d   1      -1.682   1.138   1.434  0.00  0.00     0.006 A 
ATOM      5  C4  UNL d   1      -1.181   1.882   0.365  0.00  0.00    -0.005 A 
ATOM      6  C5  UNL d   1      -0.195   2.850   0.579  0.00  0.00    -0.074 A 
ATOM      7  C6  UNL d   1       0.347   3.665  -0.558  0.00  0.00     0.077 C 
ATOM      8  C7  UNL d   1       0.276   3.068   1.881  0.00  0.00    -0.001 A 
ENDROOT
TORSDOF 0
ENDMDL
