MODEL 1
REMARK minimizedAffinity 14.5712299
REMARK minimizedRMSD -1
REMARK  0 active torsions:
REMARK  status: ('A' for Active; 'I' for Inactive)
ROOT
ATOM      1  C   UNL d   1       0.117   1.908   0.823  0.00  0.00     0.077 C 
ATOM      2  C1  UNL d   1      -0.319   3.210   0.220  0.00  0.00    -0.074 A 
ATOM      3  C2  UNL d   1       0.233   3.667  -0.981  0.00  0.00    -0.005 A 
ATOM      4  C3  UNL d   1      -0.190   4.876  -1.534  0.00  0.00     0.006 A 
ATOM      5  C4  UNL d   1      -1.167   5.638  -0.893  0.00  0.00    -0.005 A 
ATOM      6  C5  UNL d   1      -1.731   5.197   0.308  0.00  0.00    -0.074 A 
ATOM      7  C6  UNL d   1      -2.790   5.999   1.004  0.00  0.00     0.077 C 
ATOM      8  C7  UNL d   1      -1.306   3.978   0.854  0.00  0.00    -0.001 A 
ENDROOT
TORSDOF 0
ENDMDL
