MODEL 1
REMARK minimizedAffinity 4.79688168
REMARK minimizedRMSD -1
REMARK  0 active torsions:
REMARK  status: ('A' for Active; 'I' for Inactive)
ROOT
ATOM      1  C   UNL d   1      -0.020   3.162   0.847  0.00  0.00     0.077 C 
ATOM      2  C1  UNL d   1      -0.673   1.981   1.502  0.00  0.00    -0.074 A 
ATOM      3  C2  UNL d   1      -2.057   1.947   1.706  0.00  0.00    -0.005 A 
ATOM      4  C3  UNL d   1      -2.651   0.838   2.308  0.00  0.00     0.006 A 
ATOM      5  C4  UNL d   1      -1.870  -0.245   2.712  0.00  0.00    -0.005 A 
ATOM      6  C5  UNL d   1      -0.486  -0.229   2.515  0.00  0.00    -0.074 A 
ATOM      7  C6  UNL d   1       0.367  -1.389   2.934  0.00  0.00     0.077 C 
ATOM      8  C7  UNL d   1       0.104   0.886   1.903  0.00  0.00    -0.001 A 
ENDROOT
TORSDOF 0
ENDMDL
