MODEL 1
REMARK minimizedAffinity -0.992219627
REMARK minimizedRMSD -1
REMARK  0 active torsions:
REMARK  status: ('A' for Active; 'I' for Inactive)
ROOT
ATOM      1  C   UNL d   1      -0.756   2.790  -2.403  0.00  0.00     0.077 C 
ATOM      2  C1  UNL d   1      -0.405   3.020  -0.963  0.00  0.00    -0.074 A 
ATOM      3  C2  UNL d   1       0.316   4.152  -0.571  0.00  0.00    -0.005 A 
ATOM      4  C3  UNL d   1       0.627   4.357   0.773  0.00  0.00     0.006 A 
ATOM      5  C4  UNL d   1       0.221   3.433   1.737  0.00  0.00    -0.005 A 
ATOM      6  C5  UNL d   1      -0.501   2.295   1.364  0.00  0.00    -0.074 A 
ATOM      7  C6  UNL d   1      -0.953   1.297   2.388  0.00  0.00     0.077 C 
ATOM      8  C7  UNL d   1      -0.816   2.100   0.012  0.00  0.00    -0.001 A 
ENDROOT
TORSDOF 0
ENDMDL
