MODEL 1
REMARK minimizedAffinity -1.93849957
REMARK minimizedRMSD -1
REMARK  0 active torsions:
REMARK  status: ('A' for Active; 'I' for Inactive)
ROOT
ATOM      1  C   UNL d   1       1.881   4.931   2.196  0.00  0.00     0.077 C 
ATOM      2  C1  UNL d   1       0.908   4.030   1.494  0.00  0.00    -0.074 A 
ATOM      3  C2  UNL d   1       0.852   3.983   0.097  0.00  0.00    -0.005 A 
ATOM      4  C3  UNL d   1      -0.051   3.133  -0.542  0.00  0.00     0.006 A 
ATOM      5  C4  UNL d   1      -0.906   2.324   0.208  0.00  0.00    -0.005 A 
ATOM      6  C5  UNL d   1      -0.863   2.357   1.605  0.00  0.00    -0.074 A 
ATOM      7  C6  UNL d   1      -1.767   1.486   2.426  0.00  0.00     0.077 C 
ATOM      8  C7  UNL d   1       0.052   3.208   2.240  0.00  0.00    -0.001 A 
ENDROOT
TORSDOF 0
ENDMDL
