MODEL 1
REMARK minimizedAffinity -3.55680656
REMARK minimizedRMSD -1
REMARK  1 active torsions:
REMARK  status: ('A' for Active; 'I' for Inactive)
REMARK    1  A    between atoms: C1_2  and  C2_3 
ROOT
ATOM      1  C2  UNL d   1       0.407  -0.099  -0.482  0.00  0.00    -0.081 A 
ATOM      2  C3  UNL d   1       0.765  -0.150   0.871  0.00  0.00     0.006 A 
ATOM      3  C4  UNL d   1       0.074   0.613   1.815  0.00  0.00     0.002 A 
ATOM      4  C5  UNL d   1      -0.990   1.432   1.425  0.00  0.00    -0.080 A 
ATOM      5  C6  UNL d   1      -1.760   2.233   2.433  0.00  0.00     0.076 C 
ATOM      6  C7  UNL d   1      -1.337   1.496   0.071  0.00  0.00     0.002 A 
ATOM      7  C8  UNL d   1      -0.646   0.734  -0.874  0.00  0.00     0.006 A 
ENDROOT
BRANCH   1   8
ATOM      8  C1  UNL d   1       1.108  -0.970  -1.493  0.00  0.00     0.054 C 
ATOM      9  C   UNL d   1       0.623  -2.410  -1.414  0.00  0.00     0.018 C 
ENDBRANCH   1   8
TORSDOF 1
ENDMDL
