MODEL 1
REMARK minimizedAffinity -1.92761004
REMARK minimizedRMSD -1
REMARK  1 active torsions:
REMARK  status: ('A' for Active; 'I' for Inactive)
REMARK    1  A    between atoms: C1_2  and  C2_3 
ROOT
ATOM      1  C2  UNL d   1       0.607  -0.355  -0.618  0.00  0.00    -0.081 A 
ATOM      2  C3  UNL d   1       1.371  -0.148   0.536  0.00  0.00     0.006 A 
ATOM      3  C4  UNL d   1       0.967   0.784   1.495  0.00  0.00     0.002 A 
ATOM      4  C5  UNL d   1      -0.211   1.518   1.320  0.00  0.00    -0.080 A 
ATOM      5  C6  UNL d   1      -0.673   2.499   2.356  0.00  0.00     0.076 C 
ATOM      6  C7  UNL d   1      -0.966   1.323   0.158  0.00  0.00     0.002 A 
ATOM      7  C8  UNL d   1      -0.562   0.392  -0.802  0.00  0.00     0.006 A 
ENDROOT
BRANCH   1   8
ATOM      8  C1  UNL d   1       1.006  -1.405  -1.623  0.00  0.00     0.054 C 
ATOM      9  C   UNL d   1       0.806  -2.808  -1.067  0.00  0.00     0.018 C 
ENDBRANCH   1   8
TORSDOF 1
ENDMDL
