MODEL 1
REMARK minimizedAffinity -4.44644451
REMARK minimizedRMSD -1
REMARK  1 active torsions:
REMARK  status: ('A' for Active; 'I' for Inactive)
REMARK    1  A    between atoms: C1_2  and  C2_3 
ROOT
ATOM      1  C2  UNL d   1       0.314   0.260  -0.908  0.00  0.00    -0.081 A 
ATOM      2  C3  UNL d   1       0.377   0.058   0.476  0.00  0.00     0.006 A 
ATOM      3  C4  UNL d   1      -0.171   0.996   1.354  0.00  0.00     0.002 A 
ATOM      4  C5  UNL d   1      -0.797   2.147   0.864  0.00  0.00    -0.080 A 
ATOM      5  C6  UNL d   1      -1.416   3.147   1.795  0.00  0.00     0.076 C 
ATOM      6  C7  UNL d   1      -0.845   2.357  -0.518  0.00  0.00     0.002 A 
ATOM      7  C8  UNL d   1      -0.296   1.420  -1.397  0.00  0.00     0.006 A 
ENDROOT
BRANCH   1   8
ATOM      8  C1  UNL d   1       0.847  -0.780  -1.860  0.00  0.00     0.054 C 
ATOM      9  C   UNL d   1       0.401  -2.179  -1.456  0.00  0.00     0.018 C 
ENDBRANCH   1   8
TORSDOF 1
ENDMDL
