MODEL 1
REMARK minimizedAffinity -4.05107594
REMARK minimizedRMSD -1
REMARK  1 active torsions:
REMARK  status: ('A' for Active; 'I' for Inactive)
REMARK    1  A    between atoms: C1_2  and  C2_3 
ROOT
ATOM      1  C2  UNL d   1       0.619   0.084   0.247  0.00  0.00    -0.081 A 
ATOM      2  C3  UNL d   1      -0.025   0.674  -0.848  0.00  0.00     0.006 A 
ATOM      3  C4  UNL d   1      -0.766   1.847  -0.686  0.00  0.00     0.002 A 
ATOM      4  C5  UNL d   1      -0.869   2.453   0.571  0.00  0.00    -0.080 A 
ATOM      5  C6  UNL d   1      -1.636   3.729   0.753  0.00  0.00     0.076 C 
ATOM      6  C7  UNL d   1      -0.240   1.854   1.668  0.00  0.00     0.002 A 
ATOM      7  C8  UNL d   1       0.500   0.681   1.506  0.00  0.00     0.006 A 
ENDROOT
BRANCH   1   8
ATOM      8  C1  UNL d   1       1.472  -1.145   0.063  0.00  0.00     0.054 C 
ATOM      9  C   UNL d   1       0.850  -2.105  -0.943  0.00  0.00     0.018 C 
ENDBRANCH   1   8
TORSDOF 1
ENDMDL
