MODEL 1
REMARK minimizedAffinity -2.17522597
REMARK minimizedRMSD -1
REMARK  1 active torsions:
REMARK  status: ('A' for Active; 'I' for Inactive)
REMARK    1  A    between atoms: C1_2  and  C2_3 
ROOT
ATOM      1  C2  UNL d   1       0.669  -1.059  -0.562  0.00  0.00    -0.081 A 
ATOM      2  C3  UNL d   1       0.160   0.063  -1.226  0.00  0.00     0.006 A 
ATOM      3  C4  UNL d   1      -0.213   1.202  -0.509  0.00  0.00     0.002 A 
ATOM      4  C5  UNL d   1      -0.076   1.241   0.882  0.00  0.00    -0.080 A 
ATOM      5  C6  UNL d   1      -0.445   2.469   1.661  0.00  0.00     0.076 C 
ATOM      6  C7  UNL d   1       0.417   0.114   1.548  0.00  0.00     0.002 A 
ATOM      7  C8  UNL d   1       0.789  -1.026   0.832  0.00  0.00     0.006 A 
ENDROOT
BRANCH   1   8
ATOM      8  C1  UNL d   1       1.133  -2.265  -1.338  0.00  0.00     0.054 C 
ATOM      9  C   UNL d   1       0.637  -3.556  -0.703  0.00  0.00     0.018 C 
ENDBRANCH   1   8
TORSDOF 1
ENDMDL
