MODEL 1
REMARK minimizedAffinity -4.43606567
REMARK minimizedRMSD -1
REMARK  1 active torsions:
REMARK  status: ('A' for Active; 'I' for Inactive)
REMARK    1  A    between atoms: C1_2  and  C2_3 
ROOT
ATOM      1  C2  UNL d   1       0.241   0.615  -0.293  0.00  0.00    -0.081 A 
ATOM      2  C3  UNL d   1      -0.185   1.599  -1.193  0.00  0.00     0.006 A 
ATOM      3  C4  UNL d   1      -0.849   2.739  -0.735  0.00  0.00     0.002 A 
ATOM      4  C5  UNL d   1      -1.090   2.919   0.631  0.00  0.00    -0.080 A 
ATOM      5  C6  UNL d   1      -1.775   4.153   1.140  0.00  0.00     0.076 C 
ATOM      6  C7  UNL d   1      -0.680   1.928   1.530  0.00  0.00     0.002 A 
ATOM      7  C8  UNL d   1      -0.017   0.787   1.072  0.00  0.00     0.006 A 
ENDROOT
BRANCH   1   8
ATOM      8  C1  UNL d   1       1.014  -0.584  -0.777  0.00  0.00     0.054 C 
ATOM      9  C   UNL d   1       0.107  -1.794  -0.950  0.00  0.00     0.018 C 
ENDBRANCH   1   8
TORSDOF 1
ENDMDL
