MODEL 1
REMARK minimizedAffinity -2.22195268
REMARK minimizedRMSD -1
REMARK  1 active torsions:
REMARK  status: ('A' for Active; 'I' for Inactive)
REMARK    1  A    between atoms: C1_2  and  C2_3 
ROOT
ATOM      1  C2  UNL d   1       0.277  -1.181  -0.757  0.00  0.00    -0.081 A 
ATOM      2  C3  UNL d   1       0.888  -0.017  -1.240  0.00  0.00     0.006 A 
ATOM      3  C4  UNL d   1       0.770   1.187  -0.540  0.00  0.00     0.002 A 
ATOM      4  C5  UNL d   1       0.047   1.244   0.656  0.00  0.00    -0.080 A 
ATOM      5  C6  UNL d   1      -0.062   2.523   1.432  0.00  0.00     0.076 C 
ATOM      6  C7  UNL d   1      -0.578   0.085   1.129  0.00  0.00     0.002 A 
ATOM      7  C8  UNL d   1      -0.461  -1.118   0.430  0.00  0.00     0.006 A 
ENDROOT
BRANCH   1   8
ATOM      8  C1  UNL d   1       0.456  -2.494  -1.475  0.00  0.00     0.054 C 
ATOM      9  C   UNL d   1       0.170  -3.672  -0.554  0.00  0.00     0.018 C 
ENDBRANCH   1   8
TORSDOF 1
ENDMDL
