MODEL 1
REMARK minimizedAffinity -3.45840955
REMARK minimizedRMSD -1
REMARK  0 active torsions:
REMARK  status: ('A' for Active; 'I' for Inactive)
ROOT
ATOM      1  C2' OXE d   1      -2.137  -0.713  -0.638  0.00  0.00     0.078 C 
ATOM      2  C1' OXE d   1       0.583  -1.068  -1.234  0.00  0.00     0.078 C 
ATOM      3  C1  OXE d   1       0.230  -0.243  -0.022  0.00  0.00    -0.078 A 
ATOM      4  C2  OXE d   1      -1.104  -0.036   0.235  0.00  0.00    -0.078 A 
ATOM      5  C3  OXE d   1      -1.485   0.672   1.372  0.00  0.00     0.003 A 
ATOM      6  C4  OXE d   1      -0.523   1.304   2.169  0.00  0.00    -0.002 A 
ATOM      7  C5  OXE d   1       0.840   1.139   1.902  0.00  0.00    -0.002 A 
ATOM      8  C6  OXE d   1       1.233   0.335   0.838  0.00  0.00     0.003 A 
ENDROOT
TORSDOF 0
ENDMDL
