MODEL 1
REMARK minimizedAffinity -1.92720366
REMARK minimizedRMSD -1
REMARK  0 active torsions:
REMARK  status: ('A' for Active; 'I' for Inactive)
ROOT
ATOM      1  C2' OXE d   1      -0.770   1.514   2.498  0.00  0.00     0.078 C 
ATOM      2  C1' OXE d   1       1.827   0.645   1.882  0.00  0.00     0.078 C 
ATOM      3  C1  OXE d   1       0.727   0.322   0.903  0.00  0.00    -0.078 A 
ATOM      4  C2  OXE d   1      -0.549   0.710   1.234  0.00  0.00    -0.078 A 
ATOM      5  C3  OXE d   1      -1.592   0.485   0.341  0.00  0.00     0.003 A 
ATOM      6  C4  OXE d   1      -1.381  -0.268  -0.820  0.00  0.00    -0.002 A 
ATOM      7  C5  OXE d   1      -0.096  -0.707  -1.158  0.00  0.00    -0.002 A 
ATOM      8  C6  OXE d   1       0.973  -0.385  -0.330  0.00  0.00     0.003 A 
ENDROOT
TORSDOF 0
ENDMDL
