MODEL 1
REMARK minimizedAffinity -1.46813631
REMARK minimizedRMSD -1
REMARK  0 active torsions:
REMARK  status: ('A' for Active; 'I' for Inactive)
ROOT
ATOM      1  C2' OXE d   1      -0.368   1.529   2.025  0.00  0.00     0.078 C 
ATOM      2  C1' OXE d   1       2.179   0.381   1.748  0.00  0.00     0.078 C 
ATOM      3  C1  OXE d   1       1.142   0.055   0.702  0.00  0.00    -0.078 A 
ATOM      4  C2  OXE d   1      -0.115   0.584   0.871  0.00  0.00    -0.078 A 
ATOM      5  C3  OXE d   1      -1.093   0.359  -0.094  0.00  0.00     0.003 A 
ATOM      6  C4  OXE d   1      -0.854  -0.525  -1.153  0.00  0.00    -0.002 A 
ATOM      7  C5  OXE d   1       0.408  -1.106  -1.322  0.00  0.00    -0.002 A 
ATOM      8  C6  OXE d   1       1.427  -0.794  -0.429  0.00  0.00     0.003 A 
ENDROOT
TORSDOF 0
ENDMDL
