MODEL 1
REMARK minimizedAffinity -3.50775051
REMARK minimizedRMSD -1
REMARK  0 active torsions:
REMARK  status: ('A' for Active; 'I' for Inactive)
ROOT
ATOM      1  C2' OXE d   1       1.952   1.138   1.754  0.00  0.00     0.078 C 
ATOM      2  C1' OXE d   1      -0.629   2.053   2.369  0.00  0.00     0.078 C 
ATOM      3  C1  OXE d   1      -0.491   1.017   1.281  0.00  0.00    -0.078 A 
ATOM      4  C2  OXE d   1       0.780   0.609   0.955  0.00  0.00    -0.078 A 
ATOM      5  C3  OXE d   1       0.961  -0.384  -0.003  0.00  0.00     0.003 A 
ATOM      6  C4  OXE d   1      -0.127  -0.860  -0.744  0.00  0.00    -0.002 A 
ATOM      7  C5  OXE d   1      -1.426  -0.428  -0.455  0.00  0.00    -0.002 A 
ATOM      8  C6  OXE d   1      -1.629   0.476   0.581  0.00  0.00     0.003 A 
ENDROOT
TORSDOF 0
ENDMDL
