MODEL 1
REMARK minimizedAffinity -6.37766075
REMARK minimizedRMSD -1
REMARK  0 active torsions:
REMARK  status: ('A' for Active; 'I' for Inactive)
ROOT
ATOM      1  C2' OXE d   1      -0.821   1.255   2.952  0.00  0.00     0.078 C 
ATOM      2  C1' OXE d   1       1.438  -0.010   1.867  0.00  0.00     0.078 C 
ATOM      3  C1  OXE d   1       0.214   0.114   0.994  0.00  0.00    -0.078 A 
ATOM      4  C2  OXE d   1      -0.902   0.693   1.549  0.00  0.00    -0.078 A 
ATOM      5  C3  OXE d   1      -2.040   0.881   0.771  0.00  0.00     0.003 A 
ATOM      6  C4  OXE d   1      -2.110   0.349  -0.523  0.00  0.00    -0.002 A 
ATOM      7  C5  OXE d   1      -0.998  -0.279  -1.093  0.00  0.00    -0.002 A 
ATOM      8  C6  OXE d   1       0.183  -0.367  -0.365  0.00  0.00     0.003 A 
ENDROOT
TORSDOF 0
ENDMDL
