MODEL 1
REMARK minimizedAffinity -4.05883455
REMARK minimizedRMSD -1
REMARK  0 active torsions:
REMARK  status: ('A' for Active; 'I' for Inactive)
ROOT
ATOM      1  C2' OXE d   1      -0.832   1.689   2.435  0.00  0.00     0.078 C 
ATOM      2  C1' OXE d   1      -2.814   0.847   0.635  0.00  0.00     0.078 C 
ATOM      3  C1  OXE d   1      -1.428   0.276   0.472  0.00  0.00    -0.078 A 
ATOM      4  C2  OXE d   1      -0.453   0.729   1.328  0.00  0.00    -0.078 A 
ATOM      5  C3  OXE d   1       0.830   0.194   1.256  0.00  0.00     0.003 A 
ATOM      6  C4  OXE d   1       1.175  -0.686   0.223  0.00  0.00    -0.002 A 
ATOM      7  C5  OXE d   1       0.206  -1.130  -0.684  0.00  0.00    -0.002 A 
ATOM      8  C6  OXE d   1      -1.107  -0.692  -0.547  0.00  0.00     0.003 A 
ENDROOT
TORSDOF 0
ENDMDL
