MODEL 1
REMARK minimizedAffinity -4.44570303
REMARK minimizedRMSD -1
REMARK  0 active torsions:
REMARK  status: ('A' for Active; 'I' for Inactive)
ROOT
ATOM      1  C2' OXE d   1       0.479  -1.254  -1.040  0.00  0.00     0.078 C 
ATOM      2  C1' OXE d   1       2.214  -0.344   0.971  0.00  0.00     0.078 C 
ATOM      3  C1  OXE d   1       0.787   0.143   1.000  0.00  0.00    -0.078 A 
ATOM      4  C2  OXE d   1      -0.043  -0.270  -0.014  0.00  0.00    -0.078 A 
ATOM      5  C3  OXE d   1      -1.383   0.105  -0.004  0.00  0.00     0.003 A 
ATOM      6  C4  OXE d   1      -1.855   1.023   0.942  0.00  0.00    -0.002 A 
ATOM      7  C5  OXE d   1      -1.017   1.487   1.961  0.00  0.00    -0.002 A 
ATOM      8  C6  OXE d   1       0.293   1.025   2.029  0.00  0.00     0.003 A 
ENDROOT
TORSDOF 0
ENDMDL
