MODEL 1
REMARK minimizedAffinity -4.70130062
REMARK minimizedRMSD -1
REMARK  0 active torsions:
REMARK  status: ('A' for Active; 'I' for Inactive)
ROOT
ATOM      1  C2' OXE d   1      -2.305  -0.530  -0.256  0.00  0.00     0.078 C 
ATOM      2  C1' OXE d   1       0.397  -0.194  -0.942  0.00  0.00     0.078 C 
ATOM      3  C1  OXE d   1      -0.042   0.254   0.430  0.00  0.00    -0.078 A 
ATOM      4  C2  OXE d   1      -1.375   0.128   0.740  0.00  0.00    -0.078 A 
ATOM      5  C3  OXE d   1      -1.822   0.475   2.012  0.00  0.00     0.003 A 
ATOM      6  C4  OXE d   1      -0.958   1.092   2.924  0.00  0.00    -0.002 A 
ATOM      7  C5  OXE d   1       0.395   1.265   2.614  0.00  0.00    -0.002 A 
ATOM      8  C6  OXE d   1       0.877   0.814   1.390  0.00  0.00     0.003 A 
ENDROOT
TORSDOF 0
ENDMDL
