MODEL 1
REMARK minimizedAffinity -3.25900555
REMARK minimizedRMSD -1
REMARK  0 active torsions:
REMARK  status: ('A' for Active; 'I' for Inactive)
ROOT
ATOM      1  C2' OXE d   1      -2.280  -0.330  -0.166  0.00  0.00     0.078 C 
ATOM      2  C1' OXE d   1       0.068   0.896  -1.096  0.00  0.00     0.078 C 
ATOM      3  C1  OXE d   1      -0.342   1.154   0.332  0.00  0.00    -0.078 A 
ATOM      4  C2  OXE d   1      -1.517   0.588   0.765  0.00  0.00    -0.078 A 
ATOM      5  C3  OXE d   1      -1.914   0.750   2.089  0.00  0.00     0.003 A 
ATOM      6  C4  OXE d   1      -1.208   1.609   2.940  0.00  0.00    -0.002 A 
ATOM      7  C5  OXE d   1      -0.030   2.228   2.508  0.00  0.00    -0.002 A 
ATOM      8  C6  OXE d   1       0.438   1.977   1.223  0.00  0.00     0.003 A 
ENDROOT
TORSDOF 0
ENDMDL
