MODEL 1
REMARK minimizedAffinity 2.24951601
REMARK minimizedRMSD -1
REMARK  0 active torsions:
REMARK  status: ('A' for Active; 'I' for Inactive)
ROOT
ATOM      1  C   UNL d   1       4.602   0.359   4.793  0.00  0.00     0.078 C 
ATOM      2  C1  UNL d   1       3.719   0.470   3.586  0.00  0.00    -0.077 A 
ATOM      3  C2  UNL d   1       4.259   0.449   2.294  0.00  0.00    -0.001 A 
ATOM      4  C3  UNL d   1       3.426   0.563   1.179  0.00  0.00     0.003 A 
ATOM      5  C4  UNL d   1       2.050   0.700   1.345  0.00  0.00    -0.005 A 
ATOM      6  C5  UNL d   1       1.504   0.724   2.627  0.00  0.00     0.003 A 
ATOM      7  C6  UNL d   1       2.335   0.610   3.743  0.00  0.00    -0.001 A 
ENDROOT
TORSDOF 0
ENDMDL
