MODEL 1
REMARK minimizedAffinity 0.281330198
REMARK minimizedRMSD -1
REMARK  0 active torsions:
REMARK  status: ('A' for Active; 'I' for Inactive)
ROOT
ATOM      1  C   UNL d   1       4.103   0.349   4.505  0.00  0.00     0.078 C 
ATOM      2  C1  UNL d   1       3.530   0.377   3.120  0.00  0.00    -0.077 A 
ATOM      3  C2  UNL d   1       4.241  -0.150   2.035  0.00  0.00    -0.001 A 
ATOM      4  C3  UNL d   1       3.700  -0.108   0.749  0.00  0.00     0.003 A 
ATOM      5  C4  UNL d   1       2.446   0.460   0.535  0.00  0.00    -0.005 A 
ATOM      6  C5  UNL d   1       1.732   0.989   1.608  0.00  0.00     0.003 A 
ATOM      7  C6  UNL d   1       2.271   0.948   2.895  0.00  0.00    -0.001 A 
ENDROOT
TORSDOF 0
ENDMDL
