MODEL 1
REMARK minimizedAffinity -1.86429369
REMARK minimizedRMSD -1
REMARK  0 active torsions:
REMARK  status: ('A' for Active; 'I' for Inactive)
ROOT
ATOM      1  C   UNL d   1      -1.372   5.989  -0.515  0.00  0.00     0.078 C 
ATOM      2  C1  UNL d   1      -2.383   5.998  -1.623  0.00  0.00    -0.077 A 
ATOM      3  C2  UNL d   1      -3.756   5.991  -1.347  0.00  0.00    -0.001 A 
ATOM      4  C3  UNL d   1      -4.685   5.989  -2.389  0.00  0.00     0.003 A 
ATOM      5  C4  UNL d   1      -4.252   5.993  -3.713  0.00  0.00    -0.005 A 
ATOM      6  C5  UNL d   1      -2.888   5.998  -3.997  0.00  0.00     0.003 A 
ATOM      7  C6  UNL d   1      -1.957   6.000  -2.957  0.00  0.00    -0.001 A 
ENDROOT
TORSDOF 0
ENDMDL
