MODEL 1
REMARK minimizedAffinity 0.0203728452
REMARK minimizedRMSD -1
REMARK  0 active torsions:
REMARK  status: ('A' for Active; 'I' for Inactive)
ROOT
ATOM      1  C   UNL d   1      -2.094   0.729   3.183  0.00  0.00     0.078 C 
ATOM      2  C1  UNL d   1      -1.067   0.469   2.122  0.00  0.00    -0.077 A 
ATOM      3  C2  UNL d   1      -0.970  -0.783   1.503  0.00  0.00    -0.001 A 
ATOM      4  C3  UNL d   1      -0.003  -1.014   0.523  0.00  0.00     0.003 A 
ATOM      5  C4  UNL d   1       0.876   0.003   0.155  0.00  0.00    -0.005 A 
ATOM      6  C5  UNL d   1       0.789   1.252   0.767  0.00  0.00     0.003 A 
ATOM      7  C6  UNL d   1      -0.178   1.484   1.746  0.00  0.00    -0.001 A 
ENDROOT
TORSDOF 0
ENDMDL
