MODEL 1
REMARK minimizedAffinity -0.848285258
REMARK minimizedRMSD -1
REMARK  0 active torsions:
REMARK  status: ('A' for Active; 'I' for Inactive)
ROOT
ATOM      1  C   UNL d   1       2.851   4.857  -4.755  0.00  0.00     0.078 C 
ATOM      2  C1  UNL d   1       1.388   5.181  -4.798  0.00  0.00    -0.077 A 
ATOM      3  C2  UNL d   1       0.644   5.001  -5.971  0.00  0.00    -0.001 A 
ATOM      4  C3  UNL d   1      -0.716   5.315  -6.000  0.00  0.00     0.003 A 
ATOM      5  C4  UNL d   1      -1.343   5.813  -4.859  0.00  0.00    -0.005 A 
ATOM      6  C5  UNL d   1      -0.610   5.998  -3.689  0.00  0.00     0.003 A 
ATOM      7  C6  UNL d   1       0.749   5.684  -3.658  0.00  0.00    -0.001 A 
ENDROOT
TORSDOF 0
ENDMDL
