MODEL 1
REMARK minimizedAffinity -1.01729918
REMARK minimizedRMSD -1
REMARK  0 active torsions:
REMARK  status: ('A' for Active; 'I' for Inactive)
ROOT
ATOM      1  C   UNL d   1       1.207   3.615   1.634  0.00  0.00     0.078 C 
ATOM      2  C1  UNL d   1       0.723   2.215   1.396  0.00  0.00    -0.077 A 
ATOM      3  C2  UNL d   1       1.244   1.439   0.354  0.00  0.00    -0.001 A 
ATOM      4  C3  UNL d   1       0.778   0.142   0.138  0.00  0.00     0.003 A 
ATOM      5  C4  UNL d   1      -0.213  -0.391   0.961  0.00  0.00    -0.005 A 
ATOM      6  C5  UNL d   1      -0.739   0.374   1.999  0.00  0.00     0.003 A 
ATOM      7  C6  UNL d   1      -0.274   1.672   2.216  0.00  0.00    -0.001 A 
ENDROOT
TORSDOF 0
ENDMDL
