MODEL 1
REMARK minimizedAffinity -1.83874297
REMARK minimizedRMSD -1
REMARK  0 active torsions:
REMARK  status: ('A' for Active; 'I' for Inactive)
ROOT
ATOM      1  C   UNL d   1      -0.585   5.992  -4.899  0.00  0.00     0.078 C 
ATOM      2  C1  UNL d   1      -1.753   6.000  -3.960  0.00  0.00    -0.077 A 
ATOM      3  C2  UNL d   1      -1.564   5.994  -2.573  0.00  0.00    -0.001 A 
ATOM      4  C3  UNL d   1      -2.661   5.991  -1.710  0.00  0.00     0.003 A 
ATOM      5  C4  UNL d   1      -3.956   5.993  -2.225  0.00  0.00    -0.005 A 
ATOM      6  C5  UNL d   1      -4.155   5.997  -3.604  0.00  0.00     0.003 A 
ATOM      7  C6  UNL d   1      -3.058   6.000  -4.468  0.00  0.00    -0.001 A 
ENDROOT
TORSDOF 0
ENDMDL
