MODEL 1
REMARK minimizedAffinity -3.38692713
REMARK minimizedRMSD -1
REMARK  0 active torsions:
REMARK  status: ('A' for Active; 'I' for Inactive)
ROOT
ATOM      1  C   UNL d   1      -0.639  -1.274   0.451  0.00  0.00     0.078 C 
ATOM      2  C1  UNL d   1       0.349  -0.155   0.304  0.00  0.00    -0.077 A 
ATOM      3  C2  UNL d   1       1.695  -0.413   0.019  0.00  0.00    -0.001 A 
ATOM      4  C3  UNL d   1       2.605   0.638  -0.106  0.00  0.00     0.003 A 
ATOM      5  C4  UNL d   1       2.179   1.955   0.054  0.00  0.00    -0.005 A 
ATOM      6  C5  UNL d   1       0.841   2.222   0.340  0.00  0.00     0.003 A 
ATOM      7  C6  UNL d   1      -0.070   1.172   0.465  0.00  0.00    -0.001 A 
ENDROOT
TORSDOF 0
ENDMDL
