MODEL 1
REMARK minimizedAffinity 3.68130112
REMARK minimizedRMSD -1
REMARK  0 active torsions:
REMARK  status: ('A' for Active; 'I' for Inactive)
ROOT
ATOM      1  C   UNL d   1       1.872   3.340  -0.132  0.00  0.00     0.078 C 
ATOM      2  C1  UNL d   1       1.353   1.933  -0.131  0.00  0.00    -0.077 A 
ATOM      3  C2  UNL d   1       1.360   1.161  -1.299  0.00  0.00    -0.001 A 
ATOM      4  C3  UNL d   1       0.864  -0.144  -1.286  0.00  0.00     0.003 A 
ATOM      5  C4  UNL d   1       0.357  -0.687  -0.107  0.00  0.00    -0.005 A 
ATOM      6  C5  UNL d   1       0.343   0.074   1.059  0.00  0.00     0.003 A 
ATOM      7  C6  UNL d   1       0.839   1.379   1.048  0.00  0.00    -0.001 A 
ENDROOT
TORSDOF 0
ENDMDL
