MODEL 1
REMARK minimizedAffinity 0.532346964
REMARK minimizedRMSD -1
REMARK  0 active torsions:
REMARK  status: ('A' for Active; 'I' for Inactive)
ROOT
ATOM      1  C   UNL d   1      -4.471   5.965  -3.225  0.00  0.00     0.078 C 
ATOM      2  C1  UNL d   1      -3.590   5.984  -2.011  0.00  0.00    -0.077 A 
ATOM      3  C2  UNL d   1      -2.195   5.991  -2.133  0.00  0.00    -0.001 A 
ATOM      4  C3  UNL d   1      -1.388   6.000  -0.994  0.00  0.00     0.003 A 
ATOM      5  C4  UNL d   1      -1.966   5.999   0.274  0.00  0.00    -0.005 A 
ATOM      6  C5  UNL d   1      -3.353   5.990   0.404  0.00  0.00     0.003 A 
ATOM      7  C6  UNL d   1      -4.162   5.982  -0.733  0.00  0.00    -0.001 A 
ENDROOT
TORSDOF 0
ENDMDL
