MODEL 1
REMARK minimizedAffinity 2.36477542
REMARK minimizedRMSD -1
REMARK  0 active torsions:
REMARK  status: ('A' for Active; 'I' for Inactive)
ROOT
ATOM      1  C   UNL d   1       0.011   1.167   3.436  0.00  0.00     0.078 C 
ATOM      2  C1  UNL d   1       0.435   1.502   2.037  0.00  0.00    -0.077 A 
ATOM      3  C2  UNL d   1       0.385   0.543   1.019  0.00  0.00    -0.001 A 
ATOM      4  C3  UNL d   1       0.793   0.866  -0.276  0.00  0.00     0.003 A 
ATOM      5  C4  UNL d   1       1.255   2.149  -0.565  0.00  0.00    -0.005 A 
ATOM      6  C5  UNL d   1       1.310   3.110   0.443  0.00  0.00     0.003 A 
ATOM      7  C6  UNL d   1       0.903   2.788   1.738  0.00  0.00    -0.001 A 
ENDROOT
TORSDOF 0
ENDMDL
