MODEL 1
REMARK minimizedAffinity 2.3875587
REMARK minimizedRMSD -1
REMARK  0 active torsions:
REMARK  status: ('A' for Active; 'I' for Inactive)
ROOT
ATOM      1  C   UNL d   1      -4.096   5.996   0.144  0.00  0.00     0.078 C 
ATOM      2  C1  UNL d   1      -3.409   5.984  -1.188  0.00  0.00    -0.077 A 
ATOM      3  C2  UNL d   1      -2.012   5.974  -1.280  0.00  0.00    -0.001 A 
ATOM      4  C3  UNL d   1      -1.386   5.973  -2.527  0.00  0.00     0.003 A 
ATOM      5  C4  UNL d   1      -2.149   5.984  -3.693  0.00  0.00    -0.005 A 
ATOM      6  C5  UNL d   1      -3.540   5.996  -3.612  0.00  0.00     0.003 A 
ATOM      7  C6  UNL d   1      -4.168   5.997  -2.366  0.00  0.00    -0.001 A 
ENDROOT
TORSDOF 0
ENDMDL
