MODEL 1
REMARK minimizedAffinity -0.645100117
REMARK minimizedRMSD -1
REMARK  0 active torsions:
REMARK  status: ('A' for Active; 'I' for Inactive)
ROOT
ATOM      1  C   UNL d   1       1.820   2.174   0.402  0.00  0.00     0.078 C 
ATOM      2  C1  UNL d   1       0.636   1.545   1.073  0.00  0.00    -0.077 A 
ATOM      3  C2  UNL d   1      -0.191   0.649   0.383  0.00  0.00    -0.001 A 
ATOM      4  C3  UNL d   1      -1.296   0.078   1.017  0.00  0.00     0.003 A 
ATOM      5  C4  UNL d   1      -1.585   0.397   2.342  0.00  0.00    -0.005 A 
ATOM      6  C5  UNL d   1      -0.769   1.288   3.036  0.00  0.00     0.003 A 
ATOM      7  C6  UNL d   1       0.336   1.860   2.404  0.00  0.00    -0.001 A 
ENDROOT
TORSDOF 0
ENDMDL
