MODEL 1
REMARK minimizedAffinity 2.08342171
REMARK minimizedRMSD -1
REMARK  0 active torsions:
REMARK  status: ('A' for Active; 'I' for Inactive)
ROOT
ATOM      1  C   UNL d   1       5.781   5.109  -5.087  0.00  0.00     0.078 C 
ATOM      2  C1  UNL d   1       4.282   5.120  -5.096  0.00  0.00    -0.077 A 
ATOM      3  C2  UNL d   1       3.550   4.279  -4.248  0.00  0.00    -0.001 A 
ATOM      4  C3  UNL d   1       2.154   4.293  -4.273  0.00  0.00     0.003 A 
ATOM      5  C4  UNL d   1       1.479   5.145  -5.145  0.00  0.00    -0.005 A 
ATOM      6  C5  UNL d   1       2.198   5.983  -5.994  0.00  0.00     0.003 A 
ATOM      7  C6  UNL d   1       3.594   5.971  -5.970  0.00  0.00    -0.001 A 
ENDROOT
TORSDOF 0
ENDMDL
