MODEL 1
REMARK minimizedAffinity -0.509686112
REMARK minimizedRMSD -1
REMARK  0 active torsions:
REMARK  status: ('A' for Active; 'I' for Inactive)
ROOT
ATOM      1  C   UNL d   1       5.142   4.999  -5.191  0.00  0.00     0.078 C 
ATOM      2  C1  UNL d   1       3.643   5.034  -5.215  0.00  0.00    -0.077 A 
ATOM      3  C2  UNL d   1       2.956   5.973  -5.994  0.00  0.00    -0.001 A 
ATOM      4  C3  UNL d   1       1.560   6.000  -6.000  0.00  0.00     0.003 A 
ATOM      5  C4  UNL d   1       0.840   5.091  -5.228  0.00  0.00    -0.005 A 
ATOM      6  C5  UNL d   1       1.515   4.154  -4.448  0.00  0.00     0.003 A 
ATOM      7  C6  UNL d   1       2.910   4.125  -4.441  0.00  0.00    -0.001 A 
ENDROOT
TORSDOF 0
ENDMDL
