MODEL 1
REMARK minimizedAffinity 3.97187281
REMARK minimizedRMSD -1
REMARK  0 active torsions:
REMARK  status: ('A' for Active; 'I' for Inactive)
ROOT
ATOM      1  C   UNL d   1       0.687   3.789   0.440  0.00  0.00     0.078 C 
ATOM      2  C1  UNL d   1       0.411   2.316   0.490  0.00  0.00    -0.077 A 
ATOM      3  C2  UNL d   1      -0.544   1.790   1.369  0.00  0.00    -0.001 A 
ATOM      4  C3  UNL d   1      -0.783   0.416   1.412  0.00  0.00     0.003 A 
ATOM      5  C4  UNL d   1      -0.072  -0.444   0.578  0.00  0.00    -0.005 A 
ATOM      6  C5  UNL d   1       0.882   0.069  -0.298  0.00  0.00     0.003 A 
ATOM      7  C6  UNL d   1       1.123   1.443  -0.342  0.00  0.00    -0.001 A 
ENDROOT
TORSDOF 0
ENDMDL
