MODEL 1
REMARK minimizedAffinity 3.57840323
REMARK minimizedRMSD -1
REMARK  0 active torsions:
REMARK  status: ('A' for Active; 'I' for Inactive)
ROOT
ATOM      1  C   UNL d   1      -3.475  -5.139  -0.792  0.00  0.00     0.078 C 
ATOM      2  C1  UNL d   1      -3.792  -3.690  -1.012  0.00  0.00    -0.077 A 
ATOM      3  C2  UNL d   1      -3.818  -3.145  -2.301  0.00  0.00    -0.001 A 
ATOM      4  C3  UNL d   1      -4.106  -1.792  -2.490  0.00  0.00     0.003 A 
ATOM      5  C4  UNL d   1      -4.368  -0.973  -1.394  0.00  0.00    -0.005 A 
ATOM      6  C5  UNL d   1      -4.342  -1.506  -0.107  0.00  0.00     0.003 A 
ATOM      7  C6  UNL d   1      -4.055  -2.858   0.084  0.00  0.00    -0.001 A 
ENDROOT
TORSDOF 0
ENDMDL
