MODEL 1
REMARK minimizedAffinity -3.91974425
REMARK minimizedRMSD -1
REMARK  0 active torsions:
REMARK  status: ('A' for Active; 'I' for Inactive)
ROOT
ATOM      1  C1  BNZ d   1      -1.556  -1.133   1.934  0.00  0.00     0.000 A 
ATOM      2  C2  BNZ d   1      -1.379  -0.672   0.657  0.00  0.00     0.000 A 
ATOM      3  C3  BNZ d   1      -0.294   0.095   0.334  0.00  0.00     0.000 A 
ATOM      4  C4  BNZ d   1       0.590   0.431   1.295  0.00  0.00     0.000 A 
ATOM      5  C5  BNZ d   1       0.421  -0.019   2.589  0.00  0.00     0.000 A 
ATOM      6  C6  BNZ d   1      -0.651  -0.822   2.902  0.00  0.00     0.000 A 
ENDROOT
TORSDOF 0
ENDMDL
