MODEL 1
REMARK minimizedAffinity -3.41404629
REMARK minimizedRMSD -1
REMARK  0 active torsions:
REMARK  status: ('A' for Active; 'I' for Inactive)
ROOT
ATOM      1  C1  BNZ d   1       0.900   0.696   1.788  0.00  0.00     0.000 A 
ATOM      2  C2  BNZ d   1       0.814  -0.117   0.689  0.00  0.00     0.000 A 
ATOM      3  C3  BNZ d   1       0.088  -1.275   0.731  0.00  0.00     0.000 A 
ATOM      4  C4  BNZ d   1      -0.515  -1.638   1.881  0.00  0.00     0.000 A 
ATOM      5  C5  BNZ d   1      -0.430  -0.833   3.000  0.00  0.00     0.000 A 
ATOM      6  C6  BNZ d   1       0.269   0.351   2.943  0.00  0.00     0.000 A 
ENDROOT
TORSDOF 0
ENDMDL
