MODEL 1
REMARK minimizedAffinity -4.19985247
REMARK minimizedRMSD -1
REMARK  0 active torsions:
REMARK  status: ('A' for Active; 'I' for Inactive)
ROOT
ATOM      1  C1  BNZ d   1      -0.598  -0.283   1.127  0.00  0.00     0.000 A 
ATOM      2  C2  BNZ d   1      -1.241   0.145  -0.004  0.00  0.00     0.000 A 
ATOM      3  C3  BNZ d   1      -0.567   0.833  -0.974  0.00  0.00     0.000 A 
ATOM      4  C4  BNZ d   1       0.737   1.126  -0.794  0.00  0.00     0.000 A 
ATOM      5  C5  BNZ d   1       1.397   0.709   0.345  0.00  0.00     0.000 A 
ATOM      6  C6  BNZ d   1       0.725  -0.017   1.301  0.00  0.00     0.000 A 
ENDROOT
TORSDOF 0
ENDMDL
