MODEL 1
REMARK minimizedAffinity -3.16595411
REMARK minimizedRMSD -1
REMARK  0 active torsions:
REMARK  status: ('A' for Active; 'I' for Inactive)
ROOT
ATOM      1  C1  BNZ d   1       3.111   0.112  -2.989  0.00  0.00     0.000 A 
ATOM      2  C2  BNZ d   1       2.119   0.432  -2.101  0.00  0.00     0.000 A 
ATOM      3  C3  BNZ d   1       1.076  -0.422  -1.879  0.00  0.00     0.000 A 
ATOM      4  C4  BNZ d   1       1.004  -1.576  -2.574  0.00  0.00     0.000 A 
ATOM      5  C5  BNZ d   1       1.991  -1.909  -3.480  0.00  0.00     0.000 A 
ATOM      6  C6  BNZ d   1       3.060  -1.064  -3.672  0.00  0.00     0.000 A 
ENDROOT
TORSDOF 0
ENDMDL
