MODEL 1
REMARK minimizedAffinity -4.88322592
REMARK minimizedRMSD -1
REMARK  0 active torsions:
REMARK  status: ('A' for Active; 'I' for Inactive)
ROOT
ATOM      1  C1  BNZ d   1       0.774   1.657  -0.947  0.00  0.00     0.000 A 
ATOM      2  C2  BNZ d   1      -0.525   1.669  -1.379  0.00  0.00     0.000 A 
ATOM      3  C3  BNZ d   1      -1.538   1.244  -0.565  0.00  0.00     0.000 A 
ATOM      4  C4  BNZ d   1      -1.246   0.771   0.664  0.00  0.00     0.000 A 
ATOM      5  C5  BNZ d   1       0.060   0.744   1.111  0.00  0.00     0.000 A 
ATOM      6  C6  BNZ d   1       1.072   1.209   0.303  0.00  0.00     0.000 A 
ENDROOT
TORSDOF 0
ENDMDL
