MODEL 1
REMARK minimizedAffinity -4.1335535
REMARK minimizedRMSD -1
REMARK  0 active torsions:
REMARK  status: ('A' for Active; 'I' for Inactive)
ROOT
ATOM      1  C1  BNZ d   1       0.321   0.952  -0.758  0.00  0.00     0.000 A 
ATOM      2  C2  BNZ d   1       0.833   0.571   0.454  0.00  0.00     0.000 A 
ATOM      3  C3  BNZ d   1       0.026   0.031   1.416  0.00  0.00     0.000 A 
ATOM      4  C4  BNZ d   1      -1.297  -0.089   1.181  0.00  0.00     0.000 A 
ATOM      5  C5  BNZ d   1      -1.830   0.300  -0.032  0.00  0.00     0.000 A 
ATOM      6  C6  BNZ d   1      -1.008   0.806  -1.012  0.00  0.00     0.000 A 
ENDROOT
TORSDOF 0
ENDMDL
