MODEL 1
REMARK minimizedAffinity -3.66174889
REMARK minimizedRMSD -1
REMARK  0 active torsions:
REMARK  status: ('A' for Active; 'I' for Inactive)
ROOT
ATOM      1  C1  BNZ d   1       1.131   1.078   0.235  0.00  0.00     0.000 A 
ATOM      2  C2  BNZ d   1       1.568   0.920   1.523  0.00  0.00     0.000 A 
ATOM      3  C3  BNZ d   1       0.813   0.244   2.440  0.00  0.00     0.000 A 
ATOM      4  C4  BNZ d   1      -0.394  -0.238   2.080  0.00  0.00     0.000 A 
ATOM      5  C5  BNZ d   1      -0.853  -0.078   0.787  0.00  0.00     0.000 A 
ATOM      6  C6  BNZ d   1      -0.073   0.569  -0.144  0.00  0.00     0.000 A 
ENDROOT
TORSDOF 0
ENDMDL
