MODEL 1
REMARK minimizedAffinity -3.046
REMARK minimizedRMSD -1
REMARK  0 active torsions:
REMARK  status: ('A' for Active; 'I' for Inactive)
ROOT
ATOM      1  C1  BNZ d   1       3.803  -0.962  -4.333  0.00  0.00     0.000 A 
ATOM      2  C2  BNZ d   1       4.121   0.359  -4.164  0.00  0.00     0.000 A 
ATOM      3  C3  BNZ d   1       3.226   1.229  -3.607  0.00  0.00     0.000 A 
ATOM      4  C4  BNZ d   1       2.001   0.787  -3.257  0.00  0.00     0.000 A 
ATOM      5  C5  BNZ d   1       1.662  -0.541  -3.429  0.00  0.00     0.000 A 
ATOM      6  C6  BNZ d   1       2.580  -1.422  -3.954  0.00  0.00     0.000 A 
ENDROOT
TORSDOF 0
ENDMDL
