MODEL 1
REMARK minimizedAffinity 2.22011161
REMARK minimizedRMSD -1
REMARK  0 active torsions:
REMARK  status: ('A' for Active; 'I' for Inactive)
ROOT
ATOM      1  C1  BNZ d   1       1.394  -0.314   3.224  0.00  0.00     0.000 A 
ATOM      2  C2  BNZ d   1       0.380  -1.154   3.599  0.00  0.00     0.000 A 
ATOM      3  C3  BNZ d   1      -0.925  -0.830   3.354  0.00  0.00     0.000 A 
ATOM      4  C4  BNZ d   1      -1.217   0.351   2.771  0.00  0.00     0.000 A 
ATOM      5  C5  BNZ d   1      -0.206   1.213   2.395  0.00  0.00     0.000 A 
ATOM      6  C6  BNZ d   1       1.108   0.866   2.608  0.00  0.00     0.000 A 
ENDROOT
TORSDOF 0
ENDMDL
