MODEL 1
REMARK minimizedAffinity 1.72478271
REMARK minimizedRMSD -1
REMARK  0 active torsions:
REMARK  status: ('A' for Active; 'I' for Inactive)
ROOT
ATOM      1  C1  BNZ d   1      -3.290   0.303  -0.134  0.00  0.00     0.000 A 
ATOM      2  C2  BNZ d   1      -2.908   1.489   0.433  0.00  0.00     0.000 A 
ATOM      3  C3  BNZ d   1      -3.177   1.757   1.746  0.00  0.00     0.000 A 
ATOM      4  C4  BNZ d   1      -3.863   0.856   2.479  0.00  0.00     0.000 A 
ATOM      5  C5  BNZ d   1      -4.264  -0.341   1.919  0.00  0.00     0.000 A 
ATOM      6  C6  BNZ d   1      -3.957  -0.623   0.608  0.00  0.00     0.000 A 
ENDROOT
TORSDOF 0
ENDMDL
