MODEL 1
REMARK minimizedAffinity -4.08590555
REMARK minimizedRMSD -1
REMARK  0 active torsions:
REMARK  status: ('A' for Active; 'I' for Inactive)
ROOT
ATOM      1  C1  BNZ d   1      -1.218  -0.811   1.811  0.00  0.00     0.000 A 
ATOM      2  C2  BNZ d   1      -0.786  -0.570   0.535  0.00  0.00     0.000 A 
ATOM      3  C3  BNZ d   1       0.388   0.093   0.306  0.00  0.00     0.000 A 
ATOM      4  C4  BNZ d   1       1.106   0.549   1.353  0.00  0.00     0.000 A 
ATOM      5  C5  BNZ d   1       0.679   0.322   2.646  0.00  0.00     0.000 A 
ATOM      6  C6  BNZ d   1      -0.483  -0.379   2.872  0.00  0.00     0.000 A 
ENDROOT
TORSDOF 0
ENDMDL
