MODEL 1
REMARK minimizedAffinity -4.72575617
REMARK minimizedRMSD -1
REMARK  0 active torsions:
REMARK  status: ('A' for Active; 'I' for Inactive)
ROOT
ATOM      1  C1  BNZ d   1      -0.121  -0.336   2.468  0.00  0.00     0.000 A 
ATOM      2  C2  BNZ d   1       1.211  -0.024   2.403  0.00  0.00     0.000 A 
ATOM      3  C3  BNZ d   1       1.754   0.494   1.261  0.00  0.00     0.000 A 
ATOM      4  C4  BNZ d   1       0.974   0.662   0.173  0.00  0.00     0.000 A 
ATOM      5  C5  BNZ d   1      -0.368   0.344   0.219  0.00  0.00     0.000 A 
ATOM      6  C6  BNZ d   1      -0.920  -0.141   1.383  0.00  0.00     0.000 A 
ENDROOT
TORSDOF 0
ENDMDL
