MODEL 1
REMARK minimizedAffinity -3.81246257
REMARK minimizedRMSD -1
REMARK  0 active torsions:
REMARK  status: ('A' for Active; 'I' for Inactive)
ROOT
ATOM      1  C1  BNZ d   1       4.026   0.970  -4.593  0.00  0.00     0.000 A 
ATOM      2  C2  BNZ d   1       3.637  -0.342  -4.650  0.00  0.00     0.000 A 
ATOM      3  C3  BNZ d   1       2.598  -0.798  -3.888  0.00  0.00     0.000 A 
ATOM      4  C4  BNZ d   1       1.975   0.048  -3.042  0.00  0.00     0.000 A 
ATOM      5  C5  BNZ d   1       2.362   1.371  -2.966  0.00  0.00     0.000 A 
ATOM      6  C6  BNZ d   1       3.383   1.835  -3.763  0.00  0.00     0.000 A 
ENDROOT
TORSDOF 0
ENDMDL
