MODEL 1
REMARK minimizedAffinity -4.34459686
REMARK minimizedRMSD -1
REMARK  0 active torsions:
REMARK  status: ('A' for Active; 'I' for Inactive)
ROOT
ATOM      1  C1  BNZ d   1      -0.220  -0.014   0.351  0.00  0.00     0.000 A 
ATOM      2  C2  BNZ d   1      -0.722  -0.490   1.533  0.00  0.00     0.000 A 
ATOM      3  C3  BNZ d   1       0.095  -0.695   2.609  0.00  0.00     0.000 A 
ATOM      4  C4  BNZ d   1       1.419  -0.464   2.489  0.00  0.00     0.000 A 
ATOM      5  C5  BNZ d   1       1.942   0.006   1.301  0.00  0.00     0.000 A 
ATOM      6  C6  BNZ d   1       1.110   0.250   0.233  0.00  0.00     0.000 A 
ENDROOT
TORSDOF 0
ENDMDL
