MODEL 1
REMARK minimizedAffinity -4.90236187
REMARK minimizedRMSD -1
REMARK  0 active torsions:
REMARK  status: ('A' for Active; 'I' for Inactive)
ROOT
ATOM      1  C1  BNZ d   1      -1.411  -0.388   1.787  0.00  0.00     0.000 A 
ATOM      2  C2  BNZ d   1      -0.638  -0.283   2.912  0.00  0.00     0.000 A 
ATOM      3  C3  BNZ d   1       0.725  -0.232   2.822  0.00  0.00     0.000 A 
ATOM      4  C4  BNZ d   1       1.314  -0.326   1.613  0.00  0.00     0.000 A 
ATOM      5  C5  BNZ d   1       0.548  -0.441   0.470  0.00  0.00     0.000 A 
ATOM      6  C6  BNZ d   1      -0.825  -0.453   0.561  0.00  0.00     0.000 A 
ENDROOT
TORSDOF 0
ENDMDL
