MODEL 1
REMARK minimizedAffinity -4.19730902
REMARK minimizedRMSD -1
REMARK  0 active torsions:
REMARK  status: ('A' for Active; 'I' for Inactive)
ROOT
ATOM      1  C1  BNZ d   1       0.892   0.422   1.272  0.00  0.00     0.000 A 
ATOM      2  C2  BNZ d   1       0.399   0.048   2.493  0.00  0.00     0.000 A 
ATOM      3  C3  BNZ d   1      -0.875  -0.433   2.616  0.00  0.00     0.000 A 
ATOM      4  C4  BNZ d   1      -1.666  -0.501   1.526  0.00  0.00     0.000 A 
ATOM      5  C5  BNZ d   1      -1.186  -0.119   0.289  0.00  0.00     0.000 A 
ATOM      6  C6  BNZ d   1       0.109   0.328   0.163  0.00  0.00     0.000 A 
ENDROOT
TORSDOF 0
ENDMDL
