MODEL 1
REMARK minimizedAffinity -3.04059625
REMARK minimizedRMSD -1
REMARK  1 active torsions:
REMARK  status: ('A' for Active; 'I' for Inactive)
REMARK    1  A    between atoms: C3_4  and  O_7 
ROOT
ATOM      1  C   UNL d   1       0.385  -0.624   0.219  0.00  0.00    -0.033 A 
ATOM      2  C1  UNL d   1      -0.115  -0.781   1.513  0.00  0.00     0.039 A 
ATOM      3  C2  UNL d   1      -1.076   0.104   2.004  0.00  0.00    -0.080 A 
ATOM      4  C3  UNL d   1      -1.529   1.141   1.193  0.00  0.00     0.150 A 
ATOM      5  C4  UNL d   1      -1.038   1.301  -0.099  0.00  0.00    -0.007 A 
ATOM      6  C5  UNL d   1      -0.078   0.416  -0.588  0.00  0.00     0.039 A 
ENDROOT
BRANCH   4   7
ATOM      7  O   UNL d   1      -2.462   2.033   1.630  0.00  0.00    -0.526 OA
ATOM      8  H5  UNL d   1      -2.688   1.816   2.550  0.00  0.00     0.418 HD
ENDBRANCH   4   7
TORSDOF 1
ENDMDL
