MODEL 1
REMARK minimizedAffinity -4.05212879
REMARK minimizedRMSD -1
REMARK  1 active torsions:
REMARK  status: ('A' for Active; 'I' for Inactive)
REMARK    1  A    between atoms: C3_4  and  O_7 
ROOT
ATOM      1  C   UNL d   1       0.717   0.409  -0.879  0.00  0.00    -0.033 A 
ATOM      2  C1  UNL d   1       0.269   1.655  -1.321  0.00  0.00     0.039 A 
ATOM      3  C2  UNL d   1      -0.752   2.315  -0.635  0.00  0.00    -0.080 A 
ATOM      4  C3  UNL d   1      -1.315   1.720   0.490  0.00  0.00     0.150 A 
ATOM      5  C4  UNL d   1      -0.872   0.480   0.938  0.00  0.00    -0.007 A 
ATOM      6  C5  UNL d   1       0.147  -0.179   0.251  0.00  0.00     0.039 A 
ENDROOT
BRANCH   4   7
ATOM      7  O   UNL d   1      -2.318   2.324   1.189  0.00  0.00    -0.526 OA
ATOM      8  H5  UNL d   1      -2.541   3.160   0.748  0.00  0.00     0.418 HD
ENDBRANCH   4   7
TORSDOF 1
ENDMDL
