MODEL 1
REMARK minimizedAffinity -4.76325703
REMARK minimizedRMSD -1
REMARK  1 active torsions:
REMARK  status: ('A' for Active; 'I' for Inactive)
REMARK    1  A    between atoms: C3_4  and  O_7 
ROOT
ATOM      1  C   UNL d   1       0.533   0.333  -0.523  0.00  0.00    -0.033 A 
ATOM      2  C1  UNL d   1       0.057  -0.074   0.725  0.00  0.00     0.039 A 
ATOM      3  C2  UNL d   1      -0.944   0.658   1.366  0.00  0.00    -0.080 A 
ATOM      4  C3  UNL d   1      -1.461   1.794   0.749  0.00  0.00     0.150 A 
ATOM      5  C4  UNL d   1      -0.995   2.203  -0.496  0.00  0.00    -0.007 A 
ATOM      6  C5  UNL d   1       0.006   1.471  -1.134  0.00  0.00     0.039 A 
ENDROOT
BRANCH   4   7
ATOM      7  O   UNL d   1      -2.436   2.543   1.337  0.00  0.00    -0.526 OA
ATOM      8  H5  UNL d   1      -2.639   2.157   2.206  0.00  0.00     0.418 HD
ENDBRANCH   4   7
TORSDOF 1
ENDMDL
