MODEL 1
REMARK minimizedAffinity -2.32856345
REMARK minimizedRMSD -1
REMARK  1 active torsions:
REMARK  status: ('A' for Active; 'I' for Inactive)
REMARK    1  A    between atoms: C3_4  and  O_7 
ROOT
ATOM      1  C   UNL d   1       0.638  -0.558  -2.546  0.00  0.00    -0.033 A 
ATOM      2  C1  UNL d   1       1.193  -0.630  -1.267  0.00  0.00     0.039 A 
ATOM      3  C2  UNL d   1       1.576  -1.865  -0.739  0.00  0.00    -0.080 A 
ATOM      4  C3  UNL d   1       1.401  -3.017  -1.500  0.00  0.00     0.150 A 
ATOM      5  C4  UNL d   1       0.852  -2.952  -2.777  0.00  0.00    -0.007 A 
ATOM      6  C5  UNL d   1       0.469  -1.719  -3.302  0.00  0.00     0.039 A 
ENDROOT
BRANCH   4   7
ATOM      7  O   UNL d   1       1.756  -4.245  -1.026  0.00  0.00    -0.526 OA
ATOM      8  H5  UNL d   1       2.094  -4.140  -0.121  0.00  0.00     0.418 HD
ENDBRANCH   4   7
TORSDOF 1
ENDMDL
