MODEL 1
REMARK minimizedAffinity -5.21677828
REMARK minimizedRMSD -1
REMARK  1 active torsions:
REMARK  status: ('A' for Active; 'I' for Inactive)
REMARK    1  A    between atoms: C3_4  and  O_7 
ROOT
ATOM      1  C   UNL d   1       0.673  -0.925   0.359  0.00  0.00    -0.033 A 
ATOM      2  C1  UNL d   1       0.094  -0.077  -0.587  0.00  0.00     0.039 A 
ATOM      3  C2  UNL d   1      -0.870   0.855  -0.195  0.00  0.00    -0.080 A 
ATOM      4  C3  UNL d   1      -1.243   0.930   1.144  0.00  0.00     0.150 A 
ATOM      5  C4  UNL d   1      -0.667   0.091   2.092  0.00  0.00    -0.007 A 
ATOM      6  C5  UNL d   1       0.294  -0.839   1.699  0.00  0.00     0.039 A 
ENDROOT
BRANCH   4   7
ATOM      7  O   UNL d   1      -2.182   1.820   1.573  0.00  0.00    -0.526 OA
ATOM      8  H5  UNL d   1      -2.513   2.313   0.804  0.00  0.00     0.418 HD
ENDBRANCH   4   7
TORSDOF 1
ENDMDL
