MODEL 1
REMARK minimizedAffinity -1.4619441
REMARK minimizedRMSD -1
REMARK  1 active torsions:
REMARK  status: ('A' for Active; 'I' for Inactive)
REMARK    1  A    between atoms: C3_4  and  O_7 
ROOT
ATOM      1  C   UNL d   1       0.923  -0.423  -2.293  0.00  0.00    -0.033 A 
ATOM      2  C1  UNL d   1       0.384  -1.124  -3.373  0.00  0.00     0.039 A 
ATOM      3  C2  UNL d   1       0.215  -2.508  -3.295  0.00  0.00    -0.080 A 
ATOM      4  C3  UNL d   1       0.587  -3.177  -2.132  0.00  0.00     0.150 A 
ATOM      5  C4  UNL d   1       1.121  -2.484  -1.051  0.00  0.00    -0.007 A 
ATOM      6  C5  UNL d   1       1.291  -1.103  -1.131  0.00  0.00     0.039 A 
ENDROOT
BRANCH   4   7
ATOM      7  O   UNL d   1       0.445  -4.528  -2.011  0.00  0.00    -0.526 OA
ATOM      8  H5  UNL d   1       0.091  -4.876  -2.846  0.00  0.00     0.418 HD
ENDBRANCH   4   7
TORSDOF 1
ENDMDL
