MODEL 1
REMARK minimizedAffinity -2.58788681
REMARK minimizedRMSD -1
REMARK  1 active torsions:
REMARK  status: ('A' for Active; 'I' for Inactive)
REMARK    1  A    between atoms: C3_4  and  O_7 
ROOT
ATOM      1  C   UNL d   1       1.099   0.100  -0.855  0.00  0.00    -0.033 A 
ATOM      2  C1  UNL d   1       0.521  -0.452   0.290  0.00  0.00     0.039 A 
ATOM      3  C2  UNL d   1      -0.301   0.329   1.105  0.00  0.00    -0.080 A 
ATOM      4  C3  UNL d   1      -0.536   1.658   0.765  0.00  0.00     0.150 A 
ATOM      5  C4  UNL d   1       0.035   2.213  -0.376  0.00  0.00    -0.007 A 
ATOM      6  C5  UNL d   1       0.855   1.432  -1.188  0.00  0.00     0.039 A 
ENDROOT
BRANCH   4   7
ATOM      7  O   UNL d   1      -1.326   2.461   1.532  0.00  0.00    -0.526 OA
ATOM      8  H5  UNL d   1      -1.628   1.951   2.302  0.00  0.00     0.418 HD
ENDBRANCH   4   7
TORSDOF 1
ENDMDL
