MODEL 1
REMARK minimizedAffinity -4.4559083
REMARK minimizedRMSD -1
REMARK  1 active torsions:
REMARK  status: ('A' for Active; 'I' for Inactive)
REMARK    1  A    between atoms: C3_4  and  O_7 
ROOT
ATOM      1  C   UNL d   1      -2.004   1.413   1.532  0.00  0.00    -0.033 A 
ATOM      2  C1  UNL d   1      -1.101   0.594   2.214  0.00  0.00     0.039 A 
ATOM      3  C2  UNL d   1      -0.064  -0.033   1.520  0.00  0.00    -0.080 A 
ATOM      4  C3  UNL d   1       0.059   0.166   0.148  0.00  0.00     0.150 A 
ATOM      5  C4  UNL d   1      -0.834   0.983  -0.536  0.00  0.00    -0.007 A 
ATOM      6  C5  UNL d   1      -1.870   1.608   0.157  0.00  0.00     0.039 A 
ENDROOT
BRANCH   4   7
ATOM      7  O   UNL d   1       1.052  -0.429  -0.572  0.00  0.00    -0.526 OA
ATOM      8  H5  UNL d   1       1.575  -0.986   0.028  0.00  0.00     0.418 HD
ENDBRANCH   4   7
TORSDOF 1
ENDMDL
