MODEL 1
REMARK minimizedAffinity -5.20355558
REMARK minimizedRMSD -1
REMARK  1 active torsions:
REMARK  status: ('A' for Active; 'I' for Inactive)
REMARK    1  A    between atoms: C3_4  and  O_7 
ROOT
ATOM      1  C   UNL d   1      -1.470   2.789   0.808  0.00  0.00    -0.033 A 
ATOM      2  C1  UNL d   1      -0.709   2.973  -0.349  0.00  0.00     0.039 A 
ATOM      3  C2  UNL d   1       0.014   1.908  -0.888  0.00  0.00    -0.080 A 
ATOM      4  C3  UNL d   1      -0.032   0.665  -0.263  0.00  0.00     0.150 A 
ATOM      5  C4  UNL d   1      -0.791   0.473   0.886  0.00  0.00    -0.007 A 
ATOM      6  C5  UNL d   1      -1.512   1.538   1.424  0.00  0.00     0.039 A 
ENDROOT
BRANCH   4   7
ATOM      7  O   UNL d   1       0.660  -0.404  -0.750  0.00  0.00    -0.526 OA
ATOM      8  H5  UNL d   1       1.162  -0.116  -1.531  0.00  0.00     0.418 HD
ENDBRANCH   4   7
TORSDOF 1
ENDMDL
