MODEL 1
REMARK minimizedAffinity -4.13468504
REMARK minimizedRMSD -1
REMARK  1 active torsions:
REMARK  status: ('A' for Active; 'I' for Inactive)
REMARK    1  A    between atoms: C3_4  and  O_7 
ROOT
ATOM      1  C   UNL d   1       0.594  -0.339   0.652  0.00  0.00    -0.033 A 
ATOM      2  C1  UNL d   1       0.225   0.610  -0.303  0.00  0.00     0.039 A 
ATOM      3  C2  UNL d   1      -0.875   1.440  -0.076  0.00  0.00    -0.080 A 
ATOM      4  C3  UNL d   1      -1.595   1.311   1.109  0.00  0.00     0.150 A 
ATOM      5  C4  UNL d   1      -1.230   0.370   2.066  0.00  0.00    -0.007 A 
ATOM      6  C5  UNL d   1      -0.132  -0.458   1.837  0.00  0.00     0.039 A 
ENDROOT
BRANCH   4   7
ATOM      7  O   UNL d   1      -2.678   2.096   1.373  0.00  0.00    -0.526 OA
ATOM      8  H5  UNL d   1      -2.829   2.679   0.610  0.00  0.00     0.418 HD
ENDBRANCH   4   7
TORSDOF 1
ENDMDL
