MODEL 1
REMARK minimizedAffinity -5.55595636
REMARK minimizedRMSD -1
REMARK  1 active torsions:
REMARK  status: ('A' for Active; 'I' for Inactive)
REMARK    1  A    between atoms: C3_4  and  O_7 
ROOT
ATOM      1  C   UNL d   1       0.105   1.378  -0.846  0.00  0.00    -0.033 A 
ATOM      2  C1  UNL d   1      -0.361   0.331  -0.048  0.00  0.00     0.039 A 
ATOM      3  C2  UNL d   1      -1.272   0.585   0.979  0.00  0.00    -0.080 A 
ATOM      4  C3  UNL d   1      -1.709   1.888   1.197  0.00  0.00     0.150 A 
ATOM      5  C4  UNL d   1      -1.252   2.936   0.404  0.00  0.00    -0.007 A 
ATOM      6  C5  UNL d   1      -0.342   2.680  -0.620  0.00  0.00     0.039 A 
ENDROOT
BRANCH   4   7
ATOM      7  O   UNL d   1      -2.593   2.186   2.191  0.00  0.00    -0.526 OA
ATOM      8  H5  UNL d   1      -2.799   1.369   2.675  0.00  0.00     0.418 HD
ENDBRANCH   4   7
TORSDOF 1
ENDMDL
