MODEL 1
REMARK minimizedAffinity 16.864151
REMARK minimizedRMSD -1
REMARK  0 active torsions:
REMARK  status: ('A' for Active; 'I' for Inactive)
ROOT
ATOM      1  C   UNL d   1      -2.486   2.836   1.884  0.00  0.00    -0.002 A 
ATOM      2  C1  UNL d   1      -1.808   2.667   3.083  0.00  0.00     0.010 A 
ATOM      3  C2  UNL d   1      -0.582   1.999   3.118  0.00  0.00     0.041 A 
ATOM      4  C3  UNL d   1      -0.043   1.501   1.916  0.00  0.00    -0.075 A 
ATOM      5  S   UNL d   1       1.444   0.651   1.717  0.00  0.00     0.015 SA
ATOM      6  C4  UNL d   1       1.215   0.494   0.035  0.00  0.00     0.022 A 
ATOM      7  C5  UNL d   1       0.038   1.070  -0.381  0.00  0.00     0.026 A 
ATOM      8  C6  UNL d   1      -0.706   1.660   0.696  0.00  0.00    -0.082 A 
ATOM      9  C7  UNL d   1      -1.948   2.341   0.694  0.00  0.00     0.045 A 
ENDROOT
TORSDOF 0
ENDMDL
