MODEL 1
REMARK minimizedAffinity 8.70928574
REMARK minimizedRMSD -1
REMARK  0 active torsions:
REMARK  status: ('A' for Active; 'I' for Inactive)
ROOT
ATOM      1  C   UNL d   1       1.450   2.680   3.695  0.00  0.00    -0.002 A 
ATOM      2  C1  UNL d   1       0.585   1.598   3.613  0.00  0.00     0.010 A 
ATOM      3  C2  UNL d   1      -0.225   1.419   2.489  0.00  0.00     0.041 A 
ATOM      4  C3  UNL d   1      -0.147   2.354   1.438  0.00  0.00    -0.075 A 
ATOM      5  S   UNL d   1      -1.042   2.337  -0.036  0.00  0.00     0.015 SA
ATOM      6  C4  UNL d   1      -0.296   3.765  -0.592  0.00  0.00     0.022 A 
ATOM      7  C5  UNL d   1       0.615   4.257   0.312  0.00  0.00     0.026 A 
ATOM      8  C6  UNL d   1       0.717   3.451   1.497  0.00  0.00    -0.082 A 
ATOM      9  C7  UNL d   1       1.524   3.605   2.650  0.00  0.00     0.045 A 
ENDROOT
TORSDOF 0
ENDMDL
