MODEL 1
REMARK minimizedAffinity 13.4010353
REMARK minimizedRMSD -1
REMARK  0 active torsions:
REMARK  status: ('A' for Active; 'I' for Inactive)
ROOT
ATOM      1  C   UNL d   1      -5.997  -5.536  -5.393  0.00  0.00    -0.002 A 
ATOM      2  C1  UNL d   1      -5.972  -5.996  -4.084  0.00  0.00     0.010 A 
ATOM      3  C2  UNL d   1      -4.786  -5.979  -3.348  0.00  0.00     0.041 A 
ATOM      4  C3  UNL d   1      -3.614  -5.485  -3.954  0.00  0.00    -0.075 A 
ATOM      5  S   UNL d   1      -2.047  -5.368  -3.245  0.00  0.00     0.015 SA
ATOM      6  C4  UNL d   1      -1.374  -4.703  -4.663  0.00  0.00     0.022 A 
ATOM      7  C5  UNL d   1      -2.308  -4.568  -5.663  0.00  0.00     0.026 A 
ATOM      8  C6  UNL d   1      -3.615  -5.016  -5.271  0.00  0.00    -0.082 A 
ATOM      9  C7  UNL d   1      -4.833  -5.047  -5.991  0.00  0.00     0.045 A 
ENDROOT
TORSDOF 0
ENDMDL
