MODEL 1
REMARK minimizedAffinity 12.2839622
REMARK minimizedRMSD -1
REMARK  0 active torsions:
REMARK  status: ('A' for Active; 'I' for Inactive)
ROOT
ATOM      1  C   UNL d   1      -2.425   1.653  -1.173  0.00  0.00    -0.002 A 
ATOM      2  C1  UNL d   1      -3.239   0.534  -1.278  0.00  0.00     0.010 A 
ATOM      3  C2  UNL d   1      -2.685  -0.747  -1.311  0.00  0.00     0.041 A 
ATOM      4  C3  UNL d   1      -1.285  -0.886  -1.235  0.00  0.00    -0.075 A 
ATOM      5  S   UNL d   1      -0.384  -2.356  -1.257  0.00  0.00     0.015 SA
ATOM      6  C4  UNL d   1       1.103  -1.534  -1.127  0.00  0.00     0.022 A 
ATOM      7  C5  UNL d   1       0.935  -0.171  -1.068  0.00  0.00     0.026 A 
ATOM      8  C6  UNL d   1      -0.445   0.225  -1.129  0.00  0.00    -0.082 A 
ATOM      9  C7  UNL d   1      -1.037   1.511  -1.098  0.00  0.00     0.045 A 
ENDROOT
TORSDOF 0
ENDMDL
