MODEL 1
REMARK minimizedAffinity 1.20046794
REMARK minimizedRMSD -1
REMARK  0 active torsions:
REMARK  status: ('A' for Active; 'I' for Inactive)
ROOT
ATOM      1  C   UNL d   1      -5.988  -4.488   3.878  0.00  0.00    -0.002 A 
ATOM      2  C1  UNL d   1      -5.961  -4.516   5.265  0.00  0.00     0.010 A 
ATOM      3  C2  UNL d   1      -5.945  -3.329   5.999  0.00  0.00     0.041 A 
ATOM      4  C3  UNL d   1      -5.957  -2.101   5.309  0.00  0.00    -0.075 A 
ATOM      5  S   UNL d   1      -5.941  -0.520   5.999  0.00  0.00     0.015 SA
ATOM      6  C4  UNL d   1      -5.970   0.229   4.468  0.00  0.00     0.022 A 
ATOM      7  C5  UNL d   1      -5.991  -0.689   3.445  0.00  0.00     0.026 A 
ATOM      8  C6  UNL d   1      -5.984  -2.047   3.913  0.00  0.00    -0.082 A 
ATOM      9  C7  UNL d   1      -6.000  -3.268   3.197  0.00  0.00     0.045 A 
ENDROOT
TORSDOF 0
ENDMDL
