MODEL 1
REMARK minimizedAffinity 1.96763313
REMARK minimizedRMSD -1
REMARK  0 active torsions:
REMARK  status: ('A' for Active; 'I' for Inactive)
ROOT
ATOM      1  C   UNL d   1      -0.036  -1.819   1.315  0.00  0.00     0.172 C 
ATOM      2  N   UNL d   1       1.256  -1.180   1.397  0.00  0.00    -0.070 N 
ATOM      3  C1  UNL d   1       1.498   0.068   1.907  0.00  0.00    -0.004 A 
ATOM      4  C2  UNL d   1       2.851   0.310   1.806  0.00  0.00    -0.047 A 
ATOM      5  C3  UNL d   1       3.442  -0.831   1.215  0.00  0.00    -0.047 A 
ATOM      6  C4  UNL d   1       2.432  -1.738   0.972  0.00  0.00    -0.004 A 
ENDROOT
TORSDOF 0
ENDMDL
