MODEL 1
REMARK minimizedAffinity 1.56113565
REMARK minimizedRMSD -1
REMARK  0 active torsions:
REMARK  status: ('A' for Active; 'I' for Inactive)
ROOT
ATOM      1  C   UNL d   1      -0.400  -1.740  -2.216  0.00  0.00     0.172 C 
ATOM      2  N   UNL d   1       0.012  -1.996  -0.856  0.00  0.00    -0.070 N 
ATOM      3  C1  UNL d   1      -0.722  -1.716   0.266  0.00  0.00    -0.004 A 
ATOM      4  C2  UNL d   1       0.016  -2.109   1.361  0.00  0.00    -0.047 A 
ATOM      5  C3  UNL d   1       1.236  -2.641   0.881  0.00  0.00    -0.047 A 
ATOM      6  C4  UNL d   1       1.207  -2.559  -0.495  0.00  0.00    -0.004 A 
ENDROOT
TORSDOF 0
ENDMDL
