MODEL 1
REMARK minimizedAffinity 0.175400108
REMARK minimizedRMSD -1
REMARK  0 active torsions:
REMARK  status: ('A' for Active; 'I' for Inactive)
ROOT
ATOM      1  C   UNL d   1       2.457   0.703   1.006  0.00  0.00     0.172 C 
ATOM      2  N   UNL d   1       1.757  -0.488   1.425  0.00  0.00    -0.070 N 
ATOM      3  C1  UNL d   1       0.504  -0.862   1.017  0.00  0.00    -0.004 A 
ATOM      4  C2  UNL d   1       0.196  -2.052   1.641  0.00  0.00    -0.047 A 
ATOM      5  C3  UNL d   1       1.301  -2.404   2.452  0.00  0.00    -0.047 A 
ATOM      6  C4  UNL d   1       2.252  -1.418   2.300  0.00  0.00    -0.004 A 
ENDROOT
TORSDOF 0
ENDMDL
