MODEL 1
REMARK minimizedAffinity 6.2651062
REMARK minimizedRMSD -1
REMARK  0 active torsions:
REMARK  status: ('A' for Active; 'I' for Inactive)
ROOT
ATOM      1  C   UNL d   1      -4.068  -4.524  -2.864  0.00  0.00     0.172 C 
ATOM      2  N   UNL d   1      -4.670  -4.904  -4.120  0.00  0.00    -0.070 N 
ATOM      3  C1  UNL d   1      -4.307  -5.979  -4.886  0.00  0.00    -0.004 A 
ATOM      4  C2  UNL d   1      -5.119  -5.997  -6.000  0.00  0.00    -0.047 A 
ATOM      5  C3  UNL d   1      -6.000  -4.894  -5.900  0.00  0.00    -0.047 A 
ATOM      6  C4  UNL d   1      -5.700  -4.235  -4.726  0.00  0.00    -0.004 A 
ENDROOT
TORSDOF 0
ENDMDL
