MODEL 1
REMARK minimizedAffinity 1.28572834
REMARK minimizedRMSD -1
REMARK  0 active torsions:
REMARK  status: ('A' for Active; 'I' for Inactive)
ROOT
ATOM      1  C   UNL d   1      -3.587   2.728  -1.363  0.00  0.00     0.172 C 
ATOM      2  N   UNL d   1      -4.215   2.664  -0.064  0.00  0.00    -0.070 N 
ATOM      3  C1  UNL d   1      -5.428   3.209   0.264  0.00  0.00    -0.004 A 
ATOM      4  C2  UNL d   1      -5.671   2.930   1.591  0.00  0.00    -0.047 A 
ATOM      5  C3  UNL d   1      -4.565   2.194   2.079  0.00  0.00    -0.047 A 
ATOM      6  C4  UNL d   1      -3.679   2.044   1.033  0.00  0.00    -0.004 A 
ENDROOT
TORSDOF 0
ENDMDL
