MODEL 1
REMARK minimizedAffinity -0.563273549
REMARK minimizedRMSD -1
REMARK  0 active torsions:
REMARK  status: ('A' for Active; 'I' for Inactive)
ROOT
ATOM      1  C   UNL d   1       1.294   3.187  -0.094  0.00  0.00     0.172 C 
ATOM      2  N   UNL d   1       1.464   1.938   0.611  0.00  0.00    -0.070 N 
ATOM      3  C1  UNL d   1       2.661   1.334   0.888  0.00  0.00    -0.004 A 
ATOM      4  C2  UNL d   1       2.397   0.167   1.573  0.00  0.00    -0.047 A 
ATOM      5  C3  UNL d   1       0.992   0.066   1.711  0.00  0.00    -0.047 A 
ATOM      6  C4  UNL d   1       0.439   1.176   1.107  0.00  0.00    -0.004 A 
ENDROOT
TORSDOF 0
ENDMDL
