MODEL 1
REMARK minimizedAffinity -3.59194875
REMARK minimizedRMSD -1
REMARK  0 active torsions:
REMARK  status: ('A' for Active; 'I' for Inactive)
ROOT
ATOM      1  C   UNL d   1      -0.523  -1.044   0.230  0.00  0.00     0.172 C 
ATOM      2  N   UNL d   1       0.859  -0.993   0.645  0.00  0.00    -0.070 N 
ATOM      3  C1  UNL d   1       1.684   0.095   0.540  0.00  0.00    -0.004 A 
ATOM      4  C2  UNL d   1       2.917  -0.260   1.044  0.00  0.00    -0.047 A 
ATOM      5  C3  UNL d   1       2.830  -1.608   1.465  0.00  0.00    -0.047 A 
ATOM      6  C4  UNL d   1       1.545  -2.037   1.207  0.00  0.00    -0.004 A 
ENDROOT
TORSDOF 0
ENDMDL
