MODEL 1
REMARK minimizedAffinity -2.05415654
REMARK minimizedRMSD -1
REMARK  0 active torsions:
REMARK  status: ('A' for Active; 'I' for Inactive)
ROOT
ATOM      1  C   UNL d   1      -1.939   1.574  -1.724  0.00  0.00     0.172 C 
ATOM      2  N   UNL d   1      -2.949   1.752  -2.741  0.00  0.00    -0.070 N 
ATOM      3  C1  UNL d   1      -4.097   1.016  -2.864  0.00  0.00    -0.004 A 
ATOM      4  C2  UNL d   1      -4.790   1.494  -3.954  0.00  0.00    -0.047 A 
ATOM      5  C3  UNL d   1      -4.032   2.554  -4.507  0.00  0.00    -0.047 A 
ATOM      6  C4  UNL d   1      -2.897   2.692  -3.736  0.00  0.00    -0.004 A 
ENDROOT
TORSDOF 0
ENDMDL
