MODEL 1
REMARK minimizedAffinity -0.5697909
REMARK minimizedRMSD -1
REMARK  0 active torsions:
REMARK  status: ('A' for Active; 'I' for Inactive)
ROOT
ATOM      1  C1  DEN d   1      -2.393   1.400   2.728  0.00  0.00     0.130 A 
ATOM      2  C2  DEN d   1      -2.371   2.834   2.456  0.00  0.00    -0.031 A 
ATOM      3  C3  DEN d   1      -1.221   3.114   1.573  0.00  0.00     0.027 A 
ATOM      4  C4  DEN d   1       0.516   1.474   0.602  0.00  0.00     0.027 A 
ATOM      5  C5  DEN d   1       0.916   0.156   0.562  0.00  0.00    -0.003 A 
ATOM      6  C6  DEN d   1       0.267  -0.825   1.262  0.00  0.00     0.001 A 
ATOM      7  C7  DEN d   1      -0.846  -0.512   1.997  0.00  0.00     0.017 A 
ATOM      8  C8  DEN d   1      -1.251   0.815   2.049  0.00  0.00    -0.094 A 
ATOM      9  C9  DEN d   1      -0.588   1.791   1.324  0.00  0.00    -0.072 A 
ENDROOT
TORSDOF 0
ENDMDL
