MODEL 1
REMARK minimizedAffinity 5.33966446
REMARK minimizedRMSD -1
REMARK  0 active torsions:
REMARK  status: ('A' for Active; 'I' for Inactive)
ROOT
ATOM      1  C1  DEN d   1      -1.622   2.858   1.502  0.00  0.00     0.130 A 
ATOM      2  C2  DEN d   1      -0.367   2.236   1.090  0.00  0.00    -0.031 A 
ATOM      3  C3  DEN d   1      -0.368   0.841   1.574  0.00  0.00     0.027 A 
ATOM      4  C4  DEN d   1      -2.185  -0.411   2.910  0.00  0.00     0.027 A 
ATOM      5  C5  DEN d   1      -3.423  -0.295   3.503  0.00  0.00    -0.003 A 
ATOM      6  C6  DEN d   1      -4.127   0.880   3.499  0.00  0.00     0.001 A 
ATOM      7  C7  DEN d   1      -3.617   1.975   2.852  0.00  0.00     0.017 A 
ATOM      8  C8  DEN d   1      -2.366   1.867   2.259  0.00  0.00    -0.094 A 
ATOM      9  C9  DEN d   1      -1.676   0.667   2.263  0.00  0.00    -0.072 A 
ENDROOT
TORSDOF 0
ENDMDL
