MODEL 1
REMARK minimizedAffinity 2.81659603
REMARK minimizedRMSD -1
REMARK  0 active torsions:
REMARK  status: ('A' for Active; 'I' for Inactive)
ROOT
ATOM      1  C1  DEN d   1       0.181   2.668   1.314  0.00  0.00     0.130 A 
ATOM      2  C2  DEN d   1       1.201   1.780   0.763  0.00  0.00    -0.031 A 
ATOM      3  C3  DEN d   1       0.692   0.396   0.840  0.00  0.00     0.027 A 
ATOM      4  C4  DEN d   1      -1.568  -0.453   1.750  0.00  0.00     0.027 A 
ATOM      5  C5  DEN d   1      -2.756  -0.074   2.333  0.00  0.00    -0.003 A 
ATOM      6  C6  DEN d   1      -3.033   1.230   2.646  0.00  0.00     0.001 A 
ATOM      7  C7  DEN d   1      -2.127   2.209   2.336  0.00  0.00     0.017 A 
ATOM      8  C8  DEN d   1      -0.923   1.835   1.754  0.00  0.00    -0.094 A 
ATOM      9  C9  DEN d   1      -0.667   0.512   1.434  0.00  0.00    -0.072 A 
ENDROOT
TORSDOF 0
ENDMDL
