MODEL 1
REMARK minimizedAffinity 7.63844681
REMARK minimizedRMSD -1
REMARK  0 active torsions:
REMARK  status: ('A' for Active; 'I' for Inactive)
ROOT
ATOM      1  C1  DEN d   1      -3.169   2.810   3.189  0.00  0.00     0.130 A 
ATOM      2  C2  DEN d   1      -4.107   1.755   3.561  0.00  0.00    -0.031 A 
ATOM      3  C3  DEN d   1      -3.598   0.479   3.020  0.00  0.00     0.027 A 
ATOM      4  C4  DEN d   1      -1.455   0.037   1.654  0.00  0.00     0.027 A 
ATOM      5  C5  DEN d   1      -0.347   0.623   1.082  0.00  0.00    -0.003 A 
ATOM      6  C6  DEN d   1      -0.122   1.973   1.142  0.00  0.00     0.001 A 
ATOM      7  C7  DEN d   1      -0.994   2.776   1.828  0.00  0.00     0.017 A 
ATOM      8  C8  DEN d   1      -2.117   2.194   2.401  0.00  0.00    -0.094 A 
ATOM      9  C9  DEN d   1      -2.320   0.826   2.340  0.00  0.00    -0.072 A 
ENDROOT
TORSDOF 0
ENDMDL
