MODEL 1
REMARK minimizedAffinity 3.56640911
REMARK minimizedRMSD -1
REMARK  0 active torsions:
REMARK  status: ('A' for Active; 'I' for Inactive)
ROOT
ATOM      1  C1  DEN d   1      -0.126  -1.629   2.254  0.00  0.00     0.130 A 
ATOM      2  C2  DEN d   1      -1.464  -1.803   2.814  0.00  0.00    -0.031 A 
ATOM      3  C3  DEN d   1      -2.207  -0.542   2.622  0.00  0.00     0.027 A 
ATOM      4  C4  DEN d   1      -1.422   1.651   1.512  0.00  0.00     0.027 A 
ATOM      5  C5  DEN d   1      -0.363   2.282   0.898  0.00  0.00    -0.003 A 
ATOM      6  C6  DEN d   1       0.850   1.670   0.725  0.00  0.00     0.001 A 
ATOM      7  C7  DEN d   1       1.020   0.372   1.130  0.00  0.00     0.017 A 
ATOM      8  C8  DEN d   1      -0.041  -0.268   1.757  0.00  0.00    -0.094 A 
ATOM      9  C9  DEN d   1      -1.263   0.364   1.912  0.00  0.00    -0.072 A 
ENDROOT
TORSDOF 0
ENDMDL
