MODEL 1
REMARK minimizedAffinity -5.90688229
REMARK minimizedRMSD -1
REMARK  0 active torsions:
REMARK  status: ('A' for Active; 'I' for Inactive)
ROOT
ATOM      1  C1  DEN d   1      -1.866  -1.037   1.388  0.00  0.00     0.130 A 
ATOM      2  C2  DEN d   1      -3.123  -0.527   1.929  0.00  0.00    -0.031 A 
ATOM      3  C3  DEN d   1      -2.954   0.916   2.193  0.00  0.00     0.027 A 
ATOM      4  C4  DEN d   1      -0.880   2.403   1.815  0.00  0.00     0.027 A 
ATOM      5  C5  DEN d   1       0.429   2.415   1.386  0.00  0.00    -0.003 A 
ATOM      6  C6  DEN d   1       1.069   1.281   0.962  0.00  0.00     0.001 A 
ATOM      7  C7  DEN d   1       0.388   0.094   0.917  0.00  0.00     0.017 A 
ATOM      8  C8  DEN d   1      -0.929   0.071   1.355  0.00  0.00    -0.094 A 
ATOM      9  C9  DEN d   1      -1.563   1.231   1.768  0.00  0.00    -0.072 A 
ENDROOT
TORSDOF 0
ENDMDL
