MODEL 1
REMARK minimizedAffinity -1.07521439
REMARK minimizedRMSD -1
REMARK  0 active torsions:
REMARK  status: ('A' for Active; 'I' for Inactive)
ROOT
ATOM      1  C1  DEN d   1       1.649   1.674   0.982  0.00  0.00     0.130 A 
ATOM      2  C2  DEN d   1       1.910   0.392   0.333  0.00  0.00    -0.031 A 
ATOM      3  C3  DEN d   1       0.697  -0.440   0.462  0.00  0.00     0.027 A 
ATOM      4  C4  DEN d   1      -1.550   0.131   1.593  0.00  0.00     0.027 A 
ATOM      5  C5  DEN d   1      -2.242   1.096   2.290  0.00  0.00    -0.003 A 
ATOM      6  C6  DEN d   1      -1.679   2.299   2.628  0.00  0.00     0.001 A 
ATOM      7  C7  DEN d   1      -0.400   2.585   2.228  0.00  0.00     0.017 A 
ATOM      8  C8  DEN d   1       0.307   1.614   1.531  0.00  0.00    -0.094 A 
ATOM      9  C9  DEN d   1      -0.284   0.410   1.189  0.00  0.00    -0.072 A 
ENDROOT
TORSDOF 0
ENDMDL
