MODEL 1
REMARK minimizedAffinity 10.4456434
REMARK minimizedRMSD -1
REMARK  0 active torsions:
REMARK  status: ('A' for Active; 'I' for Inactive)
ROOT
ATOM      1  C1  DEN d   1      -3.131   2.052   2.871  0.00  0.00     0.130 A 
ATOM      2  C2  DEN d   1      -2.955   3.479   2.616  0.00  0.00    -0.031 A 
ATOM      3  C3  DEN d   1      -1.804   3.641   1.705  0.00  0.00     0.027 A 
ATOM      4  C4  DEN d   1      -0.289   1.831   0.666  0.00  0.00     0.027 A 
ATOM      5  C5  DEN d   1      -0.042   0.477   0.599  0.00  0.00    -0.003 A 
ATOM      6  C6  DEN d   1      -0.779  -0.436   1.305  0.00  0.00     0.001 A 
ATOM      7  C7  DEN d   1      -1.829  -0.011   2.075  0.00  0.00     0.017 A 
ATOM      8  C8  DEN d   1      -2.080   1.353   2.154  0.00  0.00    -0.094 A 
ATOM      9  C9  DEN d   1      -1.331   2.259   1.423  0.00  0.00    -0.072 A 
ENDROOT
TORSDOF 0
ENDMDL
