MODEL 1
REMARK minimizedAffinity 3.6836586
REMARK minimizedRMSD -1
REMARK  0 active torsions:
REMARK  status: ('A' for Active; 'I' for Inactive)
ROOT
ATOM      1  C1  DEN d   1      -2.652   1.393   2.281  0.00  0.00     0.130 A 
ATOM      2  C2  DEN d   1      -2.681   2.814   1.947  0.00  0.00    -0.031 A 
ATOM      3  C3  DEN d   1      -1.457   3.129   1.184  0.00  0.00     0.027 A 
ATOM      4  C4  DEN d   1       0.468   1.561   0.486  0.00  0.00     0.027 A 
ATOM      5  C5  DEN d   1       0.943   0.269   0.550  0.00  0.00    -0.003 A 
ATOM      6  C6  DEN d   1       0.276  -0.722   1.219  0.00  0.00     0.001 A 
ATOM      7  C7  DEN d   1      -0.928  -0.448   1.813  0.00  0.00     0.017 A 
ATOM      8  C8  DEN d   1      -1.410   0.853   1.759  0.00  0.00    -0.094 A 
ATOM      9  C9  DEN d   1      -0.726   1.838   1.067  0.00  0.00    -0.072 A 
ENDROOT
TORSDOF 0
ENDMDL
