MODEL 1
REMARK minimizedAffinity -0.533613682
REMARK minimizedRMSD -1
REMARK  0 active torsions:
REMARK  status: ('A' for Active; 'I' for Inactive)
ROOT
ATOM      1  C1  DEN d   1      -2.961   2.220   2.960  0.00  0.00     0.130 A 
ATOM      2  C2  DEN d   1      -3.830   1.067   3.180  0.00  0.00    -0.031 A 
ATOM      3  C3  DEN d   1      -3.204  -0.105   2.536  0.00  0.00     0.027 A 
ATOM      4  C4  DEN d   1      -0.984  -0.249   1.232  0.00  0.00     0.027 A 
ATOM      5  C5  DEN d   1       0.096   0.471   0.772  0.00  0.00    -0.003 A 
ATOM      6  C6  DEN d   1       0.216   1.820   0.979  0.00  0.00     0.001 A 
ATOM      7  C7  DEN d   1      -0.740   2.484   1.702  0.00  0.00     0.017 A 
ATOM      8  C8  DEN d   1      -1.836   1.766   2.162  0.00  0.00    -0.094 A 
ATOM      9  C9  DEN d   1      -1.932   0.400   1.953  0.00  0.00    -0.072 A 
ENDROOT
TORSDOF 0
ENDMDL
