MODEL 1
REMARK minimizedAffinity 2.05470872
REMARK minimizedRMSD -1
REMARK  0 active torsions:
REMARK  status: ('A' for Active; 'I' for Inactive)
ROOT
ATOM      1  C1  DEN d   1      -2.379  -3.338  -3.381  0.00  0.00     0.130 A 
ATOM      2  C2  DEN d   1      -2.932  -1.989  -3.283  0.00  0.00    -0.031 A 
ATOM      3  C3  DEN d   1      -3.798  -1.937  -2.088  0.00  0.00     0.027 A 
ATOM      4  C4  DEN d   1      -4.332  -3.801  -0.387  0.00  0.00     0.027 A 
ATOM      5  C5  DEN d   1      -4.106  -5.119  -0.059  0.00  0.00    -0.003 A 
ATOM      6  C6  DEN d   1      -3.323  -5.939  -0.828  0.00  0.00     0.001 A 
ATOM      7  C7  DEN d   1      -2.700  -5.436  -1.939  0.00  0.00     0.017 A 
ATOM      8  C8  DEN d   1      -2.928  -4.109  -2.280  0.00  0.00    -0.094 A 
ATOM      9  C9  DEN d   1      -3.714  -3.293  -1.484  0.00  0.00    -0.072 A 
ENDROOT
TORSDOF 0
ENDMDL
