MODEL 1
REMARK minimizedAffinity -3.54973364
REMARK minimizedRMSD -1
REMARK  0 active torsions:
REMARK  status: ('A' for Active; 'I' for Inactive)
ROOT
ATOM      1  C1  DEN d   1      -0.263  -0.860   1.171  0.00  0.00     0.130 A 
ATOM      2  C2  DEN d   1       0.924  -0.162   0.686  0.00  0.00    -0.031 A 
ATOM      3  C3  DEN d   1       0.708   1.287   0.867  0.00  0.00     0.027 A 
ATOM      4  C4  DEN d   1      -1.338   2.512   1.851  0.00  0.00     0.027 A 
ATOM      5  C5  DEN d   1      -2.596   2.345   2.387  0.00  0.00    -0.003 A 
ATOM      6  C6  DEN d   1      -3.173   1.110   2.522  0.00  0.00     0.001 A 
ATOM      7  C7  DEN d   1      -2.474  -0.010   2.158  0.00  0.00     0.017 A 
ATOM      8  C8  DEN d   1      -1.208   0.151   1.610  0.00  0.00    -0.094 A 
ATOM      9  C9  DEN d   1      -0.636   1.407   1.493  0.00  0.00    -0.072 A 
ENDROOT
TORSDOF 0
ENDMDL
