MODEL 1
REMARK minimizedAffinity -0.706988335
REMARK minimizedRMSD -1
REMARK  0 active torsions:
REMARK  status: ('A' for Active; 'I' for Inactive)
ROOT
ATOM      1  C1  DEN d   1      -1.819  -1.301   1.991  0.00  0.00     0.130 A 
ATOM      2  C2  DEN d   1      -2.967  -0.771   2.723  0.00  0.00    -0.031 A 
ATOM      3  C3  DEN d   1      -2.860   0.701   2.736  0.00  0.00     0.027 A 
ATOM      4  C4  DEN d   1      -1.041   2.206   1.697  0.00  0.00     0.027 A 
ATOM      5  C5  DEN d   1       0.139   2.213   0.987  0.00  0.00    -0.003 A 
ATOM      6  C6  DEN d   1       0.762   1.058   0.595  0.00  0.00     0.001 A 
ATOM      7  C7  DEN d   1       0.183  -0.153   0.871  0.00  0.00     0.017 A 
ATOM      8  C8  DEN d   1      -1.003  -0.168   1.593  0.00  0.00    -0.094 A 
ATOM      9  C9  DEN d   1      -1.623   1.011   1.970  0.00  0.00    -0.072 A 
ENDROOT
TORSDOF 0
ENDMDL
