MODEL 1
REMARK minimizedAffinity 17.2260838
REMARK minimizedRMSD -1
REMARK  3 active torsions:
REMARK  status: ('A' for Active; 'I' for Inactive)
REMARK    1  A    between atoms: C3'_2  and  C2'_3 
REMARK    2  A    between atoms: C2'_3  and  C1'_4 
REMARK    3  A    between atoms: C1'_4  and  C1_5 
ROOT
ATOM      1  C1  N4B d   1       4.500   3.427   0.370  0.00  0.00    -0.075 A 
ATOM      2  C2  N4B d   1       4.475   4.803   0.686  0.00  0.00     0.002 A 
ATOM      3  C3  N4B d   1       5.216   5.691  -0.055  0.00  0.00     0.002 A 
ATOM      4  C4  N4B d   1       5.999   5.226  -1.101  0.00  0.00    -0.004 A 
ATOM      5  C5  N4B d   1       5.998   3.898  -1.415  0.00  0.00     0.002 A 
ATOM      6  C6  N4B d   1       5.255   2.995  -0.681  0.00  0.00     0.002 A 
ENDROOT
BRANCH   1   7
ATOM      7  C1' N4B d   1       3.775   2.407   1.205  0.00  0.00     0.057 C 
BRANCH   7   8
ATOM      8  C2' N4B d   1       4.467   2.286   2.560  0.00  0.00     0.009 C 
BRANCH   8   9
ATOM      9  C3' N4B d   1       4.666   0.836   2.968  0.00  0.00     0.004 C 
ATOM     10  C4' N4B d   1       5.997   0.592   3.613  0.00  0.00     0.003 C 
ENDBRANCH   8   9
ENDBRANCH   7   8
ENDBRANCH   1   7
TORSDOF 3
ENDMDL
