MODEL 1
REMARK minimizedAffinity 14.6696148
REMARK minimizedRMSD -1
REMARK  3 active torsions:
REMARK  status: ('A' for Active; 'I' for Inactive)
REMARK    1  A    between atoms: C3'_2  and  C2'_3 
REMARK    2  A    between atoms: C2'_3  and  C1'_4 
REMARK    3  A    between atoms: C1'_4  and  C1_5 
ROOT
ATOM      1  C1  N4B d   1      -0.016  -0.360  -1.786  0.00  0.00    -0.075 A 
ATOM      2  C2  N4B d   1      -0.717  -0.495  -0.567  0.00  0.00     0.002 A 
ATOM      3  C3  N4B d   1      -2.035  -0.880  -0.573  0.00  0.00     0.002 A 
ATOM      4  C4  N4B d   1      -2.676  -1.116  -1.780  0.00  0.00    -0.004 A 
ATOM      5  C5  N4B d   1      -1.984  -1.007  -2.951  0.00  0.00     0.002 A 
ATOM      6  C6  N4B d   1      -0.658  -0.625  -2.960  0.00  0.00     0.002 A 
ENDROOT
BRANCH   1   7
ATOM      7  C1' N4B d   1       1.402   0.142  -1.835  0.00  0.00     0.057 C 
BRANCH   7   8
ATOM      8  C2' N4B d   1       1.434   1.597  -1.377  0.00  0.00     0.009 C 
BRANCH   8   9
ATOM      9  C3' N4B d   1       2.850   2.145  -1.327  0.00  0.00     0.004 C 
ATOM     10  C4' N4B d   1       3.302   2.460   0.068  0.00  0.00     0.003 C 
ENDBRANCH   8   9
ENDBRANCH   7   8
ENDBRANCH   1   7
TORSDOF 3
ENDMDL
