MODEL 1
REMARK minimizedAffinity 12.7425423
REMARK minimizedRMSD -1
REMARK  3 active torsions:
REMARK  status: ('A' for Active; 'I' for Inactive)
REMARK    1  A    between atoms: C3'_2  and  C2'_3 
REMARK    2  A    between atoms: C2'_3  and  C1'_4 
REMARK    3  A    between atoms: C1'_4  and  C1_5 
ROOT
ATOM      1  C1  N4B d   1      -0.689  -2.054  -1.369  0.00  0.00    -0.075 A 
ATOM      2  C2  N4B d   1      -1.775  -1.329  -0.830  0.00  0.00     0.002 A 
ATOM      3  C3  N4B d   1      -2.265  -1.648   0.412  0.00  0.00     0.002 A 
ATOM      4  C4  N4B d   1      -1.700  -2.696   1.124  0.00  0.00    -0.004 A 
ATOM      5  C5  N4B d   1      -0.635  -3.374   0.608  0.00  0.00     0.002 A 
ATOM      6  C6  N4B d   1      -0.130  -3.062  -0.638  0.00  0.00     0.002 A 
ENDROOT
BRANCH   1   7
ATOM      7  C1' N4B d   1      -0.174  -1.798  -2.759  0.00  0.00     0.057 C 
BRANCH   7   8
ATOM      8  C2' N4B d   1       0.422  -0.395  -2.821  0.00  0.00     0.009 C 
BRANCH   8   9
ATOM      9  C3' N4B d   1       1.851  -0.361  -2.307  0.00  0.00     0.004 C 
ATOM     10  C4' N4B d   1       2.321   1.027  -1.990  0.00  0.00     0.003 C 
ENDBRANCH   8   9
ENDBRANCH   7   8
ENDBRANCH   1   7
TORSDOF 3
ENDMDL
