MODEL 1
REMARK minimizedAffinity 8.91430283
REMARK minimizedRMSD -1
REMARK  3 active torsions:
REMARK  status: ('A' for Active; 'I' for Inactive)
REMARK    1  A    between atoms: C3'_2  and  C2'_3 
REMARK    2  A    between atoms: C2'_3  and  C1'_4 
REMARK    3  A    between atoms: C1'_4  and  C1_5 
ROOT
ATOM      1  C1  N4B d   1      -0.968  -1.507  -2.216  0.00  0.00    -0.075 A 
ATOM      2  C2  N4B d   1      -0.719  -2.208  -1.016  0.00  0.00     0.002 A 
ATOM      3  C3  N4B d   1      -1.623  -2.145   0.016  0.00  0.00     0.002 A 
ATOM      4  C4  N4B d   1      -2.769  -1.377  -0.122  0.00  0.00    -0.004 A 
ATOM      5  C5  N4B d   1      -3.015  -0.724  -1.294  0.00  0.00     0.002 A 
ATOM      6  C6  N4B d   1      -2.117  -0.780  -2.341  0.00  0.00     0.002 A 
ENDROOT
BRANCH   1   7
ATOM      7  C1' N4B d   1       0.032  -1.475  -3.340  0.00  0.00     0.057 C 
BRANCH   7   8
ATOM      8  C2' N4B d   1       0.796  -0.155  -3.293  0.00  0.00     0.009 C 
BRANCH   8   9
ATOM      9  C3' N4B d   1       1.492   0.052  -1.959  0.00  0.00     0.004 C 
ATOM     10  C4' N4B d   1       2.987   0.037  -2.076  0.00  0.00     0.003 C 
ENDBRANCH   8   9
ENDBRANCH   7   8
ENDBRANCH   1   7
TORSDOF 3
ENDMDL
