MODEL 1
REMARK minimizedAffinity 15.5769424
REMARK minimizedRMSD -1
REMARK  3 active torsions:
REMARK  status: ('A' for Active; 'I' for Inactive)
REMARK    1  A    between atoms: C3'_2  and  C2'_3 
REMARK    2  A    between atoms: C2'_3  and  C1'_4 
REMARK    3  A    between atoms: C1'_4  and  C1_5 
ROOT
ATOM      1  C1  N4B d   1      -4.275   4.598  -0.484  0.00  0.00    -0.075 A 
ATOM      2  C2  N4B d   1      -4.951   5.521   0.345  0.00  0.00     0.002 A 
ATOM      3  C3  N4B d   1      -5.661   5.074   1.432  0.00  0.00     0.002 A 
ATOM      4  C4  N4B d   1      -5.726   3.715   1.698  0.00  0.00    -0.004 A 
ATOM      5  C5  N4B d   1      -5.049   2.833   0.908  0.00  0.00     0.002 A 
ATOM      6  C6  N4B d   1      -4.327   3.267  -0.186  0.00  0.00     0.002 A 
ENDROOT
BRANCH   1   7
ATOM      7  C1' N4B d   1      -3.556   5.030  -1.733  0.00  0.00     0.057 C 
BRANCH   7   8
ATOM      8  C2' N4B d   1      -4.485   5.907  -2.567  0.00  0.00     0.009 C 
BRANCH   8   9
ATOM      9  C3' N4B d   1      -4.098   5.907  -4.036  0.00  0.00     0.004 C 
ATOM     10  C4' N4B d   1      -5.285   5.990  -4.949  0.00  0.00     0.003 C 
ENDBRANCH   8   9
ENDBRANCH   7   8
ENDBRANCH   1   7
TORSDOF 3
ENDMDL
