MODEL 1
REMARK minimizedAffinity 14.2826948
REMARK minimizedRMSD -1
REMARK  3 active torsions:
REMARK  status: ('A' for Active; 'I' for Inactive)
REMARK    1  A    between atoms: C3'_2  and  C2'_3 
REMARK    2  A    between atoms: C2'_3  and  C1'_4 
REMARK    3  A    between atoms: C1'_4  and  C1_5 
ROOT
ATOM      1  C1  N4B d   1      -4.413   3.430  -5.270  0.00  0.00    -0.075 A 
ATOM      2  C2  N4B d   1      -3.714   4.274  -4.380  0.00  0.00     0.002 A 
ATOM      3  C3  N4B d   1      -4.173   5.545  -4.136  0.00  0.00     0.002 A 
ATOM      4  C4  N4B d   1      -5.313   5.998  -4.783  0.00  0.00    -0.004 A 
ATOM      5  C5  N4B d   1      -5.997   5.168  -5.622  0.00  0.00     0.002 A 
ATOM      6  C6  N4B d   1      -5.549   3.887  -5.873  0.00  0.00     0.002 A 
ENDROOT
BRANCH   1   7
ATOM      7  C1' N4B d   1      -3.902   2.062  -5.634  0.00  0.00     0.057 C 
BRANCH   7   8
ATOM      8  C2' N4B d   1      -3.104   1.498  -4.463  0.00  0.00     0.009 C 
BRANCH   8   9
ATOM      9  C3' N4B d   1      -1.970   2.421  -4.052  0.00  0.00     0.004 C 
ATOM     10  C4' N4B d   1      -0.677   2.093  -4.737  0.00  0.00     0.003 C 
ENDBRANCH   8   9
ENDBRANCH   7   8
ENDBRANCH   1   7
TORSDOF 3
ENDMDL
