MODEL 1
REMARK minimizedAffinity 12.7797823
REMARK minimizedRMSD -1
REMARK  3 active torsions:
REMARK  status: ('A' for Active; 'I' for Inactive)
REMARK    1  A    between atoms: C3'_2  and  C2'_3 
REMARK    2  A    between atoms: C2'_3  and  C1'_4 
REMARK    3  A    between atoms: C1'_4  and  C1_5 
ROOT
ATOM      1  C1  N4B d   1      -1.039  -1.364  -1.978  0.00  0.00    -0.075 A 
ATOM      2  C2  N4B d   1      -0.355  -2.442  -1.375  0.00  0.00     0.002 A 
ATOM      3  C3  N4B d   1      -0.762  -2.914  -0.151  0.00  0.00     0.002 A 
ATOM      4  C4  N4B d   1      -1.833  -2.315   0.494  0.00  0.00    -0.004 A 
ATOM      5  C5  N4B d   1      -2.505  -1.291  -0.108  0.00  0.00     0.002 A 
ATOM      6  C6  N4B d   1      -2.109  -0.809  -1.339  0.00  0.00     0.002 A 
ENDROOT
BRANCH   1   7
ATOM      7  C1' N4B d   1      -0.578  -0.757  -3.275  0.00  0.00     0.057 C 
BRANCH   7   8
ATOM      8  C2' N4B d   1       0.929  -0.527  -3.212  0.00  0.00     0.009 C 
BRANCH   8   9
ATOM      9  C3' N4B d   1       1.313   0.422  -2.090  0.00  0.00     0.004 C 
ATOM     10  C4' N4B d   1       2.790   0.452  -1.835  0.00  0.00     0.003 C 
ENDBRANCH   8   9
ENDBRANCH   7   8
ENDBRANCH   1   7
TORSDOF 3
ENDMDL
