MODEL 1
REMARK minimizedAffinity 17.2683258
REMARK minimizedRMSD -1
REMARK  3 active torsions:
REMARK  status: ('A' for Active; 'I' for Inactive)
REMARK    1  A    between atoms: C3'_2  and  C2'_3 
REMARK    2  A    between atoms: C2'_3  and  C1'_4 
REMARK    3  A    between atoms: C1'_4  and  C1_5 
ROOT
ATOM      1  C1  N4B d   1       0.467  -0.458  -1.999  0.00  0.00    -0.075 A 
ATOM      2  C2  N4B d   1       0.695   0.665  -1.174  0.00  0.00     0.002 A 
ATOM      3  C3  N4B d   1       1.863   1.377  -1.290  0.00  0.00     0.002 A 
ATOM      4  C4  N4B d   1       2.822   0.975  -2.208  0.00  0.00    -0.004 A 
ATOM      5  C5  N4B d   1       2.584  -0.096  -3.018  0.00  0.00     0.002 A 
ATOM      6  C6  N4B d   1       1.412  -0.818  -2.915  0.00  0.00     0.002 A 
ENDROOT
BRANCH   1   7
ATOM      7  C1' N4B d   1      -0.758  -1.319  -1.848  0.00  0.00     0.057 C 
BRANCH   7   8
ATOM      8  C2' N4B d   1      -1.566  -0.834  -0.648  0.00  0.00     0.009 C 
BRANCH   8   9
ATOM      9  C3' N4B d   1      -1.799  -1.942   0.365  0.00  0.00     0.004 C 
ATOM     10  C4' N4B d   1      -0.661  -2.916   0.433  0.00  0.00     0.003 C 
ENDBRANCH   8   9
ENDBRANCH   7   8
ENDBRANCH   1   7
TORSDOF 3
ENDMDL
