MODEL 1
REMARK minimizedAffinity 14.8056126
REMARK minimizedRMSD -1
REMARK  3 active torsions:
REMARK  status: ('A' for Active; 'I' for Inactive)
REMARK    1  A    between atoms: C3'_2  and  C2'_3 
REMARK    2  A    between atoms: C2'_3  and  C1'_4 
REMARK    3  A    between atoms: C1'_4  and  C1_5 
ROOT
ATOM      1  C1  N4B d   1      -2.122  -2.085   1.454  0.00  0.00    -0.075 A 
ATOM      2  C2  N4B d   1      -1.067  -2.940   1.068  0.00  0.00     0.002 A 
ATOM      3  C3  N4B d   1      -0.554  -2.867  -0.204  0.00  0.00     0.002 A 
ATOM      4  C4  N4B d   1      -1.091  -1.965  -1.109  0.00  0.00    -0.004 A 
ATOM      5  C5  N4B d   1      -2.094  -1.125  -0.721  0.00  0.00     0.002 A 
ATOM      6  C6  N4B d   1      -2.616  -1.184   0.555  0.00  0.00     0.002 A 
ENDROOT
BRANCH   1   7
ATOM      7  C1' N4B d   1      -2.773  -2.186   2.806  0.00  0.00     0.057 C 
BRANCH   7   8
ATOM      8  C2' N4B d   1      -1.971  -1.364   3.811  0.00  0.00     0.009 C 
BRANCH   8   9
ATOM      9  C3' N4B d   1      -2.445   0.078   3.873  0.00  0.00     0.004 C 
ATOM     10  C4' N4B d   1      -2.846   0.498   5.255  0.00  0.00     0.003 C 
ENDBRANCH   8   9
ENDBRANCH   7   8
ENDBRANCH   1   7
TORSDOF 3
ENDMDL
