MODEL 1
REMARK minimizedAffinity 15.6168575
REMARK minimizedRMSD -1
REMARK  3 active torsions:
REMARK  status: ('A' for Active; 'I' for Inactive)
REMARK    1  A    between atoms: C3'_2  and  C2'_3 
REMARK    2  A    between atoms: C2'_3  and  C1'_4 
REMARK    3  A    between atoms: C1'_4  and  C1_5 
ROOT
ATOM      1  C1  N4B d   1       3.706   0.467  -2.689  0.00  0.00    -0.075 A 
ATOM      2  C2  N4B d   1       4.629   1.514  -2.904  0.00  0.00     0.002 A 
ATOM      3  C3  N4B d   1       5.760   1.290  -3.649  0.00  0.00     0.002 A 
ATOM      4  C4  N4B d   1       5.998   0.027  -4.172  0.00  0.00    -0.004 A 
ATOM      5  C5  N4B d   1       5.089  -0.972  -3.981  0.00  0.00     0.002 A 
ATOM      6  C6  N4B d   1       3.946  -0.760  -3.238  0.00  0.00     0.002 A 
ENDROOT
BRANCH   1   7
ATOM      7  C1' N4B d   1       2.498   0.641  -1.810  0.00  0.00     0.057 C 
BRANCH   7   8
ATOM      8  C2' N4B d   1       2.954   0.920  -0.381  0.00  0.00     0.009 C 
BRANCH   8   9
ATOM      9  C3' N4B d   1       2.799   2.385  -0.011  0.00  0.00     0.004 C 
ATOM     10  C4' N4B d   1       3.982   2.925   0.736  0.00  0.00     0.003 C 
ENDBRANCH   8   9
ENDBRANCH   7   8
ENDBRANCH   1   7
TORSDOF 3
ENDMDL
