MODEL 1
REMARK minimizedAffinity 12.9001532
REMARK minimizedRMSD -1
REMARK  0 active torsions:
REMARK  status: ('A' for Active; 'I' for Inactive)
ROOT
ATOM      1  C2' OXE d   1      -6.000  -0.303   5.662  0.00  0.00     0.078 C 
ATOM      2  C1' OXE d   1      -4.899  -0.188   3.083  0.00  0.00     0.078 C 
ATOM      3  C1  OXE d   1      -4.860   1.066   3.921  0.00  0.00    -0.078 A 
ATOM      4  C2  OXE d   1      -5.443   1.013   5.164  0.00  0.00    -0.078 A 
ATOM      5  C3  OXE d   1      -5.387   2.125   6.000  0.00  0.00     0.003 A 
ATOM      6  C4  OXE d   1      -4.879   3.341   5.528  0.00  0.00    -0.002 A 
ATOM      7  C5  OXE d   1      -4.317   3.428   4.250  0.00  0.00    -0.002 A 
ATOM      8  C6  OXE d   1      -4.261   2.290   3.451  0.00  0.00     0.003 A 
ENDROOT
TORSDOF 0
ENDMDL
