MODEL 1
REMARK minimizedAffinity 10.0246458
REMARK minimizedRMSD -1
REMARK  0 active torsions:
REMARK  status: ('A' for Active; 'I' for Inactive)
ROOT
ATOM      1  C2' OXE d   1      -4.523  -0.153   3.108  0.00  0.00     0.078 C 
ATOM      2  C1' OXE d   1      -5.997  -0.421   5.483  0.00  0.00     0.078 C 
ATOM      3  C1  OXE d   1      -5.432   0.938   5.155  0.00  0.00    -0.078 A 
ATOM      4  C2  OXE d   1      -4.673   1.050   4.015  0.00  0.00    -0.078 A 
ATOM      5  C3  OXE d   1      -4.174   2.293   3.638  0.00  0.00     0.003 A 
ATOM      6  C4  OXE d   1      -4.308   3.398   4.487  0.00  0.00    -0.002 A 
ATOM      7  C5  OXE d   1      -5.044   3.297   5.673  0.00  0.00    -0.002 A 
ATOM      8  C6  OXE d   1      -5.647   2.088   6.000  0.00  0.00     0.003 A 
ENDROOT
TORSDOF 0
ENDMDL
