MODEL 1
REMARK minimizedAffinity 0.979234993
REMARK minimizedRMSD -1
REMARK  0 active torsions:
REMARK  status: ('A' for Active; 'I' for Inactive)
ROOT
ATOM      1  C2' OXE d   1       5.703   5.577  -5.811  0.00  0.00     0.078 C 
ATOM      2  C1' OXE d   1       2.963   4.995  -6.000  0.00  0.00     0.078 C 
ATOM      3  C1  OXE d   1       3.823   4.073  -5.173  0.00  0.00    -0.078 A 
ATOM      4  C2  OXE d   1       5.170   4.338  -5.124  0.00  0.00    -0.078 A 
ATOM      5  C3  OXE d   1       6.000   3.550  -4.331  0.00  0.00     0.003 A 
ATOM      6  C4  OXE d   1       5.500   2.401  -3.707  0.00  0.00    -0.002 A 
ATOM      7  C5  OXE d   1       4.138   2.090  -3.776  0.00  0.00    -0.002 A 
ATOM      8  C6  OXE d   1       3.280   2.937  -4.468  0.00  0.00     0.003 A 
ENDROOT
TORSDOF 0
ENDMDL
