MODEL 1
REMARK minimizedAffinity 15.2486858
REMARK minimizedRMSD -1
REMARK  0 active torsions:
REMARK  status: ('A' for Active; 'I' for Inactive)
ROOT
ATOM      1  C2' OXE d   1       3.512  -0.007   1.897  0.00  0.00     0.078 C 
ATOM      2  C1' OXE d   1       1.444  -0.135   3.791  0.00  0.00     0.078 C 
ATOM      3  C1  OXE d   1       1.453   1.034   2.837  0.00  0.00    -0.078 A 
ATOM      4  C2  OXE d   1       2.495   1.113   1.944  0.00  0.00    -0.078 A 
ATOM      5  C3  OXE d   1       2.522   2.140   1.006  0.00  0.00     0.003 A 
ATOM      6  C4  OXE d   1       1.584   3.178   1.063  0.00  0.00    -0.002 A 
ATOM      7  C5  OXE d   1       0.537   3.137   1.991  0.00  0.00    -0.002 A 
ATOM      8  C6  OXE d   1       0.433   2.053   2.855  0.00  0.00     0.003 A 
ENDROOT
TORSDOF 0
ENDMDL
