MODEL 1
REMARK minimizedAffinity 11.9009781
REMARK minimizedRMSD -1
REMARK  0 active torsions:
REMARK  status: ('A' for Active; 'I' for Inactive)
ROOT
ATOM      1  C2' OXE d   1       3.380   1.492  -5.245  0.00  0.00     0.078 C 
ATOM      2  C1' OXE d   1       3.375   2.408  -2.591  0.00  0.00     0.078 C 
ATOM      3  C1  OXE d   1       2.958   3.376  -3.671  0.00  0.00    -0.078 A 
ATOM      4  C2  OXE d   1       3.008   2.933  -4.970  0.00  0.00    -0.078 A 
ATOM      5  C3  OXE d   1       2.582   3.768  -6.000  0.00  0.00     0.003 A 
ATOM      6  C4  OXE d   1       2.250   5.102  -5.739  0.00  0.00    -0.002 A 
ATOM      7  C5  OXE d   1       2.231   5.586  -4.426  0.00  0.00    -0.002 A 
ATOM      8  C6  OXE d   1       2.540   4.725  -3.379  0.00  0.00     0.003 A 
ENDROOT
TORSDOF 0
ENDMDL
