MODEL 1
REMARK minimizedAffinity 8.353508
REMARK minimizedRMSD -1
REMARK  0 active torsions:
REMARK  status: ('A' for Active; 'I' for Inactive)
ROOT
ATOM      1  C2' OXE d   1      -4.919  -5.986  -1.374  0.00  0.00     0.078 C 
ATOM      2  C1' OXE d   1      -2.277  -5.969  -2.322  0.00  0.00     0.078 C 
ATOM      3  C1  OXE d   1      -2.489  -5.975  -0.829  0.00  0.00    -0.078 A 
ATOM      4  C2  OXE d   1      -3.785  -5.936  -0.374  0.00  0.00    -0.078 A 
ATOM      5  C3  OXE d   1      -4.037  -5.995   0.994  0.00  0.00     0.003 A 
ATOM      6  C4  OXE d   1      -2.981  -5.939   1.912  0.00  0.00    -0.002 A 
ATOM      7  C5  OXE d   1      -1.654  -5.938   1.470  0.00  0.00    -0.002 A 
ATOM      8  C6  OXE d   1      -1.391  -5.999   0.106  0.00  0.00     0.003 A 
ENDROOT
TORSDOF 0
ENDMDL
