MODEL 1
REMARK minimizedAffinity 22.0529366
REMARK minimizedRMSD -1
REMARK  0 active torsions:
REMARK  status: ('A' for Active; 'I' for Inactive)
ROOT
ATOM      1  C2' OXE d   1      -1.872  -5.973   3.214  0.00  0.00     0.078 C 
ATOM      2  C1' OXE d   1      -3.888  -6.000   1.262  0.00  0.00     0.078 C 
ATOM      3  C1  OXE d   1      -2.913  -4.850   1.250  0.00  0.00    -0.078 A 
ATOM      4  C2  OXE d   1      -1.958  -4.821   2.237  0.00  0.00    -0.078 A 
ATOM      5  C3  OXE d   1      -0.999  -3.812   2.239  0.00  0.00     0.003 A 
ATOM      6  C4  OXE d   1      -1.091  -2.744   1.338  0.00  0.00    -0.002 A 
ATOM      7  C5  OXE d   1      -2.080  -2.734   0.349  0.00  0.00    -0.002 A 
ATOM      8  C6  OXE d   1      -2.971  -3.798   0.264  0.00  0.00     0.003 A 
ENDROOT
TORSDOF 0
ENDMDL
