MODEL 1
REMARK minimizedAffinity 22.2280693
REMARK minimizedRMSD -1
REMARK  0 active torsions:
REMARK  status: ('A' for Active; 'I' for Inactive)
ROOT
ATOM      1  C2' OXE d   1      -5.250  -3.037  -4.358  0.00  0.00     0.078 C 
ATOM      2  C1' OXE d   1      -2.794  -3.004  -3.000  0.00  0.00     0.078 C 
ATOM      3  C1  OXE d   1      -3.788  -4.076  -2.629  0.00  0.00    -0.078 A 
ATOM      4  C2  OXE d   1      -5.006  -4.056  -3.266  0.00  0.00    -0.078 A 
ATOM      5  C3  OXE d   1      -5.939  -5.054  -3.001  0.00  0.00     0.003 A 
ATOM      6  C4  OXE d   1      -5.709  -5.987  -1.982  0.00  0.00    -0.002 A 
ATOM      7  C5  OXE d   1      -4.491  -6.000  -1.293  0.00  0.00    -0.002 A 
ATOM      8  C6  OXE d   1      -3.506  -5.080  -1.634  0.00  0.00     0.003 A 
ENDROOT
TORSDOF 0
ENDMDL
