MODEL 1
REMARK minimizedAffinity 16.5693588
REMARK minimizedRMSD -1
REMARK  0 active torsions:
REMARK  status: ('A' for Active; 'I' for Inactive)
ROOT
ATOM      1  C2' OXE d   1       4.570   0.554  -4.910  0.00  0.00     0.078 C 
ATOM      2  C1' OXE d   1       4.329   1.250  -2.201  0.00  0.00     0.078 C 
ATOM      3  C1  OXE d   1       3.523   2.037  -3.204  0.00  0.00    -0.078 A 
ATOM      4  C2  OXE d   1       3.683   1.720  -4.532  0.00  0.00    -0.078 A 
ATOM      5  C3  OXE d   1       2.922   2.379  -5.494  0.00  0.00     0.003 A 
ATOM      6  C4  OXE d   1       2.111   3.463  -5.137  0.00  0.00    -0.002 A 
ATOM      7  C5  OXE d   1       1.965   3.828  -3.794  0.00  0.00    -0.002 A 
ATOM      8  C6  OXE d   1       2.629   3.099  -2.814  0.00  0.00     0.003 A 
ENDROOT
TORSDOF 0
ENDMDL
