MODEL 1
REMARK minimizedAffinity 13.9657021
REMARK minimizedRMSD -1
REMARK  0 active torsions:
REMARK  status: ('A' for Active; 'I' for Inactive)
ROOT
ATOM      1  C2' OXE d   1      -1.615  -1.870  -3.572  0.00  0.00     0.078 C 
ATOM      2  C1' OXE d   1      -3.683  -3.441  -2.506  0.00  0.00     0.078 C 
ATOM      3  C1  OXE d   1      -2.644  -2.904  -1.553  0.00  0.00    -0.078 A 
ATOM      4  C2  OXE d   1      -1.610  -2.175  -2.090  0.00  0.00    -0.078 A 
ATOM      5  C3  OXE d   1      -0.655  -1.611  -1.249  0.00  0.00     0.003 A 
ATOM      6  C4  OXE d   1      -0.652  -1.907   0.120  0.00  0.00    -0.002 A 
ATOM      7  C5  OXE d   1      -1.674  -2.681   0.681  0.00  0.00    -0.002 A 
ATOM      8  C6  OXE d   1      -2.699  -3.150  -0.133  0.00  0.00     0.003 A 
ENDROOT
TORSDOF 0
ENDMDL
