MODEL 1
REMARK minimizedAffinity 14.4451523
REMARK minimizedRMSD -1
REMARK  0 active torsions:
REMARK  status: ('A' for Active; 'I' for Inactive)
ROOT
ATOM      1  C2' OXE d   1       5.105   0.485  -1.780  0.00  0.00     0.078 C 
ATOM      2  C1' OXE d   1       4.372   0.437  -4.489  0.00  0.00     0.078 C 
ATOM      3  C1  OXE d   1       3.627   1.378  -3.576  0.00  0.00    -0.078 A 
ATOM      4  C2  OXE d   1       3.961   1.361  -2.243  0.00  0.00    -0.078 A 
ATOM      5  C3  OXE d   1       3.343   2.248  -1.366  0.00  0.00     0.003 A 
ATOM      6  C4  OXE d   1       2.278   3.047  -1.800  0.00  0.00    -0.002 A 
ATOM      7  C5  OXE d   1       1.896   3.051  -3.146  0.00  0.00    -0.002 A 
ATOM      8  C6  OXE d   1       2.587   2.255  -4.053  0.00  0.00     0.003 A 
ENDROOT
TORSDOF 0
ENDMDL
