MODEL 1
REMARK minimizedAffinity 7.47058296
REMARK minimizedRMSD -1
REMARK  0 active torsions:
REMARK  status: ('A' for Active; 'I' for Inactive)
ROOT
ATOM      1  C2' OXE d   1      -1.105  -2.692  -4.949  0.00  0.00     0.078 C 
ATOM      2  C1' OXE d   1       1.392  -3.521  -3.971  0.00  0.00     0.078 C 
ATOM      3  C1  OXE d   1       0.344  -3.112  -2.967  0.00  0.00    -0.078 A 
ATOM      4  C2  OXE d   1      -0.859  -2.663  -3.456  0.00  0.00    -0.078 A 
ATOM      5  C3  OXE d   1      -1.880  -2.325  -2.572  0.00  0.00     0.003 A 
ATOM      6  C4  OXE d   1      -1.640  -2.291  -1.193  0.00  0.00    -0.002 A 
ATOM      7  C5  OXE d   1      -0.409  -2.706  -0.675  0.00  0.00    -0.002 A 
ATOM      8  C6  OXE d   1       0.578  -3.159  -1.545  0.00  0.00     0.003 A 
ENDROOT
TORSDOF 0
ENDMDL
