MODEL 1
REMARK minimizedAffinity 4.48961258
REMARK minimizedRMSD -1
REMARK  0 active torsions:
REMARK  status: ('A' for Active; 'I' for Inactive)
ROOT
ATOM      1  C2' OXE d   1       2.522   2.706   1.499  0.00  0.00     0.078 C 
ATOM      2  C1' OXE d   1       2.474   0.002   2.252  0.00  0.00     0.078 C 
ATOM      3  C1  OXE d   1       3.731   0.530   1.609  0.00  0.00    -0.078 A 
ATOM      4  C2  OXE d   1       3.729   1.843   1.202  0.00  0.00    -0.078 A 
ATOM      5  C3  OXE d   1       4.883   2.396   0.653  0.00  0.00     0.003 A 
ATOM      6  C4  OXE d   1       5.992   1.588   0.372  0.00  0.00    -0.002 A 
ATOM      7  C5  OXE d   1       6.000   0.239   0.743  0.00  0.00    -0.002 A 
ATOM      8  C6  OXE d   1       4.896  -0.293   1.400  0.00  0.00     0.003 A 
ENDROOT
TORSDOF 0
ENDMDL
