MODEL 1
REMARK minimizedAffinity 8.4279747
REMARK minimizedRMSD -1
REMARK  0 active torsions:
REMARK  status: ('A' for Active; 'I' for Inactive)
ROOT
ATOM      1  C2' OXE d   1      -0.592  -1.308   1.658  0.00  0.00     0.078 C 
ATOM      2  C1' OXE d   1      -2.899  -1.599   0.085  0.00  0.00     0.078 C 
ATOM      3  C1  OXE d   1      -2.275  -2.848   0.655  0.00  0.00    -0.078 A 
ATOM      4  C2  OXE d   1      -1.119  -2.700   1.385  0.00  0.00    -0.078 A 
ATOM      5  C3  OXE d   1      -0.533  -3.814   1.979  0.00  0.00     0.003 A 
ATOM      6  C4  OXE d   1      -1.021  -5.099   1.714  0.00  0.00    -0.002 A 
ATOM      7  C5  OXE d   1      -2.173  -5.275   0.941  0.00  0.00    -0.002 A 
ATOM      8  C6  OXE d   1      -2.835  -4.159   0.440  0.00  0.00     0.003 A 
ENDROOT
TORSDOF 0
ENDMDL
