MODEL 1
REMARK minimizedAffinity 13.2343702
REMARK minimizedRMSD -1
REMARK  0 active torsions:
REMARK  status: ('A' for Active; 'I' for Inactive)
ROOT
ATOM      1  C2' OXE d   1       2.794   1.839   0.920  0.00  0.00     0.078 C 
ATOM      2  C1' OXE d   1       0.533   3.411   1.466  0.00  0.00     0.078 C 
ATOM      3  C1  OXE d   1       0.881   2.316   2.443  0.00  0.00    -0.078 A 
ATOM      4  C2  OXE d   1       1.961   1.521   2.144  0.00  0.00    -0.078 A 
ATOM      5  C3  OXE d   1       2.358   0.532   3.039  0.00  0.00     0.003 A 
ATOM      6  C4  OXE d   1       1.577   0.238   4.163  0.00  0.00    -0.002 A 
ATOM      7  C5  OXE d   1       0.449   1.009   4.465  0.00  0.00    -0.002 A 
ATOM      8  C6  OXE d   1       0.113   2.077   3.640  0.00  0.00     0.003 A 
ENDROOT
TORSDOF 0
ENDMDL
