MODEL 1
REMARK minimizedAffinity 18.0559025
REMARK minimizedRMSD -1
REMARK  0 active torsions:
REMARK  status: ('A' for Active; 'I' for Inactive)
ROOT
ATOM      1  C2' OXE d   1      -1.477  -6.000   2.256  0.00  0.00     0.078 C 
ATOM      2  C1' OXE d   1      -3.854  -5.848   0.770  0.00  0.00     0.078 C 
ATOM      3  C1  OXE d   1      -2.939  -4.649   0.758  0.00  0.00    -0.078 A 
ATOM      4  C2  OXE d   1      -1.801  -4.715   1.525  0.00  0.00    -0.078 A 
ATOM      5  C3  OXE d   1      -0.895  -3.658   1.506  0.00  0.00     0.003 A 
ATOM      6  C4  OXE d   1      -1.206  -2.469   0.835  0.00  0.00    -0.002 A 
ATOM      7  C5  OXE d   1      -2.380  -2.367   0.080  0.00  0.00    -0.002 A 
ATOM      8  C6  OXE d   1      -3.234  -3.461  -0.004  0.00  0.00     0.003 A 
ENDROOT
TORSDOF 0
ENDMDL
