MODEL 1
REMARK minimizedAffinity 4.57828093
REMARK minimizedRMSD -1
REMARK  0 active torsions:
REMARK  status: ('A' for Active; 'I' for Inactive)
ROOT
ATOM      1  C2' OXE d   1       3.232   5.999  -5.963  0.00  0.00     0.078 C 
ATOM      2  C1' OXE d   1       5.968   5.371  -5.985  0.00  0.00     0.078 C 
ATOM      3  C1  OXE d   1       4.984   4.228  -5.973  0.00  0.00    -0.078 A 
ATOM      4  C2  OXE d   1       3.648   4.544  -5.915  0.00  0.00    -0.078 A 
ATOM      5  C3  OXE d   1       2.696   3.529  -5.956  0.00  0.00     0.003 A 
ATOM      6  C4  OXE d   1       3.089   2.187  -5.902  0.00  0.00    -0.002 A 
ATOM      7  C5  OXE d   1       4.445   1.843  -5.920  0.00  0.00    -0.002 A 
ATOM      8  C6  OXE d   1       5.402   2.848  -5.998  0.00  0.00     0.003 A 
ENDROOT
TORSDOF 0
ENDMDL
