MODEL 1
REMARK minimizedAffinity -6.46777534
REMARK minimizedRMSD -1
REMARK  3 active torsions:
REMARK  status: ('A' for Active; 'I' for Inactive)
REMARK    1  A    between atoms: C3'_2  and  C2'_3 
REMARK    2  A    between atoms: C2'_3  and  C1'_4 
REMARK    3  A    between atoms: C1'_4  and  C1_5 
ROOT
ATOM      1  C1  N4B d   1       0.543  -0.399   0.692  0.00  0.00    -0.075 A 
ATOM      2  C2  N4B d   1       0.599  -0.472   2.101  0.00  0.00     0.002 A 
ATOM      3  C3  N4B d   1       1.614  -1.167   2.713  0.00  0.00     0.002 A 
ATOM      4  C4  N4B d   1       2.568  -1.810   1.939  0.00  0.00    -0.004 A 
ATOM      5  C5  N4B d   1       2.522  -1.713   0.579  0.00  0.00     0.002 A 
ATOM      6  C6  N4B d   1       1.510  -1.014  -0.049  0.00  0.00     0.002 A 
ENDROOT
BRANCH   1   7
ATOM      7  C1' N4B d   1      -0.594   0.277  -0.024  0.00  0.00     0.057 C 
BRANCH   7   8
ATOM      8  C2' N4B d   1      -0.501  -0.031  -1.516  0.00  0.00     0.009 C 
BRANCH   8   9
ATOM      9  C3' N4B d   1      -1.234   1.001  -2.356  0.00  0.00     0.004 C 
ATOM     10  C4' N4B d   1      -0.419   2.236  -2.600  0.00  0.00     0.003 C 
ENDBRANCH   8   9
ENDBRANCH   7   8
ENDBRANCH   1   7
TORSDOF 3
ENDMDL
