MODEL 1
REMARK minimizedAffinity -6.2531271
REMARK minimizedRMSD -1
REMARK  3 active torsions:
REMARK  status: ('A' for Active; 'I' for Inactive)
REMARK    1  A    between atoms: C3'_2  and  C2'_3 
REMARK    2  A    between atoms: C2'_3  and  C1'_4 
REMARK    3  A    between atoms: C1'_4  and  C1_5 
ROOT
ATOM      1  C1  N4B d   1       0.027  -0.587   0.115  0.00  0.00    -0.075 A 
ATOM      2  C2  N4B d   1      -0.329  -0.401   1.469  0.00  0.00     0.002 A 
ATOM      3  C3  N4B d   1       0.549  -0.755   2.464  0.00  0.00     0.002 A 
ATOM      4  C4  N4B d   1       1.775  -1.311   2.132  0.00  0.00    -0.004 A 
ATOM      5  C5  N4B d   1       2.121  -1.463   0.821  0.00  0.00     0.002 A 
ATOM      6  C6  N4B d   1       1.251  -1.108  -0.190  0.00  0.00     0.002 A 
ENDROOT
BRANCH   1   7
ATOM      7  C1' N4B d   1      -0.934  -0.295  -1.005  0.00  0.00     0.057 C 
BRANCH   7   8
ATOM      8  C2' N4B d   1      -0.332   0.772  -1.916  0.00  0.00     0.009 C 
BRANCH   8   9
ATOM      9  C3' N4B d   1      -1.403   1.594  -2.612  0.00  0.00     0.004 C 
ATOM     10  C4' N4B d   1      -0.876   2.884  -3.165  0.00  0.00     0.003 C 
ENDBRANCH   8   9
ENDBRANCH   7   8
ENDBRANCH   1   7
TORSDOF 3
ENDMDL
