MODEL 1
REMARK minimizedAffinity -5.8174901
REMARK minimizedRMSD -1
REMARK  3 active torsions:
REMARK  status: ('A' for Active; 'I' for Inactive)
REMARK    1  A    between atoms: C3'_2  and  C2'_3 
REMARK    2  A    between atoms: C2'_3  and  C1'_4 
REMARK    3  A    between atoms: C1'_4  and  C1_5 
ROOT
ATOM      1  C1  N4B d   1      -0.646   0.845  -1.616  0.00  0.00    -0.075 A 
ATOM      2  C2  N4B d   1      -1.963   1.168  -2.009  0.00  0.00     0.002 A 
ATOM      3  C3  N4B d   1      -2.222   2.370  -2.622  0.00  0.00     0.002 A 
ATOM      4  C4  N4B d   1      -1.187   3.268  -2.834  0.00  0.00    -0.004 A 
ATOM      5  C5  N4B d   1       0.087   2.937  -2.474  0.00  0.00     0.002 A 
ATOM      6  C6  N4B d   1       0.362   1.732  -1.861  0.00  0.00     0.002 A 
ENDROOT
BRANCH   1   7
ATOM      7  C1' N4B d   1      -0.329  -0.420  -0.866  0.00  0.00     0.057 C 
BRANCH   7   8
ATOM      8  C2' N4B d   1       0.471  -0.072   0.386  0.00  0.00     0.009 C 
BRANCH   8   9
ATOM      9  C3' N4B d   1      -0.399  -0.058   1.631  0.00  0.00     0.004 C 
ATOM     10  C4' N4B d   1       0.353  -0.442   2.870  0.00  0.00     0.003 C 
ENDBRANCH   8   9
ENDBRANCH   7   8
ENDBRANCH   1   7
TORSDOF 3
ENDMDL
