MODEL 1
REMARK minimizedAffinity -5.28366852
REMARK minimizedRMSD -1
REMARK  3 active torsions:
REMARK  status: ('A' for Active; 'I' for Inactive)
REMARK    1  A    between atoms: C3'_2  and  C2'_3 
REMARK    2  A    between atoms: C2'_3  and  C1'_4 
REMARK    3  A    between atoms: C1'_4  and  C1_5 
ROOT
ATOM      1  C1  N4B d   1      -0.286  -0.107   0.269  0.00  0.00    -0.075 A 
ATOM      2  C2  N4B d   1      -1.095  -0.010   1.423  0.00  0.00     0.002 A 
ATOM      3  C3  N4B d   1      -0.522  -0.078   2.670  0.00  0.00     0.002 A 
ATOM      4  C4  N4B d   1       0.847  -0.261   2.787  0.00  0.00    -0.004 A 
ATOM      5  C5  N4B d   1       1.624  -0.328   1.667  0.00  0.00     0.002 A 
ATOM      6  C6  N4B d   1       1.063  -0.257   0.408  0.00  0.00     0.002 A 
ENDROOT
BRANCH   1   7
ATOM      7  C1' N4B d   1      -0.877  -0.123  -1.114  0.00  0.00     0.057 C 
BRANCH   7   8
ATOM      8  C2' N4B d   1      -0.400   1.109  -1.877  0.00  0.00     0.009 C 
BRANCH   8   9
ATOM      9  C3' N4B d   1      -1.545   1.823  -2.575  0.00  0.00     0.004 C 
ATOM     10  C4' N4B d   1      -1.187   3.215  -3.003  0.00  0.00     0.003 C 
ENDBRANCH   8   9
ENDBRANCH   7   8
ENDBRANCH   1   7
TORSDOF 3
ENDMDL
