MODEL 1
REMARK minimizedAffinity -2.66941905
REMARK minimizedRMSD -1
REMARK  3 active torsions:
REMARK  status: ('A' for Active; 'I' for Inactive)
REMARK    1  A    between atoms: C3'_2  and  C2'_3 
REMARK    2  A    between atoms: C2'_3  and  C1'_4 
REMARK    3  A    between atoms: C1'_4  and  C1_5 
ROOT
ATOM      1  C1  N4B d   1       0.595  -0.511   1.334  0.00  0.00    -0.075 A 
ATOM      2  C2  N4B d   1       1.388  -0.502   0.165  0.00  0.00     0.002 A 
ATOM      3  C3  N4B d   1       0.818  -0.205  -1.049  0.00  0.00     0.002 A 
ATOM      4  C4  N4B d   1      -0.540   0.066  -1.121  0.00  0.00    -0.004 A 
ATOM      5  C5  N4B d   1      -1.294   0.080   0.015  0.00  0.00     0.002 A 
ATOM      6  C6  N4B d   1      -0.734  -0.212   1.243  0.00  0.00     0.002 A 
ENDROOT
BRANCH   1   7
ATOM      7  C1' N4B d   1       1.155  -0.913   2.670  0.00  0.00     0.057 C 
BRANCH   7   8
ATOM      8  C2' N4B d   1       0.926  -2.407   2.880  0.00  0.00     0.009 C 
BRANCH   8   9
ATOM      9  C3' N4B d   1      -0.552  -2.751   2.950  0.00  0.00     0.004 C 
ATOM     10  C4' N4B d   1      -0.813  -4.222   2.823  0.00  0.00     0.003 C 
ENDBRANCH   8   9
ENDBRANCH   7   8
ENDBRANCH   1   7
TORSDOF 3
ENDMDL
