MODEL 1
REMARK minimizedAffinity 7.59394836
REMARK minimizedRMSD -1
REMARK  0 active torsions:
REMARK  status: ('A' for Active; 'I' for Inactive)
ROOT
ATOM      1  N1  IND d   1       0.161   2.072  -0.234  0.00  0.00    -0.196 N 
ATOM      2  C2  IND d   1      -0.712   2.326  -1.255  0.00  0.00     0.054 A 
ATOM      3  C3  IND d   1      -1.323   1.185  -1.646  0.00  0.00    -0.031 A 
ATOM      4  C4  IND d   1      -1.119  -1.193  -0.682  0.00  0.00     0.051 A 
ATOM      5  C5  IND d   1      -0.419  -1.928   0.234  0.00  0.00    -0.031 A 
ATOM      6  C6  IND d   1       0.527  -1.355   1.059  0.00  0.00     0.015 A 
ATOM      7  C7  IND d   1       0.802  -0.018   1.006  0.00  0.00    -0.016 A 
ATOM      8  C8  IND d   1       0.098   0.730   0.073  0.00  0.00    -0.047 A 
ATOM      9  C9  IND d   1      -0.833   0.147  -0.796  0.00  0.00    -0.096 A 
ATOM     10  HN1 IND d   1       0.665   2.652   0.151  0.00  0.00     0.298 HD
ENDROOT
TORSDOF 0
ENDMDL
