MODEL 1
REMARK minimizedAffinity -6.29068947
REMARK minimizedRMSD -1
REMARK  0 active torsions:
REMARK  status: ('A' for Active; 'I' for Inactive)
ROOT
ATOM      1  N1  IND d   1       0.202  -0.244  -0.755  0.00  0.00    -0.196 N 
ATOM      2  C2  IND d   1       0.227  -1.319   0.089  0.00  0.00     0.054 A 
ATOM      3  C3  IND d   1      -0.396  -1.021   1.251  0.00  0.00    -0.031 A 
ATOM      4  C4  IND d   1      -1.619   1.136   1.942  0.00  0.00     0.051 A 
ATOM      5  C5  IND d   1      -1.880   2.410   1.520  0.00  0.00    -0.031 A 
ATOM      6  C6  IND d   1      -1.453   2.872   0.292  0.00  0.00     0.015 A 
ATOM      7  C7  IND d   1      -0.757   2.071  -0.568  0.00  0.00    -0.016 A 
ATOM      8  C8  IND d   1      -0.485   0.779  -0.140  0.00  0.00    -0.047 A 
ATOM      9  C9  IND d   1      -0.879   0.318   1.123  0.00  0.00    -0.096 A 
ATOM     10  HN1 IND d   1       0.555  -0.213  -1.538  0.00  0.00     0.298 HD
ENDROOT
TORSDOF 0
ENDMDL
