MODEL 1
REMARK minimizedAffinity -0.364741981
REMARK minimizedRMSD -1
REMARK  0 active torsions:
REMARK  status: ('A' for Active; 'I' for Inactive)
ROOT
ATOM      1  N1  IND d   1      -0.254  -0.384  -1.017  0.00  0.00    -0.196 N 
ATOM      2  C2  IND d   1       0.748  -0.012  -0.165  0.00  0.00     0.054 A 
ATOM      3  C3  IND d   1       1.660  -1.003  -0.051  0.00  0.00    -0.031 A 
ATOM      4  C4  IND d   1       1.762  -3.279  -1.250  0.00  0.00     0.051 A 
ATOM      5  C5  IND d   1       1.051  -4.084  -2.096  0.00  0.00    -0.031 A 
ATOM      6  C6  IND d   1      -0.154  -3.687  -2.638  0.00  0.00     0.015 A 
ATOM      7  C7  IND d   1      -0.690  -2.461  -2.363  0.00  0.00    -0.016 A 
ATOM      8  C8  IND d   1       0.025  -1.644  -1.499  0.00  0.00    -0.047 A 
ATOM      9  C9  IND d   1       1.228  -2.058  -0.912  0.00  0.00    -0.096 A 
ATOM     10  HN1 IND d   1      -0.943   0.090  -1.219  0.00  0.00     0.298 HD
ENDROOT
TORSDOF 0
ENDMDL
