MODEL 1
REMARK minimizedAffinity -5.70059586
REMARK minimizedRMSD -1
REMARK  0 active torsions:
REMARK  status: ('A' for Active; 'I' for Inactive)
ROOT
ATOM      1  N1  IND d   1       1.130   0.271  -0.727  0.00  0.00    -0.196 N 
ATOM      2  C2  IND d   1       0.932  -0.810   0.086  0.00  0.00     0.054 A 
ATOM      3  C3  IND d   1       0.119  -0.482   1.115  0.00  0.00    -0.031 A 
ATOM      4  C4  IND d   1      -1.084   1.741   1.604  0.00  0.00     0.051 A 
ATOM      5  C5  IND d   1      -1.184   3.032   1.164  0.00  0.00    -0.031 A 
ATOM      6  C6  IND d   1      -0.506   3.476   0.048  0.00  0.00     0.015 A 
ATOM      7  C7  IND d   1       0.292   2.640  -0.681  0.00  0.00    -0.016 A 
ATOM      8  C8  IND d   1       0.401   1.331  -0.234  0.00  0.00    -0.047 A 
ATOM      9  C9  IND d   1      -0.251   0.885   0.923  0.00  0.00    -0.096 A 
ATOM     10  HN1 IND d   1       1.627   0.287  -1.429  0.00  0.00     0.298 HD
ENDROOT
TORSDOF 0
ENDMDL
