MODEL 1
REMARK minimizedAffinity -1.01906919
REMARK minimizedRMSD -1
REMARK  0 active torsions:
REMARK  status: ('A' for Active; 'I' for Inactive)
ROOT
ATOM      1  N1  IND d   1       0.777  -4.988  -1.058  0.00  0.00    -0.196 N 
ATOM      2  C2  IND d   1       1.431  -5.218   0.120  0.00  0.00     0.054 A 
ATOM      3  C3  IND d   1       1.955  -4.067   0.599  0.00  0.00    -0.031 A 
ATOM      4  C4  IND d   1       1.776  -1.675  -0.334  0.00  0.00     0.051 A 
ATOM      5  C5  IND d   1       1.310  -0.970  -1.408  0.00  0.00    -0.031 A 
ATOM      6  C6  IND d   1       0.627  -1.580  -2.440  0.00  0.00     0.015 A 
ATOM      7  C7  IND d   1       0.372  -2.922  -2.430  0.00  0.00    -0.016 A 
ATOM      8  C8  IND d   1       0.850  -3.642  -1.345  0.00  0.00    -0.047 A 
ATOM      9  C9  IND d   1       1.582  -3.036  -0.316  0.00  0.00    -0.096 A 
ATOM     10  HN1 IND d   1       0.387  -5.584  -1.540  0.00  0.00     0.298 HD
ENDROOT
TORSDOF 0
ENDMDL
