MODEL 1
REMARK minimizedAffinity -4.70975065
REMARK minimizedRMSD -1
REMARK  0 active torsions:
REMARK  status: ('A' for Active; 'I' for Inactive)
ROOT
ATOM      1  N1  IND d   1       0.601   0.077  -1.055  0.00  0.00    -0.196 N 
ATOM      2  C2  IND d   1       1.265  -0.934  -0.418  0.00  0.00     0.054 A 
ATOM      3  C3  IND d   1       0.851  -1.033   0.865  0.00  0.00    -0.031 A 
ATOM      4  C4  IND d   1      -0.978   0.292   2.101  0.00  0.00     0.051 A 
ATOM      5  C5  IND d   1      -1.838   1.342   1.945  0.00  0.00    -0.031 A 
ATOM      6  C6  IND d   1      -1.933   2.037   0.757  0.00  0.00     0.015 A 
ATOM      7  C7  IND d   1      -1.176   1.698  -0.329  0.00  0.00    -0.016 A 
ATOM      8  C8  IND d   1      -0.297   0.636  -0.173  0.00  0.00    -0.047 A 
ATOM      9  C9  IND d   1      -0.165  -0.045   1.044  0.00  0.00    -0.096 A 
ATOM     10  HN1 IND d   1       0.722   0.321  -1.871  0.00  0.00     0.298 HD
ENDROOT
TORSDOF 0
ENDMDL
