MODEL 1
REMARK minimizedAffinity 2.5697298
REMARK minimizedRMSD -1
REMARK  0 active torsions:
REMARK  status: ('A' for Active; 'I' for Inactive)
ROOT
ATOM      1  N1  IND d   1       1.705   0.788  -1.777  0.00  0.00    -0.196 N 
ATOM      2  C2  IND d   1       1.143   2.004  -2.054  0.00  0.00     0.054 A 
ATOM      3  C3  IND d   1       0.191   2.301  -1.141  0.00  0.00    -0.031 A 
ATOM      4  C4  IND d   1      -0.538   0.985   0.948  0.00  0.00     0.051 A 
ATOM      5  C5  IND d   1      -0.339  -0.200   1.599  0.00  0.00    -0.031 A 
ATOM      6  C6  IND d   1       0.572  -1.134   1.150  0.00  0.00     0.015 A 
ATOM      7  C7  IND d   1       1.329  -0.912   0.035  0.00  0.00    -0.016 A 
ATOM      8  C8  IND d   1       1.125   0.288  -0.632  0.00  0.00    -0.047 A 
ATOM      9  C9  IND d   1       0.171   1.221  -0.206  0.00  0.00    -0.096 A 
ATOM     10  HN1 IND d   1       2.317   0.402  -2.240  0.00  0.00     0.298 HD
ENDROOT
TORSDOF 0
ENDMDL
