MODEL 1
REMARK minimizedAffinity -1.88144517
REMARK minimizedRMSD -1
REMARK  0 active torsions:
REMARK  status: ('A' for Active; 'I' for Inactive)
ROOT
ATOM      1  N1  IND d   1       0.212   0.215  -1.046  0.00  0.00    -0.196 N 
ATOM      2  C2  IND d   1       0.243  -0.961  -0.351  0.00  0.00     0.054 A 
ATOM      3  C3  IND d   1      -0.258  -0.786   0.893  0.00  0.00    -0.031 A 
ATOM      4  C4  IND d   1      -1.279   1.321   1.963  0.00  0.00     0.051 A 
ATOM      5  C5  IND d   1      -1.494   2.650   1.731  0.00  0.00    -0.031 A 
ATOM      6  C6  IND d   1      -1.147   3.248   0.536  0.00  0.00     0.015 A 
ATOM      7  C7  IND d   1      -0.580   2.532  -0.480  0.00  0.00    -0.016 A 
ATOM      8  C8  IND d   1      -0.353   1.183  -0.245  0.00  0.00    -0.047 A 
ATOM      9  C9  IND d   1      -0.665   0.580   0.981  0.00  0.00    -0.096 A 
ATOM     10  HN1 IND d   1       0.498   0.331  -1.849  0.00  0.00     0.298 HD
ENDROOT
TORSDOF 0
ENDMDL
