MODEL 1
REMARK minimizedAffinity -5.9725771
REMARK minimizedRMSD -1
REMARK  0 active torsions:
REMARK  status: ('A' for Active; 'I' for Inactive)
ROOT
ATOM      1  N1  IND d   1       0.484   1.734  -0.864  0.00  0.00    -0.196 N 
ATOM      2  C2  IND d   1       0.005   3.009  -0.981  0.00  0.00     0.054 A 
ATOM      3  C3  IND d   1      -0.959   3.236  -0.060  0.00  0.00    -0.031 A 
ATOM      4  C4  IND d   1      -1.836   1.691   1.804  0.00  0.00     0.051 A 
ATOM      5  C5  IND d   1      -1.729   0.417   2.286  0.00  0.00    -0.031 A 
ATOM      6  C6  IND d   1      -0.859  -0.501   1.733  0.00  0.00     0.015 A 
ATOM      7  C7  IND d   1      -0.052  -0.174   0.681  0.00  0.00    -0.016 A 
ATOM      8  C8  IND d   1      -0.163   1.117   0.184  0.00  0.00    -0.047 A 
ATOM      9  C9  IND d   1      -1.074   2.040   0.713  0.00  0.00    -0.096 A 
ATOM     10  HN1 IND d   1       1.089   1.378  -1.361  0.00  0.00     0.298 HD
ENDROOT
TORSDOF 0
ENDMDL
