MODEL 1
REMARK minimizedAffinity -3.83518577
REMARK minimizedRMSD -1
REMARK  0 active torsions:
REMARK  status: ('A' for Active; 'I' for Inactive)
ROOT
ATOM      1  N1  IND d   1       0.392   0.541  -0.981  0.00  0.00    -0.196 N 
ATOM      2  C2  IND d   1       1.012  -0.676  -0.926  0.00  0.00     0.054 A 
ATOM      3  C3  IND d   1       0.783  -1.267   0.268  0.00  0.00    -0.031 A 
ATOM      4  C4  IND d   1      -0.663  -0.463   2.241  0.00  0.00     0.051 A 
ATOM      5  C5  IND d   1      -1.398   0.605   2.673  0.00  0.00    -0.031 A 
ATOM      6  C6  IND d   1      -1.579   1.728   1.892  0.00  0.00     0.015 A 
ATOM      7  C7  IND d   1      -1.040   1.821   0.640  0.00  0.00    -0.016 A 
ATOM      8  C8  IND d   1      -0.287   0.741   0.201  0.00  0.00    -0.047 A 
ATOM      9  C9  IND d   1      -0.064  -0.384   1.006  0.00  0.00    -0.096 A 
ATOM     10  HN1 IND d   1       0.422   1.090  -1.642  0.00  0.00     0.298 HD
ENDROOT
TORSDOF 0
ENDMDL
