MODEL 1
REMARK minimizedAffinity 1.10707021
REMARK minimizedRMSD -1
REMARK  0 active torsions:
REMARK  status: ('A' for Active; 'I' for Inactive)
ROOT
ATOM      1  N1  IND d   1      -0.719   0.236  -1.368  0.00  0.00    -0.196 N 
ATOM      2  C2  IND d   1      -0.660   0.392  -0.011  0.00  0.00     0.054 A 
ATOM      3  C3  IND d   1      -0.041  -0.667   0.558  0.00  0.00    -0.031 A 
ATOM      4  C4  IND d   1       1.043  -2.719  -0.555  0.00  0.00     0.051 A 
ATOM      5  C5  IND d   1       1.211  -3.323  -1.770  0.00  0.00    -0.031 A 
ATOM      6  C6  IND d   1       0.737  -2.758  -2.937  0.00  0.00     0.015 A 
ATOM      7  C7  IND d   1       0.085  -1.558  -2.933  0.00  0.00    -0.016 A 
ATOM      8  C8  IND d   1      -0.094  -0.946  -1.701  0.00  0.00    -0.047 A 
ATOM      9  C9  IND d   1       0.348  -1.534  -0.509  0.00  0.00    -0.096 A 
ATOM     10  HN1 IND d   1      -1.084   0.784  -1.920  0.00  0.00     0.298 HD
ENDROOT
TORSDOF 0
ENDMDL
