MODEL 1
REMARK minimizedAffinity -0.471720219
REMARK minimizedRMSD -1
REMARK  0 active torsions:
REMARK  status: ('A' for Active; 'I' for Inactive)
ROOT
ATOM      1  N1  IND d   1       1.111  -0.589  -1.245  0.00  0.00    -0.196 N 
ATOM      2  C2  IND d   1       0.913  -1.465  -0.214  0.00  0.00     0.054 A 
ATOM      3  C3  IND d   1      -0.021  -0.986   0.638  0.00  0.00    -0.031 A 
ATOM      4  C4  IND d   1      -1.427   1.164   0.481  0.00  0.00     0.051 A 
ATOM      5  C5  IND d   1      -1.578   2.301  -0.263  0.00  0.00    -0.031 A 
ATOM      6  C6  IND d   1      -0.826   2.536  -1.396  0.00  0.00     0.015 A 
ATOM      7  C7  IND d   1       0.100   1.634  -1.836  0.00  0.00    -0.016 A 
ATOM      8  C8  IND d   1       0.260   0.481  -1.080  0.00  0.00    -0.047 A 
ATOM      9  C9  IND d   1      -0.469   0.257   0.095  0.00  0.00    -0.096 A 
ATOM     10  HN1 IND d   1       1.673  -0.690  -1.888  0.00  0.00     0.298 HD
ENDROOT
TORSDOF 0
ENDMDL
