MODEL 1
REMARK minimizedAffinity -3.88084817
REMARK minimizedRMSD -1
REMARK  0 active torsions:
REMARK  status: ('A' for Active; 'I' for Inactive)
ROOT
ATOM      1  N1  IND d   1      -0.076   0.231  -1.226  0.00  0.00    -0.196 N 
ATOM      2  C2  IND d   1       0.764  -0.838  -1.080  0.00  0.00     0.054 A 
ATOM      3  C3  IND d   1       0.938  -1.124   0.229  0.00  0.00    -0.031 A 
ATOM      4  C4  IND d   1      -0.139  -0.034   2.298  0.00  0.00     0.051 A 
ATOM      5  C5  IND d   1      -0.947   1.002   2.672  0.00  0.00    -0.031 A 
ATOM      6  C6  IND d   1      -1.520   1.850   1.746  0.00  0.00     0.015 A 
ATOM      7  C7  IND d   1      -1.314   1.685   0.406  0.00  0.00    -0.016 A 
ATOM      8  C8  IND d   1      -0.489   0.638   0.023  0.00  0.00    -0.047 A 
ATOM      9  C9  IND d   1       0.130  -0.200   0.960  0.00  0.00    -0.096 A 
ATOM     10  HN1 IND d   1      -0.308   0.588  -1.973  0.00  0.00     0.298 HD
ENDROOT
TORSDOF 0
ENDMDL
