MODEL 1
REMARK minimizedAffinity -1.44380128
REMARK minimizedRMSD -1
REMARK  0 active torsions:
REMARK  status: ('A' for Active; 'I' for Inactive)
ROOT
ATOM      1  N1  IND d   1       0.212  -0.662   1.351  0.00  0.00    -0.196 N 
ATOM      2  C2  IND d   1       0.271  -1.029   0.036  0.00  0.00     0.054 A 
ATOM      3  C3  IND d   1      -0.467  -0.187  -0.722  0.00  0.00    -0.031 A 
ATOM      4  C4  IND d   1      -1.772   1.920  -0.026  0.00  0.00     0.051 A 
ATOM      5  C5  IND d   1      -2.151   2.638   1.073  0.00  0.00    -0.031 A 
ATOM      6  C6  IND d   1      -1.752   2.288   2.346  0.00  0.00     0.015 A 
ATOM      7  C7  IND d   1      -0.945   1.208   2.568  0.00  0.00    -0.016 A 
ATOM      8  C8  IND d   1      -0.564   0.472   1.455  0.00  0.00    -0.047 A 
ATOM      9  C9  IND d   1      -1.001   0.797   0.165  0.00  0.00    -0.096 A 
ATOM     10  HN1 IND d   1       0.594  -1.070   2.004  0.00  0.00     0.298 HD
ENDROOT
TORSDOF 0
ENDMDL
