MODEL 1
REMARK minimizedAffinity -3.52501321
REMARK minimizedRMSD -1
REMARK  0 active torsions:
REMARK  status: ('A' for Active; 'I' for Inactive)
ROOT
ATOM      1  N1  IND d   1       0.435   0.737  -1.208  0.00  0.00    -0.196 N 
ATOM      2  C2  IND d   1       1.289  -0.331  -1.190  0.00  0.00     0.054 A 
ATOM      3  C3  IND d   1       1.191  -0.990  -0.014  0.00  0.00    -0.031 A 
ATOM      4  C4  IND d   1      -0.376  -0.554   1.981  0.00  0.00     0.051 A 
ATOM      5  C5  IND d   1      -1.310   0.330   2.444  0.00  0.00    -0.031 A 
ATOM      6  C6  IND d   1      -1.720   1.415   1.697  0.00  0.00     0.015 A 
ATOM      7  C7  IND d   1      -1.217   1.651   0.449  0.00  0.00    -0.016 A 
ATOM      8  C8  IND d   1      -0.264   0.760  -0.022  0.00  0.00    -0.047 A 
ATOM      9  C9  IND d   1       0.187  -0.320   0.749  0.00  0.00    -0.096 A 
ATOM     10  HN1 IND d   1       0.349   1.299  -1.853  0.00  0.00     0.298 HD
ENDROOT
TORSDOF 0
ENDMDL
