MODEL 1
REMARK minimizedAffinity -3.56912565
REMARK minimizedRMSD -1
REMARK  0 active torsions:
REMARK  status: ('A' for Active; 'I' for Inactive)
ROOT
ATOM      1  N1  IND d   1       0.045   0.967  -1.055  0.00  0.00    -0.196 N 
ATOM      2  C2  IND d   1       0.876  -0.073  -1.364  0.00  0.00     0.054 A 
ATOM      3  C3  IND d   1       1.007  -0.902  -0.304  0.00  0.00    -0.031 A 
ATOM      4  C4  IND d   1      -0.132  -0.799   2.002  0.00  0.00     0.051 A 
ATOM      5  C5  IND d   1      -0.948  -0.012   2.767  0.00  0.00    -0.031 A 
ATOM      6  C6  IND d   1      -1.487   1.163   2.285  0.00  0.00     0.015 A 
ATOM      7  C7  IND d   1      -1.239   1.592   1.012  0.00  0.00    -0.016 A 
ATOM      8  C8  IND d   1      -0.405   0.800   0.236  0.00  0.00    -0.047 A 
ATOM      9  C9  IND d   1       0.179  -0.372   0.733  0.00  0.00    -0.096 A 
ATOM     10  HN1 IND d   1      -0.161   1.617  -1.579  0.00  0.00     0.298 HD
ENDROOT
TORSDOF 0
ENDMDL
