MODEL 1
REMARK minimizedAffinity -2.00460172
REMARK minimizedRMSD -1
REMARK  0 active torsions:
REMARK  status: ('A' for Active; 'I' for Inactive)
ROOT
ATOM      1  N1  IND d   1       0.924  -0.957  -1.368  0.00  0.00    -0.196 N 
ATOM      2  C2  IND d   1       0.584  -1.890  -0.428  0.00  0.00     0.054 A 
ATOM      3  C3  IND d   1      -0.203  -1.336   0.521  0.00  0.00    -0.031 A 
ATOM      4  C4  IND d   1      -1.140   1.056   0.677  0.00  0.00     0.051 A 
ATOM      5  C5  IND d   1      -1.077   2.280   0.071  0.00  0.00    -0.031 A 
ATOM      6  C6  IND d   1      -0.332   2.490  -1.071  0.00  0.00     0.015 A 
ATOM      7  C7  IND d   1       0.374   1.477  -1.658  0.00  0.00    -0.016 A 
ATOM      8  C8  IND d   1       0.318   0.236  -1.040  0.00  0.00    -0.047 A 
ATOM      9  C9  IND d   1      -0.403   0.027   0.142  0.00  0.00    -0.096 A 
ATOM     10  HN1 IND d   1       1.431  -1.093  -2.049  0.00  0.00     0.298 HD
ENDROOT
TORSDOF 0
ENDMDL
