MODEL 1
REMARK minimizedAffinity -4.20210743
REMARK minimizedRMSD -1
REMARK  0 active torsions:
REMARK  status: ('A' for Active; 'I' for Inactive)
ROOT
ATOM      1  N1  IND d   1       0.007  -0.378   0.569  0.00  0.00    -0.196 N 
ATOM      2  C2  IND d   1      -0.542  -0.659   1.789  0.00  0.00     0.054 A 
ATOM      3  C3  IND d   1      -1.201   0.419   2.268  0.00  0.00    -0.031 A 
ATOM      4  C4  IND d   1      -1.593   2.716   1.173  0.00  0.00     0.051 A 
ATOM      5  C5  IND d   1      -1.255   3.458   0.076  0.00  0.00    -0.031 A 
ATOM      6  C6  IND d   1      -0.466   2.948  -0.935  0.00  0.00     0.015 A 
ATOM      7  C7  IND d   1       0.008   1.667  -0.891  0.00  0.00    -0.016 A 
ATOM      8  C8  IND d   1      -0.327   0.913   0.225  0.00  0.00    -0.047 A 
ATOM      9  C9  IND d   1      -1.093   1.439   1.274  0.00  0.00    -0.096 A 
ATOM     10  HN1 IND d   1       0.481  -0.918   0.096  0.00  0.00     0.298 HD
ENDROOT
TORSDOF 0
ENDMDL
