MODEL 1
REMARK minimizedAffinity -5.31775379
REMARK minimizedRMSD -1
REMARK  0 active torsions:
REMARK  status: ('A' for Active; 'I' for Inactive)
ROOT
ATOM      1  N1  IND d   1       0.459   0.190  -0.919  0.00  0.00    -0.196 N 
ATOM      2  C2  IND d   1       0.176  -0.991  -0.290  0.00  0.00     0.054 A 
ATOM      3  C3  IND d   1      -0.575  -0.769   0.811  0.00  0.00    -0.031 A 
ATOM      4  C4  IND d   1      -1.541   1.440   1.714  0.00  0.00     0.051 A 
ATOM      5  C5  IND d   1      -1.525   2.790   1.501  0.00  0.00    -0.031 A 
ATOM      6  C6  IND d   1      -0.834   3.353   0.447  0.00  0.00     0.015 A 
ATOM      7  C7  IND d   1      -0.141   2.583  -0.443  0.00  0.00    -0.016 A 
ATOM      8  C8  IND d   1      -0.150   1.212  -0.225  0.00  0.00    -0.047 A 
ATOM      9  C9  IND d   1      -0.813   0.639   0.867  0.00  0.00    -0.096 A 
ATOM     10  HN1 IND d   1       0.937   0.278  -1.628  0.00  0.00     0.298 HD
ENDROOT
TORSDOF 0
ENDMDL
