MODEL 1
REMARK minimizedAffinity -4.98265934
REMARK minimizedRMSD -1
REMARK  1 active torsions:
REMARK  status: ('A' for Active; 'I' for Inactive)
REMARK    1  A    between atoms: C1_2  and  C2_3 
ROOT
ATOM      1  C2  UNL d   1      -0.694  -0.459   1.128  0.00  0.00    -0.077 A 
ATOM      2  C3  UNL d   1       0.246  -0.176   0.126  0.00  0.00     0.002 A 
ATOM      3  C4  UNL d   1      -0.164   0.364  -1.094  0.00  0.00     0.002 A 
ATOM      4  C5  UNL d   1      -1.513   0.630  -1.323  0.00  0.00    -0.004 A 
ATOM      5  C6  UNL d   1      -2.455   0.351  -0.333  0.00  0.00     0.002 A 
ATOM      6  C7  UNL d   1      -2.047  -0.191   0.887  0.00  0.00     0.002 A 
ENDROOT
BRANCH   1   7
ATOM      7  C1  UNL d   1      -0.248  -0.996   2.463  0.00  0.00     0.055 C 
ATOM      8  C   UNL d   1      -1.230  -0.626   3.564  0.00  0.00     0.019 C 
ENDBRANCH   1   7
TORSDOF 1
ENDMDL
