MODEL 1
REMARK minimizedAffinity -4.26730013
REMARK minimizedRMSD -1
REMARK  1 active torsions:
REMARK  status: ('A' for Active; 'I' for Inactive)
REMARK    1  A    between atoms: C1_2  and  C2_3 
ROOT
ATOM      1  C2  UNL d   1      -1.167   0.720   1.090  0.00  0.00    -0.077 A 
ATOM      2  C3  UNL d   1      -0.438   0.782  -0.106  0.00  0.00     0.002 A 
ATOM      3  C4  UNL d   1       0.949   0.617  -0.098  0.00  0.00     0.002 A 
ATOM      4  C5  UNL d   1       1.617   0.384   1.102  0.00  0.00    -0.004 A 
ATOM      5  C6  UNL d   1       0.901   0.322   2.297  0.00  0.00     0.002 A 
ATOM      6  C7  UNL d   1      -0.484   0.488   2.291  0.00  0.00     0.002 A 
ENDROOT
BRANCH   1   7
ATOM      7  C1  UNL d   1      -2.667   0.848   1.077  0.00  0.00     0.055 C 
ATOM      8  C   UNL d   1      -3.188   1.390   2.400  0.00  0.00     0.019 C 
ENDBRANCH   1   7
TORSDOF 1
ENDMDL
