MODEL 1
REMARK minimizedAffinity -5.35626936
REMARK minimizedRMSD -1
REMARK  1 active torsions:
REMARK  status: ('A' for Active; 'I' for Inactive)
REMARK    1  A    between atoms: C1_2  and  C2_3 
ROOT
ATOM      1  C2  UNL d   1      -0.782   0.198   1.427  0.00  0.00    -0.077 A 
ATOM      2  C3  UNL d   1      -0.646  -0.163   2.775  0.00  0.00     0.002 A 
ATOM      3  C4  UNL d   1      -1.704   0.025   3.667  0.00  0.00     0.002 A 
ATOM      4  C5  UNL d   1      -2.906   0.569   3.219  0.00  0.00    -0.004 A 
ATOM      5  C6  UNL d   1      -3.050   0.933   1.881  0.00  0.00     0.002 A 
ATOM      6  C7  UNL d   1      -1.993   0.747   0.989  0.00  0.00     0.002 A 
ENDROOT
BRANCH   1   7
ATOM      7  C1  UNL d   1       0.341  -0.050   0.454  0.00  0.00     0.055 C 
ATOM      8  C   UNL d   1       0.242   0.873  -0.752  0.00  0.00     0.019 C 
ENDBRANCH   1   7
TORSDOF 1
ENDMDL
