MODEL 1
REMARK minimizedAffinity -3.31919384
REMARK minimizedRMSD -1
REMARK  1 active torsions:
REMARK  status: ('A' for Active; 'I' for Inactive)
REMARK    1  A    between atoms: C1_2  and  C2_3 
ROOT
ATOM      1  C2  UNL d   1       0.623   0.003  -2.013  0.00  0.00    -0.077 A 
ATOM      2  C3  UNL d   1      -0.130  -1.079  -2.492  0.00  0.00     0.002 A 
ATOM      3  C4  UNL d   1       0.389  -1.918  -3.480  0.00  0.00     0.002 A 
ATOM      4  C5  UNL d   1       1.663  -1.686  -3.994  0.00  0.00    -0.004 A 
ATOM      5  C6  UNL d   1       2.418  -0.612  -3.526  0.00  0.00     0.002 A 
ATOM      6  C7  UNL d   1       1.901   0.228  -2.539  0.00  0.00     0.002 A 
ENDROOT
BRANCH   1   7
ATOM      7  C1  UNL d   1       0.085   0.879  -0.912  0.00  0.00     0.055 C 
ATOM      8  C   UNL d   1       0.459   0.337   0.460  0.00  0.00     0.019 C 
ENDBRANCH   1   7
TORSDOF 1
ENDMDL
