MODEL 1
REMARK minimizedAffinity -3.2657125
REMARK minimizedRMSD -1
REMARK  1 active torsions:
REMARK  status: ('A' for Active; 'I' for Inactive)
REMARK    1  A    between atoms: C1_2  and  C2_3 
ROOT
ATOM      1  C2  UNL d   1      -0.027   0.481  -0.046  0.00  0.00    -0.077 A 
ATOM      2  C3  UNL d   1      -1.408   0.586   0.174  0.00  0.00     0.002 A 
ATOM      3  C4  UNL d   1      -1.919   0.577   1.473  0.00  0.00     0.002 A 
ATOM      4  C5  UNL d   1      -1.056   0.467   2.562  0.00  0.00    -0.004 A 
ATOM      5  C6  UNL d   1       0.318   0.360   2.353  0.00  0.00     0.002 A 
ATOM      6  C7  UNL d   1       0.830   0.367   1.055  0.00  0.00     0.002 A 
ENDROOT
BRANCH   1   7
ATOM      7  C1  UNL d   1       0.529   0.540  -1.445  0.00  0.00     0.055 C 
ATOM      8  C   UNL d   1       0.710  -0.854  -2.028  0.00  0.00     0.019 C 
ENDBRANCH   1   7
TORSDOF 1
ENDMDL
