MODEL 1
REMARK minimizedAffinity 0.715162158
REMARK minimizedRMSD -1
REMARK  1 active torsions:
REMARK  status: ('A' for Active; 'I' for Inactive)
REMARK    1  A    between atoms: C1_2  and  C2_3 
ROOT
ATOM      1  C2  UNL d   1      -1.186  -0.659   0.766  0.00  0.00    -0.077 A 
ATOM      2  C3  UNL d   1       0.091  -1.036   0.325  0.00  0.00     0.002 A 
ATOM      3  C4  UNL d   1       0.619  -0.499  -0.850  0.00  0.00     0.002 A 
ATOM      4  C5  UNL d   1      -0.120   0.421  -1.592  0.00  0.00    -0.004 A 
ATOM      5  C6  UNL d   1      -1.391   0.801  -1.163  0.00  0.00     0.002 A 
ATOM      6  C7  UNL d   1      -1.921   0.264   0.011  0.00  0.00     0.002 A 
ENDROOT
BRANCH   1   7
ATOM      7  C1  UNL d   1      -1.737  -1.200   2.059  0.00  0.00     0.055 C 
ATOM      8  C   UNL d   1      -1.411  -0.281   3.227  0.00  0.00     0.019 C 
ENDBRANCH   1   7
TORSDOF 1
ENDMDL
