MODEL 1
REMARK minimizedAffinity -4.09191465
REMARK minimizedRMSD -1
REMARK  1 active torsions:
REMARK  status: ('A' for Active; 'I' for Inactive)
REMARK    1  A    between atoms: C1_2  and  C2_3 
ROOT
ATOM      1  C2  UNL d   1       0.416  -0.005  -0.713  0.00  0.00    -0.077 A 
ATOM      2  C3  UNL d   1      -0.837   0.577  -0.473  0.00  0.00     0.002 A 
ATOM      3  C4  UNL d   1      -1.320   0.702   0.831  0.00  0.00     0.002 A 
ATOM      4  C5  UNL d   1      -0.557   0.250   1.905  0.00  0.00    -0.004 A 
ATOM      5  C6  UNL d   1       0.689  -0.333   1.677  0.00  0.00     0.002 A 
ATOM      6  C7  UNL d   1       1.174  -0.459   0.374  0.00  0.00     0.002 A 
ENDROOT
BRANCH   1   7
ATOM      7  C1  UNL d   1       0.961  -0.095  -2.114  0.00  0.00     0.055 C 
ATOM      8  C   UNL d   1       1.001  -1.536  -2.601  0.00  0.00     0.019 C 
ENDBRANCH   1   7
TORSDOF 1
ENDMDL
