MODEL 1
REMARK minimizedAffinity -3.3919313
REMARK minimizedRMSD -1
REMARK  1 active torsions:
REMARK  status: ('A' for Active; 'I' for Inactive)
REMARK    1  A    between atoms: C1_2  and  C2_3 
ROOT
ATOM      1  C2  UNL d   1       0.425  -0.027  -0.450  0.00  0.00    -0.077 A 
ATOM      2  C3  UNL d   1       1.627   0.633  -0.157  0.00  0.00     0.002 A 
ATOM      3  C4  UNL d   1       1.994   0.877   1.168  0.00  0.00     0.002 A 
ATOM      4  C5  UNL d   1       1.167   0.461   2.210  0.00  0.00    -0.004 A 
ATOM      5  C6  UNL d   1      -0.031  -0.194   1.929  0.00  0.00     0.002 A 
ATOM      6  C7  UNL d   1      -0.400  -0.438   0.605  0.00  0.00     0.002 A 
ENDROOT
BRANCH   1   7
ATOM      7  C1  UNL d   1       0.051  -0.335  -1.876  0.00  0.00     0.055 C 
ATOM      8  C   UNL d   1       1.222  -0.937  -2.638  0.00  0.00     0.019 C 
ENDBRANCH   1   7
TORSDOF 1
ENDMDL
