MODEL 1
REMARK minimizedAffinity -1.68699741
REMARK minimizedRMSD -1
REMARK  1 active torsions:
REMARK  status: ('A' for Active; 'I' for Inactive)
REMARK    1  A    between atoms: C1_2  and  C2_3 
ROOT
ATOM      1  C2  UNL d   1      -0.361   0.449   1.728  0.00  0.00    -0.077 A 
ATOM      2  C3  UNL d   1      -1.586   0.565   1.058  0.00  0.00     0.002 A 
ATOM      3  C4  UNL d   1      -1.638   0.496  -0.336  0.00  0.00     0.002 A 
ATOM      4  C5  UNL d   1      -0.469   0.307  -1.070  0.00  0.00    -0.004 A 
ATOM      5  C6  UNL d   1       0.755   0.192  -0.412  0.00  0.00     0.002 A 
ATOM      6  C7  UNL d   1       0.809   0.262   0.981  0.00  0.00     0.002 A 
ENDROOT
BRANCH   1   7
ATOM      7  C1  UNL d   1      -0.309   0.474   3.234  0.00  0.00     0.055 C 
ATOM      8  C   UNL d   1      -1.200  -0.603   3.836  0.00  0.00     0.019 C 
ENDBRANCH   1   7
TORSDOF 1
ENDMDL
