MODEL 1
REMARK minimizedAffinity -3.16670632
REMARK minimizedRMSD -1
REMARK  1 active torsions:
REMARK  status: ('A' for Active; 'I' for Inactive)
REMARK    1  A    between atoms: C1_2  and  C2_3 
ROOT
ATOM      1  C2  UNL d   1       0.532  -0.184  -1.142  0.00  0.00    -0.077 A 
ATOM      2  C3  UNL d   1      -0.830   0.080  -0.942  0.00  0.00     0.002 A 
ATOM      3  C4  UNL d   1      -1.320   0.327   0.342  0.00  0.00     0.002 A 
ATOM      4  C5  UNL d   1      -0.455   0.317   1.434  0.00  0.00    -0.004 A 
ATOM      5  C6  UNL d   1       0.901   0.054   1.246  0.00  0.00     0.002 A 
ATOM      6  C7  UNL d   1       1.393  -0.194  -0.036  0.00  0.00     0.002 A 
ENDROOT
BRANCH   1   7
ATOM      7  C1  UNL d   1       1.072  -0.402  -2.531  0.00  0.00     0.055 C 
ATOM      8  C   UNL d   1       0.699  -1.779  -3.060  0.00  0.00     0.019 C 
ENDBRANCH   1   7
TORSDOF 1
ENDMDL
