MODEL 1
REMARK minimizedAffinity -2.94506669
REMARK minimizedRMSD -1
REMARK  1 active torsions:
REMARK  status: ('A' for Active; 'I' for Inactive)
REMARK    1  A    between atoms: C1_2  and  C2_3 
ROOT
ATOM      1  C2  UNL d   1       0.384   0.194  -0.499  0.00  0.00    -0.077 A 
ATOM      2  C3  UNL d   1      -1.007   0.336  -0.397  0.00  0.00     0.002 A 
ATOM      3  C4  UNL d   1      -1.623   0.375   0.855  0.00  0.00     0.002 A 
ATOM      4  C5  UNL d   1      -0.856   0.276   2.014  0.00  0.00    -0.004 A 
ATOM      5  C6  UNL d   1       0.528   0.133   1.923  0.00  0.00     0.002 A 
ATOM      6  C7  UNL d   1       1.145   0.093   0.672  0.00  0.00     0.002 A 
ENDROOT
BRANCH   1   7
ATOM      7  C1  UNL d   1       1.055   0.202  -1.848  0.00  0.00     0.055 C 
ATOM      8  C   UNL d   1       0.962  -1.160  -2.520  0.00  0.00     0.019 C 
ENDBRANCH   1   7
TORSDOF 1
ENDMDL
