MODEL 1
REMARK minimizedAffinity 12.6469841
REMARK minimizedRMSD -1
REMARK  0 active torsions:
REMARK  status: ('A' for Active; 'I' for Inactive)
ROOT
ATOM      1  C4' PXY d   1      -1.475  -2.902   2.613  0.00  0.00     0.077 C 
ATOM      2  C1' PXY d   1       3.345   0.211   1.913  0.00  0.00     0.077 C 
ATOM      3  C1  PXY d   1       2.080  -0.601   2.109  0.00  0.00    -0.082 A 
ATOM      4  C2  PXY d   1       1.842  -1.641   1.326  0.00  0.00     0.003 A 
ATOM      5  C3  PXY d   1       0.688  -2.368   1.469  0.00  0.00     0.003 A 
ATOM      6  C4  PXY d   1      -0.207  -2.059   2.458  0.00  0.00    -0.082 A 
ATOM      7  C5  PXY d   1       0.033  -1.006   3.267  0.00  0.00     0.003 A 
ATOM      8  C6  PXY d   1       1.191  -0.256   3.079  0.00  0.00     0.003 A 
ENDROOT
TORSDOF 0
ENDMDL
