MODEL 1
REMARK minimizedAffinity 8.45297813
REMARK minimizedRMSD -1
REMARK  0 active torsions:
REMARK  status: ('A' for Active; 'I' for Inactive)
ROOT
ATOM      1  C4' PXY d   1      -1.001  -0.321   4.130  0.00  0.00     0.077 C 
ATOM      2  C1' PXY d   1       3.640  -1.461   0.878  0.00  0.00     0.077 C 
ATOM      3  C1  PXY d   1       2.430  -1.162   1.741  0.00  0.00    -0.082 A 
ATOM      4  C2  PXY d   1       1.223  -1.498   1.316  0.00  0.00     0.003 A 
ATOM      5  C3  PXY d   1       0.116  -1.206   2.069  0.00  0.00     0.003 A 
ATOM      6  C4  PXY d   1       0.249  -0.612   3.296  0.00  0.00    -0.082 A 
ATOM      7  C5  PXY d   1       1.478  -0.276   3.742  0.00  0.00     0.003 A 
ATOM      8  C6  PXY d   1       2.586  -0.543   2.943  0.00  0.00     0.003 A 
ENDROOT
TORSDOF 0
ENDMDL
