MODEL 1
REMARK minimizedAffinity 9.68544292
REMARK minimizedRMSD -1
REMARK  0 active torsions:
REMARK  status: ('A' for Active; 'I' for Inactive)
ROOT
ATOM      1  C4' PXY d   1       5.999  -4.280  -5.944  0.00  0.00     0.077 C 
ATOM      2  C1' PXY d   1       4.666   0.526  -3.022  0.00  0.00     0.077 C 
ATOM      3  C1  PXY d   1       5.005  -0.732  -3.797  0.00  0.00    -0.082 A 
ATOM      4  C2  PXY d   1       5.653  -1.716  -3.194  0.00  0.00     0.003 A 
ATOM      5  C3  PXY d   1       5.996  -2.848  -3.888  0.00  0.00     0.003 A 
ATOM      6  C4  PXY d   1       5.626  -2.996  -5.198  0.00  0.00    -0.082 A 
ATOM      7  C5  PXY d   1       4.957  -2.000  -5.817  0.00  0.00     0.003 A 
ATOM      8  C6  PXY d   1       4.654  -0.843  -5.107  0.00  0.00     0.003 A 
ENDROOT
TORSDOF 0
ENDMDL
