MODEL 1
REMARK minimizedAffinity 23.4805107
REMARK minimizedRMSD -1
REMARK  0 active torsions:
REMARK  status: ('A' for Active; 'I' for Inactive)
ROOT
ATOM      1  C4' PXY d   1       0.745   2.504  -0.380  0.00  0.00     0.077 C 
ATOM      2  C1' PXY d   1       5.104   0.146   2.597  0.00  0.00     0.077 C 
ATOM      3  C1  PXY d   1       3.955   0.753   1.814  0.00  0.00    -0.082 A 
ATOM      4  C2  PXY d   1       4.118   1.920   1.213  0.00  0.00     0.003 A 
ATOM      5  C3  PXY d   1       3.080   2.498   0.528  0.00  0.00     0.003 A 
ATOM      6  C4  PXY d   1       1.880   1.849   0.413  0.00  0.00    -0.082 A 
ATOM      7  C5  PXY d   1       1.709   0.653   1.015  0.00  0.00     0.003 A 
ATOM      8  C6  PXY d   1       2.762   0.103   1.740  0.00  0.00     0.003 A 
ENDROOT
TORSDOF 0
ENDMDL
