MODEL 1
REMARK minimizedAffinity 19.6818371
REMARK minimizedRMSD -1
REMARK  0 active torsions:
REMARK  status: ('A' for Active; 'I' for Inactive)
ROOT
ATOM      1  C4' PXY d   1      -1.639  -3.067   1.450  0.00  0.00     0.077 C 
ATOM      2  C1' PXY d   1       3.041   0.124   2.602  0.00  0.00     0.077 C 
ATOM      3  C1  PXY d   1       1.807  -0.706   2.309  0.00  0.00    -0.082 A 
ATOM      4  C2  PXY d   1       1.938  -1.896   1.745  0.00  0.00     0.003 A 
ATOM      5  C3  PXY d   1       0.831  -2.647   1.444  0.00  0.00     0.003 A 
ATOM      6  C4  PXY d   1      -0.420  -2.198   1.772  0.00  0.00    -0.082 A 
ATOM      7  C5  PXY d   1      -0.562  -0.990   2.357  0.00  0.00     0.003 A 
ATOM      8  C6  PXY d   1       0.572  -0.225   2.617  0.00  0.00     0.003 A 
ENDROOT
TORSDOF 0
ENDMDL
