MODEL 1
REMARK minimizedAffinity 11.7336712
REMARK minimizedRMSD -1
REMARK  0 active torsions:
REMARK  status: ('A' for Active; 'I' for Inactive)
ROOT
ATOM      1  C4' PXY d   1       5.962  -4.350  -5.997  0.00  0.00     0.077 C 
ATOM      2  C1' PXY d   1       4.337   0.466  -3.244  0.00  0.00     0.077 C 
ATOM      3  C1  PXY d   1       4.752  -0.796  -3.973  0.00  0.00    -0.082 A 
ATOM      4  C2  PXY d   1       5.589  -1.642  -3.393  0.00  0.00     0.003 A 
ATOM      5  C3  PXY d   1       6.000  -2.772  -4.051  0.00  0.00     0.003 A 
ATOM      6  C4  PXY d   1       5.508  -3.067  -5.295  0.00  0.00    -0.082 A 
ATOM      7  C5  PXY d   1       4.646  -2.215  -5.889  0.00  0.00     0.003 A 
ATOM      8  C6  PXY d   1       4.273  -1.052  -5.221  0.00  0.00     0.003 A 
ENDROOT
TORSDOF 0
ENDMDL
