MODEL 1
REMARK minimizedAffinity 17.5654354
REMARK minimizedRMSD -1
REMARK  0 active torsions:
REMARK  status: ('A' for Active; 'I' for Inactive)
ROOT
ATOM      1  C4' PXY d   1      -4.215   4.478  -0.758  0.00  0.00     0.077 C 
ATOM      2  C1' PXY d   1      -1.375   4.563  -5.791  0.00  0.00     0.077 C 
ATOM      3  C1  PXY d   1      -2.114   4.552  -4.468  0.00  0.00    -0.082 A 
ATOM      4  C2  PXY d   1      -2.514   3.401  -3.951  0.00  0.00     0.003 A 
ATOM      5  C3  PXY d   1      -3.212   3.376  -2.771  0.00  0.00     0.003 A 
ATOM      6  C4  PXY d   1      -3.457   4.536  -2.087  0.00  0.00    -0.082 A 
ATOM      7  C5  PXY d   1      -3.044   5.713  -2.602  0.00  0.00     0.003 A 
ATOM      8  C6  PXY d   1      -2.373   5.721  -3.821  0.00  0.00     0.003 A 
ENDROOT
TORSDOF 0
ENDMDL
