MODEL 1
REMARK minimizedAffinity 4.91847992
REMARK minimizedRMSD -1
REMARK  0 active torsions:
REMARK  status: ('A' for Active; 'I' for Inactive)
ROOT
ATOM      1  C4' PXY d   1      -1.948  -3.028   2.224  0.00  0.00     0.077 C 
ATOM      2  C1' PXY d   1       3.037  -0.103   2.347  0.00  0.00     0.077 C 
ATOM      3  C1  PXY d   1       1.727  -0.867   2.327  0.00  0.00    -0.082 A 
ATOM      4  C2  PXY d   1       1.559  -1.854   1.462  0.00  0.00     0.003 A 
ATOM      5  C3  PXY d   1       0.369  -2.534   1.409  0.00  0.00     0.003 A 
ATOM      6  C4  PXY d   1      -0.639  -2.236   2.286  0.00  0.00    -0.082 A 
ATOM      7  C5  PXY d   1      -0.471  -1.237   3.178  0.00  0.00     0.003 A 
ATOM      8  C6  PXY d   1       0.729  -0.532   3.189  0.00  0.00     0.003 A 
ENDROOT
TORSDOF 0
ENDMDL
