MODEL 1
REMARK minimizedAffinity 16.6060295
REMARK minimizedRMSD -1
REMARK  0 active torsions:
REMARK  status: ('A' for Active; 'I' for Inactive)
ROOT
ATOM      1  C4' PXY d   1      -2.845   6.000  -0.863  0.00  0.00     0.077 C 
ATOM      2  C1' PXY d   1      -2.421   3.384  -6.000  0.00  0.00     0.077 C 
ATOM      3  C1  PXY d   1      -2.540   4.060  -4.648  0.00  0.00    -0.082 A 
ATOM      4  C2  PXY d   1      -2.330   5.363  -4.548  0.00  0.00     0.003 A 
ATOM      5  C3  PXY d   1      -2.402   5.985  -3.329  0.00  0.00     0.003 A 
ATOM      6  C4  PXY d   1      -2.745   5.276  -2.208  0.00  0.00    -0.082 A 
ATOM      7  C5  PXY d   1      -2.971   3.949  -2.304  0.00  0.00     0.003 A 
ATOM      8  C6  PXY d   1      -2.852   3.329  -3.544  0.00  0.00     0.003 A 
ENDROOT
TORSDOF 0
ENDMDL
