MODEL 1
REMARK minimizedAffinity 15.440382
REMARK minimizedRMSD -1
REMARK  0 active torsions:
REMARK  status: ('A' for Active; 'I' for Inactive)
ROOT
ATOM      1  C4' PXY d   1       5.977   2.221  -4.159  0.00  0.00     0.077 C 
ATOM      2  C1' PXY d   1       3.563  -1.929  -0.940  0.00  0.00     0.077 C 
ATOM      3  C1  PXY d   1       4.185  -0.837  -1.788  0.00  0.00    -0.082 A 
ATOM      4  C2  PXY d   1       5.409  -0.994  -2.263  0.00  0.00     0.003 A 
ATOM      5  C3  PXY d   1       5.998  -0.002  -3.005  0.00  0.00     0.003 A 
ATOM      6  C4  PXY d   1       5.307   1.140  -3.307  0.00  0.00    -0.082 A 
ATOM      7  C5  PXY d   1       4.053   1.304  -2.834  0.00  0.00     0.003 A 
ATOM      8  C6  PXY d   1       3.488   0.303  -2.049  0.00  0.00     0.003 A 
ENDROOT
TORSDOF 0
ENDMDL
