MODEL 1
REMARK minimizedAffinity 15.450984
REMARK minimizedRMSD -1
REMARK  0 active torsions:
REMARK  status: ('A' for Active; 'I' for Inactive)
ROOT
ATOM      1  C4' PXY d   1       5.988  -5.970   5.998  0.00  0.00     0.077 C 
ATOM      2  C1' PXY d   1       1.249  -5.204   2.778  0.00  0.00     0.077 C 
ATOM      3  C1  PXY d   1       2.497  -5.413   3.613  0.00  0.00    -0.082 A 
ATOM      4  C2  PXY d   1       2.450  -5.212   4.920  0.00  0.00     0.003 A 
ATOM      5  C3  PXY d   1       3.577  -5.365   5.686  0.00  0.00     0.003 A 
ATOM      6  C4  PXY d   1       4.751  -5.781   5.117  0.00  0.00    -0.082 A 
ATOM      7  C5  PXY d   1       4.804  -5.999   3.786  0.00  0.00     0.003 A 
ATOM      8  C6  PXY d   1       3.659  -5.798   3.019  0.00  0.00     0.003 A 
ENDROOT
TORSDOF 0
ENDMDL
