MODEL 1
REMARK minimizedAffinity 21.7150307
REMARK minimizedRMSD -1
REMARK  0 active torsions:
REMARK  status: ('A' for Active; 'I' for Inactive)
ROOT
ATOM      1  C4' PXY d   1       4.396   1.002   1.938  0.00  0.00     0.077 C 
ATOM      2  C1' PXY d   1      -0.976  -0.354   3.586  0.00  0.00     0.077 C 
ATOM      3  C1  PXY d   1       0.432  -0.007   3.143  0.00  0.00    -0.082 A 
ATOM      4  C2  PXY d   1       1.306   0.436   4.032  0.00  0.00     0.003 A 
ATOM      5  C3  PXY d   1       2.574   0.785   3.644  0.00  0.00     0.003 A 
ATOM      6  C4  PXY d   1       2.967   0.630   2.341  0.00  0.00    -0.082 A 
ATOM      7  C5  PXY d   1       2.084   0.169   1.430  0.00  0.00     0.003 A 
ATOM      8  C6  PXY d   1       0.789  -0.141   1.837  0.00  0.00     0.003 A 
ENDROOT
TORSDOF 0
ENDMDL
