MODEL 1
REMARK minimizedAffinity 5.40364075
REMARK minimizedRMSD -1
REMARK  0 active torsions:
REMARK  status: ('A' for Active; 'I' for Inactive)
ROOT
ATOM      1  C4' PXY d   1      -1.964  -3.111   3.189  0.00  0.00     0.077 C 
ATOM      2  C1' PXY d   1       2.920  -0.553   1.450  0.00  0.00     0.077 C 
ATOM      3  C1  PXY d   1       1.640  -1.217   1.917  0.00  0.00    -0.082 A 
ATOM      4  C2  PXY d   1       1.275  -2.376   1.392  0.00  0.00     0.003 A 
ATOM      5  C3  PXY d   1       0.104  -2.975   1.780  0.00  0.00     0.003 A 
ATOM      6  C4  PXY d   1      -0.674  -2.408   2.754  0.00  0.00    -0.082 A 
ATOM      7  C5  PXY d   1      -0.303  -1.232   3.302  0.00  0.00     0.003 A 
ATOM      8  C6  PXY d   1       0.868  -0.620   2.865  0.00  0.00     0.003 A 
ENDROOT
TORSDOF 0
ENDMDL
