MODEL 1
REMARK minimizedAffinity 13.2508125
REMARK minimizedRMSD -1
REMARK  0 active torsions:
REMARK  status: ('A' for Active; 'I' for Inactive)
ROOT
ATOM      1  C4' PXY d   1       4.508  -0.469   2.252  0.00  0.00     0.077 C 
ATOM      2  C1' PXY d   1      -1.014  -0.711   3.945  0.00  0.00     0.077 C 
ATOM      3  C1  PXY d   1       0.436  -0.638   3.509  0.00  0.00    -0.082 A 
ATOM      4  C2  PXY d   1       0.786  -1.099   2.319  0.00  0.00     0.003 A 
ATOM      5  C3  PXY d   1       2.098  -1.070   1.923  0.00  0.00     0.003 A 
ATOM      6  C4  PXY d   1       3.054  -0.514   2.730  0.00  0.00    -0.082 A 
ATOM      7  C5  PXY d   1       2.703  -0.031   3.941  0.00  0.00     0.003 A 
ATOM      8  C6  PXY d   1       1.372  -0.108   4.342  0.00  0.00     0.003 A 
ENDROOT
TORSDOF 0
ENDMDL
