MODEL 1
REMARK minimizedAffinity 11.2649145
REMARK minimizedRMSD -1
REMARK  0 active torsions:
REMARK  status: ('A' for Active; 'I' for Inactive)
ROOT
ATOM      1  C4' PXY d   1      -1.717  -3.107   3.263  0.00  0.00     0.077 C 
ATOM      2  C1' PXY d   1       2.676   0.270   1.616  0.00  0.00     0.077 C 
ATOM      3  C1  PXY d   1       1.526  -0.612   2.061  0.00  0.00    -0.082 A 
ATOM      4  C2  PXY d   1       1.174  -1.650   1.320  0.00  0.00     0.003 A 
ATOM      5  C3  PXY d   1       0.116  -2.440   1.691  0.00  0.00     0.003 A 
ATOM      6  C4  PXY d   1      -0.556  -2.195   2.859  0.00  0.00    -0.082 A 
ATOM      7  C5  PXY d   1      -0.196  -1.143   3.625  0.00  0.00     0.003 A 
ATOM      8  C6  PXY d   1       0.855  -0.330   3.210  0.00  0.00     0.003 A 
ENDROOT
TORSDOF 0
ENDMDL
