MODEL 1
REMARK minimizedAffinity 18.9784126
REMARK minimizedRMSD -1
REMARK  0 active torsions:
REMARK  status: ('A' for Active; 'I' for Inactive)
ROOT
ATOM      1  C4' PXY d   1      -4.342   4.876  -0.576  0.00  0.00     0.077 C 
ATOM      2  C1' PXY d   1      -1.564   4.390  -5.622  0.00  0.00     0.077 C 
ATOM      3  C1  PXY d   1      -2.286   4.529  -4.296  0.00  0.00    -0.082 A 
ATOM      4  C2  PXY d   1      -2.808   3.458  -3.721  0.00  0.00     0.003 A 
ATOM      5  C3  PXY d   1      -3.492   3.570  -2.537  0.00  0.00     0.003 A 
ATOM      6  C4  PXY d   1      -3.597   4.782  -1.910  0.00  0.00    -0.082 A 
ATOM      7  C5  PXY d   1      -3.057   5.878  -2.485  0.00  0.00     0.003 A 
ATOM      8  C6  PXY d   1      -2.403   5.750  -3.707  0.00  0.00     0.003 A 
ENDROOT
TORSDOF 0
ENDMDL
