MODEL 1
REMARK minimizedAffinity 8.15305042
REMARK minimizedRMSD -1
REMARK  0 active torsions:
REMARK  status: ('A' for Active; 'I' for Inactive)
ROOT
ATOM      1  C4' PXY d   1       4.385   0.276   2.607  0.00  0.00     0.077 C 
ATOM      2  C1' PXY d   1      -0.977  -0.655   4.556  0.00  0.00     0.077 C 
ATOM      3  C1  PXY d   1       0.427  -0.419   4.035  0.00  0.00    -0.082 A 
ATOM      4  C2  PXY d   1       1.366   0.018   4.859  0.00  0.00     0.003 A 
ATOM      5  C3  PXY d   1       2.633   0.267   4.398  0.00  0.00     0.003 A 
ATOM      6  C4  PXY d   1       2.956   0.016   3.091  0.00  0.00    -0.082 A 
ATOM      7  C5  PXY d   1       2.007  -0.440   2.247  0.00  0.00     0.003 A 
ATOM      8  C6  PXY d   1       0.716  -0.647   2.726  0.00  0.00     0.003 A 
ENDROOT
TORSDOF 0
ENDMDL
