MODEL 1
REMARK minimizedAffinity 6.61560822
REMARK minimizedRMSD -1
REMARK  0 active torsions:
REMARK  status: ('A' for Active; 'I' for Inactive)
ROOT
ATOM      1  C4' PXY d   1      -1.593  -3.004   2.969  0.00  0.00     0.077 C 
ATOM      2  C1' PXY d   1       3.291  -0.061   2.023  0.00  0.00     0.077 C 
ATOM      3  C1  PXY d   1       2.010  -0.828   2.283  0.00  0.00    -0.082 A 
ATOM      4  C2  PXY d   1       1.721  -1.888   1.545  0.00  0.00     0.003 A 
ATOM      5  C3  PXY d   1       0.551  -2.574   1.746  0.00  0.00     0.003 A 
ATOM      6  C4  PXY d   1      -0.306  -2.204   2.748  0.00  0.00    -0.082 A 
ATOM      7  C5  PXY d   1      -0.013  -1.131   3.512  0.00  0.00     0.003 A 
ATOM      8  C6  PXY d   1       1.159  -0.423   3.265  0.00  0.00     0.003 A 
ENDROOT
TORSDOF 0
ENDMDL
