MODEL 1
REMARK minimizedAffinity 4.42539454
REMARK minimizedRMSD -1
REMARK  0 active torsions:
REMARK  status: ('A' for Active; 'I' for Inactive)
ROOT
ATOM      1  C4' PXY d   1      -2.025  -2.856   3.398  0.00  0.00     0.077 C 
ATOM      2  C1' PXY d   1       2.959  -0.261   2.039  0.00  0.00     0.077 C 
ATOM      3  C1  PXY d   1       1.654  -0.940   2.408  0.00  0.00    -0.082 A 
ATOM      4  C2  PXY d   1       1.101  -1.796   1.565  0.00  0.00     0.003 A 
ATOM      5  C3  PXY d   1      -0.094  -2.395   1.869  0.00  0.00     0.003 A 
ATOM      6  C4  PXY d   1      -0.704  -2.154   3.071  0.00  0.00    -0.082 A 
ATOM      7  C5  PXY d   1      -0.140  -1.290   3.942  0.00  0.00     0.003 A 
ATOM      8  C6  PXY d   1       1.053  -0.662   3.597  0.00  0.00     0.003 A 
ENDROOT
TORSDOF 0
ENDMDL
