MODEL 1
REMARK minimizedAffinity 8.0669136
REMARK minimizedRMSD -1
REMARK  0 active torsions:
REMARK  status: ('A' for Active; 'I' for Inactive)
ROOT
ATOM      1  C4' PXY d   1      -3.779  -5.853  -0.588  0.00  0.00     0.077 C 
ATOM      2  C1' PXY d   1      -5.815  -3.617   4.338  0.00  0.00     0.077 C 
ATOM      3  C1  PXY d   1      -5.281  -4.191   3.041  0.00  0.00    -0.082 A 
ATOM      4  C2  PXY d   1      -5.538  -5.451   2.728  0.00  0.00     0.003 A 
ATOM      5  C3  PXY d   1      -5.035  -5.996   1.575  0.00  0.00     0.003 A 
ATOM      6  C4  PXY d   1      -4.306  -5.228   0.706  0.00  0.00    -0.082 A 
ATOM      7  C5  PXY d   1      -4.049  -3.939   1.013  0.00  0.00     0.003 A 
ATOM      8  C6  PXY d   1      -4.533  -3.417   2.209  0.00  0.00     0.003 A 
ENDROOT
TORSDOF 0
ENDMDL
