MODEL 1
REMARK minimizedAffinity -5.17738485
REMARK minimizedRMSD -1
REMARK  0 active torsions:
REMARK  status: ('A' for Active; 'I' for Inactive)
ROOT
ATOM      1  O1  BZF d   1       0.210  -0.221  -1.003  0.00  0.00    -0.204 OA
ATOM      2  C2  BZF d   1      -1.083   0.113  -1.358  0.00  0.00     0.174 A 
ATOM      3  C3  BZF d   1      -1.175   0.323  -2.687  0.00  0.00    -0.012 A 
ATOM      4  C3A BZF d   1       0.122   0.016  -3.207  0.00  0.00    -0.107 A 
ATOM      5  C4  BZF d   1       0.653   0.019  -4.465  0.00  0.00     0.055 A 
ATOM      6  C5  BZF d   1       1.973  -0.260  -4.625  0.00  0.00    -0.016 A 
ATOM      7  C6  BZF d   1       2.791  -0.541  -3.550  0.00  0.00     0.022 A 
ATOM      8  C7  BZF d   1       2.309  -0.561  -2.284  0.00  0.00     0.029 A 
ATOM      9  C7A BZF d   1       0.968  -0.311  -2.122  0.00  0.00     0.058 A 
ENDROOT
TORSDOF 0
ENDMDL
