MODEL 1
REMARK minimizedAffinity -3.04573464
REMARK minimizedRMSD -1
REMARK  0 active torsions:
REMARK  status: ('A' for Active; 'I' for Inactive)
ROOT
ATOM      1  O1  BZF d   1      -5.741   4.138  -1.045  0.00  0.00    -0.204 OA
ATOM      2  C2  BZF d   1      -5.878   5.513  -1.025  0.00  0.00     0.174 A 
ATOM      3  C3  BZF d   1      -5.642   6.000   0.210  0.00  0.00    -0.012 A 
ATOM      4  C3A BZF d   1      -5.247   4.868   0.992  0.00  0.00    -0.107 A 
ATOM      5  C4  BZF d   1      -4.869   4.713   2.294  0.00  0.00     0.055 A 
ATOM      6  C5  BZF d   1      -4.618   3.463   2.765  0.00  0.00    -0.016 A 
ATOM      7  C6  BZF d   1      -4.741   2.347   1.963  0.00  0.00     0.022 A 
ATOM      8  C7  BZF d   1      -5.109   2.452   0.663  0.00  0.00     0.029 A 
ATOM      9  C7A BZF d   1      -5.331   3.716   0.176  0.00  0.00     0.058 A 
ENDROOT
TORSDOF 0
ENDMDL
