MODEL 1
REMARK minimizedAffinity -4.54984665
REMARK minimizedRMSD -1
REMARK  0 active torsions:
REMARK  status: ('A' for Active; 'I' for Inactive)
ROOT
ATOM      1  O1  BZF d   1      -2.903  -2.018  -3.708  0.00  0.00    -0.204 OA
ATOM      2  C2  BZF d   1      -3.007  -3.336  -4.109  0.00  0.00     0.174 A 
ATOM      3  C3  BZF d   1      -2.441  -4.158  -3.203  0.00  0.00    -0.012 A 
ATOM      4  C3A BZF d   1      -2.035  -3.309  -2.126  0.00  0.00    -0.107 A 
ATOM      5  C4  BZF d   1      -1.426  -3.540  -0.925  0.00  0.00     0.055 A 
ATOM      6  C5  BZF d   1      -1.101  -2.484  -0.134  0.00  0.00    -0.016 A 
ATOM      7  C6  BZF d   1      -1.365  -1.184  -0.515  0.00  0.00     0.022 A 
ATOM      8  C7  BZF d   1      -1.971  -0.905  -1.694  0.00  0.00     0.029 A 
ATOM      9  C7A BZF d   1      -2.330  -1.972  -2.481  0.00  0.00     0.058 A 
ENDROOT
TORSDOF 0
ENDMDL
