MODEL 1
REMARK minimizedAffinity -3.17230177
REMARK minimizedRMSD -1
REMARK  0 active torsions:
REMARK  status: ('A' for Active; 'I' for Inactive)
ROOT
ATOM      1  O1  BZF d   1      -2.825  -2.186  -3.105  0.00  0.00    -0.204 OA
ATOM      2  C2  BZF d   1      -2.784  -3.567  -3.102  0.00  0.00     0.174 A 
ATOM      3  C3  BZF d   1      -2.225  -4.026  -1.963  0.00  0.00    -0.012 A 
ATOM      4  C3A BZF d   1      -1.981  -2.862  -1.168  0.00  0.00    -0.107 A 
ATOM      5  C4  BZF d   1      -1.455  -2.669   0.078  0.00  0.00     0.055 A 
ATOM      6  C5  BZF d   1      -1.286  -1.400   0.534  0.00  0.00    -0.016 A 
ATOM      7  C6  BZF d   1      -1.627  -0.302  -0.229  0.00  0.00     0.022 A 
ATOM      8  C7  BZF d   1      -2.157  -0.444  -1.468  0.00  0.00     0.029 A 
ATOM      9  C7A BZF d   1      -2.360  -1.725  -1.919  0.00  0.00     0.058 A 
ENDROOT
TORSDOF 0
ENDMDL
