MODEL 1
REMARK minimizedAffinity 1.89357519
REMARK minimizedRMSD -1
REMARK  0 active torsions:
REMARK  status: ('A' for Active; 'I' for Inactive)
ROOT
ATOM      1  O1  BZF d   1      -0.923   0.218  -1.115  0.00  0.00    -0.204 OA
ATOM      2  C2  BZF d   1      -0.519   0.154   0.204  0.00  0.00     0.174 A 
ATOM      3  C3  BZF d   1      -0.906  -1.009   0.767  0.00  0.00    -0.012 A 
ATOM      4  C3A BZF d   1      -1.516  -1.755  -0.291  0.00  0.00    -0.107 A 
ATOM      5  C4  BZF d   1      -2.083  -2.995  -0.359  0.00  0.00     0.055 A 
ATOM      6  C5  BZF d   1      -2.653  -3.397  -1.525  0.00  0.00    -0.016 A 
ATOM      7  C6  BZF d   1      -2.679  -2.584  -2.639  0.00  0.00     0.022 A 
ATOM      8  C7  BZF d   1      -2.124  -1.347  -2.621  0.00  0.00     0.029 A 
ATOM      9  C7A BZF d   1      -1.518  -0.951  -1.454  0.00  0.00     0.058 A 
ENDROOT
TORSDOF 0
ENDMDL
