MODEL 1
REMARK minimizedAffinity 1.91889286
REMARK minimizedRMSD -1
REMARK  0 active torsions:
REMARK  status: ('A' for Active; 'I' for Inactive)
ROOT
ATOM      1  O1  BZF d   1       4.003   4.291   2.481  0.00  0.00    -0.204 OA
ATOM      2  C2  BZF d   1       3.035   3.384   2.867  0.00  0.00     0.174 A 
ATOM      3  C3  BZF d   1       2.432   2.840   1.790  0.00  0.00    -0.012 A 
ATOM      4  C3A BZF d   1       3.125   3.378   0.660  0.00  0.00    -0.107 A 
ATOM      5  C4  BZF d   1       2.999   3.203  -0.689  0.00  0.00     0.055 A 
ATOM      6  C5  BZF d   1       3.784   3.932  -1.525  0.00  0.00    -0.016 A 
ATOM      7  C6  BZF d   1       4.700   4.846  -1.049  0.00  0.00     0.022 A 
ATOM      8  C7  BZF d   1       4.865   5.050   0.281  0.00  0.00     0.029 A 
ATOM      9  C7A BZF d   1       4.097   4.292   1.130  0.00  0.00     0.058 A 
ENDROOT
TORSDOF 0
ENDMDL
