MODEL 1
REMARK minimizedAffinity 2.19070745
REMARK minimizedRMSD -1
REMARK  0 active torsions:
REMARK  status: ('A' for Active; 'I' for Inactive)
ROOT
ATOM      1  O1  BZF d   1      -3.929   4.090   1.795  0.00  0.00    -0.204 OA
ATOM      2  C2  BZF d   1      -4.961   4.341   0.911  0.00  0.00     0.174 A 
ATOM      3  C3  BZF d   1      -5.950   5.033   1.514  0.00  0.00    -0.012 A 
ATOM      4  C3A BZF d   1      -5.467   5.306   2.833  0.00  0.00    -0.107 A 
ATOM      5  C4  BZF d   1      -5.989   5.974   3.904  0.00  0.00     0.055 A 
ATOM      6  C5  BZF d   1      -5.294   5.997   5.071  0.00  0.00    -0.016 A 
ATOM      7  C6  BZF d   1      -4.077   5.359   5.204  0.00  0.00     0.022 A 
ATOM      8  C7  BZF d   1      -3.517   4.689   4.168  0.00  0.00     0.029 A 
ATOM      9  C7A BZF d   1      -4.202   4.692   2.978  0.00  0.00     0.058 A 
ENDROOT
TORSDOF 0
ENDMDL
