MODEL 1
REMARK minimizedAffinity 4.69079304
REMARK minimizedRMSD -1
REMARK  0 active torsions:
REMARK  status: ('A' for Active; 'I' for Inactive)
ROOT
ATOM      1  O1  BZF d   1      -4.038  -4.585   0.681  0.00  0.00    -0.204 OA
ATOM      2  C2  BZF d   1      -5.305  -4.786   0.167  0.00  0.00     0.174 A 
ATOM      3  C3  BZF d   1      -5.500  -4.031  -0.933  0.00  0.00    -0.012 A 
ATOM      4  C3A BZF d   1      -4.247  -3.382  -1.172  0.00  0.00    -0.107 A 
ATOM      5  C4  BZF d   1      -3.807  -2.514  -2.130  0.00  0.00     0.055 A 
ATOM      6  C5  BZF d   1      -2.549  -2.010  -2.036  0.00  0.00    -0.016 A 
ATOM      7  C6  BZF d   1      -1.707  -2.347  -0.996  0.00  0.00     0.022 A 
ATOM      8  C7  BZF d   1      -2.098  -3.207  -0.025  0.00  0.00     0.029 A 
ATOM      9  C7A BZF d   1      -3.357  -3.744  -0.135  0.00  0.00     0.058 A 
ENDROOT
TORSDOF 0
ENDMDL
