MODEL 1
REMARK minimizedAffinity -0.744968593
REMARK minimizedRMSD -1
REMARK  0 active torsions:
REMARK  status: ('A' for Active; 'I' for Inactive)
ROOT
ATOM      1  O1  BZF d   1      -2.113   0.099   4.941  0.00  0.00    -0.204 OA
ATOM      2  C2  BZF d   1      -2.599   1.246   5.539  0.00  0.00     0.174 A 
ATOM      3  C3  BZF d   1      -3.852   1.051   5.999  0.00  0.00    -0.012 A 
ATOM      4  C3A BZF d   1      -4.134  -0.330   5.750  0.00  0.00    -0.107 A 
ATOM      5  C4  BZF d   1      -5.215  -1.127   5.998  0.00  0.00     0.055 A 
ATOM      6  C5  BZF d   1      -5.199  -2.414   5.564  0.00  0.00    -0.016 A 
ATOM      7  C6  BZF d   1      -4.124  -2.935   4.875  0.00  0.00     0.022 A 
ATOM      8  C7  BZF d   1      -3.027  -2.185   4.610  0.00  0.00     0.029 A 
ATOM      9  C7A BZF d   1      -3.026  -0.893   5.077  0.00  0.00     0.058 A 
ENDROOT
TORSDOF 0
ENDMDL
