MODEL 1
REMARK minimizedAffinity 7.01996946
REMARK minimizedRMSD -1
REMARK  0 active torsions:
REMARK  status: ('A' for Active; 'I' for Inactive)
ROOT
ATOM      1  O1  BZF d   1      -3.013   1.396   2.616  0.00  0.00    -0.204 OA
ATOM      2  C2  BZF d   1      -2.431   0.682   1.587  0.00  0.00     0.174 A 
ATOM      3  C3  BZF d   1      -2.132  -0.572   1.984  0.00  0.00    -0.012 A 
ATOM      4  C3A BZF d   1      -2.638  -0.675   3.318  0.00  0.00    -0.107 A 
ATOM      5  C4  BZF d   1      -2.660  -1.683   4.239  0.00  0.00     0.055 A 
ATOM      6  C5  BZF d   1      -3.164  -1.437   5.477  0.00  0.00    -0.016 A 
ATOM      7  C6  BZF d   1      -3.649  -0.195   5.829  0.00  0.00     0.022 A 
ATOM      8  C7  BZF d   1      -3.653   0.835   4.948  0.00  0.00     0.029 A 
ATOM      9  C7A BZF d   1      -3.175   0.581   3.686  0.00  0.00     0.058 A 
ENDROOT
TORSDOF 0
ENDMDL
