MODEL 1
REMARK minimizedAffinity 2.3893919
REMARK minimizedRMSD -1
REMARK  0 active torsions:
REMARK  status: ('A' for Active; 'I' for Inactive)
ROOT
ATOM      1  O1  BZF d   1      -1.446  -2.021  -0.111  0.00  0.00    -0.204 OA
ATOM      2  C2  BZF d   1      -1.145  -0.674  -0.046  0.00  0.00     0.174 A 
ATOM      3  C3  BZF d   1      -1.390  -0.071  -1.228  0.00  0.00    -0.012 A 
ATOM      4  C3A BZF d   1      -1.962  -1.087  -2.057  0.00  0.00    -0.107 A 
ATOM      5  C4  BZF d   1      -2.429  -1.099  -3.340  0.00  0.00     0.055 A 
ATOM      6  C5  BZF d   1      -2.855  -2.273  -3.877  0.00  0.00    -0.016 A 
ATOM      7  C6  BZF d   1      -2.823  -3.452  -3.163  0.00  0.00     0.022 A 
ATOM      8  C7  BZF d   1      -2.373  -3.489  -1.885  0.00  0.00     0.029 A 
ATOM      9  C7A BZF d   1      -1.972  -2.299  -1.328  0.00  0.00     0.058 A 
ENDROOT
TORSDOF 0
ENDMDL
