MODEL 1
REMARK minimizedAffinity 2.53956866
REMARK minimizedRMSD -1
REMARK  0 active torsions:
REMARK  status: ('A' for Active; 'I' for Inactive)
ROOT
ATOM      1  O1  BZF d   1      -2.663  -1.106   2.786  0.00  0.00    -0.204 OA
ATOM      2  C2  BZF d   1      -2.811   0.095   3.452  0.00  0.00     0.174 A 
ATOM      3  C3  BZF d   1      -2.389   1.122   2.686  0.00  0.00    -0.012 A 
ATOM      4  C3A BZF d   1      -2.037   0.534   1.430  0.00  0.00    -0.107 A 
ATOM      5  C4  BZF d   1      -1.564   1.044   0.254  0.00  0.00     0.055 A 
ATOM      6  C5  BZF d   1      -1.252   0.191  -0.757  0.00  0.00    -0.016 A 
ATOM      7  C6  BZF d   1      -1.395  -1.175  -0.625  0.00  0.00     0.022 A 
ATOM      8  C7  BZF d   1      -1.864  -1.727   0.520  0.00  0.00     0.029 A 
ATOM      9  C7A BZF d   1      -2.212  -0.866   1.532  0.00  0.00     0.058 A 
ENDROOT
TORSDOF 0
ENDMDL
