MODEL 1
REMARK minimizedAffinity 6.8005228
REMARK minimizedRMSD -1
REMARK  0 active torsions:
REMARK  status: ('A' for Active; 'I' for Inactive)
ROOT
ATOM      1  O1  BZF d   1      -0.368  -1.158   0.139  0.00  0.00    -0.204 OA
ATOM      2  C2  BZF d   1      -0.522  -0.688  -1.151  0.00  0.00     0.174 A 
ATOM      3  C3  BZF d   1      -1.634   0.069  -1.254  0.00  0.00    -0.012 A 
ATOM      4  C3A BZF d   1      -2.159   0.149   0.075  0.00  0.00    -0.107 A 
ATOM      5  C4  BZF d   1      -3.244   0.775   0.619  0.00  0.00     0.055 A 
ATOM      6  C5  BZF d   1      -3.518   0.593   1.938  0.00  0.00    -0.016 A 
ATOM      7  C6  BZF d   1      -2.734  -0.212   2.738  0.00  0.00     0.022 A 
ATOM      8  C7  BZF d   1      -1.645  -0.850   2.244  0.00  0.00     0.029 A 
ATOM      9  C7A BZF d   1      -1.346  -0.641   0.920  0.00  0.00     0.058 A 
ENDROOT
TORSDOF 0
ENDMDL
