MODEL 1
REMARK minimizedAffinity -4.58614445
REMARK minimizedRMSD -1
REMARK  0 active torsions:
REMARK  status: ('A' for Active; 'I' for Inactive)
ROOT
ATOM      1  O1  BZF d   1      -4.645   4.804   2.290  0.00  0.00    -0.204 OA
ATOM      2  C2  BZF d   1      -5.097   5.813   3.119  0.00  0.00     0.174 A 
ATOM      3  C3  BZF d   1      -5.365   5.335   4.351  0.00  0.00    -0.012 A 
ATOM      4  C3A BZF d   1      -4.974   3.960   4.315  0.00  0.00    -0.107 A 
ATOM      5  C4  BZF d   1      -4.983   2.957   5.242  0.00  0.00     0.055 A 
ATOM      6  C5  BZF d   1      -4.603   1.707   4.866  0.00  0.00    -0.016 A 
ATOM      7  C6  BZF d   1      -4.214   1.424   3.573  0.00  0.00     0.022 A 
ATOM      8  C7  BZF d   1      -4.185   2.388   2.620  0.00  0.00     0.029 A 
ATOM      9  C7A BZF d   1      -4.537   3.658   3.005  0.00  0.00     0.058 A 
ENDROOT
TORSDOF 0
ENDMDL
