MODEL 1
REMARK minimizedAffinity 1.86863983
REMARK minimizedRMSD -1
REMARK  0 active torsions:
REMARK  status: ('A' for Active; 'I' for Inactive)
ROOT
ATOM      1  O1  BZF d   1      -4.216   5.266   5.333  0.00  0.00    -0.204 OA
ATOM      2  C2  BZF d   1      -2.969   4.673   5.303  0.00  0.00     0.174 A 
ATOM      3  C3  BZF d   1      -2.598   4.404   4.035  0.00  0.00    -0.012 A 
ATOM      4  C3A BZF d   1      -3.641   4.941   3.215  0.00  0.00    -0.107 A 
ATOM      5  C4  BZF d   1      -3.838   5.000   1.865  0.00  0.00     0.055 A 
ATOM      6  C5  BZF d   1      -4.997   5.527   1.390  0.00  0.00    -0.016 A 
ATOM      7  C6  BZF d   1      -5.980   5.999   2.234  0.00  0.00     0.022 A 
ATOM      8  C7  BZF d   1      -5.828   5.966   3.580  0.00  0.00     0.029 A 
ATOM      9  C7A BZF d   1      -4.644   5.464   4.063  0.00  0.00     0.058 A 
ENDROOT
TORSDOF 0
ENDMDL
