MODEL 1
REMARK minimizedAffinity 7.68212891
REMARK minimizedRMSD -1
REMARK  0 active torsions:
REMARK  status: ('A' for Active; 'I' for Inactive)
ROOT
ATOM      1  O1  BZF d   1      -5.201   5.718   4.023  0.00  0.00    -0.204 OA
ATOM      2  C2  BZF d   1      -4.378   4.801   4.648  0.00  0.00     0.174 A 
ATOM      3  C3  BZF d   1      -3.968   3.856   3.778  0.00  0.00    -0.012 A 
ATOM      4  C3A BZF d   1      -4.499   4.255   2.510  0.00  0.00    -0.107 A 
ATOM      5  C4  BZF d   1      -4.422   3.729   1.252  0.00  0.00     0.055 A 
ATOM      6  C5  BZF d   1      -5.114   4.323   0.245  0.00  0.00    -0.016 A 
ATOM      7  C6  BZF d   1      -5.896   5.439   0.460  0.00  0.00     0.022 A 
ATOM      8  C7  BZF d   1      -5.999   6.000   1.690  0.00  0.00     0.029 A 
ATOM      9  C7A BZF d   1      -5.275   5.422   2.703  0.00  0.00     0.058 A 
ENDROOT
TORSDOF 0
ENDMDL
