MODEL 1
REMARK minimizedAffinity 4.20256996
REMARK minimizedRMSD -1
REMARK  0 active torsions:
REMARK  status: ('A' for Active; 'I' for Inactive)
ROOT
ATOM      1  O1  BZF d   1       2.011   3.570   2.964  0.00  0.00    -0.204 OA
ATOM      2  C2  BZF d   1       3.374   3.759   2.849  0.00  0.00     0.174 A 
ATOM      3  C3  BZF d   1       4.048   2.805   3.525  0.00  0.00    -0.012 A 
ATOM      4  C3A BZF d   1       3.043   1.915   4.021  0.00  0.00    -0.107 A 
ATOM      5  C4  BZF d   1       3.088   0.765   4.755  0.00  0.00     0.055 A 
ATOM      6  C5  BZF d   1       1.922   0.179   5.136  0.00  0.00    -0.016 A 
ATOM      7  C6  BZF d   1       0.696   0.717   4.804  0.00  0.00     0.022 A 
ATOM      8  C7  BZF d   1       0.601   1.854   4.073  0.00  0.00     0.029 A 
ATOM      9  C7A BZF d   1       1.777   2.431   3.659  0.00  0.00     0.058 A 
ENDROOT
TORSDOF 0
ENDMDL
