MODEL 1
REMARK minimizedAffinity 2.20271707
REMARK minimizedRMSD -1
REMARK  0 active torsions:
REMARK  status: ('A' for Active; 'I' for Inactive)
ROOT
ATOM      1  O1  BZF d   1      -4.133   4.826   0.869  0.00  0.00    -0.204 OA
ATOM      2  C2  BZF d   1      -5.085   5.698   0.377  0.00  0.00     0.174 A 
ATOM      3  C3  BZF d   1      -5.993   6.000   1.327  0.00  0.00    -0.012 A 
ATOM      4  C3A BZF d   1      -5.531   5.344   2.511  0.00  0.00    -0.107 A 
ATOM      5  C4  BZF d   1      -6.000   5.280   3.792  0.00  0.00     0.055 A 
ATOM      6  C5  BZF d   1      -5.354   4.493   4.693  0.00  0.00    -0.016 A 
ATOM      7  C6  BZF d   1      -4.242   3.754   4.346  0.00  0.00     0.022 A 
ATOM      8  C7  BZF d   1      -3.737   3.790   3.089  0.00  0.00     0.029 A 
ATOM      9  C7A BZF d   1      -4.368   4.609   2.185  0.00  0.00     0.058 A 
ENDROOT
TORSDOF 0
ENDMDL
