MODEL 1
REMARK minimizedAffinity 5.46182585
REMARK minimizedRMSD -1
REMARK  0 active torsions:
REMARK  status: ('A' for Active; 'I' for Inactive)
ROOT
ATOM      1  O1  BZF d   1       1.990   2.718   1.462  0.00  0.00    -0.204 OA
ATOM      2  C2  BZF d   1       3.214   3.360   1.468  0.00  0.00     0.174 A 
ATOM      3  C3  BZF d   1       3.751   3.355   2.705  0.00  0.00    -0.012 A 
ATOM      4  C3A BZF d   1       2.846   2.587   3.505  0.00  0.00    -0.107 A 
ATOM      5  C4  BZF d   1       2.840   2.213   4.818  0.00  0.00     0.055 A 
ATOM      6  C5  BZF d   1       1.773   1.525   5.304  0.00  0.00    -0.016 A 
ATOM      7  C6  BZF d   1       0.695   1.201   4.507  0.00  0.00     0.022 A 
ATOM      8  C7  BZF d   1       0.658   1.546   3.197  0.00  0.00     0.029 A 
ATOM      9  C7A BZF d   1       1.749   2.212   2.695  0.00  0.00     0.058 A 
ENDROOT
TORSDOF 0
ENDMDL
