MODEL 1
REMARK minimizedAffinity -2.53442311
REMARK minimizedRMSD -1
REMARK  1 active torsions:
REMARK  status: ('A' for Active; 'I' for Inactive)
REMARK    1  A    between atoms: C1_2  and  C2_3 
ROOT
ATOM      1  C2  UNL d   1       0.578  -1.582  -0.839  0.00  0.00    -0.081 A 
ATOM      2  C3  UNL d   1       1.326  -0.559  -0.243  0.00  0.00     0.006 A 
ATOM      3  C4  UNL d   1       0.731   0.316   0.668  0.00  0.00     0.002 A 
ATOM      4  C5  UNL d   1      -0.620   0.179   1.005  0.00  0.00    -0.080 A 
ATOM      5  C6  UNL d   1      -1.264   1.092   2.005  0.00  0.00     0.076 C 
ATOM      6  C7  UNL d   1      -1.373  -0.832   0.397  0.00  0.00     0.002 A 
ATOM      7  C8  UNL d   1      -0.778  -1.707  -0.515  0.00  0.00     0.006 A 
ENDROOT
BRANCH   1   8
ATOM      8  C1  UNL d   1       1.233  -2.567  -1.773  0.00  0.00     0.054 C 
ATOM      9  C   UNL d   1       0.199  -3.434  -2.476  0.00  0.00     0.018 C 
ENDBRANCH   1   8
TORSDOF 1
ENDMDL
