MODEL 1
REMARK minimizedAffinity -5.09905052
REMARK minimizedRMSD -1
REMARK  1 active torsions:
REMARK  status: ('A' for Active; 'I' for Inactive)
REMARK    1  A    between atoms: C1_2  and  C2_3 
ROOT
ATOM      1  C2  UNL d   1       0.508  -1.600  -1.138  0.00  0.00    -0.081 A 
ATOM      2  C3  UNL d   1      -0.816  -1.659  -0.686  0.00  0.00     0.006 A 
ATOM      3  C4  UNL d   1      -1.258  -0.804   0.326  0.00  0.00     0.002 A 
ATOM      4  C5  UNL d   1      -0.386   0.129   0.898  0.00  0.00    -0.080 A 
ATOM      5  C6  UNL d   1      -0.856   1.074   1.964  0.00  0.00     0.076 C 
ATOM      6  C7  UNL d   1       0.941   0.177   0.458  0.00  0.00     0.002 A 
ATOM      7  C8  UNL d   1       1.384  -0.678  -0.553  0.00  0.00     0.006 A 
ENDROOT
BRANCH   1   8
ATOM      8  C1  UNL d   1       0.970  -2.476  -2.274  0.00  0.00     0.054 C 
ATOM      9  C   UNL d   1       0.065  -3.689  -2.441  0.00  0.00     0.018 C 
ENDBRANCH   1   8
TORSDOF 1
ENDMDL
