MODEL 1
REMARK minimizedAffinity -4.03047705
REMARK minimizedRMSD -1
REMARK  1 active torsions:
REMARK  status: ('A' for Active; 'I' for Inactive)
REMARK    1  A    between atoms: C1_2  and  C2_3 
ROOT
ATOM      1  C2  UNL d   1       0.481  -1.531  -0.993  0.00  0.00    -0.081 A 
ATOM      2  C3  UNL d   1       1.261  -0.659  -0.223  0.00  0.00     0.006 A 
ATOM      3  C4  UNL d   1       0.695   0.045   0.842  0.00  0.00     0.002 A 
ATOM      4  C5  UNL d   1      -0.657  -0.118   1.161  0.00  0.00    -0.080 A 
ATOM      5  C6  UNL d   1      -1.271   0.608   2.322  0.00  0.00     0.076 C 
ATOM      6  C7  UNL d   1      -1.441  -0.975   0.382  0.00  0.00     0.002 A 
ATOM      7  C8  UNL d   1      -0.875  -1.678  -0.684  0.00  0.00     0.006 A 
ENDROOT
BRANCH   1   8
ATOM      8  C1  UNL d   1       1.104  -2.339  -2.102  0.00  0.00     0.054 C 
ATOM      9  C   UNL d   1       0.221  -3.516  -2.492  0.00  0.00     0.018 C 
ENDBRANCH   1   8
TORSDOF 1
ENDMDL
