MODEL 1
REMARK minimizedAffinity -1.43124104
REMARK minimizedRMSD -1
REMARK  1 active torsions:
REMARK  status: ('A' for Active; 'I' for Inactive)
REMARK    1  A    between atoms: C1_2  and  C2_3 
ROOT
ATOM      1  C2  UNL d   1       0.026  -1.924  -0.841  0.00  0.00    -0.081 A 
ATOM      2  C3  UNL d   1       0.967  -0.967  -0.440  0.00  0.00     0.006 A 
ATOM      3  C4  UNL d   1       0.707  -0.128   0.646  0.00  0.00     0.002 A 
ATOM      4  C5  UNL d   1      -0.495  -0.237   1.354  0.00  0.00    -0.080 A 
ATOM      5  C6  UNL d   1      -0.775   0.637   2.540  0.00  0.00     0.076 C 
ATOM      6  C7  UNL d   1      -1.443  -1.180   0.943  0.00  0.00     0.002 A 
ATOM      7  C8  UNL d   1      -1.183  -2.019  -0.143  0.00  0.00     0.006 A 
ENDROOT
BRANCH   1   8
ATOM      8  C1  UNL d   1       0.332  -2.873  -1.971  0.00  0.00     0.054 C 
ATOM      9  C   UNL d   1       1.059  -4.113  -1.470  0.00  0.00     0.018 C 
ENDBRANCH   1   8
TORSDOF 1
ENDMDL
