MODEL 1
REMARK minimizedAffinity -1.2082417
REMARK minimizedRMSD -1
REMARK  1 active torsions:
REMARK  status: ('A' for Active; 'I' for Inactive)
REMARK    1  A    between atoms: C1_2  and  C2_3 
ROOT
ATOM      1  C2  UNL d   1       0.030  -1.280  -0.867  0.00  0.00    -0.081 A 
ATOM      2  C3  UNL d   1       0.765  -0.106  -0.661  0.00  0.00     0.006 A 
ATOM      3  C4  UNL d   1       0.480   0.728   0.423  0.00  0.00     0.002 A 
ATOM      4  C5  UNL d   1      -0.539   0.397   1.324  0.00  0.00    -0.080 A 
ATOM      5  C6  UNL d   1      -0.835   1.267   2.509  0.00  0.00     0.076 C 
ATOM      6  C7  UNL d   1      -1.284  -0.767   1.108  0.00  0.00     0.002 A 
ATOM      7  C8  UNL d   1      -1.000  -1.600   0.024  0.00  0.00     0.006 A 
ENDROOT
BRANCH   1   8
ATOM      8  C1  UNL d   1       0.378  -2.213  -1.998  0.00  0.00     0.054 C 
ATOM      9  C   UNL d   1       0.763  -3.591  -1.480  0.00  0.00     0.018 C 
ENDBRANCH   1   8
TORSDOF 1
ENDMDL
