MODEL 1
REMARK minimizedAffinity -4.38684988
REMARK minimizedRMSD -1
REMARK  1 active torsions:
REMARK  status: ('A' for Active; 'I' for Inactive)
REMARK    1  A    between atoms: C1_2  and  C2_3 
ROOT
ATOM      1  C2  UNL d   1       0.089  -0.315   0.130  0.00  0.00    -0.081 A 
ATOM      2  C3  UNL d   1      -0.903  -1.124  -0.438  0.00  0.00     0.006 A 
ATOM      3  C4  UNL d   1      -0.591  -2.001  -1.479  0.00  0.00     0.002 A 
ATOM      4  C5  UNL d   1       0.718  -2.090  -1.965  0.00  0.00    -0.080 A 
ATOM      5  C6  UNL d   1       1.072  -3.049  -3.062  0.00  0.00     0.076 C 
ATOM      6  C7  UNL d   1       1.705  -1.269  -1.410  0.00  0.00     0.002 A 
ATOM      7  C8  UNL d   1       1.394  -0.391  -0.369  0.00  0.00     0.006 A 
ENDROOT
BRANCH   1   8
ATOM      8  C1  UNL d   1      -0.230   0.585   1.296  0.00  0.00     0.054 C 
ATOM      9  C   UNL d   1      -1.174  -0.095   2.277  0.00  0.00     0.018 C 
ENDBRANCH   1   8
TORSDOF 1
ENDMDL
