MODEL 1
REMARK minimizedAffinity -3.71631837
REMARK minimizedRMSD -1
REMARK  1 active torsions:
REMARK  status: ('A' for Active; 'I' for Inactive)
REMARK    1  A    between atoms: C1_2  and  C2_3 
ROOT
ATOM      1  C2  UNL d   1       0.278  -1.429  -0.996  0.00  0.00    -0.081 A 
ATOM      2  C3  UNL d   1       0.989  -0.237  -0.815  0.00  0.00     0.006 A 
ATOM      3  C4  UNL d   1       0.569   0.702   0.130  0.00  0.00     0.002 A 
ATOM      4  C5  UNL d   1      -0.563   0.460   0.915  0.00  0.00    -0.080 A 
ATOM      5  C6  UNL d   1      -1.007   1.446   1.955  0.00  0.00     0.076 C 
ATOM      6  C7  UNL d   1      -1.284  -0.723   0.723  0.00  0.00     0.002 A 
ATOM      7  C8  UNL d   1      -0.865  -1.661  -0.223  0.00  0.00     0.006 A 
ENDROOT
BRANCH   1   8
ATOM      8  C1  UNL d   1       0.765  -2.472  -1.969  0.00  0.00     0.054 C 
ATOM      9  C   UNL d   1      -0.050  -3.753  -1.861  0.00  0.00     0.018 C 
ENDBRANCH   1   8
TORSDOF 1
ENDMDL
