MODEL 1
REMARK minimizedAffinity -4.36733532
REMARK minimizedRMSD -1
REMARK  1 active torsions:
REMARK  status: ('A' for Active; 'I' for Inactive)
REMARK    1  A    between atoms: C1_2  and  C2_3 
ROOT
ATOM      1  C2  UNL d   1       0.124  -1.512  -0.988  0.00  0.00    -0.081 A 
ATOM      2  C3  UNL d   1      -1.122  -1.510  -0.349  0.00  0.00     0.006 A 
ATOM      3  C4  UNL d   1      -1.417  -0.553   0.624  0.00  0.00     0.002 A 
ATOM      4  C5  UNL d   1      -0.475   0.423   0.969  0.00  0.00    -0.080 A 
ATOM      5  C6  UNL d   1      -0.791   1.475   1.990  0.00  0.00     0.076 C 
ATOM      6  C7  UNL d   1       0.776   0.410   0.343  0.00  0.00     0.002 A 
ATOM      7  C8  UNL d   1       1.072  -0.547  -0.630  0.00  0.00     0.006 A 
ENDROOT
BRANCH   1   8
ATOM      8  C1  UNL d   1       0.421  -2.503  -2.084  0.00  0.00     0.054 C 
ATOM      9  C   UNL d   1      -0.428  -3.758  -1.941  0.00  0.00     0.018 C 
ENDBRANCH   1   8
TORSDOF 1
ENDMDL
