MODEL 1
REMARK minimizedAffinity -5.10777855
REMARK minimizedRMSD -1
REMARK  1 active torsions:
REMARK  status: ('A' for Active; 'I' for Inactive)
REMARK    1  A    between atoms: C1_2  and  C2_3 
ROOT
ATOM      1  C2  UNL d   1      -0.562   0.418   1.021  0.00  0.00    -0.081 A 
ATOM      2  C3  UNL d   1       0.610   0.223   0.279  0.00  0.00     0.006 A 
ATOM      3  C4  UNL d   1       0.751  -0.898  -0.542  0.00  0.00     0.002 A 
ATOM      4  C5  UNL d   1      -0.279  -1.839  -0.641  0.00  0.00    -0.080 A 
ATOM      5  C6  UNL d   1      -0.153  -3.031  -1.542  0.00  0.00     0.076 C 
ATOM      6  C7  UNL d   1      -1.443  -1.654   0.113  0.00  0.00     0.002 A 
ATOM      7  C8  UNL d   1      -1.584  -0.533   0.935  0.00  0.00     0.006 A 
ENDROOT
BRANCH   1   8
ATOM      8  C1  UNL d   1      -0.743   1.659   1.857  0.00  0.00     0.054 C 
ATOM      9  C   UNL d   1      -0.752   2.912   0.993  0.00  0.00     0.018 C 
ENDBRANCH   1   8
TORSDOF 1
ENDMDL
