MODEL 1
REMARK minimizedAffinity -2.20779204
REMARK minimizedRMSD -1
REMARK  1 active torsions:
REMARK  status: ('A' for Active; 'I' for Inactive)
REMARK    1  A    between atoms: C1_2  and  C2_3 
ROOT
ATOM      1  C2  UNL d   1       0.025  -1.104  -1.002  0.00  0.00    -0.081 A 
ATOM      2  C3  UNL d   1       0.655   0.138  -0.866  0.00  0.00     0.006 A 
ATOM      3  C4  UNL d   1       0.386   0.953   0.236  0.00  0.00     0.002 A 
ATOM      4  C5  UNL d   1      -0.512   0.536   1.224  0.00  0.00    -0.080 A 
ATOM      5  C6  UNL d   1      -0.788   1.387   2.428  0.00  0.00     0.076 C 
ATOM      6  C7  UNL d   1      -1.156  -0.698   1.080  0.00  0.00     0.002 A 
ATOM      7  C8  UNL d   1      -0.887  -1.513  -0.023  0.00  0.00     0.006 A 
ENDROOT
BRANCH   1   8
ATOM      8  C1  UNL d   1       0.362  -2.013  -2.157  0.00  0.00     0.054 C 
ATOM      9  C   UNL d   1       0.353  -3.474  -1.731  0.00  0.00     0.018 C 
ENDBRANCH   1   8
TORSDOF 1
ENDMDL
