MODEL 1
REMARK minimizedAffinity -4.35848904
REMARK minimizedRMSD -1
REMARK  1 active torsions:
REMARK  status: ('A' for Active; 'I' for Inactive)
REMARK    1  A    between atoms: C1_2  and  C2_3 
ROOT
ATOM      1  C2  UNL d   1       0.684  -1.720  -1.118  0.00  0.00    -0.081 A 
ATOM      2  C3  UNL d   1       1.530  -0.717  -0.629  0.00  0.00     0.006 A 
ATOM      3  C4  UNL d   1       1.063   0.210   0.306  0.00  0.00     0.002 A 
ATOM      4  C5  UNL d   1      -0.254   0.145   0.773  0.00  0.00    -0.080 A 
ATOM      5  C6  UNL d   1      -0.759   1.115   1.800  0.00  0.00     0.076 C 
ATOM      6  C7  UNL d   1      -1.104  -0.846   0.272  0.00  0.00     0.002 A 
ATOM      7  C8  UNL d   1      -0.638  -1.773  -0.664  0.00  0.00     0.006 A 
ENDROOT
BRANCH   1   8
ATOM      8  C1  UNL d   1       1.203  -2.760  -2.077  0.00  0.00     0.054 C 
ATOM      9  C   UNL d   1       0.286  -2.908  -3.283  0.00  0.00     0.018 C 
ENDBRANCH   1   8
TORSDOF 1
ENDMDL
