MODEL 1
REMARK minimizedAffinity -3.85543203
REMARK minimizedRMSD -1
REMARK  1 active torsions:
REMARK  status: ('A' for Active; 'I' for Inactive)
REMARK    1  A    between atoms: C1_2  and  C2_3 
ROOT
ATOM      1  C2  UNL d   1      -0.227   0.570   0.339  0.00  0.00    -0.081 A 
ATOM      2  C3  UNL d   1       0.329   1.398  -0.644  0.00  0.00     0.006 A 
ATOM      3  C4  UNL d   1       0.329   2.785  -0.484  0.00  0.00     0.002 A 
ATOM      4  C5  UNL d   1      -0.220   3.367   0.664  0.00  0.00    -0.080 A 
ATOM      5  C6  UNL d   1      -0.199   4.854   0.862  0.00  0.00     0.076 C 
ATOM      6  C7  UNL d   1      -0.791   2.541   1.638  0.00  0.00     0.002 A 
ATOM      7  C8  UNL d   1      -0.792   1.154   1.478  0.00  0.00     0.006 A 
ENDROOT
BRANCH   1   8
ATOM      8  C1  UNL d   1      -0.170  -0.930   0.200  0.00  0.00     0.054 C 
ATOM      9  C   UNL d   1       0.966  -1.358  -0.718  0.00  0.00     0.018 C 
ENDBRANCH   1   8
TORSDOF 1
ENDMDL
