MODEL 1
REMARK minimizedAffinity -3.86596274
REMARK minimizedRMSD -1
REMARK  1 active torsions:
REMARK  status: ('A' for Active; 'I' for Inactive)
REMARK    1  A    between atoms: C1_2  and  C2_3 
ROOT
ATOM      1  C2  UNL d   1      -0.066  -1.794  -1.516  0.00  0.00    -0.081 A 
ATOM      2  C3  UNL d   1       1.104  -1.230  -0.992  0.00  0.00     0.006 A 
ATOM      3  C4  UNL d   1       1.038  -0.312   0.059  0.00  0.00     0.002 A 
ATOM      4  C5  UNL d   1      -0.196   0.051   0.608  0.00  0.00    -0.080 A 
ATOM      5  C6  UNL d   1      -0.278   1.012   1.757  0.00  0.00     0.076 C 
ATOM      6  C7  UNL d   1      -1.366  -0.500   0.074  0.00  0.00     0.002 A 
ATOM      7  C8  UNL d   1      -1.301  -1.417  -0.977  0.00  0.00     0.006 A 
ENDROOT
BRANCH   1   8
ATOM      8  C1  UNL d   1       0.006  -2.833  -2.605  0.00  0.00     0.054 C 
ATOM      9  C   UNL d   1      -0.807  -4.069  -2.246  0.00  0.00     0.018 C 
ENDBRANCH   1   8
TORSDOF 1
ENDMDL
