MODEL 1
REMARK minimizedAffinity -1.71262896
REMARK minimizedRMSD -1
REMARK  1 active torsions:
REMARK  status: ('A' for Active; 'I' for Inactive)
REMARK    1  A    between atoms: C1_2  and  C2_3 
ROOT
ATOM      1  C2  UNL d   1      -0.067  -1.567  -0.815  0.00  0.00    -0.081 A 
ATOM      2  C3  UNL d   1       1.020  -1.125  -0.051  0.00  0.00     0.006 A 
ATOM      3  C4  UNL d   1       0.883  -0.034   0.811  0.00  0.00     0.002 A 
ATOM      4  C5  UNL d   1      -0.344   0.626   0.931  0.00  0.00    -0.080 A 
ATOM      5  C6  UNL d   1      -0.512   1.779   1.875  0.00  0.00     0.076 C 
ATOM      6  C7  UNL d   1      -1.425   0.196   0.155  0.00  0.00     0.002 A 
ATOM      7  C8  UNL d   1      -1.289  -0.894  -0.708  0.00  0.00     0.006 A 
ENDROOT
BRANCH   1   8
ATOM      8  C1  UNL d   1       0.060  -2.783  -1.697  0.00  0.00     0.054 C 
ATOM      9  C   UNL d   1       1.126  -3.735  -1.176  0.00  0.00     0.018 C 
ENDBRANCH   1   8
TORSDOF 1
ENDMDL
