MODEL 1
REMARK minimizedAffinity 10.7410154
REMARK minimizedRMSD -1
REMARK  1 active torsions:
REMARK  status: ('A' for Active; 'I' for Inactive)
REMARK    1  A    between atoms: N_2  and  C1_3 
ROOT
ATOM      1  C1  UNL d   1       3.540   3.323   3.546  0.00  0.00     0.143 A 
ATOM      2  C2  UNL d   1       4.344   3.108   2.421  0.00  0.00    -0.057 A 
ATOM      3  C3  UNL d   1       5.567   3.771   2.266  0.00  0.00     0.033 A 
ATOM      4  C4  UNL d   1       5.997   4.684   3.223  0.00  0.00    -0.042 A 
ATOM      5  C5  UNL d   1       5.203   4.932   4.337  0.00  0.00     0.033 A 
ATOM      6  C6  UNL d   1       3.985   4.262   4.489  0.00  0.00    -0.057 A 
ENDROOT
BRANCH   1   7
ATOM      7  N   UNL d   1       2.268   2.770   3.710  0.00  0.00    -0.732 N 
ATOM      8  C   UNL d   1       1.360   2.663   2.588  0.00  0.00     0.284 C 
ATOM      9  H3  UNL d   1       2.274   1.954   4.318  0.00  0.00     0.395 HD
ENDBRANCH   1   7
TORSDOF 1
ENDMDL
