MODEL 1
REMARK minimizedAffinity 6.74335957
REMARK minimizedRMSD -1
REMARK  1 active torsions:
REMARK  status: ('A' for Active; 'I' for Inactive)
REMARK    1  A    between atoms: N_2  and  C1_3 
ROOT
ATOM      1  C1  UNL d   1       4.076   4.497   3.397  0.00  0.00     0.143 A 
ATOM      2  C2  UNL d   1       2.719   4.158   3.369  0.00  0.00    -0.057 A 
ATOM      3  C3  UNL d   1       2.284   2.878   3.732  0.00  0.00     0.033 A 
ATOM      4  C4  UNL d   1       3.204   1.902   4.102  0.00  0.00    -0.042 A 
ATOM      5  C5  UNL d   1       4.559   2.210   4.112  0.00  0.00     0.033 A 
ATOM      6  C6  UNL d   1       4.988   3.492   3.756  0.00  0.00    -0.057 A 
ENDROOT
BRANCH   1   7
ATOM      7  N   UNL d   1       4.580   5.722   2.953  0.00  0.00    -0.732 N 
ATOM      8  C   UNL d   1       6.000   6.000   3.011  0.00  0.00     0.284 C 
ATOM      9  H3  UNL d   1       4.129   6.042   2.100  0.00  0.00     0.395 HD
ENDBRANCH   1   7
TORSDOF 1
ENDMDL
