MODEL 1
REMARK minimizedAffinity 4.40603256
REMARK minimizedRMSD -1
REMARK  1 active torsions:
REMARK  status: ('A' for Active; 'I' for Inactive)
REMARK    1  A    between atoms: N_2  and  C1_3 
ROOT
ATOM      1  C1  UNL d   1       5.992   3.540   3.415  0.00  0.00     0.143 A 
ATOM      2  C2  UNL d   1       5.980   4.779   2.765  0.00  0.00    -0.057 A 
ATOM      3  C3  UNL d   1       5.998   5.978   3.488  0.00  0.00     0.033 A 
ATOM      4  C4  UNL d   1       6.000   5.958   4.879  0.00  0.00    -0.042 A 
ATOM      5  C5  UNL d   1       5.986   4.738   5.546  0.00  0.00     0.033 A 
ATOM      6  C6  UNL d   1       5.974   3.544   4.818  0.00  0.00    -0.057 A 
ENDROOT
BRANCH   1   7
ATOM      7  N   UNL d   1       5.875   2.314   2.754  0.00  0.00    -0.732 N 
ATOM      8  C   UNL d   1       4.875   2.124   1.725  0.00  0.00     0.284 C 
ATOM      9  H3  UNL d   1       6.779   1.902   2.536  0.00  0.00     0.395 HD
ENDBRANCH   1   7
TORSDOF 1
ENDMDL
