MODEL 1
REMARK minimizedAffinity 7.88215542
REMARK minimizedRMSD -1
REMARK  1 active torsions:
REMARK  status: ('A' for Active; 'I' for Inactive)
REMARK    1  A    between atoms: N_2  and  C1_3 
ROOT
ATOM      1  C1  UNL d   1       5.255   0.623   3.461  0.00  0.00     0.143 A 
ATOM      2  C2  UNL d   1       5.711   1.409   4.525  0.00  0.00    -0.057 A 
ATOM      3  C3  UNL d   1       5.997   0.846   5.774  0.00  0.00     0.033 A 
ATOM      4  C4  UNL d   1       5.803  -0.514   5.991  0.00  0.00    -0.042 A 
ATOM      5  C5  UNL d   1       5.326  -1.311   4.956  0.00  0.00     0.033 A 
ATOM      6  C6  UNL d   1       5.049  -0.743   3.709  0.00  0.00    -0.057 A 
ENDROOT
BRANCH   1   7
ATOM      7  N   UNL d   1       4.860   1.140   2.225  0.00  0.00    -0.732 N 
ATOM      8  C   UNL d   1       4.842   0.300   1.047  0.00  0.00     0.284 C 
ATOM      9  H3  UNL d   1       4.060   1.764   2.303  0.00  0.00     0.395 HD
ENDBRANCH   1   7
TORSDOF 1
ENDMDL
