MODEL 1
REMARK minimizedAffinity 1.58421266
REMARK minimizedRMSD -1
REMARK  1 active torsions:
REMARK  status: ('A' for Active; 'I' for Inactive)
REMARK    1  A    between atoms: N_2  and  C1_3 
ROOT
ATOM      1  C1  UNL d   1       6.000   3.559   3.886  0.00  0.00     0.143 A 
ATOM      2  C2  UNL d   1       5.994   2.409   4.682  0.00  0.00    -0.057 A 
ATOM      3  C3  UNL d   1       5.982   1.130   4.111  0.00  0.00     0.033 A 
ATOM      4  C4  UNL d   1       5.946   0.979   2.729  0.00  0.00    -0.042 A 
ATOM      5  C5  UNL d   1       5.926   2.109   1.918  0.00  0.00     0.033 A 
ATOM      6  C6  UNL d   1       5.945   3.383   2.494  0.00  0.00    -0.057 A 
ENDROOT
BRANCH   1   7
ATOM      7  N   UNL d   1       5.912   4.857   4.394  0.00  0.00    -0.732 N 
ATOM      8  C   UNL d   1       5.949   6.000   3.507  0.00  0.00     0.284 C 
ATOM      9  H3  UNL d   1       5.230   4.935   5.144  0.00  0.00     0.395 HD
ENDBRANCH   1   7
TORSDOF 1
ENDMDL
