MODEL 1
REMARK minimizedAffinity 2.02177119
REMARK minimizedRMSD -1
REMARK  1 active torsions:
REMARK  status: ('A' for Active; 'I' for Inactive)
REMARK    1  A    between atoms: N_2  and  C1_3 
ROOT
ATOM      1  C1  UNL d   1      -1.369  -2.970   0.312  0.00  0.00     0.143 A 
ATOM      2  C2  UNL d   1      -0.745  -4.123   0.800  0.00  0.00    -0.057 A 
ATOM      3  C3  UNL d   1      -1.446  -5.329   0.927  0.00  0.00     0.033 A 
ATOM      4  C4  UNL d   1      -2.795  -5.395   0.594  0.00  0.00    -0.042 A 
ATOM      5  C5  UNL d   1      -3.442  -4.254   0.132  0.00  0.00     0.033 A 
ATOM      6  C6  UNL d   1      -2.735  -3.055   0.001  0.00  0.00    -0.057 A 
ENDROOT
BRANCH   1   7
ATOM      7  N   UNL d   1      -0.753  -1.717   0.256  0.00  0.00    -0.732 N 
ATOM      8  C   UNL d   1      -0.501  -1.076  -1.017  0.00  0.00     0.284 C 
ATOM      9  H3  UNL d   1      -1.089  -1.086   0.980  0.00  0.00     0.395 HD
ENDBRANCH   1   7
TORSDOF 1
ENDMDL
