MODEL 1
REMARK minimizedAffinity 9.78979588
REMARK minimizedRMSD -1
REMARK  1 active torsions:
REMARK  status: ('A' for Active; 'I' for Inactive)
REMARK    1  A    between atoms: N_2  and  C1_3 
ROOT
ATOM      1  C1  UNL d   1       4.226   1.728  -3.466  0.00  0.00     0.143 A 
ATOM      2  C2  UNL d   1       5.583   1.889  -3.765  0.00  0.00    -0.057 A 
ATOM      3  C3  UNL d   1       5.999   2.367  -5.014  0.00  0.00     0.033 A 
ATOM      4  C4  UNL d   1       5.062   2.665  -5.998  0.00  0.00    -0.042 A 
ATOM      5  C5  UNL d   1       3.709   2.489  -5.731  0.00  0.00     0.033 A 
ATOM      6  C6  UNL d   1       3.300   2.018  -4.480  0.00  0.00    -0.057 A 
ENDROOT
BRANCH   1   7
ATOM      7  N   UNL d   1       3.753   1.164  -2.278  0.00  0.00    -0.732 N 
ATOM      8  C   UNL d   1       2.725   0.146  -2.303  0.00  0.00     0.284 C 
ATOM      9  H3  UNL d   1       4.499   0.986  -1.609  0.00  0.00     0.395 HD
ENDBRANCH   1   7
TORSDOF 1
ENDMDL
