MODEL 1
REMARK minimizedAffinity 10.0975542
REMARK minimizedRMSD -1
REMARK  1 active torsions:
REMARK  status: ('A' for Active; 'I' for Inactive)
REMARK    1  A    between atoms: N_2  and  C1_3 
ROOT
ATOM      1  C1  UNL d   1       0.200   1.118   0.953  0.00  0.00     0.143 A 
ATOM      2  C2  UNL d   1       1.523   1.442   0.632  0.00  0.00    -0.057 A 
ATOM      3  C3  UNL d   1       2.028   2.730   0.848  0.00  0.00     0.033 A 
ATOM      4  C4  UNL d   1       1.207   3.728   1.362  0.00  0.00    -0.042 A 
ATOM      5  C5  UNL d   1      -0.118   3.435   1.665  0.00  0.00     0.033 A 
ATOM      6  C6  UNL d   1      -0.614   2.145   1.454  0.00  0.00    -0.057 A 
ENDROOT
BRANCH   1   7
ATOM      7  N   UNL d   1      -0.388  -0.117   0.670  0.00  0.00    -0.732 N 
ATOM      8  C   UNL d   1      -0.307  -0.686  -0.658  0.00  0.00     0.284 C 
ATOM      9  H3  UNL d   1      -0.255  -0.792   1.420  0.00  0.00     0.395 HD
ENDBRANCH   1   7
TORSDOF 1
ENDMDL
