MODEL 1
REMARK minimizedAffinity 4.20487261
REMARK minimizedRMSD -1
REMARK  1 active torsions:
REMARK  status: ('A' for Active; 'I' for Inactive)
REMARK    1  A    between atoms: N_2  and  C1_3 
ROOT
ATOM      1  C1  UNL d   1       5.915   4.801   3.857  0.00  0.00     0.143 A 
ATOM      2  C2  UNL d   1       5.954   5.996   3.131  0.00  0.00    -0.057 A 
ATOM      3  C3  UNL d   1       5.981   5.995   1.731  0.00  0.00     0.033 A 
ATOM      4  C4  UNL d   1       5.999   4.793   1.031  0.00  0.00    -0.042 A 
ATOM      5  C5  UNL d   1       5.987   3.593   1.733  0.00  0.00     0.033 A 
ATOM      6  C6  UNL d   1       5.953   3.601   3.130  0.00  0.00    -0.057 A 
ENDROOT
BRANCH   1   7
ATOM      7  N   UNL d   1       5.986   4.735   5.251  0.00  0.00    -0.732 N 
ATOM      8  C   UNL d   1       5.970   3.457   5.930  0.00  0.00     0.284 C 
ATOM      9  H3  UNL d   1       6.649   5.403   5.638  0.00  0.00     0.395 HD
ENDBRANCH   1   7
TORSDOF 1
ENDMDL
