MODEL 1
REMARK minimizedAffinity 1.53600872
REMARK minimizedRMSD -1
REMARK  1 active torsions:
REMARK  status: ('A' for Active; 'I' for Inactive)
REMARK    1  A    between atoms: N_2  and  C1_3 
ROOT
ATOM      1  C1  UNL d   1       1.721   1.134   0.484  0.00  0.00     0.143 A 
ATOM      2  C2  UNL d   1       0.647   0.239   0.434  0.00  0.00    -0.057 A 
ATOM      3  C3  UNL d   1       0.703  -0.918  -0.353  0.00  0.00     0.033 A 
ATOM      4  C4  UNL d   1       1.827  -1.186  -1.128  0.00  0.00    -0.042 A 
ATOM      5  C5  UNL d   1       2.896  -0.298  -1.112  0.00  0.00     0.033 A 
ATOM      6  C6  UNL d   1       2.837   0.853  -0.320  0.00  0.00    -0.057 A 
ENDROOT
BRANCH   1   7
ATOM      7  N   UNL d   1       1.688   2.351   1.169  0.00  0.00    -0.732 N 
ATOM      8  C   UNL d   1       0.426   2.993   1.470  0.00  0.00     0.284 C 
ATOM      9  H3  UNL d   1       2.365   2.388   1.928  0.00  0.00     0.395 HD
ENDBRANCH   1   7
TORSDOF 1
ENDMDL
