MODEL 1
REMARK minimizedAffinity 8.23798847
REMARK minimizedRMSD -1
REMARK  1 active torsions:
REMARK  status: ('A' for Active; 'I' for Inactive)
REMARK    1  A    between atoms: N_2  and  C1_3 
ROOT
ATOM      1  C1  UNL d   1       3.960  -5.964   2.504  0.00  0.00     0.143 A 
ATOM      2  C2  UNL d   1       3.100  -5.998   3.607  0.00  0.00    -0.057 A 
ATOM      3  C3  UNL d   1       1.714  -5.874   3.450  0.00  0.00     0.033 A 
ATOM      4  C4  UNL d   1       1.165  -5.683   2.187  0.00  0.00    -0.042 A 
ATOM      5  C5  UNL d   1       2.003  -5.621   1.079  0.00  0.00     0.033 A 
ATOM      6  C6  UNL d   1       3.386  -5.753   1.241  0.00  0.00    -0.057 A 
ENDROOT
BRANCH   1   7
ATOM      7  N   UNL d   1       5.353  -5.984   2.605  0.00  0.00    -0.732 N 
ATOM      8  C   UNL d   1       5.999  -5.997   3.899  0.00  0.00     0.284 C 
ATOM      9  H3  UNL d   1       5.784  -6.600   1.919  0.00  0.00     0.395 HD
ENDBRANCH   1   7
TORSDOF 1
ENDMDL
