MODEL 1
REMARK minimizedAffinity 12.8982058
REMARK minimizedRMSD -1
REMARK  1 active torsions:
REMARK  status: ('A' for Active; 'I' for Inactive)
REMARK    1  A    between atoms: N_2  and  C1_3 
ROOT
ATOM      1  C1  UNL d   1       3.830   3.105  -5.282  0.00  0.00     0.143 A 
ATOM      2  C2  UNL d   1       3.805   2.874  -3.902  0.00  0.00    -0.057 A 
ATOM      3  C3  UNL d   1       4.868   2.232  -3.254  0.00  0.00     0.033 A 
ATOM      4  C4  UNL d   1       5.965   1.782  -3.982  0.00  0.00    -0.042 A 
ATOM      5  C5  UNL d   1       6.000   1.979  -5.358  0.00  0.00     0.033 A 
ATOM      6  C6  UNL d   1       4.939   2.626  -5.998  0.00  0.00    -0.057 A 
ENDROOT
BRANCH   1   7
ATOM      7  N   UNL d   1       2.762   3.649  -5.999  0.00  0.00    -0.732 N 
ATOM      8  C   UNL d   1       2.525   5.077  -5.999  0.00  0.00     0.284 C 
ATOM      9  H3  UNL d   1       2.638   3.207  -6.907  0.00  0.00     0.395 HD
ENDBRANCH   1   7
TORSDOF 1
ENDMDL
