MODEL 1
REMARK minimizedAffinity 9.12123585
REMARK minimizedRMSD -1
REMARK  0 active torsions:
REMARK  status: ('A' for Active; 'I' for Inactive)
ROOT
ATOM      1  O1  BZF d   1       3.088   1.484   2.315  0.00  0.00    -0.204 OA
ATOM      2  C2  BZF d   1       2.649   2.151   1.188  0.00  0.00     0.174 A 
ATOM      3  C3  BZF d   1       1.747   1.410   0.513  0.00  0.00    -0.012 A 
ATOM      4  C3A BZF d   1       1.545   0.242   1.315  0.00  0.00    -0.107 A 
ATOM      5  C4  BZF d   1       0.752  -0.862   1.183  0.00  0.00     0.055 A 
ATOM      6  C5  BZF d   1       0.844  -1.856   2.106  0.00  0.00    -0.016 A 
ATOM      7  C6  BZF d   1       1.721  -1.781   3.168  0.00  0.00     0.022 A 
ATOM      8  C7  BZF d   1       2.523  -0.703   3.344  0.00  0.00     0.029 A 
ATOM      9  C7A BZF d   1       2.409   0.317   2.432  0.00  0.00     0.058 A 
ENDROOT
TORSDOF 0
ENDMDL
