MODEL 1
REMARK minimizedAffinity 0.709219813
REMARK minimizedRMSD -1
REMARK  0 active torsions:
REMARK  status: ('A' for Active; 'I' for Inactive)
ROOT
ATOM      1  O1  BZF d   1      -0.930  -0.011   0.539  0.00  0.00    -0.204 OA
ATOM      2  C2  BZF d   1      -0.860  -1.308   1.010  0.00  0.00     0.174 A 
ATOM      3  C3  BZF d   1       0.393  -1.603   1.414  0.00  0.00    -0.012 A 
ATOM      4  C3A BZF d   1       1.131  -0.386   1.267  0.00  0.00    -0.107 A 
ATOM      5  C4  BZF d   1       2.428  -0.039   1.521  0.00  0.00     0.055 A 
ATOM      6  C5  BZF d   1       2.851   1.212   1.198  0.00  0.00    -0.016 A 
ATOM      7  C6  BZF d   1       2.008   2.137   0.618  0.00  0.00     0.022 A 
ATOM      8  C7  BZF d   1       0.713   1.840   0.352  0.00  0.00     0.029 A 
ATOM      9  C7A BZF d   1       0.273   0.588   0.707  0.00  0.00     0.058 A 
ENDROOT
TORSDOF 0
ENDMDL
