MODEL 1
REMARK minimizedAffinity 8.25135231
REMARK minimizedRMSD -1
REMARK  0 active torsions:
REMARK  status: ('A' for Active; 'I' for Inactive)
ROOT
ATOM      1  O1  BZF d   1      -1.184   1.251   1.128  0.00  0.00    -0.204 OA
ATOM      2  C2  BZF d   1      -1.836   0.043   1.285  0.00  0.00     0.174 A 
ATOM      3  C3  BZF d   1      -0.949  -0.965   1.415  0.00  0.00    -0.012 A 
ATOM      4  C3A BZF d   1       0.336  -0.337   1.427  0.00  0.00    -0.107 A 
ATOM      5  C4  BZF d   1       1.611  -0.810   1.547  0.00  0.00     0.055 A 
ATOM      6  C5  BZF d   1       2.651   0.060   1.447  0.00  0.00    -0.016 A 
ATOM      7  C6  BZF d   1       2.452   1.406   1.222  0.00  0.00     0.022 A 
ATOM      8  C7  BZF d   1       1.205   1.923   1.101  0.00  0.00     0.029 A 
ATOM      9  C7A BZF d   1       0.151   1.052   1.235  0.00  0.00     0.058 A 
ENDROOT
TORSDOF 0
ENDMDL
