MODEL 1
REMARK minimizedAffinity 0.545131862
REMARK minimizedRMSD -1
REMARK  0 active torsions:
REMARK  status: ('A' for Active; 'I' for Inactive)
ROOT
ATOM      1  O1  BZF d   1       3.039   1.693   1.275  0.00  0.00    -0.204 OA
ATOM      2  C2  BZF d   1       2.592   2.463   0.218  0.00  0.00     0.174 A 
ATOM      3  C3  BZF d   1       1.475   1.933  -0.321  0.00  0.00    -0.012 A 
ATOM      4  C3A BZF d   1       1.156   0.808   0.505  0.00  0.00    -0.107 A 
ATOM      5  C4  BZF d   1       0.148  -0.113   0.488  0.00  0.00     0.055 A 
ATOM      6  C5  BZF d   1       0.166  -1.128   1.391  0.00  0.00    -0.016 A 
ATOM      7  C6  BZF d   1       1.177  -1.255   2.320  0.00  0.00     0.022 A 
ATOM      8  C7  BZF d   1       2.196  -0.364   2.379  0.00  0.00     0.029 A 
ATOM      9  C7A BZF d   1       2.164   0.682   1.489  0.00  0.00     0.058 A 
ENDROOT
TORSDOF 0
ENDMDL
