MODEL 1
REMARK minimizedAffinity 1.88966572
REMARK minimizedRMSD -1
REMARK  0 active torsions:
REMARK  status: ('A' for Active; 'I' for Inactive)
ROOT
ATOM      1  O1  BZF d   1       0.547  -1.980  -3.311  0.00  0.00    -0.204 OA
ATOM      2  C2  BZF d   1       1.874  -1.688  -3.066  0.00  0.00     0.174 A 
ATOM      3  C3  BZF d   1       2.053  -1.319  -1.781  0.00  0.00    -0.012 A 
ATOM      4  C3A BZF d   1       0.772  -1.474  -1.163  0.00  0.00    -0.107 A 
ATOM      5  C4  BZF d   1       0.313  -1.279   0.108  0.00  0.00     0.055 A 
ATOM      6  C5  BZF d   1      -1.010  -1.450   0.367  0.00  0.00    -0.016 A 
ATOM      7  C6  BZF d   1      -1.902  -1.811  -0.622  0.00  0.00     0.022 A 
ATOM      8  C7  BZF d   1      -1.493  -2.021  -1.897  0.00  0.00     0.029 A 
ATOM      9  C7A BZF d   1      -0.151  -1.880  -2.154  0.00  0.00     0.058 A 
ENDROOT
TORSDOF 0
ENDMDL
