MODEL 1
REMARK minimizedAffinity 10.4408665
REMARK minimizedRMSD -1
REMARK  0 active torsions:
REMARK  status: ('A' for Active; 'I' for Inactive)
ROOT
ATOM      1  O1  BZF d   1       0.377  -2.308   1.536  0.00  0.00    -0.204 OA
ATOM      2  C2  BZF d   1       0.537  -3.243   2.540  0.00  0.00     0.174 A 
ATOM      3  C3  BZF d   1       1.509  -2.865   3.396  0.00  0.00    -0.012 A 
ATOM      4  C3A BZF d   1       1.922  -1.570   2.947  0.00  0.00    -0.107 A 
ATOM      5  C4  BZF d   1       2.845  -0.671   3.398  0.00  0.00     0.055 A 
ATOM      6  C5  BZF d   1       3.056   0.470   2.691  0.00  0.00    -0.016 A 
ATOM      7  C6  BZF d   1       2.367   0.741   1.527  0.00  0.00     0.022 A 
ATOM      8  C7  BZF d   1       1.437  -0.118   1.043  0.00  0.00     0.029 A 
ATOM      9  C7A BZF d   1       1.198  -1.257   1.774  0.00  0.00     0.058 A 
ENDROOT
TORSDOF 0
ENDMDL
