MODEL 1
REMARK minimizedAffinity 2.27355123
REMARK minimizedRMSD -1
REMARK  0 active torsions:
REMARK  status: ('A' for Active; 'I' for Inactive)
ROOT
ATOM      1  O1  BZF d   1       3.768   5.999  -5.147  0.00  0.00    -0.204 OA
ATOM      2  C2  BZF d   1       5.004   5.980  -5.765  0.00  0.00     0.174 A 
ATOM      3  C3  BZF d   1       5.996   5.999  -4.851  0.00  0.00    -0.012 A 
ATOM      4  C3A BZF d   1       5.339   5.939  -3.581  0.00  0.00    -0.107 A 
ATOM      5  C4  BZF d   1       5.788   5.910  -2.292  0.00  0.00     0.055 A 
ATOM      6  C5  BZF d   1       4.884   5.925  -1.277  0.00  0.00    -0.016 A 
ATOM      7  C6  BZF d   1       3.526   5.974  -1.515  0.00  0.00     0.022 A 
ATOM      8  C7  BZF d   1       3.033   5.999  -2.777  0.00  0.00     0.029 A 
ATOM      9  C7A BZF d   1       3.943   5.950  -3.805  0.00  0.00     0.058 A 
ENDROOT
TORSDOF 0
ENDMDL
