MODEL 1
REMARK minimizedAffinity 6.89384556
REMARK minimizedRMSD -1
REMARK  0 active torsions:
REMARK  status: ('A' for Active; 'I' for Inactive)
ROOT
ATOM      1  O1  BZF d   1       3.232   1.767   1.366  0.00  0.00    -0.204 OA
ATOM      2  C2  BZF d   1       2.651   2.604   0.434  0.00  0.00     0.174 A 
ATOM      3  C3  BZF d   1       1.465   2.111   0.023  0.00  0.00    -0.012 A 
ATOM      4  C3A BZF d   1       1.252   0.936   0.812  0.00  0.00    -0.107 A 
ATOM      5  C4  BZF d   1       0.241   0.020   0.877  0.00  0.00     0.055 A 
ATOM      6  C5  BZF d   1       0.374  -1.052   1.703  0.00  0.00    -0.016 A 
ATOM      7  C6  BZF d   1       1.503  -1.240   2.472  0.00  0.00     0.022 A 
ATOM      8  C7  BZF d   1       2.530  -0.355   2.444  0.00  0.00     0.029 A 
ATOM      9  C7A BZF d   1       2.384   0.745   1.636  0.00  0.00     0.058 A 
ENDROOT
TORSDOF 0
ENDMDL
