MODEL 1
REMARK minimizedAffinity 2.79477286
REMARK minimizedRMSD -1
REMARK  0 active torsions:
REMARK  status: ('A' for Active; 'I' for Inactive)
ROOT
ATOM      1  O1  BZF d   1       2.579  -0.753   2.372  0.00  0.00    -0.204 OA
ATOM      2  C2  BZF d   1       1.367  -0.412   1.803  0.00  0.00     0.174 A 
ATOM      3  C3  BZF d   1       0.427  -1.336   2.088  0.00  0.00    -0.012 A 
ATOM      4  C3A BZF d   1       1.070  -2.269   2.962  0.00  0.00    -0.107 A 
ATOM      5  C4  BZF d   1       0.649  -3.402   3.599  0.00  0.00     0.055 A 
ATOM      6  C5  BZF d   1       1.545  -4.125   4.321  0.00  0.00    -0.016 A 
ATOM      7  C6  BZF d   1       2.868  -3.747   4.423  0.00  0.00     0.022 A 
ATOM      8  C7  BZF d   1       3.331  -2.629   3.813  0.00  0.00     0.029 A 
ATOM      9  C7A BZF d   1       2.421  -1.879   3.110  0.00  0.00     0.058 A 
ENDROOT
TORSDOF 0
ENDMDL
