MODEL 1
REMARK minimizedAffinity 0.763836503
REMARK minimizedRMSD -1
REMARK  0 active torsions:
REMARK  status: ('A' for Active; 'I' for Inactive)
ROOT
ATOM      1  O1  BZF d   1       1.562   1.248   1.908  0.00  0.00    -0.204 OA
ATOM      2  C2  BZF d   1       2.324   1.367   3.054  0.00  0.00     0.174 A 
ATOM      3  C3  BZF d   1       2.347   0.203   3.735  0.00  0.00    -0.012 A 
ATOM      4  C3A BZF d   1       1.626  -0.725   2.920  0.00  0.00    -0.107 A 
ATOM      5  C4  BZF d   1       1.320  -2.049   3.051  0.00  0.00     0.055 A 
ATOM      6  C5  BZF d   1       0.537  -2.643   2.112  0.00  0.00    -0.016 A 
ATOM      7  C6  BZF d   1       0.041  -1.942   1.032  0.00  0.00     0.022 A 
ATOM      8  C7  BZF d   1       0.322  -0.627   0.857  0.00  0.00     0.029 A 
ATOM      9  C7A BZF d   1       1.139  -0.033   1.787  0.00  0.00     0.058 A 
ENDROOT
TORSDOF 0
ENDMDL
