MODEL 1
REMARK minimizedAffinity -4.2244606
REMARK minimizedRMSD -1
REMARK  0 active torsions:
REMARK  status: ('A' for Active; 'I' for Inactive)
ROOT
ATOM      1  C1  BNZ d   1       1.865  -0.995   0.296  0.00  0.00     0.000 A 
ATOM      2  C2  BNZ d   1       2.580   0.088   0.732  0.00  0.00     0.000 A 
ATOM      3  C3  BNZ d   1       1.999   1.323   0.811  0.00  0.00     0.000 A 
ATOM      4  C4  BNZ d   1       0.719   1.481   0.418  0.00  0.00     0.000 A 
ATOM      5  C5  BNZ d   1      -0.012   0.400  -0.033  0.00  0.00     0.000 A 
ATOM      6  C6  BNZ d   1       0.564  -0.849  -0.074  0.00  0.00     0.000 A 
ENDROOT
TORSDOF 0
ENDMDL
