MODEL 1
REMARK minimizedAffinity -0.989900351
REMARK minimizedRMSD -1
REMARK  0 active torsions:
REMARK  status: ('A' for Active; 'I' for Inactive)
ROOT
ATOM      1  C1  BNZ d   1       1.012   0.504  -0.094  0.00  0.00     0.000 A 
ATOM      2  C2  BNZ d   1       1.622  -0.721  -0.060  0.00  0.00     0.000 A 
ATOM      3  C3  BNZ d   1       2.634  -0.974   0.823  0.00  0.00     0.000 A 
ATOM      4  C4  BNZ d   1       3.061   0.008   1.642  0.00  0.00     0.000 A 
ATOM      5  C5  BNZ d   1       2.461   1.252   1.614  0.00  0.00     0.000 A 
ATOM      6  C6  BNZ d   1       1.417   1.491   0.750  0.00  0.00     0.000 A 
ENDROOT
TORSDOF 0
ENDMDL
