MODEL 1
REMARK minimizedAffinity -3.00317287
REMARK minimizedRMSD -1
REMARK  0 active torsions:
REMARK  status: ('A' for Active; 'I' for Inactive)
ROOT
ATOM      1  C1  BNZ d   1       1.251  -1.332  -0.073  0.00  0.00     0.000 A 
ATOM      2  C2  BNZ d   1       1.737  -0.260   0.628  0.00  0.00     0.000 A 
ATOM      3  C3  BNZ d   1       1.082   0.939   0.615  0.00  0.00     0.000 A 
ATOM      4  C4  BNZ d   1      -0.034   1.078  -0.131  0.00  0.00     0.000 A 
ATOM      5  C5  BNZ d   1      -0.530   0.009  -0.850  0.00  0.00     0.000 A 
ATOM      6  C6  BNZ d   1       0.110  -1.208  -0.803  0.00  0.00     0.000 A 
ENDROOT
TORSDOF 0
ENDMDL
