MODEL 1
REMARK minimizedAffinity 2.29410958
REMARK minimizedRMSD -1
REMARK  0 active torsions:
REMARK  status: ('A' for Active; 'I' for Inactive)
ROOT
ATOM      1  C1  BNZ d   1       0.301  -1.762   0.886  0.00  0.00     0.000 A 
ATOM      2  C2  BNZ d   1      -0.176  -0.622   0.295  0.00  0.00     0.000 A 
ATOM      3  C3  BNZ d   1      -0.610  -0.634  -1.001  0.00  0.00     0.000 A 
ATOM      4  C4  BNZ d   1      -0.529  -1.775  -1.716  0.00  0.00     0.000 A 
ATOM      5  C5  BNZ d   1      -0.042  -2.930  -1.138  0.00  0.00     0.000 A 
ATOM      6  C6  BNZ d   1       0.358  -2.923   0.179  0.00  0.00     0.000 A 
ENDROOT
TORSDOF 0
ENDMDL
