MODEL 1
REMARK minimizedAffinity 3.11620831
REMARK minimizedRMSD -1
REMARK  0 active torsions:
REMARK  status: ('A' for Active; 'I' for Inactive)
ROOT
ATOM      1  C1  BNZ d   1      -1.005   0.050  -0.640  0.00  0.00     0.000 A 
ATOM      2  C2  BNZ d   1      -1.089  -1.240  -1.092  0.00  0.00     0.000 A 
ATOM      3  C3  BNZ d   1      -0.065  -2.121  -0.885  0.00  0.00     0.000 A 
ATOM      4  C4  BNZ d   1       1.056  -1.702  -0.265  0.00  0.00     0.000 A 
ATOM      5  C5  BNZ d   1       1.160  -0.402   0.188  0.00  0.00     0.000 A 
ATOM      6  C6  BNZ d   1       0.111   0.472   0.013  0.00  0.00     0.000 A 
ENDROOT
TORSDOF 0
ENDMDL
