MODEL 1
REMARK minimizedAffinity -2.21412897
REMARK minimizedRMSD -1
REMARK  0 active torsions:
REMARK  status: ('A' for Active; 'I' for Inactive)
ROOT
ATOM      1  C1  BNZ d   1       0.493  -1.166  -0.797  0.00  0.00     0.000 A 
ATOM      2  C2  BNZ d   1       1.727  -1.394  -1.347  0.00  0.00     0.000 A 
ATOM      3  C3  BNZ d   1       2.806  -1.670  -0.556  0.00  0.00     0.000 A 
ATOM      4  C4  BNZ d   1       2.660  -1.680   0.785  0.00  0.00     0.000 A 
ATOM      5  C5  BNZ d   1       1.425  -1.443   1.355  0.00  0.00     0.000 A 
ATOM      6  C6  BNZ d   1       0.333  -1.203   0.554  0.00  0.00     0.000 A 
ENDROOT
TORSDOF 0
ENDMDL
