MODEL 1
REMARK minimizedAffinity -0.437758803
REMARK minimizedRMSD -1
REMARK  0 active torsions:
REMARK  status: ('A' for Active; 'I' for Inactive)
ROOT
ATOM      1  C1  BNZ d   1      -0.224   1.019  -0.727  0.00  0.00     0.000 A 
ATOM      2  C2  BNZ d   1      -1.038   0.252  -1.517  0.00  0.00     0.000 A 
ATOM      3  C3  BNZ d   1      -0.909  -1.108  -1.543  0.00  0.00     0.000 A 
ATOM      4  C4  BNZ d   1       0.059  -1.696  -0.810  0.00  0.00     0.000 A 
ATOM      5  C5  BNZ d   1       0.894  -0.936  -0.016  0.00  0.00     0.000 A 
ATOM      6  C6  BNZ d   1       0.736   0.430   0.038  0.00  0.00     0.000 A 
ENDROOT
TORSDOF 0
ENDMDL
