MODEL 1
REMARK minimizedAffinity 1.04454231
REMARK minimizedRMSD -1
REMARK  0 active torsions:
REMARK  status: ('A' for Active; 'I' for Inactive)
ROOT
ATOM      1  C   UNL d   1      -5.965  -2.045  -1.632  0.00  0.00     0.020 A 
ATOM      2  C1  UNL d   1      -5.967  -0.655  -1.512  0.00  0.00     0.020 A 
ATOM      3  C2  UNL d   1      -5.977   0.143  -2.658  0.00  0.00     0.034 A 
ATOM      4  C3  UNL d   1      -5.985  -0.446  -3.927  0.00  0.00     0.017 A 
ATOM      5  C4  UNL d   1      -5.983  -1.841  -4.046  0.00  0.00     0.017 A 
ATOM      6  C5  UNL d   1      -5.973  -2.636  -2.896  0.00  0.00     0.034 A 
ATOM      7 Cl   UNL d   1      -5.993  -2.640  -5.578  0.00  0.00    -0.070 Cl
ATOM      8 Cl1  UNL d   1      -5.998   0.603  -5.300  0.00  0.00    -0.070 Cl
ENDROOT
TORSDOF 0
ENDMDL
