MODEL 1
REMARK minimizedAffinity -0.0859569833
REMARK minimizedRMSD -1
REMARK  0 active torsions:
REMARK  status: ('A' for Active; 'I' for Inactive)
ROOT
ATOM      1  C   UNL d   1      -1.313  -5.996  -4.805  0.00  0.00     0.020 A 
ATOM      2  C1  UNL d   1      -2.066  -5.672  -5.932  0.00  0.00     0.020 A 
ATOM      3  C2  UNL d   1      -3.043  -4.676  -5.857  0.00  0.00     0.034 A 
ATOM      4  C3  UNL d   1      -3.270  -4.002  -4.652  0.00  0.00     0.017 A 
ATOM      5  C4  UNL d   1      -2.513  -4.328  -3.521  0.00  0.00     0.017 A 
ATOM      6  C5  UNL d   1      -1.536  -5.325  -3.601  0.00  0.00     0.034 A 
ATOM      7 Cl   UNL d   1      -2.735  -3.540  -1.998  0.00  0.00    -0.070 Cl
ATOM      8 Cl1  UNL d   1      -4.493  -2.782  -4.631  0.00  0.00    -0.070 Cl
ENDROOT
TORSDOF 0
ENDMDL
