MODEL 1
REMARK minimizedAffinity 1.74161017
REMARK minimizedRMSD -1
REMARK  0 active torsions:
REMARK  status: ('A' for Active; 'I' for Inactive)
ROOT
ATOM      1  C   UNL d   1      -1.585  -5.398  -5.966  0.00  0.00     0.020 A 
ATOM      2  C1  UNL d   1      -1.448  -4.011  -5.907  0.00  0.00     0.020 A 
ATOM      3  C2  UNL d   1      -2.583  -3.199  -5.867  0.00  0.00     0.034 A 
ATOM      4  C3  UNL d   1      -3.860  -3.772  -5.885  0.00  0.00     0.017 A 
ATOM      5  C4  UNL d   1      -3.997  -5.163  -5.944  0.00  0.00     0.017 A 
ATOM      6  C5  UNL d   1      -2.857  -5.972  -5.984  0.00  0.00     0.034 A 
ATOM      7 Cl   UNL d   1      -5.539  -5.943  -5.969  0.00  0.00    -0.070 Cl
ATOM      8 Cl1  UNL d   1      -5.220  -2.706  -5.832  0.00  0.00    -0.070 Cl
ENDROOT
TORSDOF 0
ENDMDL
