MODEL 1
REMARK minimizedAffinity 4.09195471
REMARK minimizedRMSD -1
REMARK  0 active torsions:
REMARK  status: ('A' for Active; 'I' for Inactive)
ROOT
ATOM      1  C   UNL d   1       2.138   0.252   0.990  0.00  0.00     0.020 A 
ATOM      2  C1  UNL d   1       1.326  -0.785   0.532  0.00  0.00     0.020 A 
ATOM      3  C2  UNL d   1       1.867  -2.056   0.324  0.00  0.00     0.034 A 
ATOM      4  C3  UNL d   1       3.224  -2.292   0.574  0.00  0.00     0.017 A 
ATOM      5  C4  UNL d   1       4.038  -1.251   1.033  0.00  0.00     0.017 A 
ATOM      6  C5  UNL d   1       3.491   0.020   1.240  0.00  0.00     0.034 A 
ATOM      7 Cl   UNL d   1       5.721  -1.466   1.363  0.00  0.00    -0.070 Cl
ATOM      8 Cl1  UNL d   1       3.826  -3.888   0.295  0.00  0.00    -0.070 Cl
ENDROOT
TORSDOF 0
ENDMDL
