MODEL 1
REMARK minimizedAffinity 1.08503854
REMARK minimizedRMSD -1
REMARK  0 active torsions:
REMARK  status: ('A' for Active; 'I' for Inactive)
ROOT
ATOM      1  C   UNL d   1       1.531  -1.083  -0.524  0.00  0.00     0.020 A 
ATOM      2  C1  UNL d   1       0.454  -0.226  -0.305  0.00  0.00     0.020 A 
ATOM      3  C2  UNL d   1      -0.356  -0.395   0.820  0.00  0.00     0.034 A 
ATOM      4  C3  UNL d   1      -0.090  -1.425   1.730  0.00  0.00     0.017 A 
ATOM      5  C4  UNL d   1       0.991  -2.285   1.509  0.00  0.00     0.017 A 
ATOM      6  C5  UNL d   1       1.799  -2.111   0.381  0.00  0.00     0.034 A 
ATOM      7 Cl   UNL d   1       1.382  -3.578   2.587  0.00  0.00    -0.070 Cl
ATOM      8 Cl1  UNL d   1      -1.133  -1.576   3.099  0.00  0.00    -0.070 Cl
ENDROOT
TORSDOF 0
ENDMDL
