MODEL 1
REMARK minimizedAffinity 1.83095515
REMARK minimizedRMSD -1
REMARK  0 active torsions:
REMARK  status: ('A' for Active; 'I' for Inactive)
ROOT
ATOM      1  C   UNL d   1       0.236  -0.878   0.156  0.00  0.00     0.020 A 
ATOM      2  C1  UNL d   1      -0.511   0.222   0.578  0.00  0.00     0.020 A 
ATOM      3  C2  UNL d   1      -1.839   0.361   0.169  0.00  0.00     0.034 A 
ATOM      4  C3  UNL d   1      -2.424  -0.600  -0.663  0.00  0.00     0.017 A 
ATOM      5  C4  UNL d   1      -1.674  -1.704  -1.085  0.00  0.00     0.017 A 
ATOM      6  C5  UNL d   1      -0.344  -1.838  -0.673  0.00  0.00     0.034 A 
ATOM      7 Cl   UNL d   1      -2.327  -2.931  -2.111  0.00  0.00    -0.070 Cl
ATOM      8 Cl1  UNL d   1      -4.071  -0.364  -1.128  0.00  0.00    -0.070 Cl
ENDROOT
TORSDOF 0
ENDMDL
