MODEL 1
REMARK minimizedAffinity 5.46712255
REMARK minimizedRMSD -1
REMARK  0 active torsions:
REMARK  status: ('A' for Active; 'I' for Inactive)
ROOT
ATOM      1  C   UNL d   1       0.930   2.376  -4.086  0.00  0.00     0.020 A 
ATOM      2  C1  UNL d   1       1.165   2.059  -2.748  0.00  0.00     0.020 A 
ATOM      3  C2  UNL d   1       0.105   2.034  -1.840  0.00  0.00     0.034 A 
ATOM      4  C3  UNL d   1      -1.195   2.326  -2.267  0.00  0.00     0.017 A 
ATOM      5  C4  UNL d   1      -1.430   2.644  -3.610  0.00  0.00     0.017 A 
ATOM      6  C5  UNL d   1      -0.365   2.668  -4.515  0.00  0.00     0.034 A 
ATOM      7 Cl   UNL d   1      -3.007   3.017  -4.211  0.00  0.00    -0.070 Cl
ATOM      8 Cl1  UNL d   1      -2.458   2.276  -1.089  0.00  0.00    -0.070 Cl
ENDROOT
TORSDOF 0
ENDMDL
