MODEL 1
REMARK minimizedAffinity 6.42583847
REMARK minimizedRMSD -1
REMARK  0 active torsions:
REMARK  status: ('A' for Active; 'I' for Inactive)
ROOT
ATOM      1  C   UNL d   1      -0.613  -2.580   4.577  0.00  0.00     0.020 A 
ATOM      2  C1  UNL d   1       0.546  -3.344   4.708  0.00  0.00     0.020 A 
ATOM      3  C2  UNL d   1       1.467  -3.401   3.660  0.00  0.00     0.034 A 
ATOM      4  C3  UNL d   1       1.231  -2.692   2.476  0.00  0.00     0.017 A 
ATOM      5  C4  UNL d   1       0.067  -1.925   2.346  0.00  0.00     0.017 A 
ATOM      6  C5  UNL d   1      -0.851  -1.872   3.399  0.00  0.00     0.034 A 
ATOM      7 Cl   UNL d   1      -0.293  -1.024   0.916  0.00  0.00    -0.070 Cl
ATOM      8 Cl1  UNL d   1       2.413  -2.808   1.221  0.00  0.00    -0.070 Cl
ENDROOT
TORSDOF 0
ENDMDL
