MODEL 1
REMARK minimizedAffinity 2.8588233
REMARK minimizedRMSD -1
REMARK  0 active torsions:
REMARK  status: ('A' for Active; 'I' for Inactive)
ROOT
ATOM      1  C   UNL d   1      -1.803  -2.257  -0.439  0.00  0.00     0.020 A 
ATOM      2  C1  UNL d   1      -2.249  -0.942  -0.314  0.00  0.00     0.020 A 
ATOM      3  C2  UNL d   1      -1.391   0.043   0.180  0.00  0.00     0.034 A 
ATOM      4  C3  UNL d   1      -0.082  -0.286   0.550  0.00  0.00     0.017 A 
ATOM      5  C4  UNL d   1       0.365  -1.606   0.424  0.00  0.00     0.017 A 
ATOM      6  C5  UNL d   1      -0.499  -2.588  -0.071  0.00  0.00     0.034 A 
ATOM      7 Cl   UNL d   1       1.967  -2.089   0.860  0.00  0.00    -0.070 Cl
ATOM      8 Cl1  UNL d   1       0.926   0.982   1.153  0.00  0.00    -0.070 Cl
ENDROOT
TORSDOF 0
ENDMDL
