MODEL 1
REMARK minimizedAffinity 9.72254276
REMARK minimizedRMSD -1
REMARK  0 active torsions:
REMARK  status: ('A' for Active; 'I' for Inactive)
ROOT
ATOM      1  C   UNL d   1      -0.096  -3.334   4.610  0.00  0.00     0.020 A 
ATOM      2  C1  UNL d   1       1.271  -3.605   4.657  0.00  0.00     0.020 A 
ATOM      3  C2  UNL d   1       2.094  -3.227   3.594  0.00  0.00     0.034 A 
ATOM      4  C3  UNL d   1       1.552  -2.576   2.480  0.00  0.00     0.017 A 
ATOM      5  C4  UNL d   1       0.180  -2.305   2.434  0.00  0.00     0.017 A 
ATOM      6  C5  UNL d   1      -0.640  -2.685   3.501  0.00  0.00     0.034 A 
ATOM      7 Cl   UNL d   1      -0.562  -1.505   1.093  0.00  0.00    -0.070 Cl
ATOM      8 Cl1  UNL d   1       2.629  -2.137   1.202  0.00  0.00    -0.070 Cl
ENDROOT
TORSDOF 0
ENDMDL
