MODEL 1
REMARK minimizedAffinity 10.0636072
REMARK minimizedRMSD -1
REMARK  0 active torsions:
REMARK  status: ('A' for Active; 'I' for Inactive)
ROOT
ATOM      1  C   UNL d   1       0.853  -3.230   4.627  0.00  0.00     0.020 A 
ATOM      2  C1  UNL d   1       1.643  -3.362   3.485  0.00  0.00     0.020 A 
ATOM      3  C2  UNL d   1       1.208  -2.831   2.269  0.00  0.00     0.034 A 
ATOM      4  C3  UNL d   1      -0.021  -2.166   2.192  0.00  0.00     0.017 A 
ATOM      5  C4  UNL d   1      -0.813  -2.033   3.338  0.00  0.00     0.017 A 
ATOM      6  C5  UNL d   1      -0.372  -2.567   4.553  0.00  0.00     0.034 A 
ATOM      7 Cl   UNL d   1      -2.341  -1.225   3.321  0.00  0.00    -0.070 Cl
ATOM      8 Cl1  UNL d   1      -0.497  -1.533   0.656  0.00  0.00    -0.070 Cl
ENDROOT
TORSDOF 0
ENDMDL
