MODEL 1
REMARK minimizedAffinity 6.49870729
REMARK minimizedRMSD -1
REMARK  0 active torsions:
REMARK  status: ('A' for Active; 'I' for Inactive)
ROOT
ATOM      1  C   UNL d   1       2.340   1.749  -4.301  0.00  0.00     0.020 A 
ATOM      2  C1  UNL d   1       2.531   1.388  -2.968  0.00  0.00     0.020 A 
ATOM      3  C2  UNL d   1       1.481   1.504  -2.055  0.00  0.00     0.034 A 
ATOM      4  C3  UNL d   1       0.234   1.983  -2.474  0.00  0.00     0.017 A 
ATOM      5  C4  UNL d   1       0.043   2.345  -3.813  0.00  0.00     0.017 A 
ATOM      6  C5  UNL d   1       1.098   2.226  -4.723  0.00  0.00     0.034 A 
ATOM      7 Cl   UNL d   1      -1.467   2.943  -4.405  0.00  0.00    -0.070 Cl
ATOM      8 Cl1  UNL d   1      -1.020   2.100  -1.292  0.00  0.00    -0.070 Cl
ENDROOT
TORSDOF 0
ENDMDL
