MODEL 1
REMARK minimizedAffinity 12.1284027
REMARK minimizedRMSD -1
REMARK  0 active torsions:
REMARK  status: ('A' for Active; 'I' for Inactive)
ROOT
ATOM      1  C   UNL d   1      -1.546   2.853  -4.368  0.00  0.00     0.020 A 
ATOM      2  C1  UNL d   1      -2.655   3.651  -4.649  0.00  0.00     0.020 A 
ATOM      3  C2  UNL d   1      -3.469   4.105  -3.610  0.00  0.00     0.034 A 
ATOM      4  C3  UNL d   1      -3.177   3.762  -2.284  0.00  0.00     0.017 A 
ATOM      5  C4  UNL d   1      -2.064   2.962  -2.003  0.00  0.00     0.017 A 
ATOM      6  C5  UNL d   1      -1.251   2.510  -3.048  0.00  0.00     0.034 A 
ATOM      7 Cl   UNL d   1      -1.639   2.497  -0.394  0.00  0.00    -0.070 Cl
ATOM      8 Cl1  UNL d   1      -4.227   4.360  -1.049  0.00  0.00    -0.070 Cl
ENDROOT
TORSDOF 0
ENDMDL
