MODEL 1
REMARK minimizedAffinity 8.89357853
REMARK minimizedRMSD -1
REMARK  0 active torsions:
REMARK  status: ('A' for Active; 'I' for Inactive)
ROOT
ATOM      1  C   UNL d   1       2.343   0.237  -2.521  0.00  0.00     0.020 A 
ATOM      2  C1  UNL d   1       3.292   1.188  -2.148  0.00  0.00     0.020 A 
ATOM      3  C2  UNL d   1       3.345   1.641  -0.828  0.00  0.00     0.034 A 
ATOM      4  C3  UNL d   1       2.447   1.144   0.123  0.00  0.00     0.017 A 
ATOM      5  C4  UNL d   1       1.494   0.189  -0.253  0.00  0.00     0.017 A 
ATOM      6  C5  UNL d   1       1.446  -0.261  -1.576  0.00  0.00     0.034 A 
ATOM      7 Cl   UNL d   1       0.353  -0.472   0.865  0.00  0.00    -0.070 Cl
ATOM      8 Cl1  UNL d   1       2.569   1.748   1.737  0.00  0.00    -0.070 Cl
ENDROOT
TORSDOF 0
ENDMDL
