MODEL 1
REMARK minimizedAffinity 1.40928972
REMARK minimizedRMSD -1
REMARK  0 active torsions:
REMARK  status: ('A' for Active; 'I' for Inactive)
ROOT
ATOM      1  C   UNL d   1      -0.716   4.233  -3.696  0.00  0.00     0.020 A 
ATOM      2  C1  UNL d   1      -0.572   3.020  -4.367  0.00  0.00     0.020 A 
ATOM      3  C2  UNL d   1       0.569   2.240  -4.162  0.00  0.00     0.034 A 
ATOM      4  C3  UNL d   1       1.569   2.673  -3.284  0.00  0.00     0.017 A 
ATOM      5  C4  UNL d   1       1.422   3.891  -2.611  0.00  0.00     0.017 A 
ATOM      6  C5  UNL d   1       0.278   4.668  -2.820  0.00  0.00     0.034 A 
ATOM      7 Cl   UNL d   1       2.613   4.492  -1.511  0.00  0.00    -0.070 Cl
ATOM      8 Cl1  UNL d   1       2.952   1.658  -3.078  0.00  0.00    -0.070 Cl
ENDROOT
TORSDOF 0
ENDMDL
