MODEL 1
REMARK minimizedAffinity -5.41067982
REMARK minimizedRMSD -1
REMARK  0 active torsions:
REMARK  status: ('A' for Active; 'I' for Inactive)
ROOT
ATOM      1  C   UNL d   1      -0.715  -2.058   0.274  0.00  0.00     0.020 A 
ATOM      2  C1  UNL d   1      -2.106  -2.111   0.207  0.00  0.00     0.020 A 
ATOM      3  C2  UNL d   1      -2.858  -2.220   1.379  0.00  0.00     0.034 A 
ATOM      4  C3  UNL d   1      -2.218  -2.277   2.623  0.00  0.00     0.017 A 
ATOM      5  C4  UNL d   1      -0.821  -2.224   2.689  0.00  0.00     0.017 A 
ATOM      6  C5  UNL d   1      -0.074  -2.115   1.512  0.00  0.00     0.034 A 
ATOM      7 Cl   UNL d   1       0.039  -2.289   4.187  0.00  0.00    -0.070 Cl
ATOM      8 Cl1  UNL d   1      -3.210  -2.411   4.031  0.00  0.00    -0.070 Cl
ENDROOT
TORSDOF 0
ENDMDL
