MODEL 1
REMARK minimizedAffinity -1.5523479
REMARK minimizedRMSD -1
REMARK  0 active torsions:
REMARK  status: ('A' for Active; 'I' for Inactive)
ROOT
ATOM      1  C   UNL d   1      -5.807  -4.849  -5.993  0.00  0.00     0.020 A 
ATOM      2  C1  UNL d   1      -5.018  -5.997  -5.914  0.00  0.00     0.020 A 
ATOM      3  C2  UNL d   1      -3.628  -5.885  -5.839  0.00  0.00     0.034 A 
ATOM      4  C3  UNL d   1      -3.022  -4.624  -5.843  0.00  0.00     0.017 A 
ATOM      5  C4  UNL d   1      -3.814  -3.472  -5.923  0.00  0.00     0.017 A 
ATOM      6  C5  UNL d   1      -5.206  -3.590  -5.997  0.00  0.00     0.034 A 
ATOM      7 Cl   UNL d   1      -3.139  -1.882  -5.933  0.00  0.00    -0.070 Cl
ATOM      8 Cl1  UNL d   1      -1.298  -4.560  -5.748  0.00  0.00    -0.070 Cl
ENDROOT
TORSDOF 0
ENDMDL
