MODEL 1
REMARK minimizedAffinity -1.23572445
REMARK minimizedRMSD -1
REMARK  0 active torsions:
REMARK  status: ('A' for Active; 'I' for Inactive)
ROOT
ATOM      1  C   UNL d   1      -1.562  -4.058  -5.711  0.00  0.00     0.020 A 
ATOM      2  C1  UNL d   1      -1.703  -5.434  -5.891  0.00  0.00     0.020 A 
ATOM      3  C2  UNL d   1      -2.976  -6.000  -5.978  0.00  0.00     0.034 A 
ATOM      4  C3  UNL d   1      -4.114  -5.191  -5.883  0.00  0.00     0.017 A 
ATOM      5  C4  UNL d   1      -3.972  -3.810  -5.702  0.00  0.00     0.017 A 
ATOM      6  C5  UNL d   1      -2.694  -3.248  -5.616  0.00  0.00     0.034 A 
ATOM      7 Cl   UNL d   1      -5.329  -2.747  -5.577  0.00  0.00    -0.070 Cl
ATOM      8 Cl1  UNL d   1      -5.658  -5.958  -5.999  0.00  0.00    -0.070 Cl
ENDROOT
TORSDOF 0
ENDMDL
