MODEL 1
REMARK minimizedAffinity 0.201298669
REMARK minimizedRMSD -1
REMARK  0 active torsions:
REMARK  status: ('A' for Active; 'I' for Inactive)
ROOT
ATOM      1  C   UNL d   1      -0.194  -0.857   1.125  0.00  0.00     0.020 A 
ATOM      2  C1  UNL d   1       1.095  -1.347   0.919  0.00  0.00     0.020 A 
ATOM      3  C2  UNL d   1       1.653  -2.247   1.829  0.00  0.00     0.034 A 
ATOM      4  C3  UNL d   1       0.923  -2.659   2.950  0.00  0.00     0.017 A 
ATOM      5  C4  UNL d   1      -0.371  -2.166   3.156  0.00  0.00     0.017 A 
ATOM      6  C5  UNL d   1      -0.925  -1.265   2.241  0.00  0.00     0.034 A 
ATOM      7 Cl   UNL d   1      -1.333  -2.628   4.515  0.00  0.00    -0.070 Cl
ATOM      8 Cl1  UNL d   1       1.675  -3.774   4.034  0.00  0.00    -0.070 Cl
ENDROOT
TORSDOF 0
ENDMDL
