MODEL 1
REMARK minimizedAffinity -2.81523347
REMARK minimizedRMSD -1
REMARK  0 active torsions:
REMARK  status: ('A' for Active; 'I' for Inactive)
ROOT
ATOM      1  C1  BNZ d   1       0.203  -2.861   0.067  0.00  0.00     0.000 A 
ATOM      2  C2  BNZ d   1      -0.714  -2.020   0.638  0.00  0.00     0.000 A 
ATOM      3  C3  BNZ d   1      -0.362  -0.755   1.019  0.00  0.00     0.000 A 
ATOM      4  C4  BNZ d   1       0.914  -0.348   0.865  0.00  0.00     0.000 A 
ATOM      5  C5  BNZ d   1       1.853  -1.187   0.299  0.00  0.00     0.000 A 
ATOM      6  C6  BNZ d   1       1.486  -2.446  -0.119  0.00  0.00     0.000 A 
ENDROOT
TORSDOF 0
ENDMDL
