MODEL 1
REMARK minimizedAffinity -1.57834935
REMARK minimizedRMSD -1
REMARK  0 active torsions:
REMARK  status: ('A' for Active; 'I' for Inactive)
ROOT
ATOM      1  C1  BNZ d   1       4.503   3.776  -0.461  0.00  0.00     0.000 A 
ATOM      2  C2  BNZ d   1       3.749   3.543   0.658  0.00  0.00     0.000 A 
ATOM      3  C3  BNZ d   1       3.749   4.429   1.699  0.00  0.00     0.000 A 
ATOM      4  C4  BNZ d   1       4.533   5.525   1.637  0.00  0.00     0.000 A 
ATOM      5  C5  BNZ d   1       5.306   5.769   0.520  0.00  0.00     0.000 A 
ATOM      6  C6  BNZ d   1       5.273   4.895  -0.543  0.00  0.00     0.000 A 
ENDROOT
TORSDOF 0
ENDMDL
