MODEL 1
REMARK minimizedAffinity -3.4129684
REMARK minimizedRMSD -1
REMARK  0 active torsions:
REMARK  status: ('A' for Active; 'I' for Inactive)
ROOT
ATOM      1  C1  BNZ d   1      -0.174  -0.688   1.448  0.00  0.00     0.000 A 
ATOM      2  C2  BNZ d   1       0.728   0.092   0.776  0.00  0.00     0.000 A 
ATOM      3  C3  BNZ d   1       1.705  -0.474   0.005  0.00  0.00     0.000 A 
ATOM      4  C4  BNZ d   1       1.803  -1.817  -0.061  0.00  0.00     0.000 A 
ATOM      5  C5  BNZ d   1       0.907  -2.617   0.619  0.00  0.00     0.000 A 
ATOM      6  C6  BNZ d   1      -0.099  -2.044   1.363  0.00  0.00     0.000 A 
ENDROOT
TORSDOF 0
ENDMDL
