MODEL 1
REMARK minimizedAffinity -2.19143772
REMARK minimizedRMSD -1
REMARK  0 active torsions:
REMARK  status: ('A' for Active; 'I' for Inactive)
ROOT
ATOM      1  C1  BNZ d   1       0.703  -1.247   1.751  0.00  0.00     0.000 A 
ATOM      2  C2  BNZ d   1      -0.033  -0.837   2.831  0.00  0.00     0.000 A 
ATOM      3  C3  BNZ d   1      -1.315  -0.389   2.675  0.00  0.00     0.000 A 
ATOM      4  C4  BNZ d   1      -1.845  -0.314   1.437  0.00  0.00     0.000 A 
ATOM      5  C5  BNZ d   1      -1.113  -0.715   0.338  0.00  0.00     0.000 A 
ATOM      6  C6  BNZ d   1       0.163  -1.202   0.502  0.00  0.00     0.000 A 
ENDROOT
TORSDOF 0
ENDMDL
