MODEL 1
REMARK minimizedAffinity -4.0045681
REMARK minimizedRMSD -1
REMARK  0 active torsions:
REMARK  status: ('A' for Active; 'I' for Inactive)
ROOT
ATOM      1  C1  BNZ d   1      -0.074  -0.573   1.412  0.00  0.00     0.000 A 
ATOM      2  C2  BNZ d   1      -0.458  -1.879   1.262  0.00  0.00     0.000 A 
ATOM      3  C3  BNZ d   1       0.200  -2.708   0.396  0.00  0.00     0.000 A 
ATOM      4  C4  BNZ d   1       1.214  -2.219  -0.347  0.00  0.00     0.000 A 
ATOM      5  C5  BNZ d   1       1.607  -0.902  -0.214  0.00  0.00     0.000 A 
ATOM      6  C6  BNZ d   1       0.967  -0.082   0.686  0.00  0.00     0.000 A 
ENDROOT
TORSDOF 0
ENDMDL
