MODEL 1
REMARK minimizedAffinity -3.5949266
REMARK minimizedRMSD -1
REMARK  0 active torsions:
REMARK  status: ('A' for Active; 'I' for Inactive)
ROOT
ATOM      1  C1  BNZ d   1      -0.204  -0.523   1.422  0.00  0.00     0.000 A 
ATOM      2  C2  BNZ d   1      -0.805  -1.477   0.645  0.00  0.00     0.000 A 
ATOM      3  C3  BNZ d   1      -0.069  -2.252  -0.207  0.00  0.00     0.000 A 
ATOM      4  C4  BNZ d   1       1.260  -2.044  -0.312  0.00  0.00     0.000 A 
ATOM      5  C5  BNZ d   1       1.879  -1.079   0.458  0.00  0.00     0.000 A 
ATOM      6  C6  BNZ d   1       1.140  -0.328   1.343  0.00  0.00     0.000 A 
ENDROOT
TORSDOF 0
ENDMDL
