MODEL 1
REMARK minimizedAffinity -4.52899456
REMARK minimizedRMSD -1
REMARK  0 active torsions:
REMARK  status: ('A' for Active; 'I' for Inactive)
ROOT
ATOM      1  C1  BNZ d   1      -0.024  -2.212   0.158  0.00  0.00     0.000 A 
ATOM      2  C2  BNZ d   1      -1.135  -1.858   0.876  0.00  0.00     0.000 A 
ATOM      3  C3  BNZ d   1      -1.144  -0.723   1.637  0.00  0.00     0.000 A 
ATOM      4  C4  BNZ d   1      -0.031   0.035   1.711  0.00  0.00     0.000 A 
ATOM      5  C5  BNZ d   1       1.100  -0.314   1.001  0.00  0.00     0.000 A 
ATOM      6  C6  BNZ d   1       1.093  -1.436   0.205  0.00  0.00     0.000 A 
ENDROOT
TORSDOF 0
ENDMDL
