MODEL 1
REMARK minimizedAffinity -0.121155806
REMARK minimizedRMSD -1
REMARK  0 active torsions:
REMARK  status: ('A' for Active; 'I' for Inactive)
ROOT
ATOM      1  C1  BNZ d   1       2.966   4.813   0.376  0.00  0.00     0.000 A 
ATOM      2  C2  BNZ d   1       3.365   3.635   0.949  0.00  0.00     0.000 A 
ATOM      3  C3  BNZ d   1       4.124   3.632   2.086  0.00  0.00     0.000 A 
ATOM      4  C4  BNZ d   1       4.517   4.804   2.625  0.00  0.00     0.000 A 
ATOM      5  C5  BNZ d   1       4.131   6.000   2.054  0.00  0.00     0.000 A 
ATOM      6  C6  BNZ d   1       3.334   6.000   0.932  0.00  0.00     0.000 A 
ENDROOT
TORSDOF 0
ENDMDL
