MODEL 1
REMARK minimizedAffinity -3.8671391
REMARK minimizedRMSD -1
REMARK  0 active torsions:
REMARK  status: ('A' for Active; 'I' for Inactive)
ROOT
ATOM      1  C1  BNZ d   1       0.340  -3.027   0.130  0.00  0.00     0.000 A 
ATOM      2  C2  BNZ d   1      -0.404  -1.941   0.506  0.00  0.00     0.000 A 
ATOM      3  C3  BNZ d   1       0.160  -0.698   0.586  0.00  0.00     0.000 A 
ATOM      4  C4  BNZ d   1       1.476  -0.550   0.329  0.00  0.00     0.000 A 
ATOM      5  C5  BNZ d   1       2.242  -1.637  -0.042  0.00  0.00     0.000 A 
ATOM      6  C6  BNZ d   1       1.662  -2.879  -0.159  0.00  0.00     0.000 A 
ENDROOT
TORSDOF 0
ENDMDL
