MODEL 1
REMARK minimizedAffinity -2.8153553
REMARK minimizedRMSD -1
REMARK  0 active torsions:
REMARK  status: ('A' for Active; 'I' for Inactive)
ROOT
ATOM      1  C1  BNZ d   1       0.314  -1.166   1.273  0.00  0.00     0.000 A 
ATOM      2  C2  BNZ d   1       1.631  -0.922   0.989  0.00  0.00     0.000 A 
ATOM      3  C3  BNZ d   1       2.329  -1.743   0.148  0.00  0.00     0.000 A 
ATOM      4  C4  BNZ d   1       1.722  -2.827  -0.376  0.00  0.00     0.000 A 
ATOM      5  C5  BNZ d   1       0.397  -3.091  -0.092  0.00  0.00     0.000 A 
ATOM      6  C6  BNZ d   1      -0.314  -2.241   0.724  0.00  0.00     0.000 A 
ENDROOT
TORSDOF 0
ENDMDL
