MODEL 1
REMARK minimizedAffinity -0.621066093
REMARK minimizedRMSD -1
REMARK  0 active torsions:
REMARK  status: ('A' for Active; 'I' for Inactive)
ROOT
ATOM      1  C1  BNZ d   1       3.012   5.959   0.711  0.00  0.00     0.000 A 
ATOM      2  C2  BNZ d   1       3.362   5.952   2.035  0.00  0.00     0.000 A 
ATOM      3  C3  BNZ d   1       4.675   5.993   2.412  0.00  0.00     0.000 A 
ATOM      4  C4  BNZ d   1       5.636   6.000   1.466  0.00  0.00     0.000 A 
ATOM      5  C5  BNZ d   1       5.300   5.998   0.127  0.00  0.00     0.000 A 
ATOM      6  C6  BNZ d   1       3.976   5.996  -0.249  0.00  0.00     0.000 A 
ENDROOT
TORSDOF 0
ENDMDL
