MODEL 1
REMARK minimizedAffinity -3.52705288
REMARK minimizedRMSD -1
REMARK  0 active torsions:
REMARK  status: ('A' for Active; 'I' for Inactive)
ROOT
ATOM      1  C1  BNZ d   1      -0.304  -1.190   0.626  0.00  0.00     0.000 A 
ATOM      2  C2  BNZ d   1      -0.278  -2.446   0.081  0.00  0.00     0.000 A 
ATOM      3  C3  BNZ d   1       0.906  -3.033  -0.268  0.00  0.00     0.000 A 
ATOM      4  C4  BNZ d   1       2.058  -2.350  -0.109  0.00  0.00     0.000 A 
ATOM      5  C5  BNZ d   1       2.047  -1.079   0.431  0.00  0.00     0.000 A 
ATOM      6  C6  BNZ d   1       0.857  -0.506   0.817  0.00  0.00     0.000 A 
ENDROOT
TORSDOF 0
ENDMDL
