MODEL 1
REMARK minimizedAffinity -4.31133032
REMARK minimizedRMSD -1
REMARK  0 active torsions:
REMARK  status: ('A' for Active; 'I' for Inactive)
ROOT
ATOM      1  C1  BNZ d   1       0.450  -2.994   0.085  0.00  0.00     0.000 A 
ATOM      2  C2  BNZ d   1      -0.308  -1.965   0.577  0.00  0.00     0.000 A 
ATOM      3  C3  BNZ d   1       0.223  -0.714   0.725  0.00  0.00     0.000 A 
ATOM      4  C4  BNZ d   1       1.520  -0.503   0.420  0.00  0.00     0.000 A 
ATOM      5  C5  BNZ d   1       2.299  -1.533  -0.068  0.00  0.00     0.000 A 
ATOM      6  C6  BNZ d   1       1.751  -2.782  -0.253  0.00  0.00     0.000 A 
ENDROOT
TORSDOF 0
ENDMDL
