MODEL 1
REMARK minimizedAffinity 1.06392276
REMARK minimizedRMSD -1
REMARK  0 active torsions:
REMARK  status: ('A' for Active; 'I' for Inactive)
ROOT
ATOM      1  C1  BNZ d   1       2.896   5.927   0.797  0.00  0.00     0.000 A 
ATOM      2  C2  BNZ d   1       2.669   5.937   2.148  0.00  0.00     0.000 A 
ATOM      3  C3  BNZ d   1       3.710   5.994   3.032  0.00  0.00     0.000 A 
ATOM      4  C4  BNZ d   1       4.976   6.000   2.566  0.00  0.00     0.000 A 
ATOM      5  C5  BNZ d   1       5.221   5.981   1.208  0.00  0.00     0.000 A 
ATOM      6  C6  BNZ d   1       4.170   5.963   0.320  0.00  0.00     0.000 A 
ENDROOT
TORSDOF 0
ENDMDL
