MODEL 1
REMARK minimizedAffinity -1.2285701
REMARK minimizedRMSD -1
REMARK  0 active torsions:
REMARK  status: ('A' for Active; 'I' for Inactive)
ROOT
ATOM      1  C1  BNZ d   1       0.364   5.049  -3.174  0.00  0.00     0.000 A 
ATOM      2  C2  BNZ d   1       1.353   4.122  -3.369  0.00  0.00     0.000 A 
ATOM      3  C3  BNZ d   1       2.119   4.143  -4.500  0.00  0.00     0.000 A 
ATOM      4  C4  BNZ d   1       1.870   5.065  -5.453  0.00  0.00     0.000 A 
ATOM      5  C5  BNZ d   1       0.870   6.000  -5.276  0.00  0.00     0.000 A 
ATOM      6  C6  BNZ d   1       0.126   6.000  -4.118  0.00  0.00     0.000 A 
ENDROOT
TORSDOF 0
ENDMDL
