MODEL 1
REMARK minimizedAffinity -2.47735047
REMARK minimizedRMSD -1
REMARK  0 active torsions:
REMARK  status: ('A' for Active; 'I' for Inactive)
ROOT
ATOM      1  C2' OXE d   1       5.949  -5.999   2.969  0.00  0.00     0.078 C 
ATOM      2  C1' OXE d   1       5.488  -6.000   5.738  0.00  0.00     0.078 C 
ATOM      3  C1  OXE d   1       5.609  -4.666   5.045  0.00  0.00    -0.078 A 
ATOM      4  C2  OXE d   1       5.881  -4.675   3.698  0.00  0.00    -0.078 A 
ATOM      5  C3  OXE d   1       5.947  -3.473   3.000  0.00  0.00     0.003 A 
ATOM      6  C4  OXE d   1       5.893  -2.252   3.684  0.00  0.00    -0.002 A 
ATOM      7  C5  OXE d   1       5.656  -2.220   5.062  0.00  0.00    -0.002 A 
ATOM      8  C6  OXE d   1       5.469  -3.415   5.749  0.00  0.00     0.003 A 
ENDROOT
TORSDOF 0
ENDMDL
