MODEL 1
REMARK minimizedAffinity -3.62550426
REMARK minimizedRMSD -1
REMARK  0 active torsions:
REMARK  status: ('A' for Active; 'I' for Inactive)
ROOT
ATOM      1  C2' OXE d   1       5.625  -2.465   2.329  0.00  0.00     0.078 C 
ATOM      2  C1' OXE d   1       6.000  -5.245   2.237  0.00  0.00     0.078 C 
ATOM      3  C1  OXE d   1       5.656  -4.626   3.568  0.00  0.00    -0.078 A 
ATOM      4  C2  OXE d   1       5.520  -3.259   3.613  0.00  0.00    -0.078 A 
ATOM      5  C3  OXE d   1       5.150  -2.643   4.805  0.00  0.00     0.003 A 
ATOM      6  C4  OXE d   1       5.064  -3.383   5.990  0.00  0.00    -0.002 A 
ATOM      7  C5  OXE d   1       5.238  -4.771   5.973  0.00  0.00    -0.002 A 
ATOM      8  C6  OXE d   1       5.491  -5.412   4.766  0.00  0.00     0.003 A 
ENDROOT
TORSDOF 0
ENDMDL
