MODEL 1
REMARK minimizedAffinity -0.623927534
REMARK minimizedRMSD -1
REMARK  0 active torsions:
REMARK  status: ('A' for Active; 'I' for Inactive)
ROOT
ATOM      1  C2' OXE d   1       5.919  -4.704   5.991  0.00  0.00     0.078 C 
ATOM      2  C1' OXE d   1       5.951  -1.897   5.962  0.00  0.00     0.078 C 
ATOM      3  C1  OXE d   1       5.948  -2.614   4.635  0.00  0.00    -0.078 A 
ATOM      4  C2  OXE d   1       5.979  -3.988   4.659  0.00  0.00    -0.078 A 
ATOM      5  C3  OXE d   1       5.922  -4.700   3.464  0.00  0.00     0.003 A 
ATOM      6  C4  OXE d   1       5.988  -4.030   2.237  0.00  0.00    -0.002 A 
ATOM      7  C5  OXE d   1       5.997  -2.632   2.190  0.00  0.00    -0.002 A 
ATOM      8  C6  OXE d   1       5.934  -1.910   3.377  0.00  0.00     0.003 A 
ENDROOT
TORSDOF 0
ENDMDL
