MODEL 1
REMARK minimizedAffinity -3.57939219
REMARK minimizedRMSD -1
REMARK  0 active torsions:
REMARK  status: ('A' for Active; 'I' for Inactive)
ROOT
ATOM      1  C2' OXE d   1       5.987  -5.611   3.091  0.00  0.00     0.078 C 
ATOM      2  C1' OXE d   1       5.249  -5.624   5.800  0.00  0.00     0.078 C 
ATOM      3  C1  OXE d   1       5.447  -4.287   5.131  0.00  0.00    -0.078 A 
ATOM      4  C2  OXE d   1       5.854  -4.290   3.818  0.00  0.00    -0.078 A 
ATOM      5  C3  OXE d   1       5.998  -3.084   3.138  0.00  0.00     0.003 A 
ATOM      6  C4  OXE d   1       5.882  -1.867   3.821  0.00  0.00    -0.002 A 
ATOM      7  C5  OXE d   1       5.508  -1.842   5.168  0.00  0.00    -0.002 A 
ATOM      8  C6  OXE d   1       5.246  -3.039   5.825  0.00  0.00     0.003 A 
ENDROOT
TORSDOF 0
ENDMDL
