MODEL 1
REMARK minimizedAffinity -3.49903297
REMARK minimizedRMSD -1
REMARK  0 active torsions:
REMARK  status: ('A' for Active; 'I' for Inactive)
ROOT
ATOM      1  C2' OXE d   1       4.884  -4.568   5.992  0.00  0.00     0.078 C 
ATOM      2  C1' OXE d   1       4.860  -2.223   4.449  0.00  0.00     0.078 C 
ATOM      3  C1  OXE d   1       5.246  -3.511   3.766  0.00  0.00    -0.078 A 
ATOM      4  C2  OXE d   1       5.300  -4.646   4.539  0.00  0.00    -0.078 A 
ATOM      5  C3  OXE d   1       5.597  -5.870   3.947  0.00  0.00     0.003 A 
ATOM      6  C4  OXE d   1       5.991  -5.932   2.605  0.00  0.00    -0.002 A 
ATOM      7  C5  OXE d   1       5.981  -4.782   1.809  0.00  0.00    -0.002 A 
ATOM      8  C6  OXE d   1       5.571  -3.573   2.362  0.00  0.00     0.003 A 
ENDROOT
TORSDOF 0
ENDMDL
