MODEL 1
REMARK minimizedAffinity -3.2265358
REMARK minimizedRMSD -1
REMARK  0 active torsions:
REMARK  status: ('A' for Active; 'I' for Inactive)
ROOT
ATOM      1  C2' OXE d   1       6.000  -5.375   2.236  0.00  0.00     0.078 C 
ATOM      2  C1' OXE d   1       5.670  -2.592   2.396  0.00  0.00     0.078 C 
ATOM      3  C1  OXE d   1       5.384  -3.406   3.633  0.00  0.00    -0.078 A 
ATOM      4  C2  OXE d   1       5.503  -4.772   3.532  0.00  0.00    -0.078 A 
ATOM      5  C3  OXE d   1       5.304  -5.566   4.658  0.00  0.00     0.003 A 
ATOM      6  C4  OXE d   1       4.835  -5.000   5.850  0.00  0.00    -0.002 A 
ATOM      7  C5  OXE d   1       4.669  -3.616   5.962  0.00  0.00    -0.002 A 
ATOM      8  C6  OXE d   1       4.979  -2.802   4.878  0.00  0.00     0.003 A 
ENDROOT
TORSDOF 0
ENDMDL
