MODEL 1
REMARK minimizedAffinity -3.80670524
REMARK minimizedRMSD -1
REMARK  0 active torsions:
REMARK  status: ('A' for Active; 'I' for Inactive)
ROOT
ATOM      1  C2' OXE d   1       5.999  -5.432   2.297  0.00  0.00     0.078 C 
ATOM      2  C1' OXE d   1       6.000  -2.636   2.045  0.00  0.00     0.078 C 
ATOM      3  C1  OXE d   1       5.620  -3.222   3.382  0.00  0.00    -0.078 A 
ATOM      4  C2  OXE d   1       5.577  -4.592   3.483  0.00  0.00    -0.078 A 
ATOM      5  C3  OXE d   1       5.285  -5.184   4.708  0.00  0.00     0.003 A 
ATOM      6  C4  OXE d   1       4.886  -4.400   5.797  0.00  0.00    -0.002 A 
ATOM      7  C5  OXE d   1       4.885  -3.004   5.705  0.00  0.00    -0.002 A 
ATOM      8  C6  OXE d   1       5.289  -2.399   4.520  0.00  0.00     0.003 A 
ENDROOT
TORSDOF 0
ENDMDL
