MODEL 1
REMARK minimizedAffinity -3.65015888
REMARK minimizedRMSD -1
REMARK  0 active torsions:
REMARK  status: ('A' for Active; 'I' for Inactive)
ROOT
ATOM      1  C2' OXE d   1       5.999  -2.378   2.169  0.00  0.00     0.078 C 
ATOM      2  C1' OXE d   1       5.999  -5.185   2.227  0.00  0.00     0.078 C 
ATOM      3  C1  OXE d   1       5.710  -4.455   3.515  0.00  0.00    -0.078 A 
ATOM      4  C2  OXE d   1       5.758  -3.081   3.487  0.00  0.00    -0.078 A 
ATOM      5  C3  OXE d   1       5.445  -2.358   4.634  0.00  0.00     0.003 A 
ATOM      6  C4  OXE d   1       5.232  -3.016   5.852  0.00  0.00    -0.002 A 
ATOM      7  C5  OXE d   1       5.218  -4.413   5.910  0.00  0.00    -0.002 A 
ATOM      8  C6  OXE d   1       5.412  -5.146   4.745  0.00  0.00     0.003 A 
ENDROOT
TORSDOF 0
ENDMDL
