MODEL 1
REMARK minimizedAffinity -0.224724114
REMARK minimizedRMSD -1
REMARK  0 active torsions:
REMARK  status: ('A' for Active; 'I' for Inactive)
ROOT
ATOM      1  C2' OXE d   1       6.000  -5.636   2.482  0.00  0.00     0.078 C 
ATOM      2  C1' OXE d   1       4.117  -5.227   4.524  0.00  0.00     0.078 C 
ATOM      3  C1  OXE d   1       4.602  -4.019   3.761  0.00  0.00    -0.078 A 
ATOM      4  C2  OXE d   1       5.558  -4.223   2.796  0.00  0.00    -0.078 A 
ATOM      5  C3  OXE d   1       6.000  -3.151   2.026  0.00  0.00     0.003 A 
ATOM      6  C4  OXE d   1       5.594  -1.846   2.329  0.00  0.00    -0.002 A 
ATOM      7  C5  OXE d   1       4.650  -1.611   3.335  0.00  0.00    -0.002 A 
ATOM      8  C6  OXE d   1       4.114  -2.689   4.030  0.00  0.00     0.003 A 
ENDROOT
TORSDOF 0
ENDMDL
