MODEL 1
REMARK minimizedAffinity -2.28021336
REMARK minimizedRMSD -1
REMARK  0 active torsions:
REMARK  status: ('A' for Active; 'I' for Inactive)
ROOT
ATOM      1  C2' OXE d   1       5.936  -2.974   5.550  0.00  0.00     0.078 C 
ATOM      2  C1' OXE d   1       6.000  -5.765   5.842  0.00  0.00     0.078 C 
ATOM      3  C1  OXE d   1       4.651  -5.089   5.836  0.00  0.00    -0.078 A 
ATOM      4  C2  OXE d   1       4.632  -3.718   5.739  0.00  0.00    -0.078 A 
ATOM      5  C3  OXE d   1       3.413  -3.049   5.674  0.00  0.00     0.003 A 
ATOM      6  C4  OXE d   1       2.212  -3.744   5.860  0.00  0.00    -0.002 A 
ATOM      7  C5  OXE d   1       2.212  -5.136   6.000  0.00  0.00    -0.002 A 
ATOM      8  C6  OXE d   1       3.417  -5.826   5.947  0.00  0.00     0.003 A 
ENDROOT
TORSDOF 0
ENDMDL
