MODEL 1
REMARK minimizedAffinity -3.74897814
REMARK minimizedRMSD -1
REMARK  0 active torsions:
REMARK  status: ('A' for Active; 'I' for Inactive)
ROOT
ATOM      1  C2' OXE d   1       6.000  -5.525   2.009  0.00  0.00     0.078 C 
ATOM      2  C1' OXE d   1       6.000  -2.739   1.664  0.00  0.00     0.078 C 
ATOM      3  C1  OXE d   1       5.613  -3.280   3.017  0.00  0.00    -0.078 A 
ATOM      4  C2  OXE d   1       5.571  -4.646   3.164  0.00  0.00    -0.078 A 
ATOM      5  C3  OXE d   1       5.274  -5.197   4.407  0.00  0.00     0.003 A 
ATOM      6  C4  OXE d   1       4.868  -4.377   5.467  0.00  0.00    -0.002 A 
ATOM      7  C5  OXE d   1       4.866  -2.985   5.328  0.00  0.00    -0.002 A 
ATOM      8  C6  OXE d   1       5.276  -2.420   4.125  0.00  0.00     0.003 A 
ENDROOT
TORSDOF 0
ENDMDL
