MODEL 1
REMARK minimizedAffinity -3.42164516
REMARK minimizedRMSD -1
REMARK  0 active torsions:
REMARK  status: ('A' for Active; 'I' for Inactive)
ROOT
ATOM      1  C2' OXE d   1       5.218  -4.665   5.479  0.00  0.00     0.078 C 
ATOM      2  C1' OXE d   1       5.962  -2.330   4.111  0.00  0.00     0.078 C 
ATOM      3  C1  OXE d   1       5.804  -3.596   3.307  0.00  0.00    -0.078 A 
ATOM      4  C2  OXE d   1       5.485  -4.744   3.992  0.00  0.00    -0.078 A 
ATOM      5  C3  OXE d   1       5.273  -5.928   3.291  0.00  0.00     0.003 A 
ATOM      6  C4  OXE d   1       5.532  -5.995   1.917  0.00  0.00    -0.002 A 
ATOM      7  C5  OXE d   1       5.896  -4.846   1.207  0.00  0.00    -0.002 A 
ATOM      8  C6  OXE d   1       5.995  -3.633   1.878  0.00  0.00     0.003 A 
ENDROOT
TORSDOF 0
ENDMDL
