MODEL 1
REMARK minimizedAffinity 0.869825542
REMARK minimizedRMSD -1
REMARK  0 active torsions:
REMARK  status: ('A' for Active; 'I' for Inactive)
ROOT
ATOM      1  C2' OXE d   1       5.524  -4.785   2.292  0.00  0.00     0.078 C 
ATOM      2  C1' OXE d   1       4.195  -5.918   4.490  0.00  0.00     0.078 C 
ATOM      3  C1  OXE d   1       4.790  -4.542   4.660  0.00  0.00    -0.078 A 
ATOM      4  C2  OXE d   1       5.479  -4.015   3.594  0.00  0.00    -0.078 A 
ATOM      5  C3  OXE d   1       6.000  -2.727   3.679  0.00  0.00     0.003 A 
ATOM      6  C4  OXE d   1       5.962  -2.026   4.890  0.00  0.00    -0.002 A 
ATOM      7  C5  OXE d   1       5.300  -2.561   6.000  0.00  0.00    -0.002 A 
ATOM      8  C6  OXE d   1       4.673  -3.797   5.889  0.00  0.00     0.003 A 
ENDROOT
TORSDOF 0
ENDMDL
