MODEL 1
REMARK minimizedAffinity -3.4841764
REMARK minimizedRMSD -1
REMARK  0 active torsions:
REMARK  status: ('A' for Active; 'I' for Inactive)
ROOT
ATOM      1  C2' OXE d   1       5.817  -2.489   6.000  0.00  0.00     0.078 C 
ATOM      2  C1' OXE d   1       5.774  -5.278   5.685  0.00  0.00     0.078 C 
ATOM      3  C1  OXE d   1       5.870  -4.431   4.441  0.00  0.00    -0.078 A 
ATOM      4  C2  OXE d   1       5.843  -3.067   4.601  0.00  0.00    -0.078 A 
ATOM      5  C3  OXE d   1       5.984  -2.239   3.491  0.00  0.00     0.003 A 
ATOM      6  C4  OXE d   1       5.997  -2.781   2.200  0.00  0.00    -0.002 A 
ATOM      7  C5  OXE d   1       5.985  -4.168   2.012  0.00  0.00    -0.002 A 
ATOM      8  C6  OXE d   1       5.964  -5.005   3.121  0.00  0.00     0.003 A 
ENDROOT
TORSDOF 0
ENDMDL
