MODEL 1
REMARK minimizedAffinity -3.82405019
REMARK minimizedRMSD -1
REMARK  0 active torsions:
REMARK  status: ('A' for Active; 'I' for Inactive)
ROOT
ATOM      1  C2' OXE d   1       5.621  -5.958   3.010  0.00  0.00     0.078 C 
ATOM      2  C1' OXE d   1       4.382  -6.000   5.529  0.00  0.00     0.078 C 
ATOM      3  C1  OXE d   1       4.881  -4.674   5.012  0.00  0.00    -0.078 A 
ATOM      4  C2  OXE d   1       5.527  -4.670   3.799  0.00  0.00    -0.078 A 
ATOM      5  C3  OXE d   1       5.958  -3.465   3.251  0.00  0.00     0.003 A 
ATOM      6  C4  OXE d   1       5.876  -2.280   3.992  0.00  0.00    -0.002 A 
ATOM      7  C5  OXE d   1       5.257  -2.268   5.247  0.00  0.00    -0.002 A 
ATOM      8  C6  OXE d   1       4.717  -3.446   5.751  0.00  0.00     0.003 A 
ENDROOT
TORSDOF 0
ENDMDL
