MODEL 1
REMARK minimizedAffinity -0.195557788
REMARK minimizedRMSD -1
REMARK  0 active torsions:
REMARK  status: ('A' for Active; 'I' for Inactive)
ROOT
ATOM      1  C2' OXE d   1       6.000  -4.961   2.036  0.00  0.00     0.078 C 
ATOM      2  C1' OXE d   1       5.957  -2.167   2.304  0.00  0.00     0.078 C 
ATOM      3  C1  OXE d   1       5.965  -2.995   3.565  0.00  0.00    -0.078 A 
ATOM      4  C2  OXE d   1       5.939  -4.361   3.424  0.00  0.00    -0.078 A 
ATOM      5  C3  OXE d   1       6.000  -5.172   4.554  0.00  0.00     0.003 A 
ATOM      6  C4  OXE d   1       5.933  -4.610   5.834  0.00  0.00    -0.002 A 
ATOM      7  C5  OXE d   1       5.919  -3.221   6.000  0.00  0.00    -0.002 A 
ATOM      8  C6  OXE d   1       5.977  -2.400   4.879  0.00  0.00     0.003 A 
ENDROOT
TORSDOF 0
ENDMDL
