MODEL 1
REMARK minimizedAffinity -3.87263155
REMARK minimizedRMSD -1
REMARK  0 active torsions:
REMARK  status: ('A' for Active; 'I' for Inactive)
ROOT
ATOM      1  C2' OXE d   1       4.918  -5.527   4.822  0.00  0.00     0.078 C 
ATOM      2  C1' OXE d   1       5.174  -2.980   5.974  0.00  0.00     0.078 C 
ATOM      3  C1  OXE d   1       5.410  -3.108   4.489  0.00  0.00    -0.078 A 
ATOM      4  C2  OXE d   1       5.328  -4.366   3.943  0.00  0.00    -0.078 A 
ATOM      5  C3  OXE d   1       5.482  -4.532   2.569  0.00  0.00     0.003 A 
ATOM      6  C4  OXE d   1       5.871  -3.455   1.764  0.00  0.00    -0.002 A 
ATOM      7  C5  OXE d   1       5.998  -2.172   2.308  0.00  0.00    -0.002 A 
ATOM      8  C6  OXE d   1       5.730  -1.974   3.658  0.00  0.00     0.003 A 
ENDROOT
TORSDOF 0
ENDMDL
