MODEL 1
REMARK minimizedAffinity -3.73655963
REMARK minimizedRMSD -1
REMARK  0 active torsions:
REMARK  status: ('A' for Active; 'I' for Inactive)
ROOT
ATOM      1  C2' OXE d   1       4.876  -2.401   5.259  0.00  0.00     0.078 C 
ATOM      2  C1' OXE d   1       5.505  -5.045   5.962  0.00  0.00     0.078 C 
ATOM      3  C1  OXE d   1       5.588  -4.666   4.504  0.00  0.00    -0.078 A 
ATOM      4  C2  OXE d   1       5.233  -3.383   4.164  0.00  0.00    -0.078 A 
ATOM      5  C3  OXE d   1       5.344  -2.965   2.841  0.00  0.00     0.003 A 
ATOM      6  C4  OXE d   1       5.666  -3.882   1.832  0.00  0.00    -0.002 A 
ATOM      7  C5  OXE d   1       5.992  -5.204   2.153  0.00  0.00    -0.002 A 
ATOM      8  C6  OXE d   1       6.000  -5.600   3.486  0.00  0.00     0.003 A 
ENDROOT
TORSDOF 0
ENDMDL
