MODEL 1
REMARK minimizedAffinity 10.7245836
REMARK minimizedRMSD -1
REMARK  1 active torsions:
REMARK  status: ('A' for Active; 'I' for Inactive)
REMARK    1  A    between atoms: C1_2  and  C2_3 
ROOT
ATOM      1  C2  UNL d   1      -3.515   5.265   3.165  0.00  0.00    -0.073 A 
ATOM      2  C3  UNL d   1      -4.705   5.962   2.930  0.00  0.00    -0.002 A 
ATOM      3  C4  UNL d   1      -5.853   5.280   2.526  0.00  0.00     0.004 A 
ATOM      4  C5  UNL d   1      -5.825   3.896   2.359  0.00  0.00    -0.004 A 
ATOM      5  C6  UNL d   1      -4.648   3.180   2.600  0.00  0.00    -0.075 A 
ATOM      6  C7  UNL d   1      -4.601   1.691   2.423  0.00  0.00     0.076 C 
ATOM      7  C8  UNL d   1      -3.499   3.872   3.004  0.00  0.00     0.001 A 
ENDROOT
BRANCH   1   8
ATOM      8  C1  UNL d   1      -2.274   5.997   3.609  0.00  0.00     0.053 C 
ATOM      9  C   UNL d   1      -2.028   5.849   5.102  0.00  0.00     0.018 C 
ENDBRANCH   1   8
TORSDOF 1
ENDMDL
