MODEL 1
REMARK minimizedAffinity 3.0020709
REMARK minimizedRMSD -1
REMARK  1 active torsions:
REMARK  status: ('A' for Active; 'I' for Inactive)
REMARK    1  A    between atoms: C1_2  and  C2_3 
ROOT
ATOM      1  C2  UNL d   1      -3.978   5.879   4.296  0.00  0.00    -0.073 A 
ATOM      2  C3  UNL d   1      -5.296   5.640   3.893  0.00  0.00    -0.002 A 
ATOM      3  C4  UNL d   1      -5.610   5.526   2.538  0.00  0.00     0.004 A 
ATOM      4  C5  UNL d   1      -4.609   5.642   1.573  0.00  0.00    -0.004 A 
ATOM      5  C6  UNL d   1      -3.283   5.870   1.957  0.00  0.00    -0.075 A 
ATOM      6  C7  UNL d   1      -2.195   6.000   0.932  0.00  0.00     0.076 C 
ATOM      7  C8  UNL d   1      -2.977   5.986   3.319  0.00  0.00     0.001 A 
ENDROOT
BRANCH   1   8
ATOM      8  C1  UNL d   1      -3.633   5.997   5.758  0.00  0.00     0.053 C 
ATOM      9  C   UNL d   1      -2.131   5.999   5.991  0.00  0.00     0.018 C 
ENDBRANCH   1   8
TORSDOF 1
ENDMDL
