MODEL 1
REMARK minimizedAffinity 8.23698616
REMARK minimizedRMSD -1
REMARK  1 active torsions:
REMARK  status: ('A' for Active; 'I' for Inactive)
REMARK    1  A    between atoms: C1_2  and  C2_3 
ROOT
ATOM      1  C2  UNL d   1      -2.793  -1.022   1.912  0.00  0.00    -0.073 A 
ATOM      2  C3  UNL d   1      -2.249   0.268   1.885  0.00  0.00    -0.002 A 
ATOM      3  C4  UNL d   1      -2.571   1.190   2.881  0.00  0.00     0.004 A 
ATOM      4  C5  UNL d   1      -3.433   0.831   3.918  0.00  0.00    -0.004 A 
ATOM      5  C6  UNL d   1      -3.977  -0.456   3.969  0.00  0.00    -0.075 A 
ATOM      6  C7  UNL d   1      -4.908  -0.856   5.076  0.00  0.00     0.076 C 
ATOM      7  C8  UNL d   1      -3.652  -1.375   2.963  0.00  0.00     0.001 A 
ENDROOT
BRANCH   1   8
ATOM      8  C1  UNL d   1      -2.444  -2.023   0.842  0.00  0.00     0.053 C 
ATOM      9  C   UNL d   1      -2.222  -1.360  -0.508  0.00  0.00     0.018 C 
ENDBRANCH   1   8
TORSDOF 1
ENDMDL
