MODEL 1
REMARK minimizedAffinity 17.4680901
REMARK minimizedRMSD -1
REMARK  1 active torsions:
REMARK  status: ('A' for Active; 'I' for Inactive)
REMARK    1  A    between atoms: C1_2  and  C2_3 
ROOT
ATOM      1  C2  UNL d   1      -2.269   5.893   3.804  0.00  0.00    -0.073 A 
ATOM      2  C3  UNL d   1      -2.265   5.885   5.204  0.00  0.00    -0.002 A 
ATOM      3  C4  UNL d   1      -3.464   5.802   5.912  0.00  0.00     0.004 A 
ATOM      4  C5  UNL d   1      -4.678   5.720   5.230  0.00  0.00    -0.004 A 
ATOM      5  C6  UNL d   1      -4.702   5.715   3.831  0.00  0.00    -0.075 A 
ATOM      6  C7  UNL d   1      -6.000   5.629   3.083  0.00  0.00     0.076 C 
ATOM      7  C8  UNL d   1      -3.494   5.800   3.127  0.00  0.00     0.001 A 
ENDROOT
BRANCH   1   8
ATOM      8  C1  UNL d   1      -0.976   5.975   3.035  0.00  0.00     0.053 C 
ATOM      9  C   UNL d   1      -1.205   5.966   1.532  0.00  0.00     0.018 C 
ENDBRANCH   1   8
TORSDOF 1
ENDMDL
