MODEL 1
REMARK minimizedAffinity 8.14375305
REMARK minimizedRMSD -1
REMARK  1 active torsions:
REMARK  status: ('A' for Active; 'I' for Inactive)
REMARK    1  A    between atoms: C1_2  and  C2_3 
ROOT
ATOM      1  C2  UNL d   1      -3.755   4.777   2.450  0.00  0.00    -0.073 A 
ATOM      2  C3  UNL d   1      -5.144   4.613   2.470  0.00  0.00    -0.002 A 
ATOM      3  C4  UNL d   1      -5.869   4.890   3.630  0.00  0.00     0.004 A 
ATOM      4  C5  UNL d   1      -5.214   5.338   4.777  0.00  0.00    -0.004 A 
ATOM      5  C6  UNL d   1      -3.828   5.519   4.773  0.00  0.00    -0.075 A 
ATOM      6  C7  UNL d   1      -3.108   5.999   5.999  0.00  0.00     0.076 C 
ATOM      7  C8  UNL d   1      -3.106   5.237   3.605  0.00  0.00     0.001 A 
ENDROOT
BRANCH   1   8
ATOM      8  C1  UNL d   1      -2.968   4.485   1.198  0.00  0.00     0.053 C 
ATOM      9  C   UNL d   1      -2.203   5.705   0.709  0.00  0.00     0.018 C 
ENDBRANCH   1   8
TORSDOF 1
ENDMDL
