MODEL 1
REMARK minimizedAffinity 4.30186939
REMARK minimizedRMSD -1
REMARK  1 active torsions:
REMARK  status: ('A' for Active; 'I' for Inactive)
REMARK    1  A    between atoms: C1_2  and  C2_3 
ROOT
ATOM      1  C2  UNL d   1      -3.440   5.987   2.212  0.00  0.00    -0.073 A 
ATOM      2  C3  UNL d   1      -4.835   5.994   2.105  0.00  0.00    -0.002 A 
ATOM      3  C4  UNL d   1      -5.630   5.991   3.251  0.00  0.00     0.004 A 
ATOM      4  C5  UNL d   1      -5.040   5.988   4.515  0.00  0.00    -0.004 A 
ATOM      5  C6  UNL d   1      -3.648   5.993   4.643  0.00  0.00    -0.075 A 
ATOM      6  C7  UNL d   1      -2.998   5.987   5.996  0.00  0.00     0.076 C 
ATOM      7  C8  UNL d   1      -2.856   5.993   3.487  0.00  0.00     0.001 A 
ENDROOT
BRANCH   1   8
ATOM      8  C1  UNL d   1      -2.576   5.996   0.977  0.00  0.00     0.053 C 
ATOM      9  C   UNL d   1      -2.736   4.724   0.161  0.00  0.00     0.018 C 
ENDBRANCH   1   8
TORSDOF 1
ENDMDL
