MODEL 1
REMARK minimizedAffinity 1.56118798
REMARK minimizedRMSD -1
REMARK  1 active torsions:
REMARK  status: ('A' for Active; 'I' for Inactive)
REMARK    1  A    between atoms: C1_2  and  C2_3 
ROOT
ATOM      1  C2  UNL d   1      -4.065   5.992   4.153  0.00  0.00    -0.073 A 
ATOM      2  C3  UNL d   1      -5.381   5.956   3.679  0.00  0.00    -0.002 A 
ATOM      3  C4  UNL d   1      -5.636   5.943   2.307  0.00  0.00     0.004 A 
ATOM      4  C5  UNL d   1      -4.580   5.957   1.396  0.00  0.00    -0.004 A 
ATOM      5  C6  UNL d   1      -3.258   5.981   1.850  0.00  0.00    -0.075 A 
ATOM      6  C7  UNL d   1      -2.110   5.999   0.884  0.00  0.00     0.076 C 
ATOM      7  C8  UNL d   1      -3.009   5.997   3.229  0.00  0.00     0.001 A 
ENDROOT
BRANCH   1   8
ATOM      8  C1  UNL d   1      -3.784   6.000   5.633  0.00  0.00     0.053 C 
ATOM      9  C   UNL d   1      -2.293   5.995   5.931  0.00  0.00     0.018 C 
ENDBRANCH   1   8
TORSDOF 1
ENDMDL
