MODEL 1
REMARK minimizedAffinity 1.57779264
REMARK minimizedRMSD -1
REMARK  1 active torsions:
REMARK  status: ('A' for Active; 'I' for Inactive)
REMARK    1  A    between atoms: C1_2  and  C2_3 
ROOT
ATOM      1  C2  UNL d   1      -3.526   3.806   2.628  0.00  0.00    -0.073 A 
ATOM      2  C3  UNL d   1      -4.737   4.382   2.227  0.00  0.00    -0.002 A 
ATOM      3  C4  UNL d   1      -5.263   5.472   2.922  0.00  0.00     0.004 A 
ATOM      4  C5  UNL d   1      -4.582   6.000   4.019  0.00  0.00    -0.004 A 
ATOM      5  C6  UNL d   1      -3.365   5.445   4.428  0.00  0.00    -0.075 A 
ATOM      6  C7  UNL d   1      -2.621   6.000   5.607  0.00  0.00     0.076 C 
ATOM      7  C8  UNL d   1      -2.844   4.349   3.726  0.00  0.00     0.001 A 
ENDROOT
BRANCH   1   8
ATOM      8  C1  UNL d   1      -2.951   2.633   1.877  0.00  0.00     0.053 C 
ATOM      9  C   UNL d   1      -2.983   1.356   2.702  0.00  0.00     0.018 C 
ENDBRANCH   1   8
TORSDOF 1
ENDMDL
