MODEL 1
REMARK minimizedAffinity 8.13504601
REMARK minimizedRMSD -1
REMARK  1 active torsions:
REMARK  status: ('A' for Active; 'I' for Inactive)
REMARK    1  A    between atoms: C1_2  and  C2_3 
ROOT
ATOM      1  C2  UNL d   1      -3.722   3.145   3.335  0.00  0.00    -0.073 A 
ATOM      2  C3  UNL d   1      -2.793   3.854   2.565  0.00  0.00    -0.002 A 
ATOM      3  C4  UNL d   1      -2.781   5.249   2.582  0.00  0.00     0.004 A 
ATOM      4  C5  UNL d   1      -3.691   5.949   3.374  0.00  0.00    -0.004 A 
ATOM      5  C6  UNL d   1      -4.619   5.259   4.160  0.00  0.00    -0.075 A 
ATOM      6  C7  UNL d   1      -5.607   5.997   5.015  0.00  0.00     0.076 C 
ATOM      7  C8  UNL d   1      -4.627   3.857   4.135  0.00  0.00     0.001 A 
ENDROOT
BRANCH   1   8
ATOM      8  C1  UNL d   1      -3.734   1.638   3.324  0.00  0.00     0.053 C 
ATOM      9  C   UNL d   1      -2.621   1.065   2.461  0.00  0.00     0.018 C 
ENDBRANCH   1   8
TORSDOF 1
ENDMDL
