MODEL 1
REMARK minimizedAffinity 2.96760917
REMARK minimizedRMSD -1
REMARK  1 active torsions:
REMARK  status: ('A' for Active; 'I' for Inactive)
REMARK    1  A    between atoms: C1_2  and  C2_3 
ROOT
ATOM      1  C2  UNL d   1      -3.159   5.930   2.253  0.00  0.00    -0.073 A 
ATOM      2  C3  UNL d   1      -4.558   5.966   2.234  0.00  0.00    -0.002 A 
ATOM      3  C4  UNL d   1      -5.278   5.997   3.429  0.00  0.00     0.004 A 
ATOM      4  C5  UNL d   1      -4.608   5.999   4.653  0.00  0.00    -0.004 A 
ATOM      5  C6  UNL d   1      -3.210   5.975   4.692  0.00  0.00    -0.075 A 
ATOM      6  C7  UNL d   1      -2.475   5.974   6.000  0.00  0.00     0.076 C 
ATOM      7  C8  UNL d   1      -2.494   5.941   3.488  0.00  0.00     0.001 A 
ENDROOT
BRANCH   1   8
ATOM      8  C1  UNL d   1      -2.377   5.903   0.965  0.00  0.00     0.053 C 
ATOM      9  C   UNL d   1      -0.879   5.999   1.206  0.00  0.00     0.018 C 
ENDBRANCH   1   8
TORSDOF 1
ENDMDL
