MODEL 1
REMARK minimizedAffinity 5.55059004
REMARK minimizedRMSD -1
REMARK  1 active torsions:
REMARK  status: ('A' for Active; 'I' for Inactive)
REMARK    1  A    between atoms: C1_2  and  C2_3 
ROOT
ATOM      1  C2  UNL d   1      -3.050   5.275   3.618  0.00  0.00    -0.073 A 
ATOM      2  C3  UNL d   1      -3.014   5.995   2.419  0.00  0.00    -0.002 A 
ATOM      3  C4  UNL d   1      -2.910   5.327   1.198  0.00  0.00     0.004 A 
ATOM      4  C5  UNL d   1      -2.849   3.934   1.163  0.00  0.00    -0.004 A 
ATOM      5  C6  UNL d   1      -2.896   3.196   2.350  0.00  0.00    -0.075 A 
ATOM      6  C7  UNL d   1      -2.829   1.697   2.330  0.00  0.00     0.076 C 
ATOM      7  C8  UNL d   1      -2.997   3.875   3.572  0.00  0.00     0.001 A 
ENDROOT
BRANCH   1   8
ATOM      8  C1  UNL d   1      -3.168   5.992   4.938  0.00  0.00     0.053 C 
ATOM      9  C   UNL d   1      -4.572   5.897   5.515  0.00  0.00     0.018 C 
ENDBRANCH   1   8
TORSDOF 1
ENDMDL
