MODEL 1
REMARK minimizedAffinity 7.88736248
REMARK minimizedRMSD -1
REMARK  1 active torsions:
REMARK  status: ('A' for Active; 'I' for Inactive)
REMARK    1  A    between atoms: C1_2  and  C2_3 
ROOT
ATOM      1  C2  UNL d   1      -2.549   5.252   3.711  0.00  0.00    -0.073 A 
ATOM      2  C3  UNL d   1      -2.721   5.984   2.531  0.00  0.00    -0.002 A 
ATOM      3  C4  UNL d   1      -2.982   5.329   1.327  0.00  0.00     0.004 A 
ATOM      4  C5  UNL d   1      -3.082   3.939   1.291  0.00  0.00    -0.004 A 
ATOM      5  C6  UNL d   1      -2.925   3.190   2.462  0.00  0.00    -0.075 A 
ATOM      6  C7  UNL d   1      -3.026   1.693   2.441  0.00  0.00     0.076 C 
ATOM      7  C8  UNL d   1      -2.659   3.855   3.667  0.00  0.00     0.001 A 
ENDROOT
BRANCH   1   8
ATOM      8  C1  UNL d   1      -2.272   5.955   5.015  0.00  0.00     0.053 C 
ATOM      9  C   UNL d   1      -3.426   5.813   5.995  0.00  0.00     0.018 C 
ENDBRANCH   1   8
TORSDOF 1
ENDMDL
