MODEL 1
REMARK minimizedAffinity 4.78869057
REMARK minimizedRMSD -1
REMARK  1 active torsions:
REMARK  status: ('A' for Active; 'I' for Inactive)
REMARK    1  A    between atoms: C1_2  and  C2_3 
ROOT
ATOM      1  C2  UNL d   1      -3.507   3.897   2.633  0.00  0.00    -0.073 A 
ATOM      2  C3  UNL d   1      -4.734   4.451   2.251  0.00  0.00    -0.002 A 
ATOM      3  C4  UNL d   1      -5.296   5.495   2.987  0.00  0.00     0.004 A 
ATOM      4  C5  UNL d   1      -4.635   6.000   4.106  0.00  0.00    -0.004 A 
ATOM      5  C6  UNL d   1      -3.402   5.468   4.497  0.00  0.00    -0.075 A 
ATOM      6  C7  UNL d   1      -2.679   5.998   5.700  0.00  0.00     0.076 C 
ATOM      7  C8  UNL d   1      -2.845   4.418   3.754  0.00  0.00     0.001 A 
ENDROOT
BRANCH   1   8
ATOM      8  C1  UNL d   1      -2.893   2.774   1.837  0.00  0.00     0.053 C 
ATOM      9  C   UNL d   1      -2.855   1.473   2.624  0.00  0.00     0.018 C 
ENDBRANCH   1   8
TORSDOF 1
ENDMDL
