MODEL 1
REMARK minimizedAffinity 25.1528282
REMARK minimizedRMSD -1
REMARK  0 active torsions:
REMARK  status: ('A' for Active; 'I' for Inactive)
ROOT
ATOM      1  C   UNL d   1       1.985   1.080   1.496  0.00  0.00     0.124 A 
ATOM      2  C1  UNL d   1       2.167   1.212   0.126  0.00  0.00     0.062 A 
ATOM      3  C2  UNL d   1       2.775   2.351  -0.394  0.00  0.00     0.162 A 
ATOM      4  C3  UNL d   1       3.207   3.368   0.457  0.00  0.00    -0.034 A 
ATOM      5  C4  UNL d   1       3.021   3.229   1.834  0.00  0.00     0.162 A 
ATOM      6  C5  UNL d   1       2.412   2.088   2.348  0.00  0.00     0.062 A 
ATOM      7  F   UNL d   1       2.238   1.963   3.672  0.00  0.00    -0.097 F 
ATOM      8  F1  UNL d   1       3.425   4.187   2.680  0.00  0.00    -0.096 F 
ATOM      9  I   UNL d   1       4.117   5.073  -0.315  0.00  0.00    -0.060 I 
ATOM     10  F2  UNL d   1       2.937   2.451  -1.721  0.00  0.00    -0.096 F 
ATOM     11  F3  UNL d   1       1.754   0.239  -0.700  0.00  0.00    -0.097 F 
ATOM     12  F4  UNL d   1       1.399  -0.017   1.993  0.00  0.00    -0.092 F 
ENDROOT
TORSDOF 0
ENDMDL
