MODEL 1
REMARK minimizedAffinity 7.38552904
REMARK minimizedRMSD -1
REMARK  0 active torsions:
REMARK  status: ('A' for Active; 'I' for Inactive)
ROOT
ATOM      1  C   UNL d   1       0.253  -2.201  -0.576  0.00  0.00     0.124 A 
ATOM      2  C1  UNL d   1      -0.083  -0.856  -0.639  0.00  0.00     0.062 A 
ATOM      3  C2  UNL d   1       0.914   0.111  -0.725  0.00  0.00     0.162 A 
ATOM      4  C3  UNL d   1       2.258  -0.263  -0.750  0.00  0.00    -0.034 A 
ATOM      5  C4  UNL d   1       2.588  -1.618  -0.685  0.00  0.00     0.162 A 
ATOM      6  C5  UNL d   1       1.588  -2.581  -0.599  0.00  0.00     0.062 A 
ATOM      7  F   UNL d   1       1.914  -3.880  -0.538  0.00  0.00    -0.097 F 
ATOM      8  F1  UNL d   1       3.870  -2.013  -0.706  0.00  0.00    -0.096 F 
ATOM      9  I   UNL d   1       3.752   1.180  -0.878  0.00  0.00    -0.060 I 
ATOM     10  F2  UNL d   1       0.561   1.404  -0.785  0.00  0.00    -0.096 F 
ATOM     11  F3  UNL d   1      -1.371  -0.487  -0.616  0.00  0.00    -0.097 F 
ATOM     12  F4  UNL d   1      -0.708  -3.130  -0.493  0.00  0.00    -0.092 F 
ENDROOT
TORSDOF 0
ENDMDL
