MODEL 1
REMARK minimizedAffinity 8.39848137
REMARK minimizedRMSD -1
REMARK  0 active torsions:
REMARK  status: ('A' for Active; 'I' for Inactive)
ROOT
ATOM      1  C   UNL d   1       3.644  -0.318  -1.159  0.00  0.00     0.124 A 
ATOM      2  C1  UNL d   1       2.785   0.684  -0.728  0.00  0.00     0.062 A 
ATOM      3  C2  UNL d   1       1.409   0.475  -0.732  0.00  0.00     0.162 A 
ATOM      4  C3  UNL d   1       0.882  -0.741  -1.168  0.00  0.00    -0.034 A 
ATOM      5  C4  UNL d   1       1.753  -1.743  -1.601  0.00  0.00     0.162 A 
ATOM      6  C5  UNL d   1       3.127  -1.530  -1.595  0.00  0.00     0.062 A 
ATOM      7  F   UNL d   1       3.956  -2.498  -2.011  0.00  0.00    -0.097 F 
ATOM      8  F1  UNL d   1       1.280  -2.924  -2.026  0.00  0.00    -0.096 F 
ATOM      9  I   UNL d   1      -1.175  -1.056  -1.175  0.00  0.00    -0.060 I 
ATOM     10  F2  UNL d   1       0.602   1.461  -0.310  0.00  0.00    -0.096 F 
ATOM     11  F3  UNL d   1       3.282   1.856  -0.307  0.00  0.00    -0.097 F 
ATOM     12  F4  UNL d   1       4.968  -0.114  -1.155  0.00  0.00    -0.092 F 
ENDROOT
TORSDOF 0
ENDMDL
