MODEL 1
REMARK minimizedAffinity 17.596468
REMARK minimizedRMSD -1
REMARK  0 active torsions:
REMARK  status: ('A' for Active; 'I' for Inactive)
ROOT
ATOM      1  C   UNL d   1      -1.290  -3.007  -0.723  0.00  0.00     0.124 A 
ATOM      2  C1  UNL d   1      -1.501  -1.754  -1.282  0.00  0.00     0.062 A 
ATOM      3  C2  UNL d   1      -0.470  -0.819  -1.313  0.00  0.00     0.162 A 
ATOM      4  C3  UNL d   1       0.781  -1.133  -0.783  0.00  0.00    -0.034 A 
ATOM      5  C4  UNL d   1       0.985  -2.395  -0.222  0.00  0.00     0.162 A 
ATOM      6  C5  UNL d   1      -0.048  -3.326  -0.194  0.00  0.00     0.062 A 
ATOM      7  F   UNL d   1       0.157  -4.536   0.347  0.00  0.00    -0.097 F 
ATOM      8  F1  UNL d   1       2.176  -2.731   0.296  0.00  0.00    -0.096 F 
ATOM      9  I   UNL d   1       2.325   0.262  -0.827  0.00  0.00    -0.060 I 
ATOM     10  F2  UNL d   1      -0.702   0.384  -1.859  0.00  0.00    -0.096 F 
ATOM     11  F3  UNL d   1      -2.700  -1.442  -1.794  0.00  0.00    -0.097 F 
ATOM     12  F4  UNL d   1      -2.284  -3.904  -0.695  0.00  0.00    -0.092 F 
ENDROOT
TORSDOF 0
ENDMDL
