MODEL 1
REMARK minimizedAffinity 25.8385925
REMARK minimizedRMSD -1
REMARK  0 active torsions:
REMARK  status: ('A' for Active; 'I' for Inactive)
ROOT
ATOM      1  C   UNL d   1      -1.680  -0.496  -4.029  0.00  0.00     0.124 A 
ATOM      2  C1  UNL d   1      -0.979  -0.375  -2.837  0.00  0.00     0.062 A 
ATOM      3  C2  UNL d   1      -1.582   0.207  -1.727  0.00  0.00     0.162 A 
ATOM      4  C3  UNL d   1      -2.895   0.673  -1.802  0.00  0.00    -0.034 A 
ATOM      5  C4  UNL d   1      -3.593   0.549  -3.005  0.00  0.00     0.162 A 
ATOM      6  C5  UNL d   1      -2.986  -0.034  -4.112  0.00  0.00     0.062 A 
ATOM      7  F   UNL d   1      -3.664  -0.150  -5.263  0.00  0.00    -0.097 F 
ATOM      8  F1  UNL d   1      -4.856   0.987  -3.112  0.00  0.00    -0.096 F 
ATOM      9  I   UNL d   1      -3.800   1.546  -0.144  0.00  0.00    -0.060 I 
ATOM     10  F2  UNL d   1      -0.881   0.311  -0.588  0.00  0.00    -0.096 F 
ATOM     11  F3  UNL d   1       0.283  -0.821  -2.755  0.00  0.00    -0.097 F 
ATOM     12  F4  UNL d   1      -1.097  -1.057  -5.097  0.00  0.00    -0.092 F 
ENDROOT
TORSDOF 0
ENDMDL
