MODEL 1
REMARK minimizedAffinity 19.1484795
REMARK minimizedRMSD -1
REMARK  0 active torsions:
REMARK  status: ('A' for Active; 'I' for Inactive)
ROOT
ATOM      1  C   UNL d   1       3.630   0.723   0.833  0.00  0.00     0.124 A 
ATOM      2  C1  UNL d   1       3.496   0.936  -0.532  0.00  0.00     0.062 A 
ATOM      3  C2  UNL d   1       3.929   2.131  -1.100  0.00  0.00     0.162 A 
ATOM      4  C3  UNL d   1       4.501   3.122  -0.303  0.00  0.00    -0.034 A 
ATOM      5  C4  UNL d   1       4.633   2.900   1.069  0.00  0.00     0.162 A 
ATOM      6  C5  UNL d   1       4.198   1.705   1.632  0.00  0.00     0.062 A 
ATOM      7  F   UNL d   1       4.329   1.500   2.951  0.00  0.00    -0.097 F 
ATOM      8  F1  UNL d   1       5.179   3.832   1.865  0.00  0.00    -0.096 F 
ATOM      9  I   UNL d   1       5.150   4.910  -1.148  0.00  0.00    -0.060 I 
ATOM     10  F2  UNL d   1       3.786   2.309  -2.422  0.00  0.00    -0.096 F 
ATOM     11  F3  UNL d   1       2.946  -0.011  -1.306  0.00  0.00    -0.097 F 
ATOM     12  F4  UNL d   1       3.212  -0.427   1.377  0.00  0.00    -0.092 F 
ENDROOT
TORSDOF 0
ENDMDL
