MODEL 1
REMARK minimizedAffinity 25.8653259
REMARK minimizedRMSD -1
REMARK  0 active torsions:
REMARK  status: ('A' for Active; 'I' for Inactive)
ROOT
ATOM      1  C   UNL d   1       2.273  -2.333  -1.844  0.00  0.00     0.124 A 
ATOM      2  C1  UNL d   1       2.335  -2.988  -0.622  0.00  0.00     0.062 A 
ATOM      3  C2  UNL d   1       3.177  -2.518   0.381  0.00  0.00     0.162 A 
ATOM      4  C3  UNL d   1       3.964  -1.386   0.167  0.00  0.00    -0.034 A 
ATOM      5  C4  UNL d   1       3.897  -0.733  -1.065  0.00  0.00     0.162 A 
ATOM      6  C5  UNL d   1       3.053  -1.207  -2.065  0.00  0.00     0.062 A 
ATOM      7  F   UNL d   1       2.994  -0.573  -3.245  0.00  0.00    -0.097 F 
ATOM      8  F1  UNL d   1       4.639   0.358  -1.304  0.00  0.00    -0.096 F 
ATOM      9  I   UNL d   1       5.225  -0.681   1.665  0.00  0.00    -0.060 I 
ATOM     10  F2  UNL d   1       3.218  -3.171   1.552  0.00  0.00    -0.096 F 
ATOM     11  F3  UNL d   1       1.583  -4.077  -0.408  0.00  0.00    -0.097 F 
ATOM     12  F4  UNL d   1       1.462  -2.787  -2.809  0.00  0.00    -0.092 F 
ENDROOT
TORSDOF 0
ENDMDL
