MODEL 1
REMARK minimizedAffinity 20.9691658
REMARK minimizedRMSD -1
REMARK  0 active torsions:
REMARK  status: ('A' for Active; 'I' for Inactive)
ROOT
ATOM      1  C   UNL d   1       3.452   1.053  -1.762  0.00  0.00     0.124 A 
ATOM      2  C1  UNL d   1       2.923   0.091  -0.914  0.00  0.00     0.062 A 
ATOM      3  C2  UNL d   1       2.791   0.353   0.446  0.00  0.00     0.162 A 
ATOM      4  C3  UNL d   1       3.188   1.584   0.968  0.00  0.00    -0.034 A 
ATOM      5  C4  UNL d   1       3.721   2.547   0.109  0.00  0.00     0.162 A 
ATOM      6  C5  UNL d   1       3.851   2.280  -1.250  0.00  0.00     0.062 A 
ATOM      7  F   UNL d   1       4.363   3.211  -2.068  0.00  0.00    -0.097 F 
ATOM      8  F1  UNL d   1       4.113   3.741   0.576  0.00  0.00    -0.096 F 
ATOM      9  I   UNL d   1       2.993   1.980   3.002  0.00  0.00    -0.060 I 
ATOM     10  F2  UNL d   1       2.275  -0.595   1.243  0.00  0.00    -0.096 F 
ATOM     11  F3  UNL d   1       2.538  -1.095  -1.406  0.00  0.00    -0.097 F 
ATOM     12  F4  UNL d   1       3.579   0.798  -3.071  0.00  0.00    -0.092 F 
ENDROOT
TORSDOF 0
ENDMDL
