MODEL 1
REMARK minimizedAffinity 2.10059428
REMARK minimizedRMSD -1
REMARK  0 active torsions:
REMARK  status: ('A' for Active; 'I' for Inactive)
ROOT
ATOM      1  C   UNL d   1       1.444  -1.823   2.945  0.00  0.00     0.124 A 
ATOM      2  C1  UNL d   1       1.641  -3.020   2.270  0.00  0.00     0.062 A 
ATOM      3  C2  UNL d   1       1.169  -4.213   2.808  0.00  0.00     0.162 A 
ATOM      4  C3  UNL d   1       0.492  -4.216   4.028  0.00  0.00    -0.034 A 
ATOM      5  C4  UNL d   1       0.298  -3.009   4.701  0.00  0.00     0.162 A 
ATOM      6  C5  UNL d   1       0.772  -1.819   4.159  0.00  0.00     0.062 A 
ATOM      7  F   UNL d   1       0.580  -0.663   4.813  0.00  0.00    -0.097 F 
ATOM      8  F1  UNL d   1      -0.349  -2.975   5.876  0.00  0.00    -0.096 F 
ATOM      9  I   UNL d   1      -0.217  -5.998   4.836  0.00  0.00    -0.060 I 
ATOM     10  F2  UNL d   1       1.374  -5.355   2.135  0.00  0.00    -0.096 F 
ATOM     11  F3  UNL d   1       2.291  -3.027   1.097  0.00  0.00    -0.097 F 
ATOM     12  F4  UNL d   1       1.901  -0.677   2.425  0.00  0.00    -0.092 F 
ENDROOT
TORSDOF 0
ENDMDL
