MODEL 1
REMARK minimizedAffinity 15.7315178
REMARK minimizedRMSD -1
REMARK  0 active torsions:
REMARK  status: ('A' for Active; 'I' for Inactive)
ROOT
ATOM      1  C   UNL d   1      -1.856   0.045  -2.058  0.00  0.00     0.124 A 
ATOM      2  C1  UNL d   1      -3.001   0.358  -2.777  0.00  0.00     0.062 A 
ATOM      3  C2  UNL d   1      -4.186   0.660  -2.111  0.00  0.00     0.162 A 
ATOM      4  C3  UNL d   1      -4.231   0.652  -0.717  0.00  0.00    -0.034 A 
ATOM      5  C4  UNL d   1      -3.075   0.335  -0.000  0.00  0.00     0.162 A 
ATOM      6  C5  UNL d   1      -1.894   0.034  -0.670  0.00  0.00     0.062 A 
ATOM      7  F   UNL d   1      -0.789  -0.268   0.026  0.00  0.00    -0.097 F 
ATOM      8  F1  UNL d   1      -3.084   0.318   1.341  0.00  0.00    -0.096 F 
ATOM      9  I   UNL d   1      -6.000   1.103   0.283  0.00  0.00    -0.060 I 
ATOM     10  F2  UNL d   1      -5.277   0.959  -2.832  0.00  0.00    -0.096 F 
ATOM     11  F3  UNL d   1      -2.967   0.368  -4.117  0.00  0.00    -0.097 F 
ATOM     12  F4  UNL d   1      -0.718  -0.246  -2.701  0.00  0.00    -0.092 F 
ENDROOT
TORSDOF 0
ENDMDL
