MODEL 1
REMARK minimizedAffinity 2.10425758
REMARK minimizedRMSD -1
REMARK  0 active torsions:
REMARK  status: ('A' for Active; 'I' for Inactive)
ROOT
ATOM      1  C   UNL d   1       2.222   0.776   1.575  0.00  0.00     0.172 C 
ATOM      2  N   UNL d   1       1.125   1.259   0.770  0.00  0.00    -0.070 N 
ATOM      3  C1  UNL d   1      -0.131   0.715   0.723  0.00  0.00    -0.004 A 
ATOM      4  C2  UNL d   1      -0.881   1.462  -0.159  0.00  0.00    -0.047 A 
ATOM      5  C3  UNL d   1      -0.047   2.489  -0.660  0.00  0.00    -0.047 A 
ATOM      6  C4  UNL d   1       1.190   2.340  -0.069  0.00  0.00    -0.004 A 
ENDROOT
TORSDOF 0
ENDMDL
