MODEL 1
REMARK minimizedAffinity -2.51462126
REMARK minimizedRMSD -1
REMARK  0 active torsions:
REMARK  status: ('A' for Active; 'I' for Inactive)
ROOT
ATOM      1  C   UNL d   1       2.075   1.033   0.329  0.00  0.00     0.172 C 
ATOM      2  N   UNL d   1       0.696   0.609   0.257  0.00  0.00    -0.070 N 
ATOM      3  C1  UNL d   1       0.258  -0.688   0.277  0.00  0.00    -0.004 A 
ATOM      4  C2  UNL d   1      -1.117  -0.671   0.189  0.00  0.00    -0.047 A 
ATOM      5  C3  UNL d   1      -1.519   0.683   0.112  0.00  0.00    -0.047 A 
ATOM      6  C4  UNL d   1      -0.377   1.454   0.156  0.00  0.00    -0.004 A 
ENDROOT
TORSDOF 0
ENDMDL
