MODEL 1
REMARK minimizedAffinity -4.04786062
REMARK minimizedRMSD -1
REMARK  0 active torsions:
REMARK  status: ('A' for Active; 'I' for Inactive)
ROOT
ATOM      1  C   UNL d   1       1.910   1.109  -0.224  0.00  0.00     0.172 C 
ATOM      2  N   UNL d   1       1.677  -0.124   0.491  0.00  0.00    -0.070 N 
ATOM      3  C1  UNL d   1       2.589  -0.775   1.279  0.00  0.00    -0.004 A 
ATOM      4  C2  UNL d   1       1.982  -1.906   1.780  0.00  0.00    -0.047 A 
ATOM      5  C3  UNL d   1       0.660  -1.937   1.275  0.00  0.00    -0.047 A 
ATOM      6  C4  UNL d   1       0.498  -0.822   0.480  0.00  0.00    -0.004 A 
ENDROOT
TORSDOF 0
ENDMDL
