MODEL 1
REMARK minimizedAffinity -3.51808643
REMARK minimizedRMSD -1
REMARK  0 active torsions:
REMARK  status: ('A' for Active; 'I' for Inactive)
ROOT
ATOM      1  C   UNL d   1       2.454   2.127   3.099  0.00  0.00     0.172 C 
ATOM      2  N   UNL d   1       2.521   0.854   2.421  0.00  0.00    -0.070 N 
ATOM      3  C1  UNL d   1       1.952   0.563   1.210  0.00  0.00    -0.004 A 
ATOM      4  C2  UNL d   1       2.244  -0.750   0.911  0.00  0.00    -0.047 A 
ATOM      5  C3  UNL d   1       3.014  -1.267   1.980  0.00  0.00    -0.047 A 
ATOM      6  C4  UNL d   1       3.171  -0.253   2.901  0.00  0.00    -0.004 A 
ENDROOT
TORSDOF 0
ENDMDL
