MODEL 1
REMARK minimizedAffinity -2.76945496
REMARK minimizedRMSD -1
REMARK  0 active torsions:
REMARK  status: ('A' for Active; 'I' for Inactive)
ROOT
ATOM      1  C   UNL d   1      -1.129  -0.070  -0.174  0.00  0.00     0.172 C 
ATOM      2  N   UNL d   1       0.209   0.133   0.332  0.00  0.00    -0.070 N 
ATOM      3  C1  UNL d   1       0.859  -0.683   1.219  0.00  0.00    -0.004 A 
ATOM      4  C2  UNL d   1       2.108  -0.147   1.448  0.00  0.00    -0.047 A 
ATOM      5  C3  UNL d   1       2.212   1.032   0.672  0.00  0.00    -0.047 A 
ATOM      6  C4  UNL d   1       1.022   1.181  -0.009  0.00  0.00    -0.004 A 
ENDROOT
TORSDOF 0
ENDMDL
