MODEL 1
REMARK minimizedAffinity -3.92197037
REMARK minimizedRMSD -1
REMARK  0 active torsions:
REMARK  status: ('A' for Active; 'I' for Inactive)
ROOT
ATOM      1  C   UNL d   1      -0.076   0.238   0.195  0.00  0.00     0.172 C 
ATOM      2  N   UNL d   1       1.191  -0.269   0.665  0.00  0.00    -0.070 N 
ATOM      3  C1  UNL d   1       2.415   0.296   0.426  0.00  0.00    -0.004 A 
ATOM      4  C2  UNL d   1       3.369  -0.485   1.043  0.00  0.00    -0.047 A 
ATOM      5  C3  UNL d   1       2.694  -1.558   1.673  0.00  0.00    -0.047 A 
ATOM      6  C4  UNL d   1       1.347  -1.400   1.423  0.00  0.00    -0.004 A 
ENDROOT
TORSDOF 0
ENDMDL
