MODEL 1
REMARK minimizedAffinity -2.05627322
REMARK minimizedRMSD -1
REMARK  0 active torsions:
REMARK  status: ('A' for Active; 'I' for Inactive)
ROOT
ATOM      1  C   UNL d   1       2.158   1.123   1.029  0.00  0.00     0.172 C 
ATOM      2  N   UNL d   1       0.840   0.696   0.625  0.00  0.00    -0.070 N 
ATOM      3  C1  UNL d   1       0.381  -0.595   0.634  0.00  0.00    -0.004 A 
ATOM      4  C2  UNL d   1      -0.920  -0.584   0.179  0.00  0.00    -0.047 A 
ATOM      5  C3  UNL d   1      -1.255   0.760  -0.113  0.00  0.00    -0.047 A 
ATOM      6  C4  UNL d   1      -0.147   1.531   0.172  0.00  0.00    -0.004 A 
ENDROOT
TORSDOF 0
ENDMDL
