MODEL 1
REMARK minimizedAffinity -3.98592544
REMARK minimizedRMSD -1
REMARK  0 active torsions:
REMARK  status: ('A' for Active; 'I' for Inactive)
ROOT
ATOM      1  C   UNL d   1       2.578  -1.697   1.533  0.00  0.00     0.172 C 
ATOM      2  N   UNL d   1       1.730  -0.624   1.071  0.00  0.00    -0.070 N 
ATOM      3  C1  UNL d   1       2.037   0.710   1.113  0.00  0.00    -0.004 A 
ATOM      4  C2  UNL d   1       0.973   1.405   0.580  0.00  0.00    -0.047 A 
ATOM      5  C3  UNL d   1      -0.008   0.455   0.205  0.00  0.00    -0.047 A 
ATOM      6  C4  UNL d   1       0.487  -0.792   0.520  0.00  0.00    -0.004 A 
ENDROOT
TORSDOF 0
ENDMDL
