MODEL 1
REMARK minimizedAffinity -4.27898455
REMARK minimizedRMSD -1
REMARK  0 active torsions:
REMARK  status: ('A' for Active; 'I' for Inactive)
ROOT
ATOM      1  C   UNL d   1      -0.851  -0.075  -0.074  0.00  0.00     0.172 C 
ATOM      2  N   UNL d   1       0.430  -0.407   0.504  0.00  0.00    -0.070 N 
ATOM      3  C1  UNL d   1       0.740  -1.580   1.140  0.00  0.00    -0.004 A 
ATOM      4  C2  UNL d   1       2.055  -1.506   1.545  0.00  0.00    -0.047 A 
ATOM      5  C3  UNL d   1       2.553  -0.245   1.140  0.00  0.00    -0.047 A 
ATOM      6  C4  UNL d   1       1.526   0.415   0.498  0.00  0.00    -0.004 A 
ENDROOT
TORSDOF 0
ENDMDL
