MODEL 1
REMARK minimizedAffinity -2.5553534
REMARK minimizedRMSD -1
REMARK  0 active torsions:
REMARK  status: ('A' for Active; 'I' for Inactive)
ROOT
ATOM      1  C   UNL d   1      -2.149  -0.414  -2.161  0.00  0.00     0.172 C 
ATOM      2  N   UNL d   1      -1.389  -0.375  -0.933  0.00  0.00    -0.070 N 
ATOM      3  C1  UNL d   1      -0.270   0.381  -0.710  0.00  0.00    -0.004 A 
ATOM      4  C2  UNL d   1       0.155   0.138   0.578  0.00  0.00    -0.047 A 
ATOM      5  C3  UNL d   1      -0.741  -0.798   1.149  0.00  0.00    -0.047 A 
ATOM      6  C4  UNL d   1      -1.686  -1.098   0.192  0.00  0.00    -0.004 A 
ENDROOT
TORSDOF 0
ENDMDL
