MODEL 1
REMARK minimizedAffinity 4.0614934
REMARK minimizedRMSD -1
REMARK  0 active torsions:
REMARK  status: ('A' for Active; 'I' for Inactive)
ROOT
ATOM      1  C4' PXY d   1      -5.750  -0.725   2.271  0.00  0.00     0.077 C 
ATOM      2  C1' PXY d   1      -4.550  -5.998   4.312  0.00  0.00     0.077 C 
ATOM      3  C1  PXY d   1      -4.861  -4.610   3.788  0.00  0.00    -0.082 A 
ATOM      4  C2  PXY d   1      -5.731  -4.463   2.802  0.00  0.00     0.003 A 
ATOM      5  C3  PXY d   1      -6.000  -3.217   2.295  0.00  0.00     0.003 A 
ATOM      6  C4  PXY d   1      -5.412  -2.106   2.838  0.00  0.00    -0.082 A 
ATOM      7  C5  PXY d   1      -4.531  -2.248   3.851  0.00  0.00     0.003 A 
ATOM      8  C6  PXY d   1      -4.241  -3.524   4.324  0.00  0.00     0.003 A 
ENDROOT
TORSDOF 0
ENDMDL
