MODEL 1
REMARK minimizedAffinity 0.351412982
REMARK minimizedRMSD -1
REMARK  0 active torsions:
REMARK  status: ('A' for Active; 'I' for Inactive)
ROOT
ATOM      1  C4' PXY d   1      -5.999  -5.654   1.996  0.00  0.00     0.077 C 
ATOM      2  C1' PXY d   1      -4.011  -0.511   3.731  0.00  0.00     0.077 C 
ATOM      3  C1  PXY d   1      -4.544  -1.854   3.272  0.00  0.00    -0.082 A 
ATOM      4  C2  PXY d   1      -4.064  -2.965   3.807  0.00  0.00     0.003 A 
ATOM      5  C3  PXY d   1      -4.511  -4.189   3.381  0.00  0.00     0.003 A 
ATOM      6  C4  PXY d   1      -5.498  -4.276   2.435  0.00  0.00    -0.082 A 
ATOM      7  C5  PXY d   1      -6.000  -3.146   1.892  0.00  0.00     0.003 A 
ATOM      8  C6  PXY d   1      -5.503  -1.915   2.309  0.00  0.00     0.003 A 
ENDROOT
TORSDOF 0
ENDMDL
