MODEL 1
REMARK minimizedAffinity 5.84077883
REMARK minimizedRMSD -1
REMARK  0 active torsions:
REMARK  status: ('A' for Active; 'I' for Inactive)
ROOT
ATOM      1  C4' PXY d   1       3.616  -4.887   0.171  0.00  0.00     0.077 C 
ATOM      2  C1' PXY d   1       3.071  -3.231  -5.341  0.00  0.00     0.077 C 
ATOM      3  C1  PXY d   1       3.206  -3.655  -3.891  0.00  0.00    -0.082 A 
ATOM      4  C2  PXY d   1       4.236  -4.400  -3.521  0.00  0.00     0.003 A 
ATOM      5  C3  PXY d   1       4.357  -4.819  -2.222  0.00  0.00     0.003 A 
ATOM      6  C4  PXY d   1       3.443  -4.428  -1.280  0.00  0.00    -0.082 A 
ATOM      7  C5  PXY d   1       2.396  -3.659  -1.647  0.00  0.00     0.003 A 
ATOM      8  C6  PXY d   1       2.269  -3.278  -2.980  0.00  0.00     0.003 A 
ENDROOT
TORSDOF 0
ENDMDL
