MODEL 1
REMARK minimizedAffinity 8.65910625
REMARK minimizedRMSD -1
REMARK  0 active torsions:
REMARK  status: ('A' for Active; 'I' for Inactive)
ROOT
ATOM      1  C4' PXY d   1       2.992  -4.047  -4.518  0.00  0.00     0.077 C 
ATOM      2  C1' PXY d   1       3.571  -5.637   1.010  0.00  0.00     0.077 C 
ATOM      3  C1  PXY d   1       3.417  -5.232  -0.443  0.00  0.00    -0.082 A 
ATOM      4  C2  PXY d   1       3.996  -4.125  -0.879  0.00  0.00     0.003 A 
ATOM      5  C3  PXY d   1       3.840  -3.728  -2.182  0.00  0.00     0.003 A 
ATOM      6  C4  PXY d   1       3.128  -4.499  -3.061  0.00  0.00    -0.082 A 
ATOM      7  C5  PXY d   1       2.543  -5.635  -2.627  0.00  0.00     0.003 A 
ATOM      8  C6  PXY d   1       2.679  -6.000  -1.290  0.00  0.00     0.003 A 
ENDROOT
TORSDOF 0
ENDMDL
