MODEL 1
REMARK minimizedAffinity 4.87526703
REMARK minimizedRMSD -1
REMARK  0 active torsions:
REMARK  status: ('A' for Active; 'I' for Inactive)
ROOT
ATOM      1  C4' PXY d   1       4.897  -5.480  -0.423  0.00  0.00     0.077 C 
ATOM      2  C1' PXY d   1       2.171  -3.628  -5.172  0.00  0.00     0.077 C 
ATOM      3  C1  PXY d   1       2.894  -4.121  -3.934  0.00  0.00    -0.082 A 
ATOM      4  C2  PXY d   1       2.287  -4.072  -2.760  0.00  0.00     0.003 A 
ATOM      5  C3  PXY d   1       2.937  -4.484  -1.625  0.00  0.00     0.003 A 
ATOM      6  C4  PXY d   1       4.203  -5.001  -1.701  0.00  0.00    -0.082 A 
ATOM      7  C5  PXY d   1       4.825  -5.064  -2.898  0.00  0.00     0.003 A 
ATOM      8  C6  PXY d   1       4.163  -4.603  -4.031  0.00  0.00     0.003 A 
ENDROOT
TORSDOF 0
ENDMDL
