MODEL 1
REMARK minimizedAffinity 0.471970677
REMARK minimizedRMSD -1
REMARK  0 active torsions:
REMARK  status: ('A' for Active; 'I' for Inactive)
ROOT
ATOM      1  C4' PXY d   1       2.959  -3.342  -5.448  0.00  0.00     0.077 C 
ATOM      2  C1' PXY d   1       4.254  -5.155  -0.114  0.00  0.00     0.077 C 
ATOM      3  C1  PXY d   1       3.927  -4.681  -1.516  0.00  0.00    -0.082 A 
ATOM      4  C2  PXY d   1       2.863  -3.921  -1.718  0.00  0.00     0.003 A 
ATOM      5  C3  PXY d   1       2.535  -3.510  -2.984  0.00  0.00     0.003 A 
ATOM      6  C4  PXY d   1       3.333  -3.836  -4.047  0.00  0.00    -0.082 A 
ATOM      7  C5  PXY d   1       4.427  -4.602  -3.848  0.00  0.00     0.003 A 
ATOM      8  C6  PXY d   1       4.720  -5.044  -2.561  0.00  0.00     0.003 A 
ENDROOT
TORSDOF 0
ENDMDL
