MODEL 1
REMARK minimizedAffinity 1.47832668
REMARK minimizedRMSD -1
REMARK  0 active torsions:
REMARK  status: ('A' for Active; 'I' for Inactive)
ROOT
ATOM      1  C4' PXY d   1       1.836  -2.470  -3.035  0.00  0.00     0.077 C 
ATOM      2  C1' PXY d   1       5.448  -5.668   0.149  0.00  0.00     0.077 C 
ATOM      3  C1  PXY d   1       4.507  -4.832  -0.696  0.00  0.00    -0.082 A 
ATOM      4  C2  PXY d   1       3.813  -3.857  -0.133  0.00  0.00     0.003 A 
ATOM      5  C3  PXY d   1       2.934  -3.113  -0.877  0.00  0.00     0.003 A 
ATOM      6  C4  PXY d   1       2.804  -3.333  -2.222  0.00  0.00    -0.082 A 
ATOM      7  C5  PXY d   1       3.517  -4.319  -2.806  0.00  0.00     0.003 A 
ATOM      8  C6  PXY d   1       4.373  -5.091  -2.026  0.00  0.00     0.003 A 
ENDROOT
TORSDOF 0
ENDMDL
