MODEL 1
REMARK minimizedAffinity 11.3014965
REMARK minimizedRMSD -1
REMARK  0 active torsions:
REMARK  status: ('A' for Active; 'I' for Inactive)
ROOT
ATOM      1  C4' PXY d   1      -3.286  -5.641   5.247  0.00  0.00     0.077 C 
ATOM      2  C1' PXY d   1      -5.998  -1.795   1.891  0.00  0.00     0.077 C 
ATOM      3  C1  PXY d   1      -5.296  -2.802   2.780  0.00  0.00    -0.082 A 
ATOM      4  C2  PXY d   1      -3.999  -3.015   2.630  0.00  0.00     0.003 A 
ATOM      5  C3  PXY d   1      -3.355  -3.946   3.404  0.00  0.00     0.003 A 
ATOM      6  C4  PXY d   1      -4.034  -4.627   4.378  0.00  0.00    -0.082 A 
ATOM      7  C5  PXY d   1      -5.356  -4.407   4.545  0.00  0.00     0.003 A 
ATOM      8  C6  PXY d   1      -6.000  -3.488   3.721  0.00  0.00     0.003 A 
ENDROOT
TORSDOF 0
ENDMDL
