MODEL 1
REMARK minimizedAffinity 5.02160597
REMARK minimizedRMSD -1
REMARK  0 active torsions:
REMARK  status: ('A' for Active; 'I' for Inactive)
ROOT
ATOM      1  C4' PXY d   1       5.286  -5.723   0.134  0.00  0.00     0.077 C 
ATOM      2  C1' PXY d   1       1.655  -3.012  -3.454  0.00  0.00     0.077 C 
ATOM      3  C1  PXY d   1       2.607  -3.733  -2.521  0.00  0.00    -0.082 A 
ATOM      4  C2  PXY d   1       2.645  -3.402  -1.241  0.00  0.00     0.003 A 
ATOM      5  C3  PXY d   1       3.523  -4.022  -0.390  0.00  0.00     0.003 A 
ATOM      6  C4  PXY d   1       4.333  -5.028  -0.842  0.00  0.00    -0.082 A 
ATOM      7  C5  PXY d   1       4.293  -5.379  -2.145  0.00  0.00     0.003 A 
ATOM      8  C6  PXY d   1       3.424  -4.710  -3.002  0.00  0.00     0.003 A 
ENDROOT
TORSDOF 0
ENDMDL
