MODEL 1
REMARK minimizedAffinity 8.39072609
REMARK minimizedRMSD -1
REMARK  0 active torsions:
REMARK  status: ('A' for Active; 'I' for Inactive)
ROOT
ATOM      1  C4' PXY d   1       4.473  -5.015   0.268  0.00  0.00     0.077 C 
ATOM      2  C1' PXY d   1       2.117  -4.148  -4.938  0.00  0.00     0.077 C 
ATOM      3  C1  PXY d   1       2.728  -4.365  -3.568  0.00  0.00    -0.082 A 
ATOM      4  C2  PXY d   1       3.894  -4.982  -3.462  0.00  0.00     0.003 A 
ATOM      5  C3  PXY d   1       4.445  -5.215  -2.229  0.00  0.00     0.003 A 
ATOM      6  C4  PXY d   1       3.823  -4.766  -1.095  0.00  0.00    -0.082 A 
ATOM      7  C5  PXY d   1       2.638  -4.126  -1.196  0.00  0.00     0.003 A 
ATOM      8  C6  PXY d   1       2.075  -3.936  -2.454  0.00  0.00     0.003 A 
ENDROOT
TORSDOF 0
ENDMDL
