MODEL 1
REMARK minimizedAffinity 1.08784044
REMARK minimizedRMSD -1
REMARK  0 active torsions:
REMARK  status: ('A' for Active; 'I' for Inactive)
ROOT
ATOM      1  C4' PXY d   1       4.112  -4.131   0.343  0.00  0.00     0.077 C 
ATOM      2  C1' PXY d   1       2.757  -3.040  -5.170  0.00  0.00     0.077 C 
ATOM      3  C1  PXY d   1       3.105  -3.316  -3.720  0.00  0.00    -0.082 A 
ATOM      4  C2  PXY d   1       4.217  -3.970  -3.428  0.00  0.00     0.003 A 
ATOM      5  C3  PXY d   1       4.531  -4.256  -2.124  0.00  0.00     0.003 A 
ATOM      6  C4  PXY d   1       3.725  -3.822  -1.106  0.00  0.00    -0.082 A 
ATOM      7  C5  PXY d   1       2.594  -3.145  -1.396  0.00  0.00     0.003 A 
ATOM      8  C6  PXY d   1       2.272  -2.901  -2.728  0.00  0.00     0.003 A 
ENDROOT
TORSDOF 0
ENDMDL
