MODEL 1
REMARK minimizedAffinity 1.14249921
REMARK minimizedRMSD -1
REMARK  0 active torsions:
REMARK  status: ('A' for Active; 'I' for Inactive)
ROOT
ATOM      1  C4' PXY d   1       4.253  -4.616   0.174  0.00  0.00     0.077 C 
ATOM      2  C1' PXY d   1       2.762  -2.666  -5.060  0.00  0.00     0.077 C 
ATOM      3  C1  PXY d   1       3.148  -3.167  -3.682  0.00  0.00    -0.082 A 
ATOM      4  C2  PXY d   1       4.171  -3.995  -3.550  0.00  0.00     0.003 A 
ATOM      5  C3  PXY d   1       4.514  -4.483  -2.315  0.00  0.00     0.003 A 
ATOM      6  C4  PXY d   1       3.834  -4.078  -1.197  0.00  0.00    -0.082 A 
ATOM      7  C5  PXY d   1       2.796  -3.225  -1.322  0.00  0.00     0.003 A 
ATOM      8  C6  PXY d   1       2.438  -2.773  -2.590  0.00  0.00     0.003 A 
ENDROOT
TORSDOF 0
ENDMDL
