MODEL 1
REMARK minimizedAffinity 3.27781653
REMARK minimizedRMSD -1
REMARK  0 active torsions:
REMARK  status: ('A' for Active; 'I' for Inactive)
ROOT
ATOM      1  C4' PXY d   1       4.873  -6.000   0.009  0.00  0.00     0.077 C 
ATOM      2  C1' PXY d   1       1.658  -2.505  -3.287  0.00  0.00     0.077 C 
ATOM      3  C1  PXY d   1       2.502  -3.430  -2.432  0.00  0.00    -0.082 A 
ATOM      4  C2  PXY d   1       2.430  -3.349  -1.114  0.00  0.00     0.003 A 
ATOM      5  C3  PXY d   1       3.209  -4.156  -0.326  0.00  0.00     0.003 A 
ATOM      6  C4  PXY d   1       4.032  -5.092  -0.893  0.00  0.00    -0.082 A 
ATOM      7  C5  PXY d   1       4.103  -5.188  -2.238  0.00  0.00     0.003 A 
ATOM      8  C6  PXY d   1       3.334  -4.331  -3.020  0.00  0.00     0.003 A 
ENDROOT
TORSDOF 0
ENDMDL
