MODEL 1
REMARK minimizedAffinity 5.82236433
REMARK minimizedRMSD -1
REMARK  0 active torsions:
REMARK  status: ('A' for Active; 'I' for Inactive)
ROOT
ATOM      1  C4' PXY d   1       4.348  -5.305   0.075  0.00  0.00     0.077 C 
ATOM      2  C1' PXY d   1       2.063  -3.958  -5.061  0.00  0.00     0.077 C 
ATOM      3  C1  PXY d   1       2.671  -4.319  -3.720  0.00  0.00    -0.082 A 
ATOM      4  C2  PXY d   1       1.944  -4.205  -2.620  0.00  0.00     0.003 A 
ATOM      5  C3  PXY d   1       2.488  -4.497  -1.396  0.00  0.00     0.003 A 
ATOM      6  C4  PXY d   1       3.773  -4.961  -1.301  0.00  0.00    -0.082 A 
ATOM      7  C5  PXY d   1       4.517  -5.090  -2.420  0.00  0.00     0.003 A 
ATOM      8  C6  PXY d   1       3.960  -4.749  -3.649  0.00  0.00     0.003 A 
ENDROOT
TORSDOF 0
ENDMDL
