MODEL 1
REMARK minimizedAffinity -1.87310076
REMARK minimizedRMSD -1
REMARK  0 active torsions:
REMARK  status: ('A' for Active; 'I' for Inactive)
ROOT
ATOM      1  C4' PXY d   1       4.401  -4.842   0.336  0.00  0.00     0.077 C 
ATOM      2  C1' PXY d   1       2.018  -2.895  -4.558  0.00  0.00     0.077 C 
ATOM      3  C1  PXY d   1       2.649  -3.415  -3.281  0.00  0.00    -0.082 A 
ATOM      4  C2  PXY d   1       2.061  -3.184  -2.119  0.00  0.00     0.003 A 
ATOM      5  C3  PXY d   1       2.634  -3.619  -0.952  0.00  0.00     0.003 A 
ATOM      6  C4  PXY d   1       3.795  -4.345  -0.979  0.00  0.00    -0.082 A 
ATOM      7  C5  PXY d   1       4.396  -4.594  -2.162  0.00  0.00     0.003 A 
ATOM      8  C6  PXY d   1       3.819  -4.108  -3.332  0.00  0.00     0.003 A 
ENDROOT
TORSDOF 0
ENDMDL
