MODEL 1
REMARK minimizedAffinity 1.14636588
REMARK minimizedRMSD -1
REMARK  0 active torsions:
REMARK  status: ('A' for Active; 'I' for Inactive)
ROOT
ATOM      1  C4' PXY d   1       5.066  -4.484   0.058  0.00  0.00     0.077 C 
ATOM      2  C1' PXY d   1       0.905  -4.704  -3.948  0.00  0.00     0.077 C 
ATOM      3  C1  PXY d   1       1.998  -4.633  -2.900  0.00  0.00    -0.082 A 
ATOM      4  C2  PXY d   1       2.698  -5.718  -2.610  0.00  0.00     0.003 A 
ATOM      5  C3  PXY d   1       3.668  -5.680  -1.642  0.00  0.00     0.003 A 
ATOM      6  C4  PXY d   1       3.960  -4.506  -1.001  0.00  0.00    -0.082 A 
ATOM      7  C5  PXY d   1       3.258  -3.392  -1.298  0.00  0.00     0.003 A 
ATOM      8  C6  PXY d   1       2.249  -3.462  -2.254  0.00  0.00     0.003 A 
ENDROOT
TORSDOF 0
ENDMDL
