MODEL 1
REMARK minimizedAffinity 16.4132595
REMARK minimizedRMSD -1
REMARK  0 active torsions:
REMARK  status: ('A' for Active; 'I' for Inactive)
ROOT
ATOM      1  C4' PXY d   1       3.616  -5.999  -0.052  0.00  0.00     0.077 C 
ATOM      2  C1' PXY d   1       1.826  -0.828  -1.915  0.00  0.00     0.077 C 
ATOM      3  C1  PXY d   1       2.285  -2.190  -1.432  0.00  0.00    -0.082 A 
ATOM      4  C2  PXY d   1       3.090  -2.275  -0.385  0.00  0.00     0.003 A 
ATOM      5  C3  PXY d   1       3.540  -3.497   0.045  0.00  0.00     0.003 A 
ATOM      6  C4  PXY d   1       3.120  -4.646  -0.569  0.00  0.00    -0.082 A 
ATOM      7  C5  PXY d   1       2.290  -4.568  -1.631  0.00  0.00     0.003 A 
ATOM      8  C6  PXY d   1       1.877  -3.316  -2.078  0.00  0.00     0.003 A 
ENDROOT
TORSDOF 0
ENDMDL
