MODEL 1
REMARK minimizedAffinity 5.60844374
REMARK minimizedRMSD -1
REMARK  0 active torsions:
REMARK  status: ('A' for Active; 'I' for Inactive)
ROOT
ATOM      1  C4' PXY d   1      -5.884  -1.722  -5.957  0.00  0.00     0.077 C 
ATOM      2  C1' PXY d   1      -1.310  -5.081  -4.855  0.00  0.00     0.077 C 
ATOM      3  C1  PXY d   1      -2.514  -4.209  -5.153  0.00  0.00    -0.082 A 
ATOM      4  C2  PXY d   1      -2.462  -2.912  -4.894  0.00  0.00     0.003 A 
ATOM      5  C3  PXY d   1      -3.553  -2.114  -5.127  0.00  0.00     0.003 A 
ATOM      6  C4  PXY d   1      -4.689  -2.640  -5.681  0.00  0.00    -0.082 A 
ATOM      7  C5  PXY d   1      -4.746  -3.960  -5.958  0.00  0.00     0.003 A 
ATOM      8  C6  PXY d   1      -3.643  -4.760  -5.676  0.00  0.00     0.003 A 
ENDROOT
TORSDOF 0
ENDMDL
