MODEL 1
REMARK minimizedAffinity 18.2908134
REMARK minimizedRMSD -1
REMARK  0 active torsions:
REMARK  status: ('A' for Active; 'I' for Inactive)
ROOT
ATOM      1  C4' PXY d   1      -4.668  -3.682  -6.000  0.00  0.00     0.077 C 
ATOM      2  C1' PXY d   1       0.148  -4.664  -2.958  0.00  0.00     0.077 C 
ATOM      3  C1  PXY d   1      -1.108  -4.401  -3.766  0.00  0.00    -0.082 A 
ATOM      4  C2  PXY d   1      -2.271  -4.285  -3.146  0.00  0.00     0.003 A 
ATOM      5  C3  PXY d   1      -3.421  -4.079  -3.863  0.00  0.00     0.003 A 
ATOM      6  C4  PXY d   1      -3.373  -3.938  -5.225  0.00  0.00    -0.082 A 
ATOM      7  C5  PXY d   1      -2.188  -4.045  -5.863  0.00  0.00     0.003 A 
ATOM      8  C6  PXY d   1      -1.038  -4.295  -5.120  0.00  0.00     0.003 A 
ENDROOT
TORSDOF 0
ENDMDL
