MODEL 1
REMARK minimizedAffinity 22.1708679
REMARK minimizedRMSD -1
REMARK  0 active torsions:
REMARK  status: ('A' for Active; 'I' for Inactive)
ROOT
ATOM      1  C4' PXY d   1      -2.979  -0.701   5.786  0.00  0.00     0.077 C 
ATOM      2  C1' PXY d   1      -5.810   3.856   3.633  0.00  0.00     0.077 C 
ATOM      3  C1  PXY d   1      -5.072   2.654   4.187  0.00  0.00    -0.082 A 
ATOM      4  C2  PXY d   1      -4.820   2.582   5.484  0.00  0.00     0.003 A 
ATOM      5  C3  PXY d   1      -4.125   1.517   5.998  0.00  0.00     0.003 A 
ATOM      6  C4  PXY d   1      -3.730   0.490   5.183  0.00  0.00    -0.082 A 
ATOM      7  C5  PXY d   1      -3.992   0.551   3.861  0.00  0.00     0.003 A 
ATOM      8  C6  PXY d   1      -4.663   1.660   3.353  0.00  0.00     0.003 A 
ENDROOT
TORSDOF 0
ENDMDL
