MODEL 1
REMARK minimizedAffinity 11.1571236
REMARK minimizedRMSD -1
REMARK  0 active torsions:
REMARK  status: ('A' for Active; 'I' for Inactive)
ROOT
ATOM      1  C4' PXY d   1      -0.134   2.832   6.000  0.00  0.00     0.077 C 
ATOM      2  C1' PXY d   1       0.404  -0.570   1.357  0.00  0.00     0.077 C 
ATOM      3  C1  PXY d   1       0.259   0.332   2.567  0.00  0.00    -0.082 A 
ATOM      4  C2  PXY d   1       0.928   0.053   3.674  0.00  0.00     0.003 A 
ATOM      5  C3  PXY d   1       0.784   0.840   4.788  0.00  0.00     0.003 A 
ATOM      6  C4  PXY d   1      -0.012   1.954   4.751  0.00  0.00    -0.082 A 
ATOM      7  C5  PXY d   1      -0.689   2.251   3.622  0.00  0.00     0.003 A 
ATOM      8  C6  PXY d   1      -0.561   1.416   2.515  0.00  0.00     0.003 A 
ENDROOT
TORSDOF 0
ENDMDL
