MODEL 1
REMARK minimizedAffinity 7.29067469
REMARK minimizedRMSD -1
REMARK  0 active torsions:
REMARK  status: ('A' for Active; 'I' for Inactive)
ROOT
ATOM      1  C4' PXY d   1       1.680  -2.030   4.380  0.00  0.00     0.077 C 
ATOM      2  C1' PXY d   1      -1.488   2.018   1.734  0.00  0.00     0.077 C 
ATOM      3  C1  PXY d   1      -0.666   0.947   2.425  0.00  0.00    -0.082 A 
ATOM      4  C2  PXY d   1       0.235   1.296   3.329  0.00  0.00     0.003 A 
ATOM      5  C3  PXY d   1       1.008   0.344   3.941  0.00  0.00     0.003 A 
ATOM      6  C4  PXY d   1       0.821  -0.984   3.663  0.00  0.00    -0.082 A 
ATOM      7  C5  PXY d   1      -0.103  -1.349   2.750  0.00  0.00     0.003 A 
ATOM      8  C6  PXY d   1      -0.850  -0.364   2.110  0.00  0.00     0.003 A 
ENDROOT
TORSDOF 0
ENDMDL
