MODEL 1
REMARK minimizedAffinity 11.3380365
REMARK minimizedRMSD -1
REMARK  0 active torsions:
REMARK  status: ('A' for Active; 'I' for Inactive)
ROOT
ATOM      1  C4' PXY d   1      -5.983   5.879  -0.401  0.00  0.00     0.077 C 
ATOM      2  C1' PXY d   1      -5.954   0.352  -2.092  0.00  0.00     0.077 C 
ATOM      3  C1  PXY d   1      -5.956   1.805  -1.660  0.00  0.00    -0.082 A 
ATOM      4  C2  PXY d   1      -5.965   2.104  -0.371  0.00  0.00     0.003 A 
ATOM      5  C3  PXY d   1      -6.000   3.413   0.037  0.00  0.00     0.003 A 
ATOM      6  C4  PXY d   1      -5.971   4.426  -0.883  0.00  0.00    -0.082 A 
ATOM      7  C5  PXY d   1      -5.951   4.129  -2.199  0.00  0.00     0.003 A 
ATOM      8  C6  PXY d   1      -5.958   2.794  -2.594  0.00  0.00     0.003 A 
ENDROOT
TORSDOF 0
ENDMDL
