MODEL 1
REMARK minimizedAffinity 19.1101894
REMARK minimizedRMSD -1
REMARK  0 active torsions:
REMARK  status: ('A' for Active; 'I' for Inactive)
ROOT
ATOM      1  C4' PXY d   1       4.539   5.282  -5.970  0.00  0.00     0.077 C 
ATOM      2  C1' PXY d   1       5.060  -0.452  -5.448  0.00  0.00     0.077 C 
ATOM      3  C1  PXY d   1       4.910   1.051  -5.588  0.00  0.00    -0.082 A 
ATOM      4  C2  PXY d   1       5.970   1.789  -5.875  0.00  0.00     0.003 A 
ATOM      5  C3  PXY d   1       5.859   3.152  -5.973  0.00  0.00     0.003 A 
ATOM      6  C4  PXY d   1       4.641   3.761  -5.829  0.00  0.00    -0.082 A 
ATOM      7  C5  PXY d   1       3.553   3.013  -5.546  0.00  0.00     0.003 A 
ATOM      8  C6  PXY d   1       3.694   1.635  -5.409  0.00  0.00     0.003 A 
ENDROOT
TORSDOF 0
ENDMDL
