MODEL 1
REMARK minimizedAffinity 14.1270332
REMARK minimizedRMSD -1
REMARK  0 active torsions:
REMARK  status: ('A' for Active; 'I' for Inactive)
ROOT
ATOM      1  C4' PXY d   1      -3.105  -0.790   0.154  0.00  0.00     0.077 C 
ATOM      2  C1' PXY d   1       1.524   0.659   3.299  0.00  0.00     0.077 C 
ATOM      3  C1  PXY d   1       0.303   0.289   2.480  0.00  0.00    -0.082 A 
ATOM      4  C2  PXY d   1       0.170  -0.947   2.027  0.00  0.00     0.003 A 
ATOM      5  C3  PXY d   1      -0.912  -1.291   1.257  0.00  0.00     0.003 A 
ATOM      6  C4  PXY d   1      -1.894  -0.374   0.993  0.00  0.00    -0.082 A 
ATOM      7  C5  PXY d   1      -1.770   0.887   1.461  0.00  0.00     0.003 A 
ATOM      8  C6  PXY d   1      -0.644   1.226   2.205  0.00  0.00     0.003 A 
ENDROOT
TORSDOF 0
ENDMDL
