MODEL 1
REMARK minimizedAffinity 5.87443972
REMARK minimizedRMSD -1
REMARK  0 active torsions:
REMARK  status: ('A' for Active; 'I' for Inactive)
ROOT
ATOM      1  C4' PXY d   1       5.908   1.234   4.123  0.00  0.00     0.077 C 
ATOM      2  C1' PXY d   1       4.109   6.000   1.390  0.00  0.00     0.077 C 
ATOM      3  C1  PXY d   1       4.592   4.756   2.110  0.00  0.00    -0.082 A 
ATOM      4  C2  PXY d   1       4.093   3.575   1.782  0.00  0.00     0.003 A 
ATOM      5  C3  PXY d   1       4.495   2.444   2.444  0.00  0.00     0.003 A 
ATOM      6  C4  PXY d   1       5.457   2.516   3.416  0.00  0.00    -0.082 A 
ATOM      7  C5  PXY d   1       5.979   3.715   3.749  0.00  0.00     0.003 A 
ATOM      8  C6  PXY d   1       5.527   4.857   3.093  0.00  0.00     0.003 A 
ENDROOT
TORSDOF 0
ENDMDL
