MODEL 1
REMARK minimizedAffinity 19.7761726
REMARK minimizedRMSD -1
REMARK  0 active torsions:
REMARK  status: ('A' for Active; 'I' for Inactive)
ROOT
ATOM      1  C4' PXY d   1       0.256  -0.247  -5.996  0.00  0.00     0.077 C 
ATOM      2  C1' PXY d   1      -2.000  -3.150  -1.535  0.00  0.00     0.077 C 
ATOM      3  C1  PXY d   1      -1.402  -2.399  -2.708  0.00  0.00    -0.082 A 
ATOM      4  C2  PXY d   1      -1.321  -1.079  -2.668  0.00  0.00     0.003 A 
ATOM      5  C3  PXY d   1      -0.812  -0.383  -3.734  0.00  0.00     0.003 A 
ATOM      6  C4  PXY d   1      -0.332  -1.047  -4.830  0.00  0.00    -0.082 A 
ATOM      7  C5  PXY d   1      -0.401  -2.394  -4.875  0.00  0.00     0.003 A 
ATOM      8  C6  PXY d   1      -0.959  -3.081  -3.800  0.00  0.00     0.003 A 
ENDROOT
TORSDOF 0
ENDMDL
