MODEL 1
REMARK minimizedAffinity 7.44978952
REMARK minimizedRMSD -1
REMARK  0 active torsions:
REMARK  status: ('A' for Active; 'I' for Inactive)
ROOT
ATOM      1  C4' PXY d   1       0.866  -2.357   4.526  0.00  0.00     0.077 C 
ATOM      2  C1' PXY d   1      -0.910   2.285   1.573  0.00  0.00     0.077 C 
ATOM      3  C1  PXY d   1      -0.455   1.061   2.344  0.00  0.00    -0.082 A 
ATOM      4  C2  PXY d   1       0.361   1.204   3.376  0.00  0.00     0.003 A 
ATOM      5  C3  PXY d   1       0.808   0.105   4.064  0.00  0.00     0.003 A 
ATOM      6  C4  PXY d   1       0.373  -1.149   3.725  0.00  0.00    -0.082 A 
ATOM      7  C5  PXY d   1      -0.467  -1.301   2.680  0.00  0.00     0.003 A 
ATOM      8  C6  PXY d   1      -0.877  -0.177   1.969  0.00  0.00     0.003 A 
ENDROOT
TORSDOF 0
ENDMDL
