MODEL 1
REMARK minimizedAffinity 8.48455429
REMARK minimizedRMSD -1
REMARK  0 active torsions:
REMARK  status: ('A' for Active; 'I' for Inactive)
ROOT
ATOM      1  C4' PXY d   1      -0.000   3.000   6.000  0.00  0.00     0.077 C 
ATOM      2  C1' PXY d   1       0.372  -0.569   1.468  0.00  0.00     0.077 C 
ATOM      3  C1  PXY d   1       0.269   0.376   2.649  0.00  0.00    -0.082 A 
ATOM      4  C2  PXY d   1       1.080   0.221   3.683  0.00  0.00     0.003 A 
ATOM      5  C3  PXY d   1       0.979   1.047   4.773  0.00  0.00     0.003 A 
ATOM      6  C4  PXY d   1       0.075   2.075   4.782  0.00  0.00    -0.082 A 
ATOM      7  C5  PXY d   1      -0.749   2.246   3.726  0.00  0.00     0.003 A 
ATOM      8  C6  PXY d   1      -0.658   1.371   2.647  0.00  0.00     0.003 A 
ENDROOT
TORSDOF 0
ENDMDL
