MODEL 1
REMARK minimizedAffinity 11.1952753
REMARK minimizedRMSD -1
REMARK  0 active torsions:
REMARK  status: ('A' for Active; 'I' for Inactive)
ROOT
ATOM      1  C4' PXY d   1       1.945  -2.675   4.923  0.00  0.00     0.077 C 
ATOM      2  C1' PXY d   1      -0.541   1.616   1.952  0.00  0.00     0.077 C 
ATOM      3  C1  PXY d   1       0.121   0.499   2.735  0.00  0.00    -0.082 A 
ATOM      4  C2  PXY d   1      -0.097  -0.760   2.390  0.00  0.00     0.003 A 
ATOM      5  C3  PXY d   1       0.468  -1.783   3.107  0.00  0.00     0.003 A 
ATOM      6  C4  PXY d   1       1.306  -1.514   4.155  0.00  0.00    -0.082 A 
ATOM      7  C5  PXY d   1       1.542  -0.232   4.507  0.00  0.00     0.003 A 
ATOM      8  C6  PXY d   1       0.926   0.791   3.792  0.00  0.00     0.003 A 
ENDROOT
TORSDOF 0
ENDMDL
