MODEL 1
REMARK minimizedAffinity 8.191082
REMARK minimizedRMSD -1
REMARK  0 active torsions:
REMARK  status: ('A' for Active; 'I' for Inactive)
ROOT
ATOM      1  C   UNL d   1      -3.791   0.971   2.014  0.00  0.00    -0.002 A 
ATOM      2  C1  UNL d   1      -3.765   0.244   0.832  0.00  0.00     0.010 A 
ATOM      3  C2  UNL d   1      -2.786  -0.729   0.619  0.00  0.00     0.041 A 
ATOM      4  C3  UNL d   1      -1.826  -0.962   1.623  0.00  0.00    -0.075 A 
ATOM      5  S   UNL d   1      -0.535  -2.103   1.582  0.00  0.00     0.015 SA
ATOM      6  C4  UNL d   1       0.012  -1.653   3.132  0.00  0.00     0.022 A 
ATOM      7  C5  UNL d   1      -0.760  -0.657   3.682  0.00  0.00     0.026 A 
ATOM      8  C6  UNL d   1      -1.832  -0.242   2.821  0.00  0.00    -0.082 A 
ATOM      9  C7  UNL d   1      -2.837   0.738   3.007  0.00  0.00     0.045 A 
ENDROOT
TORSDOF 0
ENDMDL
