MODEL 1
REMARK minimizedAffinity 8.4788456
REMARK minimizedRMSD -1
REMARK  0 active torsions:
REMARK  status: ('A' for Active; 'I' for Inactive)
ROOT
ATOM      1  C   UNL d   1      -2.235  -0.089   3.684  0.00  0.00    -0.002 A 
ATOM      2  C1  UNL d   1      -1.438  -1.164   3.315  0.00  0.00     0.010 A 
ATOM      3  C2  UNL d   1      -1.344  -1.553   1.978  0.00  0.00     0.041 A 
ATOM      4  C3  UNL d   1      -2.071  -0.837   1.007  0.00  0.00    -0.075 A 
ATOM      5  S   UNL d   1      -2.109  -1.133  -0.691  0.00  0.00     0.015 SA
ATOM      6  C4  UNL d   1      -3.184   0.161  -0.968  0.00  0.00     0.022 A 
ATOM      7  C5  UNL d   1      -3.516   0.813   0.196  0.00  0.00     0.026 A 
ATOM      8  C6  UNL d   1      -2.880   0.249   1.353  0.00  0.00    -0.082 A 
ATOM      9  C7  UNL d   1      -2.955   0.619   2.718  0.00  0.00     0.045 A 
ENDROOT
TORSDOF 0
ENDMDL
