MODEL 1
REMARK minimizedAffinity 8.9430809
REMARK minimizedRMSD -1
REMARK  0 active torsions:
REMARK  status: ('A' for Active; 'I' for Inactive)
ROOT
ATOM      1  C   UNL d   1       5.425  -1.859   0.029  0.00  0.00    -0.002 A 
ATOM      2  C1  UNL d   1       4.729  -0.664  -0.075  0.00  0.00     0.010 A 
ATOM      3  C2  UNL d   1       3.364  -0.609   0.213  0.00  0.00     0.041 A 
ATOM      4  C3  UNL d   1       2.705  -1.788   0.615  0.00  0.00    -0.075 A 
ATOM      5  S   UNL d   1       1.038  -1.960   1.020  0.00  0.00     0.015 SA
ATOM      6  C4  UNL d   1       1.211  -3.624   1.343  0.00  0.00     0.022 A 
ATOM      7  C5  UNL d   1       2.502  -4.055   1.151  0.00  0.00     0.026 A 
ATOM      8  C6  UNL d   1       3.385  -3.003   0.729  0.00  0.00    -0.082 A 
ATOM      9  C7  UNL d   1       4.768  -3.026   0.428  0.00  0.00     0.045 A 
ENDROOT
TORSDOF 0
ENDMDL
