MODEL 1
REMARK minimizedAffinity 1.8795346
REMARK minimizedRMSD -1
REMARK  0 active torsions:
REMARK  status: ('A' for Active; 'I' for Inactive)
ROOT
ATOM      1  C   UNL d   1       2.528  -1.819   0.556  0.00  0.00    -0.002 A 
ATOM      2  C1  UNL d   1       1.548  -2.742   0.893  0.00  0.00     0.010 A 
ATOM      3  C2  UNL d   1       1.890  -4.058   1.208  0.00  0.00     0.041 A 
ATOM      4  C3  UNL d   1       3.247  -4.435   1.180  0.00  0.00    -0.075 A 
ATOM      5  S   UNL d   1       3.901  -5.992   1.529  0.00  0.00     0.015 SA
ATOM      6  C4  UNL d   1       5.497  -5.468   1.240  0.00  0.00     0.022 A 
ATOM      7  C5  UNL d   1       5.548  -4.142   0.883  0.00  0.00     0.026 A 
ATOM      8  C6  UNL d   1       4.252  -3.524   0.844  0.00  0.00    -0.082 A 
ATOM      9  C7  UNL d   1       3.873  -2.197   0.528  0.00  0.00     0.045 A 
ENDROOT
TORSDOF 0
ENDMDL
