MODEL 1
REMARK minimizedAffinity 2.61184168
REMARK minimizedRMSD -1
REMARK  0 active torsions:
REMARK  status: ('A' for Active; 'I' for Inactive)
ROOT
ATOM      1  C   UNL d   1       1.203  -2.226   3.283  0.00  0.00    -0.002 A 
ATOM      2  C1  UNL d   1       1.727  -1.069   3.842  0.00  0.00     0.010 A 
ATOM      3  C2  UNL d   1       0.944   0.081   3.959  0.00  0.00     0.041 A 
ATOM      4  C3  UNL d   1      -0.389   0.048   3.502  0.00  0.00    -0.075 A 
ATOM      5  S   UNL d   1      -1.534   1.335   3.544  0.00  0.00     0.015 SA
ATOM      6  C4  UNL d   1      -2.747   0.379   2.822  0.00  0.00     0.022 A 
ATOM      7  C5  UNL d   1      -2.305  -0.894   2.549  0.00  0.00     0.026 A 
ATOM      8  C6  UNL d   1      -0.939  -1.106   2.937  0.00  0.00    -0.082 A 
ATOM      9  C7  UNL d   1      -0.119  -2.255   2.831  0.00  0.00     0.045 A 
ENDROOT
TORSDOF 0
ENDMDL
