MODEL 1
REMARK minimizedAffinity 15.0942812
REMARK minimizedRMSD -1
REMARK  0 active torsions:
REMARK  status: ('A' for Active; 'I' for Inactive)
ROOT
ATOM      1  C   UNL d   1       3.018  -3.121   1.238  0.00  0.00    -0.002 A 
ATOM      2  C1  UNL d   1       2.001  -2.215   1.507  0.00  0.00     0.010 A 
ATOM      3  C2  UNL d   1       2.221  -0.842   1.381  0.00  0.00     0.041 A 
ATOM      4  C3  UNL d   1       3.492  -0.390   0.974  0.00  0.00    -0.075 A 
ATOM      5  S   UNL d   1       3.991   1.245   0.750  0.00  0.00     0.015 SA
ATOM      6  C4  UNL d   1       5.565   0.780   0.291  0.00  0.00     0.022 A 
ATOM      7  C5  UNL d   1       5.723  -0.586   0.303  0.00  0.00     0.026 A 
ATOM      8  C6  UNL d   1       4.531  -1.283   0.696  0.00  0.00    -0.082 A 
ATOM      9  C7  UNL d   1       4.277  -2.669   0.835  0.00  0.00     0.045 A 
ENDROOT
TORSDOF 0
ENDMDL
