MODEL 1
REMARK minimizedAffinity 4.80001688
REMARK minimizedRMSD -1
REMARK  0 active torsions:
REMARK  status: ('A' for Active; 'I' for Inactive)
ROOT
ATOM      1  C   UNL d   1      -2.684   0.527   2.086  0.00  0.00    -0.002 A 
ATOM      2  C1  UNL d   1      -2.519  -0.095   0.857  0.00  0.00     0.010 A 
ATOM      3  C2  UNL d   1      -1.564  -1.100   0.692  0.00  0.00     0.041 A 
ATOM      4  C3  UNL d   1      -0.772  -1.475   1.795  0.00  0.00    -0.075 A 
ATOM      5  S   UNL d   1       0.460  -2.681   1.828  0.00  0.00     0.015 SA
ATOM      6  C4  UNL d   1       0.795  -2.400   3.475  0.00  0.00     0.022 A 
ATOM      7  C5  UNL d   1      -0.003  -1.413   4.002  0.00  0.00     0.026 A 
ATOM      8  C6  UNL d   1      -0.920  -0.864   3.043  0.00  0.00    -0.082 A 
ATOM      9  C7  UNL d   1      -1.896   0.153   3.178  0.00  0.00     0.045 A 
ENDROOT
TORSDOF 0
ENDMDL
