MODEL 1
REMARK minimizedAffinity 10.5477171
REMARK minimizedRMSD -1
REMARK  0 active torsions:
REMARK  status: ('A' for Active; 'I' for Inactive)
ROOT
ATOM      1  C   UNL d   1       0.159  -1.002   1.918  0.00  0.00    -0.002 A 
ATOM      2  C1  UNL d   1       0.869  -0.746   0.754  0.00  0.00     0.010 A 
ATOM      3  C2  UNL d   1       1.794  -1.672   0.268  0.00  0.00     0.041 A 
ATOM      4  C3  UNL d   1       1.994  -2.872   0.977  0.00  0.00    -0.075 A 
ATOM      5  S   UNL d   1       3.074  -4.153   0.569  0.00  0.00     0.015 SA
ATOM      6  C4  UNL d   1       2.618  -5.071   1.931  0.00  0.00     0.022 A 
ATOM      7  C5  UNL d   1       1.666  -4.431   2.689  0.00  0.00     0.026 A 
ATOM      8  C6  UNL d   1       1.290  -3.154   2.151  0.00  0.00    -0.082 A 
ATOM      9  C7  UNL d   1       0.360  -2.194   2.619  0.00  0.00     0.045 A 
ENDROOT
TORSDOF 0
ENDMDL
