MODEL 1
REMARK minimizedAffinity -3.49540925
REMARK minimizedRMSD -1
REMARK  1 active torsions:
REMARK  status: ('A' for Active; 'I' for Inactive)
REMARK    1  A    between atoms: C3_4  and  O_7 
ROOT
ATOM      1  C   UNL d   1       0.377   0.195  -0.024  0.00  0.00    -0.033 A 
ATOM      2  C1  UNL d   1      -0.974   0.314   0.305  0.00  0.00     0.039 A 
ATOM      3  C2  UNL d   1      -1.349   0.790   1.563  0.00  0.00    -0.080 A 
ATOM      4  C3  UNL d   1      -0.365   1.145   2.481  0.00  0.00     0.150 A 
ATOM      5  C4  UNL d   1       0.984   1.033   2.158  0.00  0.00    -0.007 A 
ATOM      6  C5  UNL d   1       1.357   0.556   0.902  0.00  0.00     0.039 A 
ENDROOT
BRANCH   4   7
ATOM      7  O   UNL d   1      -0.682   1.610   3.722  0.00  0.00    -0.526 OA
ATOM      8  H5  UNL d   1      -1.649   1.606   3.814  0.00  0.00     0.418 HD
ENDBRANCH   4   7
TORSDOF 1
ENDMDL
