MODEL 1
REMARK minimizedAffinity -0.785371542
REMARK minimizedRMSD -1
REMARK  1 active torsions:
REMARK  status: ('A' for Active; 'I' for Inactive)
REMARK    1  A    between atoms: C3_4  and  O_7 
ROOT
ATOM      1  C   UNL d   1       1.469  -0.014  -2.763  0.00  0.00    -0.033 A 
ATOM      2  C1  UNL d   1       1.441   0.968  -3.755  0.00  0.00     0.039 A 
ATOM      3  C2  UNL d   1       0.356   1.047  -4.631  0.00  0.00    -0.080 A 
ATOM      4  C3  UNL d   1      -0.693   0.140  -4.503  0.00  0.00     0.150 A 
ATOM      5  C4  UNL d   1      -0.673  -0.838  -3.514  0.00  0.00    -0.007 A 
ATOM      6  C5  UNL d   1       0.412  -0.916  -2.641  0.00  0.00     0.039 A 
ENDROOT
BRANCH   4   7
ATOM      7  O   UNL d   1      -1.771   0.175  -5.337  0.00  0.00    -0.526 OA
ATOM      8  H5  UNL d   1      -1.634   0.883  -5.987  0.00  0.00     0.418 HD
ENDBRANCH   4   7
TORSDOF 1
ENDMDL
