MODEL 1
REMARK minimizedAffinity -4.16055632
REMARK minimizedRMSD -1
REMARK  1 active torsions:
REMARK  status: ('A' for Active; 'I' for Inactive)
REMARK    1  A    between atoms: C3_4  and  O_7 
ROOT
ATOM      1  C   UNL d   1      -0.754  -0.088  -0.742  0.00  0.00    -0.033 A 
ATOM      2  C1  UNL d   1       0.304   0.693  -0.272  0.00  0.00     0.039 A 
ATOM      3  C2  UNL d   1       0.257   1.233   1.014  0.00  0.00    -0.080 A 
ATOM      4  C3  UNL d   1      -0.851   0.986   1.820  0.00  0.00     0.150 A 
ATOM      5  C4  UNL d   1      -1.907   0.206   1.359  0.00  0.00    -0.007 A 
ATOM      6  C5  UNL d   1      -1.859  -0.332   0.074  0.00  0.00     0.039 A 
ENDROOT
BRANCH   4   7
ATOM      7  O   UNL d   1      -0.944   1.496   3.080  0.00  0.00    -0.526 OA
ATOM      8  H5  UNL d   1      -0.156   2.038   3.252  0.00  0.00     0.418 HD
ENDBRANCH   4   7
TORSDOF 1
ENDMDL
