MODEL 1
REMARK minimizedAffinity -3.90475464
REMARK minimizedRMSD -1
REMARK  1 active torsions:
REMARK  status: ('A' for Active; 'I' for Inactive)
REMARK    1  A    between atoms: C3_4  and  O_7 
ROOT
ATOM      1  C   UNL d   1      -2.103   1.149   1.428  0.00  0.00    -0.033 A 
ATOM      2  C1  UNL d   1      -0.929   0.600   1.948  0.00  0.00     0.039 A 
ATOM      3  C2  UNL d   1      -0.048  -0.089   1.112  0.00  0.00    -0.080 A 
ATOM      4  C3  UNL d   1      -0.351  -0.221  -0.240  0.00  0.00     0.150 A 
ATOM      5  C4  UNL d   1      -1.517   0.326  -0.766  0.00  0.00    -0.007 A 
ATOM      6  C5  UNL d   1      -2.396   1.013   0.070  0.00  0.00     0.039 A 
ENDROOT
BRANCH   4   7
ATOM      7  O   UNL d   1       0.475  -0.889  -1.094  0.00  0.00    -0.526 OA
ATOM      8  H5  UNL d   1       1.227  -1.238  -0.585  0.00  0.00     0.418 HD
ENDBRANCH   4   7
TORSDOF 1
ENDMDL
