MODEL 1
REMARK minimizedAffinity -4.77372026
REMARK minimizedRMSD -1
REMARK  1 active torsions:
REMARK  status: ('A' for Active; 'I' for Inactive)
REMARK    1  A    between atoms: C3_4  and  O_7 
ROOT
ATOM      1  C   UNL d   1       0.683  -0.316  -0.280  0.00  0.00    -0.033 A 
ATOM      2  C1  UNL d   1      -0.688  -0.051  -0.245  0.00  0.00     0.039 A 
ATOM      3  C2  UNL d   1      -1.238   0.647   0.832  0.00  0.00    -0.080 A 
ATOM      4  C3  UNL d   1      -0.408   1.076   1.864  0.00  0.00     0.150 A 
ATOM      5  C4  UNL d   1       0.959   0.820   1.833  0.00  0.00    -0.007 A 
ATOM      6  C5  UNL d   1       1.506   0.121   0.757  0.00  0.00     0.039 A 
ENDROOT
BRANCH   4   7
ATOM      7  O   UNL d   1      -0.900   1.757   2.937  0.00  0.00    -0.526 OA
ATOM      8  H5  UNL d   1      -1.863   1.836   2.837  0.00  0.00     0.418 HD
ENDBRANCH   4   7
TORSDOF 1
ENDMDL
