MODEL 1
REMARK minimizedAffinity -4.58146095
REMARK minimizedRMSD -1
REMARK  1 active torsions:
REMARK  status: ('A' for Active; 'I' for Inactive)
REMARK    1  A    between atoms: C3_4  and  O_7 
ROOT
ATOM      1  C   UNL d   1       0.570  -0.676  -0.742  0.00  0.00    -0.033 A 
ATOM      2  C1  UNL d   1      -0.726  -0.184  -0.574  0.00  0.00     0.039 A 
ATOM      3  C2  UNL d   1      -1.055   0.544   0.571  0.00  0.00    -0.080 A 
ATOM      4  C3  UNL d   1      -0.081   0.772   1.539  0.00  0.00     0.150 A 
ATOM      5  C4  UNL d   1       1.213   0.288   1.376  0.00  0.00    -0.007 A 
ATOM      6  C5  UNL d   1       1.539  -0.439   0.233  0.00  0.00     0.039 A 
ENDROOT
BRANCH   4   7
ATOM      7  O   UNL d   1      -0.356   1.473   2.676  0.00  0.00    -0.526 OA
ATOM      8  H5  UNL d   1      -1.296   1.720   2.665  0.00  0.00     0.418 HD
ENDBRANCH   4   7
TORSDOF 1
ENDMDL
