MODEL 1
REMARK minimizedAffinity -3.47933483
REMARK minimizedRMSD -1
REMARK  1 active torsions:
REMARK  status: ('A' for Active; 'I' for Inactive)
REMARK    1  A    between atoms: C1_2  and  C2_3 
ROOT
ATOM      1  C2  UNL d   1       1.055  -0.157  -2.021  0.00  0.00    -0.081 A 
ATOM      2  C3  UNL d   1       1.986  -0.549  -1.052  0.00  0.00     0.006 A 
ATOM      3  C4  UNL d   1       1.616  -0.635   0.292  0.00  0.00     0.002 A 
ATOM      4  C5  UNL d   1       0.307  -0.339   0.688  0.00  0.00    -0.080 A 
ATOM      5  C6  UNL d   1      -0.112  -0.457   2.124  0.00  0.00     0.076 C 
ATOM      6  C7  UNL d   1      -0.619   0.069  -0.277  0.00  0.00     0.002 A 
ATOM      7  C8  UNL d   1      -0.249   0.156  -1.621  0.00  0.00     0.006 A 
ENDROOT
BRANCH   1   8
ATOM      8  C1  UNL d   1       1.434  -0.125  -3.480  0.00  0.00     0.054 C 
ATOM      9  C   UNL d   1       0.881  -1.334  -4.221  0.00  0.00     0.018 C 
ENDBRANCH   1   8
TORSDOF 1
ENDMDL
