MODEL 1
REMARK minimizedAffinity -2.57313085
REMARK minimizedRMSD -1
REMARK  1 active torsions:
REMARK  status: ('A' for Active; 'I' for Inactive)
REMARK    1  A    between atoms: C1_2  and  C2_3 
ROOT
ATOM      1  C2  UNL d   1       0.621  -0.036  -1.474  0.00  0.00    -0.081 A 
ATOM      2  C3  UNL d   1       0.721   1.052  -0.599  0.00  0.00     0.006 A 
ATOM      3  C4  UNL d   1       0.604   0.864   0.780  0.00  0.00     0.002 A 
ATOM      4  C5  UNL d   1       0.393  -0.414   1.307  0.00  0.00    -0.080 A 
ATOM      5  C6  UNL d   1       0.296  -0.634   2.788  0.00  0.00     0.076 C 
ATOM      6  C7  UNL d   1       0.276  -1.499   0.432  0.00  0.00     0.002 A 
ATOM      7  C8  UNL d   1       0.392  -1.312  -0.947  0.00  0.00     0.006 A 
ENDROOT
BRANCH   1   8
ATOM      8  C1  UNL d   1       0.811   0.153  -2.958  0.00  0.00     0.054 C 
ATOM      9  C   UNL d   1       0.457  -1.111  -3.727  0.00  0.00     0.018 C 
ENDBRANCH   1   8
TORSDOF 1
ENDMDL
