MODEL 1
REMARK minimizedAffinity -5.69804859
REMARK minimizedRMSD -1
REMARK  1 active torsions:
REMARK  status: ('A' for Active; 'I' for Inactive)
REMARK    1  A    between atoms: C1_2  and  C2_3 
ROOT
ATOM      1  C2  UNL d   1       0.004  -0.526   0.285  0.00  0.00    -0.081 A 
ATOM      2  C3  UNL d   1       0.397  -1.832  -0.034  0.00  0.00     0.006 A 
ATOM      3  C4  UNL d   1       0.738  -2.168  -1.346  0.00  0.00     0.002 A 
ATOM      4  C5  UNL d   1       0.701  -1.204  -2.359  0.00  0.00    -0.080 A 
ATOM      5  C6  UNL d   1       1.094  -1.544  -3.766  0.00  0.00     0.076 C 
ATOM      6  C7  UNL d   1       0.292   0.097  -2.044  0.00  0.00     0.002 A 
ATOM      7  C8  UNL d   1      -0.050   0.433  -0.732  0.00  0.00     0.006 A 
ENDROOT
BRANCH   1   8
ATOM      8  C1  UNL d   1      -0.302  -0.144   1.710  0.00  0.00     0.054 C 
ATOM      9  C   UNL d   1       0.177  -1.211   2.684  0.00  0.00     0.018 C 
ENDBRANCH   1   8
TORSDOF 1
ENDMDL
