MODEL 1
REMARK minimizedAffinity -2.07003355
REMARK minimizedRMSD -1
REMARK  1 active torsions:
REMARK  status: ('A' for Active; 'I' for Inactive)
REMARK    1  A    between atoms: C1_2  and  C2_3 
ROOT
ATOM      1  C2  UNL d   1       0.335  -0.231   0.816  0.00  0.00    -0.081 A 
ATOM      2  C3  UNL d   1       0.841  -1.448   0.344  0.00  0.00     0.006 A 
ATOM      3  C4  UNL d   1       0.903  -1.705  -1.027  0.00  0.00     0.002 A 
ATOM      4  C5  UNL d   1       0.468  -0.747  -1.949  0.00  0.00    -0.080 A 
ATOM      5  C6  UNL d   1       0.557  -0.998  -3.425  0.00  0.00     0.076 C 
ATOM      6  C7  UNL d   1      -0.054   0.462  -1.477  0.00  0.00     0.002 A 
ATOM      7  C8  UNL d   1      -0.117   0.719  -0.106  0.00  0.00     0.006 A 
ENDROOT
BRANCH   1   8
ATOM      8  C1  UNL d   1       0.327   0.075   2.292  0.00  0.00     0.054 C 
ATOM      9  C   UNL d   1      -1.093   0.225   2.818  0.00  0.00     0.018 C 
ENDBRANCH   1   8
TORSDOF 1
ENDMDL
