MODEL 1
REMARK minimizedAffinity -2.99766254
REMARK minimizedRMSD -1
REMARK  1 active torsions:
REMARK  status: ('A' for Active; 'I' for Inactive)
REMARK    1  A    between atoms: C1_2  and  C2_3 
ROOT
ATOM      1  C2  UNL d   1       0.368   0.002  -1.587  0.00  0.00    -0.081 A 
ATOM      2  C3  UNL d   1      -0.806   0.533  -1.037  0.00  0.00     0.006 A 
ATOM      3  C4  UNL d   1      -0.998   0.545   0.346  0.00  0.00     0.002 A 
ATOM      4  C5  UNL d   1      -0.017   0.034   1.203  0.00  0.00    -0.080 A 
ATOM      5  C6  UNL d   1      -0.198   0.068   2.692  0.00  0.00     0.076 C 
ATOM      6  C7  UNL d   1       1.148  -0.512   0.654  0.00  0.00     0.002 A 
ATOM      7  C8  UNL d   1       1.340  -0.525  -0.729  0.00  0.00     0.006 A 
ENDROOT
BRANCH   1   8
ATOM      8  C1  UNL d   1       0.606   0.047  -3.074  0.00  0.00     0.054 C 
ATOM      9  C   UNL d   1       1.731  -0.894  -3.483  0.00  0.00     0.018 C 
ENDBRANCH   1   8
TORSDOF 1
ENDMDL
