MODEL 1
REMARK minimizedAffinity -4.32006741
REMARK minimizedRMSD -1
REMARK  1 active torsions:
REMARK  status: ('A' for Active; 'I' for Inactive)
REMARK    1  A    between atoms: C1_2  and  C2_3 
ROOT
ATOM      1  C2  UNL d   1       0.557   0.002  -0.925  0.00  0.00    -0.081 A 
ATOM      2  C3  UNL d   1       1.525   0.137   0.078  0.00  0.00     0.006 A 
ATOM      3  C4  UNL d   1       1.182  -0.035   1.421  0.00  0.00     0.002 A 
ATOM      4  C5  UNL d   1      -0.131  -0.353   1.783  0.00  0.00    -0.080 A 
ATOM      5  C6  UNL d   1      -0.506  -0.570   3.219  0.00  0.00     0.076 C 
ATOM      6  C7  UNL d   1      -1.102  -0.471   0.783  0.00  0.00     0.002 A 
ATOM      7  C8  UNL d   1      -0.760  -0.298  -0.560  0.00  0.00     0.006 A 
ENDROOT
BRANCH   1   8
ATOM      8  C1  UNL d   1       0.937   0.122  -2.378  0.00  0.00     0.054 C 
ATOM      9  C   UNL d   1       1.029  -1.244  -3.042  0.00  0.00     0.018 C 
ENDBRANCH   1   8
TORSDOF 1
ENDMDL
