MODEL 1
REMARK minimizedAffinity -3.44131494
REMARK minimizedRMSD -1
REMARK  1 active torsions:
REMARK  status: ('A' for Active; 'I' for Inactive)
REMARK    1  A    between atoms: C1_2  and  C2_3 
ROOT
ATOM      1  C2  UNL d   1       0.689   0.086  -1.317  0.00  0.00    -0.081 A 
ATOM      2  C3  UNL d   1       1.744   0.155  -0.399  0.00  0.00     0.006 A 
ATOM      3  C4  UNL d   1       1.488   0.191   0.973  0.00  0.00     0.002 A 
ATOM      4  C5  UNL d   1       0.174   0.149   1.451  0.00  0.00    -0.080 A 
ATOM      5  C6  UNL d   1      -0.114   0.156   2.923  0.00  0.00     0.076 C 
ATOM      6  C7  UNL d   1      -0.881   0.098   0.534  0.00  0.00     0.002 A 
ATOM      7  C8  UNL d   1      -0.626   0.063  -0.839  0.00  0.00     0.006 A 
ENDROOT
BRANCH   1   8
ATOM      8  C1  UNL d   1       0.965  -0.017  -2.795  0.00  0.00     0.054 C 
ATOM      9  C   UNL d   1       0.401  -1.307  -3.374  0.00  0.00     0.018 C 
ENDBRANCH   1   8
TORSDOF 1
ENDMDL
