MODEL 1
REMARK minimizedAffinity -4.33664322
REMARK minimizedRMSD -1
REMARK  1 active torsions:
REMARK  status: ('A' for Active; 'I' for Inactive)
REMARK    1  A    between atoms: C1_2  and  C2_3 
ROOT
ATOM      1  C2  UNL d   1       0.061   0.190   1.687  0.00  0.00    -0.081 A 
ATOM      2  C3  UNL d   1       1.290   0.436   1.063  0.00  0.00     0.006 A 
ATOM      3  C4  UNL d   1       1.394   0.417  -0.330  0.00  0.00     0.002 A 
ATOM      4  C5  UNL d   1       0.269   0.161  -1.122  0.00  0.00    -0.080 A 
ATOM      5  C6  UNL d   1       0.360   0.168  -2.619  0.00  0.00     0.076 C 
ATOM      6  C7  UNL d   1      -0.955  -0.102  -0.498  0.00  0.00     0.002 A 
ATOM      7  C8  UNL d   1      -1.059  -0.084   0.894  0.00  0.00     0.006 A 
ENDROOT
BRANCH   1   8
ATOM      8  C1  UNL d   1      -0.067   0.273   3.186  0.00  0.00     0.054 C 
ATOM      9  C   UNL d   1      -0.913  -0.868   3.734  0.00  0.00     0.018 C 
ENDBRANCH   1   8
TORSDOF 1
ENDMDL
