MODEL 1
REMARK minimizedAffinity -3.54384446
REMARK minimizedRMSD -1
REMARK  1 active torsions:
REMARK  status: ('A' for Active; 'I' for Inactive)
REMARK    1  A    between atoms: C1_2  and  C2_3 
ROOT
ATOM      1  C2  UNL d   1       0.858  -0.088  -1.590  0.00  0.00    -0.081 A 
ATOM      2  C3  UNL d   1       1.188   1.050  -0.845  0.00  0.00     0.006 A 
ATOM      3  C4  UNL d   1       1.024   1.061   0.543  0.00  0.00     0.002 A 
ATOM      4  C5  UNL d   1       0.535  -0.068   1.208  0.00  0.00    -0.080 A 
ATOM      5  C6  UNL d   1       0.383  -0.081   2.700  0.00  0.00     0.076 C 
ATOM      6  C7  UNL d   1       0.188  -1.200   0.462  0.00  0.00     0.002 A 
ATOM      7  C8  UNL d   1       0.351  -1.211  -0.925  0.00  0.00     0.006 A 
ENDROOT
BRANCH   1   8
ATOM      8  C1  UNL d   1       1.094  -0.125  -3.078  0.00  0.00     0.054 C 
ATOM      9  C   UNL d   1       1.110  -1.555  -3.600  0.00  0.00     0.018 C 
ENDBRANCH   1   8
TORSDOF 1
ENDMDL
