MODEL 1
REMARK minimizedAffinity -3.59959817
REMARK minimizedRMSD -1
REMARK  1 active torsions:
REMARK  status: ('A' for Active; 'I' for Inactive)
REMARK    1  A    between atoms: C1_2  and  C2_3 
ROOT
ATOM      1  C2  UNL d   1       2.464  -1.044  -3.833  0.00  0.00    -0.081 A 
ATOM      2  C3  UNL d   1       2.132   0.285  -3.542  0.00  0.00     0.006 A 
ATOM      3  C4  UNL d   1       3.070   1.304  -3.723  0.00  0.00     0.002 A 
ATOM      4  C5  UNL d   1       4.350   1.014  -4.205  0.00  0.00    -0.080 A 
ATOM      5  C6  UNL d   1       5.356   2.103  -4.432  0.00  0.00     0.076 C 
ATOM      6  C7  UNL d   1       4.687  -0.316  -4.479  0.00  0.00     0.002 A 
ATOM      7  C8  UNL d   1       3.751  -1.336  -4.298  0.00  0.00     0.006 A 
ENDROOT
BRANCH   1   8
ATOM      8  C1  UNL d   1       1.434  -2.138  -3.701  0.00  0.00     0.054 C 
ATOM      9  C   UNL d   1       0.022  -1.570  -3.692  0.00  0.00     0.018 C 
ENDBRANCH   1   8
TORSDOF 1
ENDMDL
