MODEL 1
REMARK minimizedAffinity -4.30218363
REMARK minimizedRMSD -1
REMARK  1 active torsions:
REMARK  status: ('A' for Active; 'I' for Inactive)
REMARK    1  A    between atoms: C1_2  and  C2_3 
ROOT
ATOM      1  C2  UNL d   1       0.420  -0.338   0.503  0.00  0.00    -0.081 A 
ATOM      2  C3  UNL d   1       0.594  -1.457  -0.320  0.00  0.00     0.006 A 
ATOM      3  C4  UNL d   1       0.644  -1.315  -1.708  0.00  0.00     0.002 A 
ATOM      4  C5  UNL d   1       0.529  -0.051  -2.297  0.00  0.00    -0.080 A 
ATOM      5  C6  UNL d   1       0.611   0.119  -3.785  0.00  0.00     0.076 C 
ATOM      6  C7  UNL d   1       0.338   1.066  -1.476  0.00  0.00     0.002 A 
ATOM      7  C8  UNL d   1       0.287   0.924  -0.088  0.00  0.00     0.006 A 
ENDROOT
BRANCH   1   8
ATOM      8  C1  UNL d   1       0.431  -0.480   2.004  0.00  0.00     0.054 C 
ATOM      9  C   UNL d   1      -0.859   0.045   2.618  0.00  0.00     0.018 C 
ENDBRANCH   1   8
TORSDOF 1
ENDMDL
