MODEL 1
REMARK minimizedAffinity -4.41194868
REMARK minimizedRMSD -1
REMARK  1 active torsions:
REMARK  status: ('A' for Active; 'I' for Inactive)
REMARK    1  A    between atoms: C1_2  and  C2_3 
ROOT
ATOM      1  C2  UNL d   1       0.825  -0.489   1.256  0.00  0.00    -0.081 A 
ATOM      2  C3  UNL d   1      -0.084   0.042   0.332  0.00  0.00     0.006 A 
ATOM      3  C4  UNL d   1       0.040  -0.248  -1.029  0.00  0.00     0.002 A 
ATOM      4  C5  UNL d   1       1.068  -1.079  -1.487  0.00  0.00    -0.080 A 
ATOM      5  C6  UNL d   1       1.194  -1.422  -2.942  0.00  0.00     0.076 C 
ATOM      6  C7  UNL d   1       1.986  -1.595  -0.567  0.00  0.00     0.002 A 
ATOM      7  C8  UNL d   1       1.864  -1.305   0.794  0.00  0.00     0.006 A 
ENDROOT
BRANCH   1   8
ATOM      8  C1  UNL d   1       0.656  -0.231   2.731  0.00  0.00     0.054 C 
ATOM      9  C   UNL d   1      -0.814  -0.146   3.114  0.00  0.00     0.018 C 
ENDBRANCH   1   8
TORSDOF 1
ENDMDL
