MODEL 1
REMARK minimizedAffinity 12.6559753
REMARK minimizedRMSD -1
REMARK  2 active torsions:
REMARK  status: ('A' for Active; 'I' for Inactive)
REMARK    1  A    between atoms: C2'_3  and  C1'_4 
REMARK    2  A    between atoms: C1'_4  and  C1_5 
ROOT
ATOM      1  C1  I4B d   1       0.812  -0.963   0.960  0.00  0.00    -0.075 A 
ATOM      2  C2  I4B d   1       2.094  -0.587   1.277  0.00  0.00     0.003 A 
ATOM      3  C3  I4B d   1       2.350   0.704   1.800  0.00  0.00     0.002 A 
ATOM      4  C4  I4B d   1       1.308   1.598   1.942  0.00  0.00    -0.004 A 
ATOM      5  C5  I4B d   1       0.006   1.208   1.642  0.00  0.00     0.002 A 
ATOM      6  C6  I4B d   1      -0.245  -0.085   1.160  0.00  0.00     0.003 A 
ENDROOT
BRANCH   1   7
ATOM      7  C1' I4B d   1       0.583  -2.322   0.379  0.00  0.00     0.060 C 
BRANCH   7   8
ATOM      8  C2' I4B d   1      -0.178  -2.151  -0.920  0.00  0.00    -0.013 C 
ATOM      9  C4' I4B d   1       0.652  -2.587  -2.099  0.00  0.00     0.013 C 
ATOM     10  C3' I4B d   1      -1.444  -2.949  -0.824  0.00  0.00     0.013 C 
ENDBRANCH   7   8
ENDBRANCH   1   7
TORSDOF 2
ENDMDL
