MODEL 1
REMARK minimizedAffinity 11.1845951
REMARK minimizedRMSD -1
REMARK  2 active torsions:
REMARK  status: ('A' for Active; 'I' for Inactive)
REMARK    1  A    between atoms: C2'_3  and  C1'_4 
REMARK    2  A    between atoms: C1'_4  and  C1_5 
ROOT
ATOM      1  C1  I4B d   1      -4.141   2.571  -0.663  0.00  0.00    -0.075 A 
ATOM      2  C2  I4B d   1      -5.325   3.202  -0.373  0.00  0.00     0.003 A 
ATOM      3  C3  I4B d   1      -5.951   3.003   0.882  0.00  0.00     0.002 A 
ATOM      4  C4  I4B d   1      -5.387   2.131   1.791  0.00  0.00    -0.004 A 
ATOM      5  C5  I4B d   1      -4.175   1.510   1.504  0.00  0.00     0.002 A 
ATOM      6  C6  I4B d   1      -3.541   1.741   0.275  0.00  0.00     0.003 A 
ENDROOT
BRANCH   1   7
ATOM      7  C1' I4B d   1      -3.525   2.779  -2.010  0.00  0.00     0.060 C 
BRANCH   7   8
ATOM      8  C2' I4B d   1      -4.030   1.683  -2.928  0.00  0.00    -0.013 C 
ATOM      9  C4' I4B d   1      -5.298   1.069  -2.397  0.00  0.00     0.013 C 
ATOM     10  C3' I4B d   1      -4.244   2.280  -4.287  0.00  0.00     0.013 C 
ENDBRANCH   7   8
ENDBRANCH   1   7
TORSDOF 2
ENDMDL
