MODEL 1
REMARK minimizedAffinity 9.53664589
REMARK minimizedRMSD -1
REMARK  2 active torsions:
REMARK  status: ('A' for Active; 'I' for Inactive)
REMARK    1  A    between atoms: C2'_3  and  C1'_4 
REMARK    2  A    between atoms: C1'_4  and  C1_5 
ROOT
ATOM      1  C1  I4B d   1       3.758   0.207   0.031  0.00  0.00    -0.075 A 
ATOM      2  C2  I4B d   1       3.215   1.432   0.331  0.00  0.00     0.003 A 
ATOM      3  C3  I4B d   1       2.150   1.531   1.259  0.00  0.00     0.002 A 
ATOM      4  C4  I4B d   1       1.628   0.384   1.820  0.00  0.00    -0.004 A 
ATOM      5  C5  I4B d   1       2.195  -0.854   1.533  0.00  0.00     0.002 A 
ATOM      6  C6  I4B d   1       3.275  -0.943   0.642  0.00  0.00     0.003 A 
ENDROOT
BRANCH   1   7
ATOM      7  C1' I4B d   1       4.860   0.135  -0.978  0.00  0.00     0.060 C 
BRANCH   7   8
ATOM      8  C2' I4B d   1       4.268  -0.360  -2.281  0.00  0.00    -0.013 C 
ATOM      9  C4' I4B d   1       3.131   0.519  -2.732  0.00  0.00     0.013 C 
ATOM     10  C3' I4B d   1       5.364  -0.395  -3.304  0.00  0.00     0.013 C 
ENDBRANCH   7   8
ENDBRANCH   1   7
TORSDOF 2
ENDMDL
