MODEL 1
REMARK minimizedAffinity 4.57525587
REMARK minimizedRMSD -1
REMARK  2 active torsions:
REMARK  status: ('A' for Active; 'I' for Inactive)
REMARK    1  A    between atoms: C2'_3  and  C1'_4 
REMARK    2  A    between atoms: C1'_4  and  C1_5 
ROOT
ATOM      1  C1  I4B d   1       1.713  -0.784   1.267  0.00  0.00    -0.075 A 
ATOM      2  C2  I4B d   1       2.119   0.436   1.748  0.00  0.00     0.003 A 
ATOM      3  C3  I4B d   1       1.165   1.441   2.040  0.00  0.00     0.002 A 
ATOM      4  C4  I4B d   1      -0.171   1.203   1.790  0.00  0.00    -0.004 A 
ATOM      5  C5  I4B d   1      -0.583  -0.042   1.324  0.00  0.00     0.002 A 
ATOM      6  C6  I4B d   1       0.363  -1.046   1.072  0.00  0.00     0.003 A 
ENDROOT
BRANCH   1   7
ATOM      7  C1' I4B d   1       2.749  -1.811   0.939  0.00  0.00     0.060 C 
BRANCH   7   8
ATOM      8  C2' I4B d   1       4.108  -1.145   1.020  0.00  0.00    -0.013 C 
ATOM      9  C4' I4B d   1       5.169  -2.121   1.455  0.00  0.00     0.013 C 
ATOM     10  C3' I4B d   1       4.422  -0.569  -0.329  0.00  0.00     0.013 C 
ENDBRANCH   7   8
ENDBRANCH   1   7
TORSDOF 2
ENDMDL
