MODEL 1
REMARK minimizedAffinity -0.12758182
REMARK minimizedRMSD -1
REMARK  3 active torsions:
REMARK  status: ('A' for Active; 'I' for Inactive)
REMARK    1  A    between atoms: C3'_2  and  C2'_3 
REMARK    2  A    between atoms: C2'_3  and  C1'_4 
REMARK    3  A    between atoms: C1'_4  and  C1_5 
ROOT
ATOM      1  C1  N4B d   1       0.066   3.945  -3.854  0.00  0.00    -0.075 A 
ATOM      2  C2  N4B d   1      -1.282   4.349  -3.744  0.00  0.00     0.002 A 
ATOM      3  C3  N4B d   1      -1.873   5.054  -4.763  0.00  0.00     0.002 A 
ATOM      4  C4  N4B d   1      -1.134   5.380  -5.890  0.00  0.00    -0.004 A 
ATOM      5  C5  N4B d   1       0.161   4.964  -6.000  0.00  0.00     0.002 A 
ATOM      6  C6  N4B d   1       0.767   4.252  -4.984  0.00  0.00     0.002 A 
ENDROOT
BRANCH   1   7
ATOM      7  C1' N4B d   1       0.781   3.247  -2.729  0.00  0.00     0.057 C 
BRANCH   7   8
ATOM      8  C2' N4B d   1       2.023   4.049  -2.351  0.00  0.00     0.009 C 
BRANCH   8   9
ATOM      9  C3' N4B d   1       1.950   4.573  -0.927  0.00  0.00     0.004 C 
ATOM     10  C4' N4B d   1       1.486   3.534   0.050  0.00  0.00     0.003 C 
ENDBRANCH   8   9
ENDBRANCH   7   8
ENDBRANCH   1   7
TORSDOF 3
ENDMDL
