MODEL 1
REMARK minimizedAffinity 7.44769239
REMARK minimizedRMSD -1
REMARK  3 active torsions:
REMARK  status: ('A' for Active; 'I' for Inactive)
REMARK    1  A    between atoms: C3'_2  and  C2'_3 
REMARK    2  A    between atoms: C2'_3  and  C1'_4 
REMARK    3  A    between atoms: C1'_4  and  C1_5 
ROOT
ATOM      1  C1  N4B d   1      -0.993  -4.632  -0.469  0.00  0.00    -0.075 A 
ATOM      2  C2  N4B d   1      -1.460  -3.759   0.538  0.00  0.00     0.002 A 
ATOM      3  C3  N4B d   1      -0.593  -3.282   1.490  0.00  0.00     0.002 A 
ATOM      4  C4  N4B d   1       0.736  -3.678   1.466  0.00  0.00    -0.004 A 
ATOM      5  C5  N4B d   1       1.185  -4.501   0.475  0.00  0.00     0.002 A 
ATOM      6  C6  N4B d   1       0.325  -4.984  -0.491  0.00  0.00     0.002 A 
ENDROOT
BRANCH   1   7
ATOM      7  C1' N4B d   1      -1.922  -5.247  -1.480  0.00  0.00     0.057 C 
BRANCH   7   8
ATOM      8  C2' N4B d   1      -1.762  -4.522  -2.813  0.00  0.00     0.009 C 
BRANCH   8   9
ATOM      9  C3' N4B d   1      -0.806  -5.248  -3.744  0.00  0.00     0.004 C 
ATOM     10  C4' N4B d   1      -1.514  -6.000  -4.832  0.00  0.00     0.003 C 
ENDBRANCH   8   9
ENDBRANCH   7   8
ENDBRANCH   1   7
TORSDOF 3
ENDMDL
