MODEL 1
REMARK minimizedAffinity 1.72853911
REMARK minimizedRMSD -1
REMARK  3 active torsions:
REMARK  status: ('A' for Active; 'I' for Inactive)
REMARK    1  A    between atoms: C3'_2  and  C2'_3 
REMARK    2  A    between atoms: C2'_3  and  C1'_4 
REMARK    3  A    between atoms: C1'_4  and  C1_5 
ROOT
ATOM      1  C1  N4B d   1      -5.208   3.923  -2.092  0.00  0.00    -0.075 A 
ATOM      2  C2  N4B d   1      -4.087   4.774  -1.976  0.00  0.00     0.002 A 
ATOM      3  C3  N4B d   1      -3.455   4.915  -0.765  0.00  0.00     0.002 A 
ATOM      4  C4  N4B d   1      -3.935   4.234   0.344  0.00  0.00    -0.004 A 
ATOM      5  C5  N4B d   1      -5.003   3.395   0.217  0.00  0.00     0.002 A 
ATOM      6  C6  N4B d   1      -5.645   3.239  -0.994  0.00  0.00     0.002 A 
ENDROOT
BRANCH   1   7
ATOM      7  C1' N4B d   1      -5.983   3.802  -3.375  0.00  0.00     0.057 C 
BRANCH   7   8
ATOM      8  C2' N4B d   1      -5.998   2.341  -3.816  0.00  0.00     0.009 C 
BRANCH   8   9
ATOM      9  C3' N4B d   1      -6.000   2.204  -5.328  0.00  0.00     0.004 C 
ATOM     10  C4' N4B d   1      -5.801   0.789  -5.784  0.00  0.00     0.003 C 
ENDBRANCH   8   9
ENDBRANCH   7   8
ENDBRANCH   1   7
TORSDOF 3
ENDMDL
