MODEL 1
REMARK minimizedAffinity 11.8309393
REMARK minimizedRMSD -1
REMARK  3 active torsions:
REMARK  status: ('A' for Active; 'I' for Inactive)
REMARK    1  A    between atoms: C3'_2  and  C2'_3 
REMARK    2  A    between atoms: C2'_3  and  C1'_4 
REMARK    3  A    between atoms: C1'_4  and  C1_5 
ROOT
ATOM      1  C1  N4B d   1       1.717   1.798  -1.291  0.00  0.00    -0.075 A 
ATOM      2  C2  N4B d   1       1.294   2.439  -0.106  0.00  0.00     0.002 A 
ATOM      3  C3  N4B d   1       1.820   2.060   1.104  0.00  0.00     0.002 A 
ATOM      4  C4  N4B d   1       2.751   1.034   1.157  0.00  0.00    -0.004 A 
ATOM      5  C5  N4B d   1       3.174   0.438   0.005  0.00  0.00     0.002 A 
ATOM      6  C6  N4B d   1       2.657   0.811  -1.219  0.00  0.00     0.002 A 
ENDROOT
BRANCH   1   7
ATOM      7  C1' N4B d   1       1.108   2.119  -2.629  0.00  0.00     0.057 C 
BRANCH   7   8
ATOM      8  C2' N4B d   1       1.045   3.634  -2.800  0.00  0.00     0.009 C 
BRANCH   8   9
ATOM      9  C3' N4B d   1       2.046   4.132  -3.829  0.00  0.00     0.004 C 
ATOM     10  C4' N4B d   1       1.394   4.843  -4.977  0.00  0.00     0.003 C 
ENDBRANCH   8   9
ENDBRANCH   7   8
ENDBRANCH   1   7
TORSDOF 3
ENDMDL
