MODEL 1
REMARK minimizedAffinity 10.6541348
REMARK minimizedRMSD -1
REMARK  3 active torsions:
REMARK  status: ('A' for Active; 'I' for Inactive)
REMARK    1  A    between atoms: C3'_2  and  C2'_3 
REMARK    2  A    between atoms: C2'_3  and  C1'_4 
REMARK    3  A    between atoms: C1'_4  and  C1_5 
ROOT
ATOM      1  C1  N4B d   1       2.675   0.547  -0.367  0.00  0.00    -0.075 A 
ATOM      2  C2  N4B d   1       3.691  -0.433  -0.329  0.00  0.00     0.002 A 
ATOM      3  C3  N4B d   1       3.854  -1.210   0.791  0.00  0.00     0.002 A 
ATOM      4  C4  N4B d   1       3.028  -1.014   1.888  0.00  0.00    -0.004 A 
ATOM      5  C5  N4B d   1       2.033  -0.082   1.834  0.00  0.00     0.002 A 
ATOM      6  C6  N4B d   1       1.855   0.703   0.713  0.00  0.00     0.002 A 
ENDROOT
BRANCH   1   7
ATOM      7  C1' N4B d   1       2.514   1.479  -1.537  0.00  0.00     0.057 C 
BRANCH   7   8
ATOM      8  C2' N4B d   1       3.660   1.254  -2.518  0.00  0.00     0.009 C 
BRANCH   8   9
ATOM      9  C3' N4B d   1       4.593   2.451  -2.589  0.00  0.00     0.004 C 
ATOM     10  C4' N4B d   1       6.000   2.071  -2.941  0.00  0.00     0.003 C 
ENDBRANCH   8   9
ENDBRANCH   7   8
ENDBRANCH   1   7
TORSDOF 3
ENDMDL
