MODEL 1
REMARK minimizedAffinity -0.9825477
REMARK minimizedRMSD -1
REMARK  3 active torsions:
REMARK  status: ('A' for Active; 'I' for Inactive)
REMARK    1  A    between atoms: C3'_2  and  C2'_3 
REMARK    2  A    between atoms: C2'_3  and  C1'_4 
REMARK    3  A    between atoms: C1'_4  and  C1_5 
ROOT
ATOM      1  C1  N4B d   1       2.116   1.922  -2.120  0.00  0.00    -0.075 A 
ATOM      2  C2  N4B d   1       3.469   1.927  -2.524  0.00  0.00     0.002 A 
ATOM      3  C3  N4B d   1       3.885   2.774  -3.521  0.00  0.00     0.002 A 
ATOM      4  C4  N4B d   1       2.966   3.608  -4.140  0.00  0.00    -0.004 A 
ATOM      5  C5  N4B d   1       1.666   3.617  -3.726  0.00  0.00     0.002 A 
ATOM      6  C6  N4B d   1       1.235   2.773  -2.722  0.00  0.00     0.002 A 
ENDROOT
BRANCH   1   7
ATOM      7  C1' N4B d   1       1.597   0.953  -1.093  0.00  0.00     0.057 C 
BRANCH   7   8
ATOM      8  C2' N4B d   1       1.291   1.707   0.198  0.00  0.00     0.009 C 
BRANCH   8   9
ATOM      9  C3' N4B d   1       2.480   1.721   1.143  0.00  0.00     0.004 C 
ATOM     10  C4' N4B d   1       2.961   3.107   1.452  0.00  0.00     0.003 C 
ENDBRANCH   8   9
ENDBRANCH   7   8
ENDBRANCH   1   7
TORSDOF 3
ENDMDL
