MODEL 1
REMARK minimizedAffinity 1.76678407
REMARK minimizedRMSD -1
REMARK  3 active torsions:
REMARK  status: ('A' for Active; 'I' for Inactive)
REMARK    1  A    between atoms: C3'_2  and  C2'_3 
REMARK    2  A    between atoms: C2'_3  and  C1'_4 
REMARK    3  A    between atoms: C1'_4  and  C1_5 
ROOT
ATOM      1  C1  N4B d   1       2.516   2.445  -2.310  0.00  0.00    -0.075 A 
ATOM      2  C2  N4B d   1       3.773   2.104  -2.854  0.00  0.00     0.002 A 
ATOM      3  C3  N4B d   1       4.244   2.766  -3.962  0.00  0.00     0.002 A 
ATOM      4  C4  N4B d   1       3.470   3.755  -4.550  0.00  0.00    -0.004 A 
ATOM      5  C5  N4B d   1       2.268   4.095  -4.003  0.00  0.00     0.002 A 
ATOM      6  C6  N4B d   1       1.784   3.441  -2.888  0.00  0.00     0.002 A 
ENDROOT
BRANCH   1   7
ATOM      7  C1' N4B d   1       1.921   1.691  -1.152  0.00  0.00     0.057 C 
BRANCH   7   8
ATOM      8  C2' N4B d   1       2.960   1.579  -0.040  0.00  0.00     0.009 C 
BRANCH   8   9
ATOM      9  C3' N4B d   1       2.460   0.739   1.123  0.00  0.00     0.004 C 
ATOM     10  C4' N4B d   1       3.566   0.286   2.029  0.00  0.00     0.003 C 
ENDBRANCH   8   9
ENDBRANCH   7   8
ENDBRANCH   1   7
TORSDOF 3
ENDMDL
