MODEL 1
REMARK minimizedAffinity 6.53423786
REMARK minimizedRMSD -1
REMARK  3 active torsions:
REMARK  status: ('A' for Active; 'I' for Inactive)
REMARK    1  A    between atoms: C3'_2  and  C2'_3 
REMARK    2  A    between atoms: C2'_3  and  C1'_4 
REMARK    3  A    between atoms: C1'_4  and  C1_5 
ROOT
ATOM      1  C1  N4B d   1       2.318   1.116   0.373  0.00  0.00    -0.075 A 
ATOM      2  C2  N4B d   1       2.476  -0.281   0.511  0.00  0.00     0.002 A 
ATOM      3  C3  N4B d   1       3.435  -0.784   1.355  0.00  0.00     0.002 A 
ATOM      4  C4  N4B d   1       4.258   0.086   2.055  0.00  0.00    -0.004 A 
ATOM      5  C5  N4B d   1       4.082   1.434   1.936  0.00  0.00     0.002 A 
ATOM      6  C6  N4B d   1       3.120   1.953   1.094  0.00  0.00     0.002 A 
ENDROOT
BRANCH   1   7
ATOM      7  C1' N4B d   1       1.341   1.713  -0.602  0.00  0.00     0.057 C 
BRANCH   7   8
ATOM      8  C2' N4B d   1       1.975   1.745  -1.990  0.00  0.00     0.009 C 
BRANCH   8   9
ATOM      9  C3' N4B d   1       3.387   2.303  -1.957  0.00  0.00     0.004 C 
ATOM     10  C4' N4B d   1       4.170   1.979  -3.194  0.00  0.00     0.003 C 
ENDBRANCH   8   9
ENDBRANCH   7   8
ENDBRANCH   1   7
TORSDOF 3
ENDMDL
