MODEL 1
REMARK minimizedAffinity -2.64962077
REMARK minimizedRMSD -1
REMARK  0 active torsions:
REMARK  status: ('A' for Active; 'I' for Inactive)
ROOT
ATOM      1  C   UNL d   1       1.944  -1.801   0.012  0.00  0.00    -0.002 A 
ATOM      2  C1  UNL d   1       1.328  -1.933   1.248  0.00  0.00     0.010 A 
ATOM      3  C2  UNL d   1       0.292  -1.074   1.620  0.00  0.00     0.041 A 
ATOM      4  C3  UNL d   1      -0.118  -0.071   0.720  0.00  0.00    -0.075 A 
ATOM      5  S   UNL d   1      -1.366   1.094   0.961  0.00  0.00     0.015 SA
ATOM      6  C4  UNL d   1      -1.110   1.794  -0.572  0.00  0.00     0.022 A 
ATOM      7  C5  UNL d   1      -0.102   1.167  -1.264  0.00  0.00     0.026 A 
ATOM      8  C6  UNL d   1       0.486   0.081  -0.531  0.00  0.00    -0.082 A 
ATOM      9  C7  UNL d   1       1.534  -0.805  -0.879  0.00  0.00     0.045 A 
ENDROOT
TORSDOF 0
ENDMDL
