MODEL 1
REMARK minimizedAffinity -1.7348578
REMARK minimizedRMSD -1
REMARK  0 active torsions:
REMARK  status: ('A' for Active; 'I' for Inactive)
ROOT
ATOM      1  C   UNL d   1       2.108  -1.501   0.881  0.00  0.00    -0.002 A 
ATOM      2  C1  UNL d   1       1.158  -2.513   0.851  0.00  0.00     0.010 A 
ATOM      3  C2  UNL d   1      -0.104  -2.286   0.298  0.00  0.00     0.041 A 
ATOM      4  C3  UNL d   1      -0.398  -1.014  -0.231  0.00  0.00    -0.075 A 
ATOM      5  S   UNL d   1      -1.876  -0.507  -0.958  0.00  0.00     0.015 SA
ATOM      6  C4  UNL d   1      -1.282   1.065  -1.246  0.00  0.00     0.022 A 
ATOM      7  C5  UNL d   1       0.011   1.216  -0.804  0.00  0.00     0.026 A 
ATOM      8  C6  UNL d   1       0.542   0.021  -0.212  0.00  0.00    -0.082 A 
ATOM      9  C7  UNL d   1       1.812  -0.240   0.356  0.00  0.00     0.045 A 
ENDROOT
TORSDOF 0
ENDMDL
