MODEL 1
REMARK minimizedAffinity -3.8023293
REMARK minimizedRMSD -1
REMARK  0 active torsions:
REMARK  status: ('A' for Active; 'I' for Inactive)
ROOT
ATOM      1  C   UNL d   1       1.851  -2.683   0.699  0.00  0.00    -0.002 A 
ATOM      2  C1  UNL d   1       0.565  -3.101   1.009  0.00  0.00     0.010 A 
ATOM      3  C2  UNL d   1      -0.523  -2.244   0.832  0.00  0.00     0.041 A 
ATOM      4  C3  UNL d   1      -0.294  -0.948   0.330  0.00  0.00    -0.075 A 
ATOM      5  S   UNL d   1      -1.474   0.274   0.030  0.00  0.00     0.015 SA
ATOM      6  C4  UNL d   1      -0.298   1.379  -0.518  0.00  0.00     0.022 A 
ATOM      7  C5  UNL d   1       0.969   0.846  -0.480  0.00  0.00     0.026 A 
ATOM      8  C6  UNL d   1       0.992  -0.504   0.009  0.00  0.00    -0.082 A 
ATOM      9  C7  UNL d   1       2.074  -1.396   0.201  0.00  0.00     0.045 A 
ENDROOT
TORSDOF 0
ENDMDL
