MODEL 1
REMARK minimizedAffinity -5.64275742
REMARK minimizedRMSD -1
REMARK  0 active torsions:
REMARK  status: ('A' for Active; 'I' for Inactive)
ROOT
ATOM      1  C   UNL d   1      -0.055  -2.272   2.236  0.00  0.00    -0.002 A 
ATOM      2  C1  UNL d   1       1.231  -2.446   1.745  0.00  0.00     0.010 A 
ATOM      3  C2  UNL d   1       1.730  -1.606   0.748  0.00  0.00     0.041 A 
ATOM      4  C3  UNL d   1       0.908  -0.576   0.250  0.00  0.00    -0.075 A 
ATOM      5  S   UNL d   1       1.308   0.574  -0.970  0.00  0.00     0.015 SA
ATOM      6  C4  UNL d   1      -0.219   1.325  -0.868  0.00  0.00     0.022 A 
ATOM      7  C5  UNL d   1      -1.027   0.725   0.069  0.00  0.00     0.026 A 
ATOM      8  C6  UNL d   1      -0.390  -0.381   0.729  0.00  0.00    -0.082 A 
ATOM      9  C7  UNL d   1      -0.868  -1.250   1.739  0.00  0.00     0.045 A 
ENDROOT
TORSDOF 0
ENDMDL
