MODEL 1
REMARK minimizedAffinity 1.20899081
REMARK minimizedRMSD -1
REMARK  0 active torsions:
REMARK  status: ('A' for Active; 'I' for Inactive)
ROOT
ATOM      1  C   UNL d   1       2.482  -1.790   1.093  0.00  0.00    -0.002 A 
ATOM      2  C1  UNL d   1       2.614  -0.875   0.058  0.00  0.00     0.010 A 
ATOM      3  C2  UNL d   1       1.560  -0.020  -0.272  0.00  0.00     0.041 A 
ATOM      4  C3  UNL d   1       0.362  -0.100   0.465  0.00  0.00    -0.075 A 
ATOM      5  S   UNL d   1      -1.061   0.848   0.240  0.00  0.00     0.015 SA
ATOM      6  C4  UNL d   1      -1.876   0.061   1.514  0.00  0.00     0.022 A 
ATOM      7  C5  UNL d   1      -1.097  -0.904   2.106  0.00  0.00     0.026 A 
ATOM      8  C6  UNL d   1       0.206  -1.012   1.512  0.00  0.00    -0.082 A 
ATOM      9  C7  UNL d   1       1.292  -1.866   1.821  0.00  0.00     0.045 A 
ENDROOT
TORSDOF 0
ENDMDL
