MODEL 1
REMARK minimizedAffinity -4.23023367
REMARK minimizedRMSD -1
REMARK  0 active torsions:
REMARK  status: ('A' for Active; 'I' for Inactive)
ROOT
ATOM      1  C   UNL d   1       1.909  -2.004   0.145  0.00  0.00    -0.002 A 
ATOM      2  C1  UNL d   1       0.826  -2.373   0.931  0.00  0.00     0.010 A 
ATOM      3  C2  UNL d   1      -0.322  -1.581   0.974  0.00  0.00     0.041 A 
ATOM      4  C3  UNL d   1      -0.365  -0.400   0.206  0.00  0.00    -0.075 A 
ATOM      5  S   UNL d   1      -1.667   0.725   0.102  0.00  0.00     0.015 SA
ATOM      6  C4  UNL d   1      -0.817   1.722  -0.988  0.00  0.00     0.022 A 
ATOM      7  C5  UNL d   1       0.431   1.223  -1.276  0.00  0.00     0.026 A 
ATOM      8  C6  UNL d   1       0.712  -0.008  -0.593  0.00  0.00    -0.082 A 
ATOM      9  C7  UNL d   1       1.863  -0.833  -0.615  0.00  0.00     0.045 A 
ENDROOT
TORSDOF 0
ENDMDL
