MODEL 1
REMARK minimizedAffinity -5.39477444
REMARK minimizedRMSD -1
REMARK  0 active torsions:
REMARK  status: ('A' for Active; 'I' for Inactive)
ROOT
ATOM      1  C   UNL d   1       1.601  -2.119   0.207  0.00  0.00    -0.002 A 
ATOM      2  C1  UNL d   1       0.468  -2.427   0.947  0.00  0.00     0.010 A 
ATOM      3  C2  UNL d   1      -0.534  -1.475   1.143  0.00  0.00     0.041 A 
ATOM      4  C3  UNL d   1      -0.377  -0.195   0.575  0.00  0.00    -0.075 A 
ATOM      5  S   UNL d   1      -1.474   1.131   0.682  0.00  0.00     0.015 SA
ATOM      6  C4  UNL d   1      -0.466   2.138  -0.252  0.00  0.00     0.022 A 
ATOM      7  C5  UNL d   1       0.684   1.495  -0.644  0.00  0.00     0.026 A 
ATOM      8  C6  UNL d   1       0.754   0.140  -0.174  0.00  0.00    -0.082 A 
ATOM      9  C7  UNL d   1       1.753  -0.848  -0.354  0.00  0.00     0.045 A 
ENDROOT
TORSDOF 0
ENDMDL
