MODEL 1
REMARK minimizedAffinity -1.95792758
REMARK minimizedRMSD -1
REMARK  0 active torsions:
REMARK  status: ('A' for Active; 'I' for Inactive)
ROOT
ATOM      1  C   UNL d   1       2.048  -0.813  -0.166  0.00  0.00    -0.002 A 
ATOM      2  C1  UNL d   1       1.546   0.480  -0.223  0.00  0.00     0.010 A 
ATOM      3  C2  UNL d   1       0.336   0.800   0.397  0.00  0.00     0.041 A 
ATOM      4  C3  UNL d   1      -0.366  -0.210   1.084  0.00  0.00    -0.075 A 
ATOM      5  S   UNL d   1      -1.866  -0.050   1.919  0.00  0.00     0.015 SA
ATOM      6  C4  UNL d   1      -1.874  -1.693   2.372  0.00  0.00     0.022 A 
ATOM      7  C5  UNL d   1      -0.767  -2.362   1.906  0.00  0.00     0.026 A 
ATOM      8  C6  UNL d   1       0.121  -1.519   1.157  0.00  0.00    -0.082 A 
ATOM      9  C7  UNL d   1       1.349  -1.812   0.517  0.00  0.00     0.045 A 
ENDROOT
TORSDOF 0
ENDMDL
