MODEL 1
REMARK minimizedAffinity 0.729977787
REMARK minimizedRMSD -1
REMARK  0 active torsions:
REMARK  status: ('A' for Active; 'I' for Inactive)
ROOT
ATOM      1  C   UNL d   1       1.577  -2.235   1.930  0.00  0.00    -0.002 A 
ATOM      2  C1  UNL d   1       0.475  -2.130   2.766  0.00  0.00     0.010 A 
ATOM      3  C2  UNL d   1      -0.522  -1.186   2.512  0.00  0.00     0.041 A 
ATOM      4  C3  UNL d   1      -0.392  -0.343   1.391  0.00  0.00    -0.075 A 
ATOM      5  S   UNL d   1      -1.489   0.886   0.882  0.00  0.00     0.015 SA
ATOM      6  C4  UNL d   1      -0.520   1.300  -0.458  0.00  0.00     0.022 A 
ATOM      7  C5  UNL d   1       0.617   0.530  -0.530  0.00  0.00     0.026 A 
ATOM      8  C6  UNL d   1       0.709  -0.430   0.534  0.00  0.00    -0.082 A 
ATOM      9  C7  UNL d   1       1.703  -1.397   0.819  0.00  0.00     0.045 A 
ENDROOT
TORSDOF 0
ENDMDL
