MODEL 1
REMARK minimizedAffinity -2.76547575
REMARK minimizedRMSD -1
REMARK  0 active torsions:
REMARK  status: ('A' for Active; 'I' for Inactive)
ROOT
ATOM      1  C   UNL d   1       1.855  -2.457   1.460  0.00  0.00    -0.002 A 
ATOM      2  C1  UNL d   1       0.735  -2.319   2.268  0.00  0.00     0.010 A 
ATOM      3  C2  UNL d   1      -0.235  -1.358   1.978  0.00  0.00     0.041 A 
ATOM      4  C3  UNL d   1      -0.061  -0.531   0.851  0.00  0.00    -0.075 A 
ATOM      5  S   UNL d   1      -1.120   0.714   0.302  0.00  0.00     0.015 SA
ATOM      6  C4  UNL d   1      -0.111   1.092  -1.019  0.00  0.00     0.022 A 
ATOM      7  C5  UNL d   1       1.011   0.297  -1.055  0.00  0.00     0.026 A 
ATOM      8  C6  UNL d   1       1.058  -0.651   0.022  0.00  0.00    -0.082 A 
ATOM      9  C7  UNL d   1       2.025  -1.635   0.342  0.00  0.00     0.045 A 
ENDROOT
TORSDOF 0
ENDMDL
