MODEL 1
REMARK minimizedAffinity -0.756279588
REMARK minimizedRMSD -1
REMARK  0 active torsions:
REMARK  status: ('A' for Active; 'I' for Inactive)
ROOT
ATOM      1  C   UNL d   1       2.155  -2.054   0.922  0.00  0.00    -0.002 A 
ATOM      2  C1  UNL d   1       1.003  -2.539   1.524  0.00  0.00     0.010 A 
ATOM      3  C2  UNL d   1      -0.203  -1.843   1.415  0.00  0.00     0.041 A 
ATOM      4  C3  UNL d   1      -0.231  -0.640   0.683  0.00  0.00    -0.075 A 
ATOM      5  S   UNL d   1      -1.594   0.382   0.415  0.00  0.00     0.015 SA
ATOM      6  C4  UNL d   1      -0.678   1.487  -0.506  0.00  0.00     0.022 A 
ATOM      7  C5  UNL d   1       0.637   1.101  -0.616  0.00  0.00     0.026 A 
ATOM      8  C6  UNL d   1       0.916  -0.131   0.067  0.00  0.00    -0.082 A 
ATOM      9  C7  UNL d   1       2.123  -0.860   0.196  0.00  0.00     0.045 A 
ENDROOT
TORSDOF 0
ENDMDL
