MODEL 1
REMARK minimizedAffinity -1.64724815
REMARK minimizedRMSD -1
REMARK  0 active torsions:
REMARK  status: ('A' for Active; 'I' for Inactive)
ROOT
ATOM      1  C   UNL d   1       1.462  -2.781   1.030  0.00  0.00    -0.002 A 
ATOM      2  C1  UNL d   1       0.120  -2.861   1.375  0.00  0.00     0.010 A 
ATOM      3  C2  UNL d   1      -0.732  -1.774   1.171  0.00  0.00     0.041 A 
ATOM      4  C3  UNL d   1      -0.209  -0.594   0.606  0.00  0.00    -0.075 A 
ATOM      5  S   UNL d   1      -1.064   0.863   0.264  0.00  0.00     0.015 SA
ATOM      6  C4  UNL d   1       0.330   1.626  -0.350  0.00  0.00     0.022 A 
ATOM      7  C5  UNL d   1       1.431   0.803  -0.302  0.00  0.00     0.026 A 
ATOM      8  C6  UNL d   1       1.139  -0.490   0.249  0.00  0.00    -0.082 A 
ATOM      9  C7  UNL d   1       1.977  -1.609   0.470  0.00  0.00     0.045 A 
ENDROOT
TORSDOF 0
ENDMDL
