MODEL 1
REMARK minimizedAffinity 14.6070681
REMARK minimizedRMSD -1
REMARK  0 active torsions:
REMARK  status: ('A' for Active; 'I' for Inactive)
ROOT
ATOM      1  C   UNL d   1      -5.996  -2.259   2.095  0.00  0.00     0.077 C 
ATOM      2  C1  UNL d   1      -4.999  -1.676   3.052  0.00  0.00    -0.074 A 
ATOM      3  C2  UNL d   1      -4.522  -2.421   4.135  0.00  0.00    -0.005 A 
ATOM      4  C3  UNL d   1      -3.588  -1.869   5.012  0.00  0.00     0.006 A 
ATOM      5  C4  UNL d   1      -3.122  -0.569   4.814  0.00  0.00    -0.005 A 
ATOM      6  C5  UNL d   1      -3.587   0.191   3.736  0.00  0.00    -0.074 A 
ATOM      7  C6  UNL d   1      -3.090   1.587   3.503  0.00  0.00     0.077 C 
ATOM      8  C7  UNL d   1      -4.521  -0.373   2.855  0.00  0.00    -0.001 A 
ENDROOT
TORSDOF 0
ENDMDL
