MODEL 1
REMARK minimizedAffinity 10.0997047
REMARK minimizedRMSD -1
REMARK  0 active torsions:
REMARK  status: ('A' for Active; 'I' for Inactive)
ROOT
ATOM      1  C   UNL d   1      -3.754  -2.150   4.500  0.00  0.00     0.077 C 
ATOM      2  C1  UNL d   1      -3.641  -0.692   4.165  0.00  0.00    -0.074 A 
ATOM      3  C2  UNL d   1      -3.457  -0.270   2.845  0.00  0.00    -0.005 A 
ATOM      4  C3  UNL d   1      -3.363   1.090   2.548  0.00  0.00     0.006 A 
ATOM      5  C4  UNL d   1      -3.451   2.039   3.567  0.00  0.00    -0.005 A 
ATOM      6  C5  UNL d   1      -3.636   1.635   4.893  0.00  0.00    -0.074 A 
ATOM      7  C6  UNL d   1      -3.742   2.643   5.999  0.00  0.00     0.077 C 
ATOM      8  C7  UNL d   1      -3.736   0.268   5.183  0.00  0.00    -0.001 A 
ENDROOT
TORSDOF 0
ENDMDL
