MODEL 1
REMARK minimizedAffinity 9.28932285
REMARK minimizedRMSD -1
REMARK  0 active torsions:
REMARK  status: ('A' for Active; 'I' for Inactive)
ROOT
ATOM      1  C   UNL d   1      -3.520   1.621   5.999  0.00  0.00     0.077 C 
ATOM      2  C1  UNL d   1      -3.710   0.516   5.003  0.00  0.00    -0.074 A 
ATOM      3  C2  UNL d   1      -3.875   0.796   3.643  0.00  0.00    -0.005 A 
ATOM      4  C3  UNL d   1      -4.041  -0.243   2.726  0.00  0.00     0.006 A 
ATOM      5  C4  UNL d   1      -4.044  -1.569   3.160  0.00  0.00    -0.005 A 
ATOM      6  C5  UNL d   1      -3.878  -1.868   4.516  0.00  0.00    -0.074 A 
ATOM      7  C6  UNL d   1      -3.869  -3.288   4.998  0.00  0.00     0.077 C 
ATOM      8  C7  UNL d   1      -3.705  -0.819   5.430  0.00  0.00    -0.001 A 
ENDROOT
TORSDOF 0
ENDMDL
