MODEL 1
REMARK minimizedAffinity 17.7456799
REMARK minimizedRMSD -1
REMARK  0 active torsions:
REMARK  status: ('A' for Active; 'I' for Inactive)
ROOT
ATOM      1  C   UNL d   1      -3.761  -2.827   4.767  0.00  0.00     0.077 C 
ATOM      2  C1  UNL d   1      -3.606  -1.336   4.796  0.00  0.00    -0.074 A 
ATOM      3  C2  UNL d   1      -3.321  -0.666   5.990  0.00  0.00    -0.005 A 
ATOM      4  C3  UNL d   1      -3.170   0.721   6.000  0.00  0.00     0.006 A 
ATOM      5  C4  UNL d   1      -3.303   1.450   4.818  0.00  0.00    -0.005 A 
ATOM      6  C5  UNL d   1      -3.587   0.797   3.614  0.00  0.00    -0.074 A 
ATOM      7  C6  UNL d   1      -3.723   1.565   2.333  0.00  0.00     0.077 C 
ATOM      8  C7  UNL d   1      -3.730  -0.597   3.611  0.00  0.00    -0.001 A 
ENDROOT
TORSDOF 0
ENDMDL
