MODEL 1
REMARK minimizedAffinity 18.6870289
REMARK minimizedRMSD -1
REMARK  0 active torsions:
REMARK  status: ('A' for Active; 'I' for Inactive)
ROOT
ATOM      1  C   UNL d   1      -0.713   5.998  -3.334  0.00  0.00     0.077 C 
ATOM      2  C1  UNL d   1       0.407   5.856  -2.346  0.00  0.00    -0.074 A 
ATOM      3  C2  UNL d   1       1.719   5.628  -2.774  0.00  0.00    -0.005 A 
ATOM      4  C3  UNL d   1       2.751   5.507  -1.844  0.00  0.00     0.006 A 
ATOM      5  C4  UNL d   1       2.483   5.614  -0.479  0.00  0.00    -0.005 A 
ATOM      6  C5  UNL d   1       1.177   5.842  -0.032  0.00  0.00    -0.074 A 
ATOM      7  C6  UNL d   1       0.873   5.969   1.431  0.00  0.00     0.077 C 
ATOM      8  C7  UNL d   1       0.147   5.969  -0.973  0.00  0.00    -0.001 A 
ENDROOT
TORSDOF 0
ENDMDL
