MODEL 1
REMARK minimizedAffinity 13.2589827
REMARK minimizedRMSD -1
REMARK  0 active torsions:
REMARK  status: ('A' for Active; 'I' for Inactive)
ROOT
ATOM      1  C   UNL d   1       2.760   0.707  -1.421  0.00  0.00     0.077 C 
ATOM      2  C1  UNL d   1       2.279  -0.713  -1.367  0.00  0.00    -0.074 A 
ATOM      3  C2  UNL d   1       2.692  -1.573  -0.344  0.00  0.00    -0.005 A 
ATOM      4  C3  UNL d   1       2.229  -2.888  -0.302  0.00  0.00     0.006 A 
ATOM      5  C4  UNL d   1       1.350  -3.355  -1.279  0.00  0.00    -0.005 A 
ATOM      6  C5  UNL d   1       0.925  -2.510  -2.309  0.00  0.00    -0.074 A 
ATOM      7  C6  UNL d   1      -0.027  -2.993  -3.362  0.00  0.00     0.077 C 
ATOM      8  C7  UNL d   1       1.390  -1.188  -2.341  0.00  0.00    -0.001 A 
ENDROOT
TORSDOF 0
ENDMDL
