MODEL 1
REMARK minimizedAffinity 5.95835733
REMARK minimizedRMSD -1
REMARK  0 active torsions:
REMARK  status: ('A' for Active; 'I' for Inactive)
ROOT
ATOM      1  C   UNL d   1       3.381  -4.871   0.030  0.00  0.00     0.077 C 
ATOM      2  C1  UNL d   1       2.608  -3.922  -0.838  0.00  0.00    -0.074 A 
ATOM      3  C2  UNL d   1       1.798  -4.394  -1.875  0.00  0.00    -0.005 A 
ATOM      4  C3  UNL d   1       1.078  -3.501  -2.668  0.00  0.00     0.006 A 
ATOM      5  C4  UNL d   1       1.160  -2.128  -2.431  0.00  0.00    -0.005 A 
ATOM      6  C5  UNL d   1       1.964  -1.637  -1.397  0.00  0.00    -0.074 A 
ATOM      7  C6  UNL d   1       2.056  -0.166  -1.123  0.00  0.00     0.077 C 
ATOM      8  C7  UNL d   1       2.679  -2.542  -0.601  0.00  0.00    -0.001 A 
ENDROOT
TORSDOF 0
ENDMDL
