MODEL 1
REMARK minimizedAffinity 5.23075199
REMARK minimizedRMSD -1
REMARK  0 active torsions:
REMARK  status: ('A' for Active; 'I' for Inactive)
ROOT
ATOM      1  C   UNL d   1       2.760  -0.239  -1.127  0.00  0.00     0.077 C 
ATOM      2  C1  UNL d   1       2.356  -1.634  -1.500  0.00  0.00    -0.074 A 
ATOM      3  C2  UNL d   1       1.680  -1.891  -2.697  0.00  0.00    -0.005 A 
ATOM      4  C3  UNL d   1       1.319  -3.196  -3.035  0.00  0.00     0.006 A 
ATOM      5  C4  UNL d   1       1.629  -4.254  -2.180  0.00  0.00    -0.005 A 
ATOM      6  C5  UNL d   1       2.304  -4.016  -0.979  0.00  0.00    -0.074 A 
ATOM      7  C6  UNL d   1       2.654  -5.144  -0.053  0.00  0.00     0.077 C 
ATOM      8  C7  UNL d   1       2.670  -2.704  -0.650  0.00  0.00    -0.001 A 
ENDROOT
TORSDOF 0
ENDMDL
