MODEL 1
REMARK minimizedAffinity 14.8082333
REMARK minimizedRMSD -1
REMARK  0 active torsions:
REMARK  status: ('A' for Active; 'I' for Inactive)
ROOT
ATOM      1  C   UNL d   1       3.396  -3.916   0.238  0.00  0.00     0.077 C 
ATOM      2  C1  UNL d   1       2.519  -2.997  -0.559  0.00  0.00    -0.074 A 
ATOM      3  C2  UNL d   1       2.666  -1.609  -0.473  0.00  0.00    -0.005 A 
ATOM      4  C3  UNL d   1       1.850  -0.766  -1.227  0.00  0.00     0.006 A 
ATOM      5  C4  UNL d   1       0.879  -1.303  -2.074  0.00  0.00    -0.005 A 
ATOM      6  C5  UNL d   1       0.718  -2.688  -2.174  0.00  0.00    -0.074 A 
ATOM      7  C6  UNL d   1      -0.314  -3.281  -3.087  0.00  0.00     0.077 C 
ATOM      8  C7  UNL d   1       1.547  -3.528  -1.418  0.00  0.00    -0.001 A 
ENDROOT
TORSDOF 0
ENDMDL
