MODEL 1
REMARK minimizedAffinity 7.12041569
REMARK minimizedRMSD -1
REMARK  0 active torsions:
REMARK  status: ('A' for Active; 'I' for Inactive)
ROOT
ATOM      1  C   UNL d   1       2.605  -0.379  -0.790  0.00  0.00     0.077 C 
ATOM      2  C1  UNL d   1       2.186  -1.797  -1.046  0.00  0.00    -0.074 A 
ATOM      3  C2  UNL d   1       2.655  -2.841  -0.243  0.00  0.00    -0.005 A 
ATOM      4  C3  UNL d   1       2.249  -4.153  -0.487  0.00  0.00     0.006 A 
ATOM      5  C4  UNL d   1       1.373  -4.433  -1.536  0.00  0.00    -0.005 A 
ATOM      6  C5  UNL d   1       0.893  -3.402  -2.350  0.00  0.00    -0.074 A 
ATOM      7  C6  UNL d   1      -0.057  -3.685  -3.475  0.00  0.00     0.077 C 
ATOM      8  C7  UNL d   1       1.300  -2.085  -2.093  0.00  0.00    -0.001 A 
ENDROOT
TORSDOF 0
ENDMDL
