MODEL 1
REMARK minimizedAffinity 18.3655586
REMARK minimizedRMSD -1
REMARK  0 active torsions:
REMARK  status: ('A' for Active; 'I' for Inactive)
ROOT
ATOM      1  C   UNL d   1      -5.832  -1.281   2.375  0.00  0.00     0.077 C 
ATOM      2  C1  UNL d   1      -5.227   0.044   2.735  0.00  0.00    -0.074 A 
ATOM      3  C2  UNL d   1      -5.999   1.052   3.321  0.00  0.00    -0.005 A 
ATOM      4  C3  UNL d   1      -5.420   2.275   3.659  0.00  0.00     0.006 A 
ATOM      5  C4  UNL d   1      -4.065   2.502   3.414  0.00  0.00    -0.005 A 
ATOM      6  C5  UNL d   1      -3.277   1.506   2.830  0.00  0.00    -0.074 A 
ATOM      7  C6  UNL d   1      -1.817   1.730   2.569  0.00  0.00     0.077 C 
ATOM      8  C7  UNL d   1      -3.864   0.277   2.500  0.00  0.00    -0.001 A 
ENDROOT
TORSDOF 0
ENDMDL
