MODEL 1
REMARK minimizedAffinity 11.4248791
REMARK minimizedRMSD -1
REMARK  0 active torsions:
REMARK  status: ('A' for Active; 'I' for Inactive)
ROOT
ATOM      1  C   UNL d   1       3.507  -3.742   0.486  0.00  0.00     0.077 C 
ATOM      2  C1  UNL d   1       2.647  -2.980  -0.479  0.00  0.00    -0.074 A 
ATOM      3  C2  UNL d   1       2.672  -1.582  -0.514  0.00  0.00    -0.005 A 
ATOM      4  C3  UNL d   1       1.874  -0.888  -1.423  0.00  0.00     0.006 A 
ATOM      5  C4  UNL d   1       1.044  -1.583  -2.304  0.00  0.00    -0.005 A 
ATOM      6  C5  UNL d   1       1.006  -2.981  -2.283  0.00  0.00    -0.074 A 
ATOM      7  C6  UNL d   1       0.127  -3.743  -3.229  0.00  0.00     0.077 C 
ATOM      8  C7  UNL d   1       1.817  -3.672  -1.372  0.00  0.00    -0.001 A 
ENDROOT
TORSDOF 0
ENDMDL
