MODEL 1
REMARK minimizedAffinity 17.7732697
REMARK minimizedRMSD -1
REMARK  0 active torsions:
REMARK  status: ('A' for Active; 'I' for Inactive)
ROOT
ATOM      1  C   UNL d   1      -2.991   1.706   6.000  0.00  0.00     0.077 C 
ATOM      2  C1  UNL d   1      -3.420   0.703   4.971  0.00  0.00    -0.074 A 
ATOM      3  C2  UNL d   1      -3.625   1.081   3.640  0.00  0.00    -0.005 A 
ATOM      4  C3  UNL d   1      -4.015   0.134   2.692  0.00  0.00     0.006 A 
ATOM      5  C4  UNL d   1      -4.203  -1.197   3.065  0.00  0.00    -0.005 A 
ATOM      6  C5  UNL d   1      -4.002  -1.594   4.391  0.00  0.00    -0.074 A 
ATOM      7  C6  UNL d   1      -4.191  -3.023   4.806  0.00  0.00     0.077 C 
ATOM      8  C7  UNL d   1      -3.604  -0.639   5.336  0.00  0.00    -0.001 A 
ENDROOT
TORSDOF 0
ENDMDL
