MODEL 1
REMARK minimizedAffinity 14.9846544
REMARK minimizedRMSD -1
REMARK  0 active torsions:
REMARK  status: ('A' for Active; 'I' for Inactive)
ROOT
ATOM      1  C   UNL d   1      -1.781   2.004  -4.781  0.00  0.00     0.077 C 
ATOM      2  C1  UNL d   1      -2.348   3.386  -4.914  0.00  0.00    -0.074 A 
ATOM      3  C2  UNL d   1      -1.561   4.513  -4.661  0.00  0.00    -0.005 A 
ATOM      4  C3  UNL d   1      -2.100   5.793  -4.797  0.00  0.00     0.006 A 
ATOM      5  C4  UNL d   1      -3.430   5.957  -5.187  0.00  0.00    -0.005 A 
ATOM      6  C5  UNL d   1      -4.232   4.841  -5.445  0.00  0.00    -0.074 A 
ATOM      7  C6  UNL d   1      -5.660   5.000  -5.874  0.00  0.00     0.077 C 
ATOM      8  C7  UNL d   1      -3.681   3.559  -5.312  0.00  0.00    -0.001 A 
ENDROOT
TORSDOF 0
ENDMDL
