MODEL 1
REMARK minimizedAffinity 9.06372833
REMARK minimizedRMSD -1
REMARK  0 active torsions:
REMARK  status: ('A' for Active; 'I' for Inactive)
ROOT
ATOM      1  C   UNL d   1      -1.405   1.964  -4.919  0.00  0.00     0.077 C 
ATOM      2  C1  UNL d   1      -1.837   3.368  -4.615  0.00  0.00    -0.074 A 
ATOM      3  C2  UNL d   1      -1.262   4.084  -3.560  0.00  0.00    -0.005 A 
ATOM      4  C3  UNL d   1      -1.667   5.392  -3.294  0.00  0.00     0.006 A 
ATOM      5  C4  UNL d   1      -2.650   5.996  -4.080  0.00  0.00    -0.005 A 
ATOM      6  C5  UNL d   1      -3.235   5.296  -5.140  0.00  0.00    -0.074 A 
ATOM      7  C6  UNL d   1      -4.285   5.934  -6.000  0.00  0.00     0.077 C 
ATOM      8  C7  UNL d   1      -2.817   3.985  -5.404  0.00  0.00    -0.001 A 
ENDROOT
TORSDOF 0
ENDMDL
