MODEL 1
REMARK minimizedAffinity 10.3905821
REMARK minimizedRMSD -1
REMARK  0 active torsions:
REMARK  status: ('A' for Active; 'I' for Inactive)
ROOT
ATOM      1  C   UNL d   1       0.730  -2.090  -2.257  0.00  0.00     0.077 C 
ATOM      2  C1  UNL d   1       1.857  -1.702  -1.346  0.00  0.00    -0.074 A 
ATOM      3  C2  UNL d   1       2.485  -2.652  -0.533  0.00  0.00    -0.005 A 
ATOM      4  C3  UNL d   1       3.537  -2.278   0.302  0.00  0.00     0.006 A 
ATOM      5  C4  UNL d   1       3.973  -0.952   0.333  0.00  0.00    -0.005 A 
ATOM      6  C5  UNL d   1       3.358   0.011  -0.473  0.00  0.00    -0.074 A 
ATOM      7  C6  UNL d   1       3.820   1.438  -0.459  0.00  0.00     0.077 C 
ATOM      8  C7  UNL d   1       2.305  -0.374  -1.315  0.00  0.00    -0.001 A 
ENDROOT
TORSDOF 0
ENDMDL
