MODEL 1
REMARK minimizedAffinity 19.1804161
REMARK minimizedRMSD -1
REMARK  0 active torsions:
REMARK  status: ('A' for Active; 'I' for Inactive)
ROOT
ATOM      1  C   UNL d   1      -5.999  -2.242   1.356  0.00  0.00     0.077 C 
ATOM      2  C1  UNL d   1      -4.957  -1.627   2.243  0.00  0.00    -0.074 A 
ATOM      3  C2  UNL d   1      -4.757  -2.093   3.546  0.00  0.00    -0.005 A 
ATOM      4  C3  UNL d   1      -3.777  -1.517   4.355  0.00  0.00     0.006 A 
ATOM      5  C4  UNL d   1      -2.990  -0.472   3.871  0.00  0.00    -0.005 A 
ATOM      6  C5  UNL d   1      -3.176   0.007   2.570  0.00  0.00    -0.074 A 
ATOM      7  C6  UNL d   1      -2.332   1.123   2.030  0.00  0.00     0.077 C 
ATOM      8  C7  UNL d   1      -4.157  -0.582   1.760  0.00  0.00    -0.001 A 
ENDROOT
TORSDOF 0
ENDMDL
