MODEL 1
REMARK minimizedAffinity 18.3365803
REMARK minimizedRMSD -1
REMARK  0 active torsions:
REMARK  status: ('A' for Active; 'I' for Inactive)
ROOT
ATOM      1  C   UNL d   1      -2.953   0.936   2.618  0.00  0.00     0.077 C 
ATOM      2  C1  UNL d   1      -3.851  -0.254   2.787  0.00  0.00    -0.074 A 
ATOM      3  C2  UNL d   1      -4.906  -0.490   1.899  0.00  0.00    -0.005 A 
ATOM      4  C3  UNL d   1      -5.726  -1.606   2.063  0.00  0.00     0.006 A 
ATOM      5  C4  UNL d   1      -5.501  -2.496   3.115  0.00  0.00    -0.005 A 
ATOM      6  C5  UNL d   1      -4.450  -2.276   4.011  0.00  0.00    -0.074 A 
ATOM      7  C6  UNL d   1      -4.188  -3.228   5.141  0.00  0.00     0.077 C 
ATOM      8  C7  UNL d   1      -3.626  -1.156   3.836  0.00  0.00    -0.001 A 
ENDROOT
TORSDOF 0
ENDMDL
