MODEL 1
REMARK minimizedAffinity 15.0451775
REMARK minimizedRMSD -1
REMARK  0 active torsions:
REMARK  status: ('A' for Active; 'I' for Inactive)
ROOT
ATOM      1  C   UNL d   1      -4.406  -3.393   5.251  0.00  0.00     0.077 C 
ATOM      2  C1  UNL d   1      -4.699  -2.398   4.168  0.00  0.00    -0.074 A 
ATOM      3  C2  UNL d   1      -5.732  -2.618   3.251  0.00  0.00    -0.005 A 
ATOM      4  C3  UNL d   1      -5.999  -1.679   2.255  0.00  0.00     0.006 A 
ATOM      5  C4  UNL d   1      -5.239  -0.513   2.166  0.00  0.00    -0.005 A 
ATOM      6  C5  UNL d   1      -4.203  -0.275   3.075  0.00  0.00    -0.074 A 
ATOM      7  C6  UNL d   1      -3.382   0.978   3.000  0.00  0.00     0.077 C 
ATOM      8  C7  UNL d   1      -3.945  -1.220   4.077  0.00  0.00    -0.001 A 
ENDROOT
TORSDOF 0
ENDMDL
