MODEL 1
REMARK minimizedAffinity 15.6055737
REMARK minimizedRMSD -1
REMARK  0 active torsions:
REMARK  status: ('A' for Active; 'I' for Inactive)
ROOT
ATOM      1  C   UNL d   1       2.087  -0.331  -0.699  0.00  0.00     0.077 C 
ATOM      2  C1  UNL d   1       1.620   0.397   0.527  0.00  0.00    -0.074 A 
ATOM      3  C2  UNL d   1       2.511   1.152   1.297  0.00  0.00    -0.005 A 
ATOM      4  C3  UNL d   1       2.060   1.831   2.429  0.00  0.00     0.006 A 
ATOM      5  C4  UNL d   1       0.717   1.763   2.801  0.00  0.00    -0.005 A 
ATOM      6  C5  UNL d   1      -0.188   1.014   2.043  0.00  0.00    -0.074 A 
ATOM      7  C6  UNL d   1      -1.637   0.938   2.423  0.00  0.00     0.077 C 
ATOM      8  C7  UNL d   1       0.271   0.339   0.903  0.00  0.00    -0.001 A 
ENDROOT
TORSDOF 0
ENDMDL
