MODEL 1
REMARK minimizedAffinity -2.55455446
REMARK minimizedRMSD -1
REMARK  0 active torsions:
REMARK  status: ('A' for Active; 'I' for Inactive)
ROOT
ATOM      1  C   UNL d   1       0.321  -0.283   1.949  0.00  0.00    -0.002 A 
ATOM      2  C1  UNL d   1       0.297  -1.637   1.646  0.00  0.00     0.010 A 
ATOM      3  C2  UNL d   1       1.020  -2.135   0.560  0.00  0.00     0.041 A 
ATOM      4  C3  UNL d   1       1.775  -1.240  -0.224  0.00  0.00    -0.075 A 
ATOM      5  S   UNL d   1       2.738  -1.623  -1.601  0.00  0.00     0.015 SA
ATOM      6  C4  UNL d   1       3.204   0.002  -1.821  0.00  0.00     0.022 A 
ATOM      7  C5  UNL d   1       2.647   0.830  -0.875  0.00  0.00     0.026 A 
ATOM      8  C6  UNL d   1       1.814   0.128   0.061  0.00  0.00    -0.082 A 
ATOM      9  C7  UNL d   1       1.070   0.601   1.169  0.00  0.00     0.045 A 
ENDROOT
TORSDOF 0
ENDMDL
