MODEL 1
REMARK minimizedAffinity -3.56110358
REMARK minimizedRMSD -1
REMARK  0 active torsions:
REMARK  status: ('A' for Active; 'I' for Inactive)
ROOT
ATOM      1  C   UNL d   1       0.728  -1.772   0.852  0.00  0.00    -0.002 A 
ATOM      2  C1  UNL d   1       0.379  -0.431   0.922  0.00  0.00     0.010 A 
ATOM      3  C2  UNL d   1       1.180   0.543   0.322  0.00  0.00     0.041 A 
ATOM      4  C3  UNL d   1       2.347   0.142  -0.358  0.00  0.00    -0.075 A 
ATOM      5  S   UNL d   1       3.479   1.159  -1.168  0.00  0.00     0.015 SA
ATOM      6  C4  UNL d   1       4.451  -0.163  -1.627  0.00  0.00     0.022 A 
ATOM      7  C5  UNL d   1       3.940  -1.358  -1.181  0.00  0.00     0.026 A 
ATOM      8  C6  UNL d   1       2.719  -1.202  -0.443  0.00  0.00    -0.082 A 
ATOM      9  C7  UNL d   1       1.886  -2.166   0.177  0.00  0.00     0.045 A 
ENDROOT
TORSDOF 0
ENDMDL
