MODEL 1
REMARK minimizedAffinity 0.820176363
REMARK minimizedRMSD -1
REMARK  0 active torsions:
REMARK  status: ('A' for Active; 'I' for Inactive)
ROOT
ATOM      1  C   UNL d   1       0.739  -1.336   0.458  0.00  0.00    -0.002 A 
ATOM      2  C1  UNL d   1       0.694   0.041   0.622  0.00  0.00     0.010 A 
ATOM      3  C2  UNL d   1       1.652   0.859   0.020  0.00  0.00     0.041 A 
ATOM      4  C3  UNL d   1       2.664   0.265  -0.758  0.00  0.00    -0.075 A 
ATOM      5  S   UNL d   1       3.943   1.068  -1.590  0.00  0.00     0.015 SA
ATOM      6  C4  UNL d   1       4.578  -0.398  -2.184  0.00  0.00     0.022 A 
ATOM      7  C5  UNL d   1       3.845  -1.483  -1.767  0.00  0.00     0.026 A 
ATOM      8  C6  UNL d   1       2.730  -1.120  -0.939  0.00  0.00    -0.082 A 
ATOM      9  C7  UNL d   1       1.745  -1.923  -0.315  0.00  0.00     0.045 A 
ENDROOT
TORSDOF 0
ENDMDL
