MODEL 1
REMARK minimizedAffinity 2.52624536
REMARK minimizedRMSD -1
REMARK  0 active torsions:
REMARK  status: ('A' for Active; 'I' for Inactive)
ROOT
ATOM      1  C   UNL d   1       0.954  -0.719   0.889  0.00  0.00    -0.002 A 
ATOM      2  C1  UNL d   1       1.133   0.646   0.713  0.00  0.00     0.010 A 
ATOM      3  C2  UNL d   1       2.141   1.128  -0.124  0.00  0.00     0.041 A 
ATOM      4  C3  UNL d   1       2.973   0.206  -0.790  0.00  0.00    -0.075 A 
ATOM      5  S   UNL d   1       4.272   0.566  -1.865  0.00  0.00     0.015 SA
ATOM      6  C4  UNL d   1       4.618  -1.084  -2.118  0.00  0.00     0.022 A 
ATOM      7  C5  UNL d   1       3.774  -1.903  -1.406  0.00  0.00     0.026 A 
ATOM      8  C6  UNL d   1       2.811  -1.173  -0.630  0.00  0.00    -0.082 A 
ATOM      9  C7  UNL d   1       1.781  -1.630   0.226  0.00  0.00     0.045 A 
ENDROOT
TORSDOF 0
ENDMDL
