MODEL 1
REMARK minimizedAffinity 0.0248760954
REMARK minimizedRMSD -1
REMARK  0 active torsions:
REMARK  status: ('A' for Active; 'I' for Inactive)
ROOT
ATOM      1  C   UNL d   1       0.577  -0.619   0.799  0.00  0.00    -0.002 A 
ATOM      2  C1  UNL d   1       0.784   0.743   0.638  0.00  0.00     0.010 A 
ATOM      3  C2  UNL d   1       1.847   1.214  -0.135  0.00  0.00     0.041 A 
ATOM      4  C3  UNL d   1       2.707   0.283  -0.751  0.00  0.00    -0.075 A 
ATOM      5  S   UNL d   1       4.074   0.628  -1.743  0.00  0.00     0.015 SA
ATOM      6  C4  UNL d   1       4.415  -1.026  -1.977  0.00  0.00     0.022 A 
ATOM      7  C5  UNL d   1       3.518  -1.835  -1.321  0.00  0.00     0.026 A 
ATOM      8  C6  UNL d   1       2.519  -1.095  -0.604  0.00  0.00    -0.082 A 
ATOM      9  C7  UNL d   1       1.432  -1.540   0.187  0.00  0.00     0.045 A 
ENDROOT
TORSDOF 0
ENDMDL
