MODEL 1
REMARK minimizedAffinity 8.52713776
REMARK minimizedRMSD -1
REMARK  0 active torsions:
REMARK  status: ('A' for Active; 'I' for Inactive)
ROOT
ATOM      1  C   UNL d   1       1.209  -1.891  -0.768  0.00  0.00    -0.002 A 
ATOM      2  C1  UNL d   1       2.593  -1.955  -0.838  0.00  0.00     0.010 A 
ATOM      3  C2  UNL d   1       3.384  -1.110  -0.057  0.00  0.00     0.041 A 
ATOM      4  C3  UNL d   1       2.753  -0.192   0.805  0.00  0.00    -0.075 A 
ATOM      5  S   UNL d   1       3.518   0.941   1.856  0.00  0.00     0.015 SA
ATOM      6  C4  UNL d   1       2.025   1.536   2.424  0.00  0.00     0.022 A 
ATOM      7  C5  UNL d   1       0.959   0.897   1.836  0.00  0.00     0.026 A 
ATOM      8  C6  UNL d   1       1.361  -0.109   0.894  0.00  0.00    -0.082 A 
ATOM      9  C7  UNL d   1       0.587  -0.979   0.089  0.00  0.00     0.045 A 
ENDROOT
TORSDOF 0
ENDMDL
