MODEL 1
REMARK minimizedAffinity -2.52532601
REMARK minimizedRMSD -1
REMARK  0 active torsions:
REMARK  status: ('A' for Active; 'I' for Inactive)
ROOT
ATOM      1  C   UNL d   1       1.158  -1.516   0.924  0.00  0.00    -0.002 A 
ATOM      2  C1  UNL d   1       0.886  -0.156   0.983  0.00  0.00     0.010 A 
ATOM      3  C2  UNL d   1       1.524   0.733   0.116  0.00  0.00     0.041 A 
ATOM      4  C3  UNL d   1       2.447   0.228  -0.821  0.00  0.00    -0.075 A 
ATOM      5  S   UNL d   1       3.348   1.129  -1.983  0.00  0.00     0.015 SA
ATOM      6  C4  UNL d   1       4.113  -0.269  -2.585  0.00  0.00     0.022 A 
ATOM      7  C5  UNL d   1       3.704  -1.405  -1.926  0.00  0.00     0.026 A 
ATOM      8  C6  UNL d   1       2.736  -1.137  -0.900  0.00  0.00    -0.082 A 
ATOM      9  C7  UNL d   1       2.074  -2.013  -0.006  0.00  0.00     0.045 A 
ENDROOT
TORSDOF 0
ENDMDL
