MODEL 1
REMARK minimizedAffinity -2.2873621
REMARK minimizedRMSD -1
REMARK  0 active torsions:
REMARK  status: ('A' for Active; 'I' for Inactive)
ROOT
ATOM      1  C   UNL d   1       1.163  -1.659   0.587  0.00  0.00    -0.002 A 
ATOM      2  C1  UNL d   1       0.792  -0.325   0.673  0.00  0.00     0.010 A 
ATOM      3  C2  UNL d   1       1.503   0.656  -0.021  0.00  0.00     0.041 A 
ATOM      4  C3  UNL d   1       2.603   0.269  -0.812  0.00  0.00    -0.075 A 
ATOM      5  S   UNL d   1       3.621   1.297  -1.751  0.00  0.00     0.015 SA
ATOM      6  C4  UNL d   1       4.572  -0.012  -2.288  0.00  0.00     0.022 A 
ATOM      7  C5  UNL d   1       4.138  -1.210  -1.774  0.00  0.00     0.026 A 
ATOM      8  C6  UNL d   1       2.996  -1.068  -0.915  0.00  0.00    -0.082 A 
ATOM      9  C7  UNL d   1       2.255  -2.039  -0.198  0.00  0.00     0.045 A 
ENDROOT
TORSDOF 0
ENDMDL
