MODEL 1
REMARK minimizedAffinity 1.98858917
REMARK minimizedRMSD -1
REMARK  0 active torsions:
REMARK  status: ('A' for Active; 'I' for Inactive)
ROOT
ATOM      1  C   UNL d   1       0.736  -0.663   1.297  0.00  0.00    -0.002 A 
ATOM      2  C1  UNL d   1       1.501  -1.805   1.110  0.00  0.00     0.010 A 
ATOM      3  C2  UNL d   1       2.413  -1.884   0.055  0.00  0.00     0.041 A 
ATOM      4  C3  UNL d   1       2.545  -0.784  -0.815  0.00  0.00    -0.075 A 
ATOM      5  S   UNL d   1       3.598  -0.655  -2.174  0.00  0.00     0.015 SA
ATOM      6  C4  UNL d   1       3.058   0.920  -2.538  0.00  0.00     0.022 A 
ATOM      7  C5  UNL d   1       2.097   1.352  -1.654  0.00  0.00     0.026 A 
ATOM      8  C6  UNL d   1       1.786   0.377  -0.647  0.00  0.00    -0.082 A 
ATOM      9  C7  UNL d   1       0.870   0.426   0.431  0.00  0.00     0.045 A 
ENDROOT
TORSDOF 0
ENDMDL
