MODEL 1
REMARK minimizedAffinity 1.39471304
REMARK minimizedRMSD -1
REMARK  0 active torsions:
REMARK  status: ('A' for Active; 'I' for Inactive)
ROOT
ATOM      1  C   UNL d   1       1.276  -1.329   0.463  0.00  0.00    -0.002 A 
ATOM      2  C1  UNL d   1       1.040   0.037   0.527  0.00  0.00     0.010 A 
ATOM      3  C2  UNL d   1       1.918   0.939  -0.077  0.00  0.00     0.041 A 
ATOM      4  C3  UNL d   1       3.048   0.441  -0.754  0.00  0.00    -0.075 A 
ATOM      5  S   UNL d   1       4.260   1.357  -1.568  0.00  0.00     0.015 SA
ATOM      6  C4  UNL d   1       5.121  -0.043  -2.021  0.00  0.00     0.022 A 
ATOM      7  C5  UNL d   1       4.512  -1.190  -1.570  0.00  0.00     0.026 A 
ATOM      8  C6  UNL d   1       3.308  -0.931  -0.833  0.00  0.00    -0.082 A 
ATOM      9  C7  UNL d   1       2.399  -1.820  -0.210  0.00  0.00     0.045 A 
ENDROOT
TORSDOF 0
ENDMDL
