MODEL 1
REMARK minimizedAffinity 1.87237895
REMARK minimizedRMSD -1
REMARK  0 active torsions:
REMARK  status: ('A' for Active; 'I' for Inactive)
ROOT
ATOM      1  C   UNL d   1       0.406  -2.314  -2.275  0.00  0.00     0.023 A 
ATOM      2  C1  UNL d   1       0.344  -2.460  -0.889  0.00  0.00     0.003 A 
ATOM      3  C2  UNL d   1      -0.889  -2.407  -0.235  0.00  0.00     0.048 A 
ATOM      4  C3  UNL d   1      -2.055  -2.209  -0.973  0.00  0.00     0.023 A 
ATOM      5  C4  UNL d   1      -1.997  -2.064  -2.360  0.00  0.00     0.048 A 
ATOM      6  C5  UNL d   1      -0.763  -2.116  -3.009  0.00  0.00     0.003 A 
ATOM      7  I   UNL d   1      -3.891  -2.130  -0.001  0.00  0.00    -0.146 I 
ENDROOT
TORSDOF 0
ENDMDL
