MODEL 1
REMARK minimizedAffinity -0.0325562321
REMARK minimizedRMSD -1
REMARK  0 active torsions:
REMARK  status: ('A' for Active; 'I' for Inactive)
ROOT
ATOM      1  C   UNL d   1       0.826   3.057   1.461  0.00  0.00     0.023 A 
ATOM      2  C1  UNL d   1       2.046   3.716   1.617  0.00  0.00     0.003 A 
ATOM      3  C2  UNL d   1       3.183   3.248   0.954  0.00  0.00     0.048 A 
ATOM      4  C3  UNL d   1       3.093   2.122   0.137  0.00  0.00     0.023 A 
ATOM      5  C4  UNL d   1       1.874   1.460  -0.023  0.00  0.00     0.048 A 
ATOM      6  C5  UNL d   1       0.740   1.931   0.642  0.00  0.00     0.003 A 
ATOM      7  I   UNL d   1       4.783   1.423  -0.850  0.00  0.00    -0.146 I 
ENDROOT
TORSDOF 0
ENDMDL
