MODEL 1
REMARK minimizedAffinity -0.82469207
REMARK minimizedRMSD -1
REMARK  0 active torsions:
REMARK  status: ('A' for Active; 'I' for Inactive)
ROOT
ATOM      1  C   UNL d   1       2.948   2.379  -0.006  0.00  0.00     0.023 A 
ATOM      2  C1  UNL d   1       2.590   1.149  -0.558  0.00  0.00     0.003 A 
ATOM      3  C2  UNL d   1       1.364   0.566  -0.231  0.00  0.00     0.048 A 
ATOM      4  C3  UNL d   1       0.501   1.218   0.649  0.00  0.00     0.023 A 
ATOM      5  C4  UNL d   1       0.855   2.449   1.203  0.00  0.00     0.048 A 
ATOM      6  C5  UNL d   1       2.082   3.028   0.874  0.00  0.00     0.003 A 
ATOM      7  I   UNL d   1      -1.323   0.352   1.138  0.00  0.00    -0.146 I 
ENDROOT
TORSDOF 0
ENDMDL
