MODEL 1
REMARK minimizedAffinity -3.30625892
REMARK minimizedRMSD -1
REMARK  0 active torsions:
REMARK  status: ('A' for Active; 'I' for Inactive)
ROOT
ATOM      1  C   UNL d   1       2.012   3.131   1.256  0.00  0.00     0.023 A 
ATOM      2  C1  UNL d   1       3.024   2.831   0.344  0.00  0.00     0.003 A 
ATOM      3  C2  UNL d   1       2.761   1.993  -0.741  0.00  0.00     0.048 A 
ATOM      4  C3  UNL d   1       1.484   1.458  -0.909  0.00  0.00     0.023 A 
ATOM      5  C4  UNL d   1       0.469   1.755   0.001  0.00  0.00     0.048 A 
ATOM      6  C5  UNL d   1       0.736   2.594   1.085  0.00  0.00     0.003 A 
ATOM      7  I   UNL d   1       1.091   0.209  -2.523  0.00  0.00    -0.146 I 
ENDROOT
TORSDOF 0
ENDMDL
