MODEL 1
REMARK minimizedAffinity 2.4023788
REMARK minimizedRMSD -1
REMARK  0 active torsions:
REMARK  status: ('A' for Active; 'I' for Inactive)
ROOT
ATOM      1  C   UNL d   1      -1.375  -1.265   1.399  0.00  0.00     0.023 A 
ATOM      2  C1  UNL d   1      -1.472  -0.286   2.388  0.00  0.00     0.003 A 
ATOM      3  C2  UNL d   1      -0.913   0.977   2.179  0.00  0.00     0.048 A 
ATOM      4  C3  UNL d   1      -0.260   1.254   0.979  0.00  0.00     0.023 A 
ATOM      5  C4  UNL d   1      -0.161   0.278  -0.014  0.00  0.00     0.048 A 
ATOM      6  C5  UNL d   1      -0.721  -0.983   0.199  0.00  0.00     0.003 A 
ATOM      7  I   UNL d   1       0.572   3.133   0.666  0.00  0.00    -0.146 I 
ENDROOT
TORSDOF 0
ENDMDL
