MODEL 1
REMARK minimizedAffinity -3.21089888
REMARK minimizedRMSD -1
REMARK  0 active torsions:
REMARK  status: ('A' for Active; 'I' for Inactive)
ROOT
ATOM      1  C   UNL d   1      -1.154  -2.358   0.366  0.00  0.00     0.023 A 
ATOM      2  C1  UNL d   1      -0.966  -1.823   1.641  0.00  0.00     0.003 A 
ATOM      3  C2  UNL d   1      -0.363  -0.573   1.793  0.00  0.00     0.048 A 
ATOM      4  C3  UNL d   1       0.049   0.138   0.667  0.00  0.00     0.023 A 
ATOM      5  C4  UNL d   1      -0.138  -0.393  -0.611  0.00  0.00     0.048 A 
ATOM      6  C5  UNL d   1      -0.741  -1.643  -0.758  0.00  0.00     0.003 A 
ATOM      7  I   UNL d   1       0.946   1.999   0.891  0.00  0.00    -0.146 I 
ENDROOT
TORSDOF 0
ENDMDL
