MODEL 1
REMARK minimizedAffinity -3.97723603
REMARK minimizedRMSD -1
REMARK  0 active torsions:
REMARK  status: ('A' for Active; 'I' for Inactive)
ROOT
ATOM      1  C   UNL d   1       0.484  -1.815  -1.411  0.00  0.00     0.023 A 
ATOM      2  C1  UNL d   1       0.390  -0.428  -1.300  0.00  0.00     0.003 A 
ATOM      3  C2  UNL d   1      -0.187   0.146  -0.166  0.00  0.00     0.048 A 
ATOM      4  C3  UNL d   1      -0.668  -0.673   0.855  0.00  0.00     0.023 A 
ATOM      5  C4  UNL d   1      -0.576  -2.062   0.749  0.00  0.00     0.048 A 
ATOM      6  C5  UNL d   1       0.002  -2.631  -0.388  0.00  0.00     0.003 A 
ATOM      7  I   UNL d   1      -1.528   0.178   2.545  0.00  0.00    -0.146 I 
ENDROOT
TORSDOF 0
ENDMDL
