MODEL 1
REMARK minimizedAffinity -4.083395
REMARK minimizedRMSD -1
REMARK  0 active torsions:
REMARK  status: ('A' for Active; 'I' for Inactive)
ROOT
ATOM      1  C   UNL d   1       0.400  -0.376  -2.358  0.00  0.00     0.023 A 
ATOM      2  C1  UNL d   1      -0.473   0.015  -1.342  0.00  0.00     0.003 A 
ATOM      3  C2  UNL d   1      -0.063   0.947  -0.387  0.00  0.00     0.048 A 
ATOM      4  C3  UNL d   1       1.221   1.487  -0.455  0.00  0.00     0.023 A 
ATOM      5  C4  UNL d   1       2.098   1.100  -1.470  0.00  0.00     0.048 A 
ATOM      6  C5  UNL d   1       1.683   0.166  -2.422  0.00  0.00     0.003 A 
ATOM      7  I   UNL d   1       1.834   2.875   0.965  0.00  0.00    -0.146 I 
ENDROOT
TORSDOF 0
ENDMDL
