MODEL 1
REMARK minimizedAffinity 7.42666054
REMARK minimizedRMSD -1
REMARK  0 active torsions:
REMARK  status: ('A' for Active; 'I' for Inactive)
ROOT
ATOM      1  C   UNL d   1      -1.497  -2.202   1.281  0.00  0.00     0.023 A 
ATOM      2  C1  UNL d   1      -1.160  -1.617   0.060  0.00  0.00     0.003 A 
ATOM      3  C2  UNL d   1      -0.839  -0.259  -0.000  0.00  0.00     0.048 A 
ATOM      4  C3  UNL d   1      -0.857   0.508   1.164  0.00  0.00     0.023 A 
ATOM      5  C4  UNL d   1      -1.193  -0.073   2.388  0.00  0.00     0.048 A 
ATOM      6  C5  UNL d   1      -1.514  -1.431   2.444  0.00  0.00     0.003 A 
ATOM      7  I   UNL d   1      -0.379   2.529   1.077  0.00  0.00    -0.146 I 
ENDROOT
TORSDOF 0
ENDMDL
