MODEL 1
REMARK minimizedAffinity 5.64441061
REMARK minimizedRMSD -1
REMARK  0 active torsions:
REMARK  status: ('A' for Active; 'I' for Inactive)
ROOT
ATOM      1  C   UNL d   1       2.617   3.516   0.417  0.00  0.00     0.023 A 
ATOM      2  C1  UNL d   1       2.679   2.310  -0.282  0.00  0.00     0.003 A 
ATOM      3  C2  UNL d   1       1.669   1.359  -0.124  0.00  0.00     0.048 A 
ATOM      4  C3  UNL d   1       0.600   1.620   0.732  0.00  0.00     0.023 A 
ATOM      5  C4  UNL d   1       0.534   2.825   1.432  0.00  0.00     0.048 A 
ATOM      6  C5  UNL d   1       1.546   3.773   1.273  0.00  0.00     0.003 A 
ATOM      7  I   UNL d   1      -0.904   0.205   0.967  0.00  0.00    -0.146 I 
ENDROOT
TORSDOF 0
ENDMDL
