MODEL 1
REMARK minimizedAffinity -3.71333098
REMARK minimizedRMSD -1
REMARK  0 active torsions:
REMARK  status: ('A' for Active; 'I' for Inactive)
ROOT
ATOM      1  C   UNL d   1       1.734   3.305   0.988  0.00  0.00     0.023 A 
ATOM      2  C1  UNL d   1       2.819   2.851   0.237  0.00  0.00     0.003 A 
ATOM      3  C2  UNL d   1       2.637   1.852  -0.721  0.00  0.00     0.048 A 
ATOM      4  C3  UNL d   1       1.368   1.311  -0.923  0.00  0.00     0.023 A 
ATOM      5  C4  UNL d   1       0.279   1.763  -0.175  0.00  0.00     0.048 A 
ATOM      6  C5  UNL d   1       0.466   2.761   0.783  0.00  0.00     0.003 A 
ATOM      7  I   UNL d   1       1.094  -0.176  -2.349  0.00  0.00    -0.146 I 
ENDROOT
TORSDOF 0
ENDMDL
