MODEL 1
REMARK minimizedAffinity -4.34679508
REMARK minimizedRMSD -1
REMARK  0 active torsions:
REMARK  status: ('A' for Active; 'I' for Inactive)
ROOT
ATOM      1  C   UNL d   1      -0.904  -2.040   1.512  0.00  0.00     0.023 A 
ATOM      2  C1  UNL d   1      -0.263  -2.858   0.583  0.00  0.00     0.003 A 
ATOM      3  C2  UNL d   1       0.473  -2.291  -0.460  0.00  0.00     0.048 A 
ATOM      4  C3  UNL d   1       0.563  -0.903  -0.567  0.00  0.00     0.023 A 
ATOM      5  C4  UNL d   1      -0.077  -0.080   0.361  0.00  0.00     0.048 A 
ATOM      6  C5  UNL d   1      -0.811  -0.652   1.402  0.00  0.00     0.003 A 
ATOM      7  I   UNL d   1       1.657  -0.056  -2.117  0.00  0.00    -0.146 I 
ENDROOT
TORSDOF 0
ENDMDL
