MODEL 1
REMARK minimizedAffinity -4.06967831
REMARK minimizedRMSD -1
REMARK  0 active torsions:
REMARK  status: ('A' for Active; 'I' for Inactive)
ROOT
ATOM      1  C   UNL d   1       0.414  -1.566  -0.802  0.00  0.00     0.023 A 
ATOM      2  C1  UNL d   1      -0.070  -1.245   0.467  0.00  0.00     0.003 A 
ATOM      3  C2  UNL d   1      -0.077   0.084   0.896  0.00  0.00     0.048 A 
ATOM      4  C3  UNL d   1       0.400   1.086   0.052  0.00  0.00     0.023 A 
ATOM      5  C4  UNL d   1       0.884   0.769  -1.219  0.00  0.00     0.048 A 
ATOM      6  C5  UNL d   1       0.890  -0.561  -1.643  0.00  0.00     0.003 A 
ATOM      7  I   UNL d   1       0.389   3.065   0.688  0.00  0.00    -0.146 I 
ENDROOT
TORSDOF 0
ENDMDL
