MODEL 1
REMARK minimizedAffinity -4.05861282
REMARK minimizedRMSD -1
REMARK  0 active torsions:
REMARK  status: ('A' for Active; 'I' for Inactive)
ROOT
ATOM      1  C   UNL d   1       1.058   1.885  -0.845  0.00  0.00     0.023 A 
ATOM      2  C1  UNL d   1       1.278   0.782  -1.670  0.00  0.00     0.003 A 
ATOM      3  C2  UNL d   1       0.907  -0.495  -1.244  0.00  0.00     0.048 A 
ATOM      4  C3  UNL d   1       0.314  -0.662   0.007  0.00  0.00     0.023 A 
ATOM      5  C4  UNL d   1       0.091   0.439   0.836  0.00  0.00     0.048 A 
ATOM      6  C5  UNL d   1       0.465   1.714   0.407  0.00  0.00     0.003 A 
ATOM      7  I   UNL d   1      -0.240  -2.561   0.643  0.00  0.00    -0.146 I 
ENDROOT
TORSDOF 0
ENDMDL
