MODEL 1
REMARK minimizedAffinity 18.917078
REMARK minimizedRMSD -1
REMARK  0 active torsions:
REMARK  status: ('A' for Active; 'I' for Inactive)
ROOT
ATOM      1  C1  DEN d   1      -2.032   2.688  -2.904  0.00  0.00     0.130 A 
ATOM      2  C2  DEN d   1      -1.212   3.448  -3.844  0.00  0.00    -0.031 A 
ATOM      3  C3  DEN d   1       0.073   3.756  -3.183  0.00  0.00     0.027 A 
ATOM      4  C4  DEN d   1       0.868   3.129  -0.811  0.00  0.00     0.027 A 
ATOM      5  C5  DEN d   1       0.515   2.498   0.361  0.00  0.00    -0.003 A 
ATOM      6  C6  DEN d   1      -0.714   1.919   0.538  0.00  0.00     0.001 A 
ATOM      7  C7  DEN d   1      -1.619   1.922  -0.491  0.00  0.00     0.017 A 
ATOM      8  C8  DEN d   1      -1.273   2.563  -1.673  0.00  0.00    -0.094 A 
ATOM      9  C9  DEN d   1      -0.021   3.131  -1.836  0.00  0.00    -0.072 A 
ENDROOT
TORSDOF 0
ENDMDL
