MODEL 1
REMARK minimizedAffinity 21.4102669
REMARK minimizedRMSD -1
REMARK  0 active torsions:
REMARK  status: ('A' for Active; 'I' for Inactive)
ROOT
ATOM      1  C1  DEN d   1      -2.313   4.256  -1.252  0.00  0.00     0.130 A 
ATOM      2  C2  DEN d   1      -2.581   4.110  -2.680  0.00  0.00    -0.031 A 
ATOM      3  C3  DEN d   1      -3.933   4.641  -2.947  0.00  0.00     0.027 A 
ATOM      4  C4  DEN d   1      -5.626   5.673  -1.298  0.00  0.00     0.027 A 
ATOM      5  C5  DEN d   1      -5.853   5.999   0.021  0.00  0.00    -0.003 A 
ATOM      6  C6  DEN d   1      -4.937   5.738   1.005  0.00  0.00     0.001 A 
ATOM      7  C7  DEN d   1      -3.732   5.174   0.679  0.00  0.00     0.017 A 
ATOM      8  C8  DEN d   1      -3.499   4.836  -0.648  0.00  0.00    -0.094 A 
ATOM      9  C9  DEN d   1      -4.433   5.119  -1.630  0.00  0.00    -0.072 A 
ENDROOT
TORSDOF 0
ENDMDL
