MODEL 1
REMARK minimizedAffinity 13.9690266
REMARK minimizedRMSD -1
REMARK  0 active torsions:
REMARK  status: ('A' for Active; 'I' for Inactive)
ROOT
ATOM      1  C1  DEN d   1      -1.235   2.122   0.050  0.00  0.00     0.130 A 
ATOM      2  C2  DEN d   1       0.001   2.881   0.224  0.00  0.00    -0.031 A 
ATOM      3  C3  DEN d   1       0.441   3.348  -1.106  0.00  0.00     0.027 A 
ATOM      4  C4  DEN d   1      -0.668   2.977  -3.405  0.00  0.00     0.027 A 
ATOM      5  C5  DEN d   1      -1.727   2.386  -4.058  0.00  0.00    -0.003 A 
ATOM      6  C6  DEN d   1      -2.670   1.643  -3.397  0.00  0.00     0.001 A 
ATOM      7  C7  DEN d   1      -2.597   1.509  -2.036  0.00  0.00     0.017 A 
ATOM      8  C8  DEN d   1      -1.528   2.096  -1.371  0.00  0.00    -0.094 A 
ATOM      9  C9  DEN d   1      -0.592   2.854  -2.055  0.00  0.00    -0.072 A 
ENDROOT
TORSDOF 0
ENDMDL
