MODEL 1
REMARK minimizedAffinity 17.0089951
REMARK minimizedRMSD -1
REMARK  0 active torsions:
REMARK  status: ('A' for Active; 'I' for Inactive)
ROOT
ATOM      1  C1  DEN d   1       0.405   2.601   0.157  0.00  0.00     0.130 A 
ATOM      2  C2  DEN d   1      -0.835   1.897   0.471  0.00  0.00    -0.031 A 
ATOM      3  C3  DEN d   1      -1.762   2.076  -0.664  0.00  0.00     0.027 A 
ATOM      4  C4  DEN d   1      -1.398   3.364  -2.868  0.00  0.00     0.027 A 
ATOM      5  C5  DEN d   1      -0.509   4.135  -3.585  0.00  0.00    -0.003 A 
ATOM      6  C6  DEN d   1       0.724   4.473  -3.094  0.00  0.00     0.001 A 
ATOM      7  C7  DEN d   1       1.120   4.003  -1.869  0.00  0.00     0.017 A 
ATOM      8  C8  DEN d   1       0.226   3.231  -1.138  0.00  0.00    -0.094 A 
ATOM      9  C9  DEN d   1      -1.011   2.890  -1.657  0.00  0.00    -0.072 A 
ENDROOT
TORSDOF 0
ENDMDL
