MODEL 1
REMARK minimizedAffinity 23.6762905
REMARK minimizedRMSD -1
REMARK  0 active torsions:
REMARK  status: ('A' for Active; 'I' for Inactive)
ROOT
ATOM      1  C1  DEN d   1       2.267  -3.672  -2.271  0.00  0.00     0.130 A 
ATOM      2  C2  DEN d   1       1.934  -4.802  -1.408  0.00  0.00    -0.031 A 
ATOM      3  C3  DEN d   1       1.483  -5.915  -2.267  0.00  0.00     0.027 A 
ATOM      4  C4  DEN d   1       1.273  -6.000  -4.837  0.00  0.00     0.027 A 
ATOM      5  C5  DEN d   1       1.430  -5.279  -6.000  0.00  0.00    -0.003 A 
ATOM      6  C6  DEN d   1       1.840  -3.972  -6.000  0.00  0.00     0.001 A 
ATOM      7  C7  DEN d   1       2.152  -3.359  -4.815  0.00  0.00     0.017 A 
ATOM      8  C8  DEN d   1       1.990  -4.077  -3.637  0.00  0.00    -0.094 A 
ATOM      9  C9  DEN d   1       1.585  -5.401  -3.659  0.00  0.00    -0.072 A 
ENDROOT
TORSDOF 0
ENDMDL
