MODEL 1
REMARK minimizedAffinity 25.2502918
REMARK minimizedRMSD -1
REMARK  0 active torsions:
REMARK  status: ('A' for Active; 'I' for Inactive)
ROOT
ATOM      1  C1  DEN d   1       1.137  -4.909  -1.168  0.00  0.00     0.130 A 
ATOM      2  C2  DEN d   1       1.568  -4.469  -2.492  0.00  0.00    -0.031 A 
ATOM      3  C3  DEN d   1       2.135  -3.111  -2.360  0.00  0.00     0.027 A 
ATOM      4  C4  DEN d   1       2.388  -1.658  -0.245  0.00  0.00     0.027 A 
ATOM      5  C5  DEN d   1       2.155  -1.599   1.112  0.00  0.00    -0.003 A 
ATOM      6  C6  DEN d   1       1.540  -2.617   1.792  0.00  0.00     0.001 A 
ATOM      7  C7  DEN d   1       1.178  -3.757   1.124  0.00  0.00     0.017 A 
ATOM      8  C8  DEN d   1       1.403  -3.821  -0.244  0.00  0.00    -0.094 A 
ATOM      9  C9  DEN d   1       2.037  -2.786  -0.912  0.00  0.00    -0.072 A 
ENDROOT
TORSDOF 0
ENDMDL
