MODEL 1
REMARK minimizedAffinity 17.3345661
REMARK minimizedRMSD -1
REMARK  0 active torsions:
REMARK  status: ('A' for Active; 'I' for Inactive)
ROOT
ATOM      1  C1  DEN d   1       0.730   3.545  -2.152  0.00  0.00     0.130 A 
ATOM      2  C2  DEN d   1      -0.428   3.551  -3.041  0.00  0.00    -0.031 A 
ATOM      3  C3  DEN d   1      -1.546   2.889  -2.340  0.00  0.00     0.027 A 
ATOM      4  C4  DEN d   1      -1.597   1.864   0.027  0.00  0.00     0.027 A 
ATOM      5  C5  DEN d   1      -0.851   1.609   1.156  0.00  0.00    -0.003 A 
ATOM      6  C6  DEN d   1       0.473   1.948   1.248  0.00  0.00     0.001 A 
ATOM      7  C7  DEN d   1       1.080   2.602   0.209  0.00  0.00     0.017 A 
ATOM      8  C8  DEN d   1       0.336   2.856  -0.936  0.00  0.00    -0.094 A 
ATOM      9  C9  DEN d   1      -1.004   2.517  -1.005  0.00  0.00    -0.072 A 
ENDROOT
TORSDOF 0
ENDMDL
