MODEL 1
REMARK minimizedAffinity 8.18395424
REMARK minimizedRMSD -1
REMARK  0 active torsions:
REMARK  status: ('A' for Active; 'I' for Inactive)
ROOT
ATOM      1  C1  DEN d   1       3.477  -4.238  -2.706  0.00  0.00     0.130 A 
ATOM      2  C2  DEN d   1       2.213  -4.424  -1.997  0.00  0.00    -0.031 A 
ATOM      3  C3  DEN d   1       1.148  -3.770  -2.783  0.00  0.00     0.027 A 
ATOM      4  C4  DEN d   1       1.330  -2.499  -5.020  0.00  0.00     0.027 A 
ATOM      5  C5  DEN d   1       2.198  -2.069  -6.000  0.00  0.00    -0.003 A 
ATOM      6  C6  DEN d   1       3.546  -2.302  -5.934  0.00  0.00     0.001 A 
ATOM      7  C7  DEN d   1       4.061  -3.021  -4.888  0.00  0.00     0.017 A 
ATOM      8  C8  DEN d   1       3.193  -3.451  -3.893  0.00  0.00    -0.094 A 
ATOM      9  C9  DEN d   1       1.831  -3.217  -3.983  0.00  0.00    -0.072 A 
ENDROOT
TORSDOF 0
ENDMDL
