MODEL 1
REMARK minimizedAffinity 21.7325401
REMARK minimizedRMSD -1
REMARK  0 active torsions:
REMARK  status: ('A' for Active; 'I' for Inactive)
ROOT
ATOM      1  C1  DEN d   1      -3.643   5.630   1.917  0.00  0.00     0.130 A 
ATOM      2  C2  DEN d   1      -4.850   5.853   2.710  0.00  0.00    -0.031 A 
ATOM      3  C3  DEN d   1      -5.987   5.999   1.778  0.00  0.00     0.027 A 
ATOM      4  C4  DEN d   1      -5.997   5.897  -0.799  0.00  0.00     0.027 A 
ATOM      5  C5  DEN d   1      -5.211   5.739  -1.919  0.00  0.00    -0.003 A 
ATOM      6  C6  DEN d   1      -3.854   5.570  -1.841  0.00  0.00     0.001 A 
ATOM      7  C7  DEN d   1      -3.247   5.509  -0.615  0.00  0.00     0.017 A 
ATOM      8  C8  DEN d   1      -4.031   5.674   0.519  0.00  0.00    -0.094 A 
ATOM      9  C9  DEN d   1      -5.403   5.832   0.420  0.00  0.00    -0.072 A 
ENDROOT
TORSDOF 0
ENDMDL
