MODEL 1
REMARK minimizedAffinity 15.7507172
REMARK minimizedRMSD -1
REMARK  0 active torsions:
REMARK  status: ('A' for Active; 'I' for Inactive)
ROOT
ATOM      1  C1  DEN d   1       2.537  -4.003  -2.293  0.00  0.00     0.130 A 
ATOM      2  C2  DEN d   1       1.828  -5.279  -2.222  0.00  0.00    -0.031 A 
ATOM      3  C3  DEN d   1       1.047  -5.437  -3.465  0.00  0.00     0.027 A 
ATOM      4  C4  DEN d   1       0.870  -3.842  -5.484  0.00  0.00     0.027 A 
ATOM      5  C5  DEN d   1       1.281  -2.632  -5.998  0.00  0.00    -0.003 A 
ATOM      6  C6  DEN d   1       2.105  -1.786  -5.305  0.00  0.00     0.001 A 
ATOM      7  C7  DEN d   1       2.582  -2.159  -4.076  0.00  0.00     0.017 A 
ATOM      8  C8  DEN d   1       2.166  -3.374  -3.548  0.00  0.00    -0.094 A 
ATOM      9  C9  DEN d   1       1.342  -4.221  -4.270  0.00  0.00    -0.072 A 
ENDROOT
TORSDOF 0
ENDMDL
