MODEL 1
REMARK minimizedAffinity 19.0478325
REMARK minimizedRMSD -1
REMARK  0 active torsions:
REMARK  status: ('A' for Active; 'I' for Inactive)
ROOT
ATOM      1  C1  DEN d   1      -2.067   3.303  -0.327  0.00  0.00     0.130 A 
ATOM      2  C2  DEN d   1      -2.252   1.916   0.088  0.00  0.00    -0.031 A 
ATOM      3  C3  DEN d   1      -3.373   1.872   1.047  0.00  0.00     0.027 A 
ATOM      4  C4  DEN d   1      -4.837   3.807   1.922  0.00  0.00     0.027 A 
ATOM      5  C5  DEN d   1      -5.051   5.167   1.865  0.00  0.00    -0.003 A 
ATOM      6  C6  DEN d   1      -4.270   5.998   1.107  0.00  0.00     0.001 A 
ATOM      7  C7  DEN d   1      -3.266   5.472   0.338  0.00  0.00     0.017 A 
ATOM      8  C8  DEN d   1      -3.039   4.103   0.395  0.00  0.00    -0.094 A 
ATOM      9  C9  DEN d   1      -3.847   3.278   1.159  0.00  0.00    -0.072 A 
ENDROOT
TORSDOF 0
ENDMDL
