MODEL 1
REMARK minimizedAffinity 9.54571342
REMARK minimizedRMSD -1
REMARK  0 active torsions:
REMARK  status: ('A' for Active; 'I' for Inactive)
ROOT
ATOM      1  C1  DEN d   1      -1.385   2.562  -2.663  0.00  0.00     0.130 A 
ATOM      2  C2  DEN d   1      -1.950   3.488  -3.640  0.00  0.00    -0.031 A 
ATOM      3  C3  DEN d   1      -1.628   4.862  -3.206  0.00  0.00     0.027 A 
ATOM      4  C4  DEN d   1      -0.314   5.642  -1.129  0.00  0.00     0.027 A 
ATOM      5  C5  DEN d   1       0.352   5.222   0.001  0.00  0.00    -0.003 A 
ATOM      6  C6  DEN d   1       0.456   3.898   0.338  0.00  0.00     0.001 A 
ATOM      7  C7  DEN d   1      -0.077   2.944  -0.489  0.00  0.00     0.017 A 
ATOM      8  C8  DEN d   1      -0.756   3.360  -1.626  0.00  0.00    -0.094 A 
ATOM      9  C9  DEN d   1      -0.839   4.703  -1.955  0.00  0.00    -0.072 A 
ENDROOT
TORSDOF 0
ENDMDL
