MODEL 1
REMARK minimizedAffinity 8.14107323
REMARK minimizedRMSD -1
REMARK  0 active torsions:
REMARK  status: ('A' for Active; 'I' for Inactive)
ROOT
ATOM      1  C1  DEN d   1       0.437   3.016   0.954  0.00  0.00     0.130 A 
ATOM      2  C2  DEN d   1      -0.268   1.740   1.044  0.00  0.00    -0.031 A 
ATOM      3  C3  DEN d   1      -1.100   1.591  -0.167  0.00  0.00     0.027 A 
ATOM      4  C4  DEN d   1      -1.359   3.202  -2.165  0.00  0.00     0.027 A 
ATOM      5  C5  DEN d   1      -0.970   4.415  -2.686  0.00  0.00    -0.003 A 
ATOM      6  C6  DEN d   1      -0.118   5.256  -2.021  0.00  0.00     0.001 A 
ATOM      7  C7  DEN d   1       0.409   4.874  -0.815  0.00  0.00     0.017 A 
ATOM      8  C8  DEN d   1       0.015   3.655  -0.280  0.00  0.00    -0.094 A 
ATOM      9  C9  DEN d   1      -0.838   2.813  -0.974  0.00  0.00    -0.072 A 
ENDROOT
TORSDOF 0
ENDMDL
