MODEL 1
REMARK minimizedAffinity 11.8778
REMARK minimizedRMSD -1
REMARK  0 active torsions:
REMARK  status: ('A' for Active; 'I' for Inactive)
ROOT
ATOM      1  C1  DEN d   1      -4.860   0.303   1.065  0.00  0.00     0.130 A 
ATOM      2  C2  DEN d   1      -4.575  -0.170  -0.287  0.00  0.00    -0.031 A 
ATOM      3  C3  DEN d   1      -3.109  -0.195  -0.462  0.00  0.00     0.027 A 
ATOM      4  C4  DEN d   1      -1.262   0.444   1.221  0.00  0.00     0.027 A 
ATOM      5  C5  DEN d   1      -1.015   0.913   2.493  0.00  0.00    -0.003 A 
ATOM      6  C6  DEN d   1      -2.025   1.241   3.358  0.00  0.00     0.001 A 
ATOM      7  C7  DEN d   1      -3.329   1.062   2.980  0.00  0.00     0.017 A 
ATOM      8  C8  DEN d   1      -3.586   0.597   1.697  0.00  0.00    -0.094 A 
ATOM      9  C9  DEN d   1      -2.551   0.259   0.841  0.00  0.00    -0.072 A 
ENDROOT
TORSDOF 0
ENDMDL
