MODEL 1
REMARK minimizedAffinity 21.2294025
REMARK minimizedRMSD -1
REMARK  2 active torsions:
REMARK  status: ('A' for Active; 'I' for Inactive)
REMARK    1  A    between atoms: C2'_3  and  C1'_4 
REMARK    2  A    between atoms: C1'_4  and  C1_5 
ROOT
ATOM      1  C1  I4B d   1       4.467  -2.779   1.176  0.00  0.00    -0.075 A 
ATOM      2  C2  I4B d   1       4.348  -1.738   2.063  0.00  0.00     0.003 A 
ATOM      3  C3  I4B d   1       3.162  -0.966   2.101  0.00  0.00     0.002 A 
ATOM      4  C4  I4B d   1       2.147  -1.235   1.206  0.00  0.00    -0.004 A 
ATOM      5  C5  I4B d   1       2.259  -2.305   0.324  0.00  0.00     0.002 A 
ATOM      6  C6  I4B d   1       3.421  -3.090   0.316  0.00  0.00     0.003 A 
ENDROOT
BRANCH   1   7
ATOM      7  C1' I4B d   1       5.746  -3.553   1.140  0.00  0.00     0.060 C 
BRANCH   7   8
ATOM      8  C2' I4B d   1       5.408  -5.000   0.840  0.00  0.00    -0.013 C 
ATOM      9  C4' I4B d   1       5.994  -5.435  -0.477  0.00  0.00     0.013 C 
ATOM     10  C3' I4B d   1       5.928  -5.840   1.968  0.00  0.00     0.013 C 
ENDBRANCH   7   8
ENDBRANCH   1   7
TORSDOF 2
ENDMDL
