MODEL 1
REMARK minimizedAffinity 20.54175
REMARK minimizedRMSD -1
REMARK  2 active torsions:
REMARK  status: ('A' for Active; 'I' for Inactive)
REMARK    1  A    between atoms: C2'_3  and  C1'_4 
REMARK    2  A    between atoms: C1'_4  and  C1_5 
ROOT
ATOM      1  C1  I4B d   1       4.491  -5.248  -1.452  0.00  0.00    -0.075 A 
ATOM      2  C2  I4B d   1       3.128  -5.119  -1.354  0.00  0.00     0.003 A 
ATOM      3  C3  I4B d   1       2.399  -4.463  -2.376  0.00  0.00     0.002 A 
ATOM      4  C4  I4B d   1       3.074  -3.911  -3.445  0.00  0.00    -0.004 A 
ATOM      5  C5  I4B d   1       4.454  -4.063  -3.554  0.00  0.00     0.002 A 
ATOM      6  C6  I4B d   1       5.166  -4.746  -2.557  0.00  0.00     0.003 A 
ENDROOT
BRANCH   1   7
ATOM      7  C1' I4B d   1       5.234  -5.916  -0.338  0.00  0.00     0.060 C 
BRANCH   7   8
ATOM      8  C2' I4B d   1       4.993  -5.120   0.928  0.00  0.00    -0.013 C 
ATOM      9  C4' I4B d   1       5.098  -5.994   2.150  0.00  0.00     0.013 C 
ATOM     10  C3' I4B d   1       5.996  -4.006   0.972  0.00  0.00     0.013 C 
ENDBRANCH   7   8
ENDBRANCH   1   7
TORSDOF 2
ENDMDL
