MODEL 1
REMARK minimizedAffinity 16.8121834
REMARK minimizedRMSD -1
REMARK  2 active torsions:
REMARK  status: ('A' for Active; 'I' for Inactive)
REMARK    1  A    between atoms: C2'_3  and  C1'_4 
REMARK    2  A    between atoms: C1'_4  and  C1_5 
ROOT
ATOM      1  C1  I4B d   1       2.307  -3.095  -0.040  0.00  0.00    -0.075 A 
ATOM      2  C2  I4B d   1       2.054  -1.776   0.242  0.00  0.00     0.003 A 
ATOM      3  C3  I4B d   1       3.003  -1.006   0.959  0.00  0.00     0.002 A 
ATOM      4  C4  I4B d   1       4.159  -1.605   1.415  0.00  0.00    -0.004 A 
ATOM      5  C5  I4B d   1       4.424  -2.936   1.108  0.00  0.00     0.002 A 
ATOM      6  C6  I4B d   1       3.498  -3.683   0.366  0.00  0.00     0.003 A 
ENDROOT
BRANCH   1   7
ATOM      7  C1' I4B d   1       1.269  -3.888  -0.770  0.00  0.00     0.060 C 
BRANCH   7   8
ATOM      8  C2' I4B d   1       1.924  -4.500  -1.991  0.00  0.00    -0.013 C 
ATOM      9  C4' I4B d   1       2.029  -5.997  -1.860  0.00  0.00     0.013 C 
ATOM     10  C3' I4B d   1       1.112  -4.118  -3.192  0.00  0.00     0.013 C 
ENDBRANCH   7   8
ENDBRANCH   1   7
TORSDOF 2
ENDMDL
