MODEL 1
REMARK minimizedAffinity 5.52918577
REMARK minimizedRMSD -1
REMARK  2 active torsions:
REMARK  status: ('A' for Active; 'I' for Inactive)
REMARK    1  A    between atoms: C2'_3  and  C1'_4 
REMARK    2  A    between atoms: C1'_4  and  C1_5 
ROOT
ATOM      1  C1  I4B d   1      -3.506   3.177  -4.330  0.00  0.00    -0.075 A 
ATOM      2  C2  I4B d   1      -4.227   4.297  -4.664  0.00  0.00     0.003 A 
ATOM      3  C3  I4B d   1      -3.576   5.546  -4.807  0.00  0.00     0.002 A 
ATOM      4  C4  I4B d   1      -2.221   5.640  -4.559  0.00  0.00    -0.004 A 
ATOM      5  C5  I4B d   1      -1.489   4.499  -4.243  0.00  0.00     0.002 A 
ATOM      6  C6  I4B d   1      -2.133   3.257  -4.140  0.00  0.00     0.003 A 
ENDROOT
BRANCH   1   7
ATOM      7  C1' I4B d   1      -4.231   1.880  -4.155  0.00  0.00     0.060 C 
BRANCH   7   8
ATOM      8  C2' I4B d   1      -5.583   2.006  -4.827  0.00  0.00    -0.013 C 
ATOM      9  C4' I4B d   1      -5.535   2.986  -5.969  0.00  0.00     0.013 C 
ATOM     10  C3' I4B d   1      -5.994   0.644  -5.300  0.00  0.00     0.013 C 
ENDBRANCH   7   8
ENDBRANCH   1   7
TORSDOF 2
ENDMDL
