MODEL 1
REMARK minimizedAffinity 21.6917439
REMARK minimizedRMSD -1
REMARK  2 active torsions:
REMARK  status: ('A' for Active; 'I' for Inactive)
REMARK    1  A    between atoms: C2'_3  and  C1'_4 
REMARK    2  A    between atoms: C1'_4  and  C1_5 
ROOT
ATOM      1  C1  I4B d   1       1.414  -0.262   2.159  0.00  0.00    -0.075 A 
ATOM      2  C2  I4B d   1       0.807   0.463   1.164  0.00  0.00     0.003 A 
ATOM      3  C3  I4B d   1       0.324   1.768   1.427  0.00  0.00     0.002 A 
ATOM      4  C4  I4B d   1       0.422   2.285   2.702  0.00  0.00    -0.004 A 
ATOM      5  C5  I4B d   1       1.058   1.558   3.704  0.00  0.00     0.002 A 
ATOM      6  C6  I4B d   1       1.568   0.281   3.428  0.00  0.00     0.003 A 
ENDROOT
BRANCH   1   7
ATOM      7  C1' I4B d   1       1.883  -1.650   1.856  0.00  0.00     0.060 C 
BRANCH   7   8
ATOM      8  C2' I4B d   1       2.797  -1.580   0.650  0.00  0.00    -0.013 C 
ATOM      9  C4' I4B d   1       4.225  -1.869   1.030  0.00  0.00     0.013 C 
ATOM     10  C3' I4B d   1       2.298  -2.564  -0.366  0.00  0.00     0.013 C 
ENDBRANCH   7   8
ENDBRANCH   1   7
TORSDOF 2
ENDMDL
