MODEL 1
REMARK minimizedAffinity 15.0198851
REMARK minimizedRMSD -1
REMARK  2 active torsions:
REMARK  status: ('A' for Active; 'I' for Inactive)
REMARK    1  A    between atoms: C2'_3  and  C1'_4 
REMARK    2  A    between atoms: C1'_4  and  C1_5 
ROOT
ATOM      1  C1  I4B d   1       3.230  -3.243   0.668  0.00  0.00    -0.075 A 
ATOM      2  C2  I4B d   1       4.165  -4.237   0.818  0.00  0.00     0.003 A 
ATOM      3  C3  I4B d   1       5.504  -3.913   1.146  0.00  0.00     0.002 A 
ATOM      4  C4  I4B d   1       5.873  -2.589   1.265  0.00  0.00    -0.004 A 
ATOM      5  C5  I4B d   1       4.919  -1.584   1.136  0.00  0.00     0.002 A 
ATOM      6  C6  I4B d   1       3.587  -1.912   0.847  0.00  0.00     0.003 A 
ENDROOT
BRANCH   1   7
ATOM      7  C1' I4B d   1       1.833  -3.618   0.289  0.00  0.00     0.060 C 
BRANCH   7   8
ATOM      8  C2' I4B d   1       1.765  -3.696  -1.223  0.00  0.00    -0.013 C 
ATOM      9  C4' I4B d   1       1.945  -5.111  -1.705  0.00  0.00     0.013 C 
ATOM     10  C3' I4B d   1       0.440  -3.141  -1.656  0.00  0.00     0.013 C 
ENDBRANCH   7   8
ENDBRANCH   1   7
TORSDOF 2
ENDMDL
