MODEL 1
REMARK minimizedAffinity 16.4785881
REMARK minimizedRMSD -1
REMARK  2 active torsions:
REMARK  status: ('A' for Active; 'I' for Inactive)
REMARK    1  A    between atoms: C2'_3  and  C1'_4 
REMARK    2  A    between atoms: C1'_4  and  C1_5 
ROOT
ATOM      1  C1  I4B d   1      -5.289  -3.451   3.060  0.00  0.00    -0.075 A 
ATOM      2  C2  I4B d   1      -5.706  -4.587   2.412  0.00  0.00     0.003 A 
ATOM      3  C3  I4B d   1      -5.925  -5.783   3.139  0.00  0.00     0.002 A 
ATOM      4  C4  I4B d   1      -5.668  -5.811   4.494  0.00  0.00    -0.004 A 
ATOM      5  C5  I4B d   1      -5.268  -4.652   5.153  0.00  0.00     0.002 A 
ATOM      6  C6  I4B d   1      -5.089  -3.461   4.434  0.00  0.00     0.003 A 
ENDROOT
BRANCH   1   7
ATOM      7  C1' I4B d   1      -5.035  -2.215   2.257  0.00  0.00     0.060 C 
BRANCH   7   8
ATOM      8  C2' I4B d   1      -5.999  -2.213   1.087  0.00  0.00    -0.013 C 
ATOM      9  C4' I4B d   1      -5.670  -1.113   0.112  0.00  0.00     0.013 C 
ATOM     10  C3' I4B d   1      -5.930  -3.558   0.428  0.00  0.00     0.013 C 
ENDBRANCH   7   8
ENDBRANCH   1   7
TORSDOF 2
ENDMDL
