MODEL 1
REMARK minimizedAffinity 13.6423779
REMARK minimizedRMSD -1
REMARK  2 active torsions:
REMARK  status: ('A' for Active; 'I' for Inactive)
REMARK    1  A    between atoms: C2'_3  and  C1'_4 
REMARK    2  A    between atoms: C1'_4  and  C1_5 
ROOT
ATOM      1  C1  I4B d   1       1.074  -0.764   1.670  0.00  0.00    -0.075 A 
ATOM      2  C2  I4B d   1       2.443  -0.861   1.625  0.00  0.00     0.003 A 
ATOM      3  C3  I4B d   1       3.058  -2.019   1.091  0.00  0.00     0.002 A 
ATOM      4  C4  I4B d   1       2.272  -3.070   0.663  0.00  0.00    -0.004 A 
ATOM      5  C5  I4B d   1       0.884  -2.960   0.689  0.00  0.00     0.002 A 
ATOM      6  C6  I4B d   1       0.281  -1.795   1.184  0.00  0.00     0.003 A 
ENDROOT
BRANCH   1   7
ATOM      7  C1' I4B d   1       0.459   0.460   2.271  0.00  0.00     0.060 C 
BRANCH   7   8
ATOM      8  C2' I4B d   1      -0.830   0.748   1.527  0.00  0.00    -0.013 C 
ATOM      9  C4' I4B d   1      -1.991   0.873   2.477  0.00  0.00     0.013 C 
ATOM     10  C3' I4B d   1      -0.637   2.008   0.738  0.00  0.00     0.013 C 
ENDBRANCH   7   8
ENDBRANCH   1   7
TORSDOF 2
ENDMDL
