MODEL 1
REMARK minimizedAffinity 21.0802231
REMARK minimizedRMSD -1
REMARK  2 active torsions:
REMARK  status: ('A' for Active; 'I' for Inactive)
REMARK    1  A    between atoms: C2'_3  and  C1'_4 
REMARK    2  A    between atoms: C1'_4  and  C1_5 
ROOT
ATOM      1  C1  I4B d   1       2.151  -1.403  -5.790  0.00  0.00    -0.075 A 
ATOM      2  C2  I4B d   1       3.191  -2.222  -5.429  0.00  0.00     0.003 A 
ATOM      3  C3  I4B d   1       2.978  -3.611  -5.255  0.00  0.00     0.002 A 
ATOM      4  C4  I4B d   1       1.706  -4.127  -5.402  0.00  0.00    -0.004 A 
ATOM      5  C5  I4B d   1       0.657  -3.299  -5.790  0.00  0.00     0.002 A 
ATOM      6  C6  I4B d   1       0.883  -1.930  -5.998  0.00  0.00     0.003 A 
ENDROOT
BRANCH   1   7
ATOM      7  C1' I4B d   1       2.404   0.064  -5.934  0.00  0.00     0.060 C 
BRANCH   7   8
ATOM      8  C2' I4B d   1       1.332   0.802  -5.157  0.00  0.00    -0.013 C 
ATOM      9  C4' I4B d   1       1.851   1.272  -3.824  0.00  0.00     0.013 C 
ATOM     10  C3' I4B d   1       0.865   1.955  -5.994  0.00  0.00     0.013 C 
ENDBRANCH   7   8
ENDBRANCH   1   7
TORSDOF 2
ENDMDL
