MODEL 1
REMARK minimizedAffinity 25.1627998
REMARK minimizedRMSD -1
REMARK  2 active torsions:
REMARK  status: ('A' for Active; 'I' for Inactive)
REMARK    1  A    between atoms: C2'_3  and  C1'_4 
REMARK    2  A    between atoms: C1'_4  and  C1_5 
ROOT
ATOM      1  C1  I4B d   1      -0.743   1.909   1.844  0.00  0.00    -0.075 A 
ATOM      2  C2  I4B d   1      -2.049   2.176   1.517  0.00  0.00     0.003 A 
ATOM      3  C3  I4B d   1      -2.352   2.975   0.388  0.00  0.00     0.002 A 
ATOM      4  C4  I4B d   1      -1.325   3.523  -0.353  0.00  0.00    -0.004 A 
ATOM      5  C5  I4B d   1      -0.002   3.232  -0.034  0.00  0.00     0.002 A 
ATOM      6  C6  I4B d   1       0.292   2.410   1.064  0.00  0.00     0.003 A 
ENDROOT
BRANCH   1   7
ATOM      7  C1' I4B d   1      -0.457   1.090   3.062  0.00  0.00     0.060 C 
BRANCH   7   8
ATOM      8  C2' I4B d   1       0.881   1.531   3.619  0.00  0.00    -0.013 C 
ATOM      9  C4' I4B d   1       0.716   2.233   4.941  0.00  0.00     0.013 C 
ATOM     10  C3' I4B d   1       1.749   0.316   3.756  0.00  0.00     0.013 C 
ENDBRANCH   7   8
ENDBRANCH   1   7
TORSDOF 2
ENDMDL
