MODEL 1
REMARK minimizedAffinity 8.32966805
REMARK minimizedRMSD -1
REMARK  1 active torsions:
REMARK  status: ('A' for Active; 'I' for Inactive)
REMARK    1  A    between atoms: C3_4  and  O_7 
ROOT
ATOM      1  C   UNL d   1      -5.984  -3.856  -5.990  0.00  0.00    -0.033 A 
ATOM      2  C1  UNL d   1      -5.030  -3.161  -5.244  0.00  0.00     0.039 A 
ATOM      3  C2  UNL d   1      -4.076  -3.859  -4.503  0.00  0.00    -0.080 A 
ATOM      4  C3  UNL d   1      -4.085  -5.251  -4.516  0.00  0.00     0.150 A 
ATOM      5  C4  UNL d   1      -5.029  -5.951  -5.259  0.00  0.00    -0.007 A 
ATOM      6  C5  UNL d   1      -5.983  -5.252  -5.998  0.00  0.00     0.039 A 
ENDROOT
BRANCH   4   7
ATOM      7  O   UNL d   1      -3.176  -5.976  -3.804  0.00  0.00    -0.526 OA
ATOM      8  H5  UNL d   1      -2.604  -5.360  -3.317  0.00  0.00     0.418 HD
ENDBRANCH   4   7
TORSDOF 1
ENDMDL
