MODEL 1
REMARK minimizedAffinity 6.48489666
REMARK minimizedRMSD -1
REMARK  1 active torsions:
REMARK  status: ('A' for Active; 'I' for Inactive)
REMARK    1  A    between atoms: C3_4  and  O_7 
ROOT
ATOM      1  C   UNL d   1       2.173  -1.114   1.510  0.00  0.00    -0.033 A 
ATOM      2  C1  UNL d   1       2.378  -2.150   2.423  0.00  0.00     0.039 A 
ATOM      3  C2  UNL d   1       3.661  -2.661   2.625  0.00  0.00    -0.080 A 
ATOM      4  C3  UNL d   1       4.730  -2.128   1.910  0.00  0.00     0.150 A 
ATOM      5  C4  UNL d   1       4.534  -1.093   1.002  0.00  0.00    -0.007 A 
ATOM      6  C5  UNL d   1       3.252  -0.584   0.800  0.00  0.00     0.039 A 
ENDROOT
BRANCH   4   7
ATOM      7  O   UNL d   1       6.000  -2.597   2.070  0.00  0.00    -0.526 OA
ATOM      8  H5  UNL d   1       5.979  -3.330   2.708  0.00  0.00     0.418 HD
ENDBRANCH   4   7
TORSDOF 1
ENDMDL
