MODEL 1
REMARK minimizedAffinity 3.09205079
REMARK minimizedRMSD -1
REMARK  1 active torsions:
REMARK  status: ('A' for Active; 'I' for Inactive)
REMARK    1  A    between atoms: C3_4  and  O_7 
ROOT
ATOM      1  C   UNL d   1       1.993  -1.127   1.332  0.00  0.00    -0.033 A 
ATOM      2  C1  UNL d   1       1.447   0.018   1.914  0.00  0.00     0.039 A 
ATOM      3  C2  UNL d   1       1.024  -0.007   3.245  0.00  0.00    -0.080 A 
ATOM      4  C3  UNL d   1       1.154  -1.182   3.981  0.00  0.00     0.150 A 
ATOM      5  C4  UNL d   1       1.701  -2.325   3.408  0.00  0.00    -0.007 A 
ATOM      6  C5  UNL d   1       2.122  -2.299   2.079  0.00  0.00     0.039 A 
ENDROOT
BRANCH   4   7
ATOM      7  O   UNL d   1       0.751  -1.256   5.281  0.00  0.00    -0.526 OA
ATOM      8  H5  UNL d   1       0.367  -0.400   5.534  0.00  0.00     0.418 HD
ENDBRANCH   4   7
TORSDOF 1
ENDMDL
