MODEL 1
REMARK minimizedAffinity 5.1048398
REMARK minimizedRMSD -1
REMARK  1 active torsions:
REMARK  status: ('A' for Active; 'I' for Inactive)
REMARK    1  A    between atoms: C3_4  and  O_7 
ROOT
ATOM      1  C   UNL d   1       0.604  -1.511   2.859  0.00  0.00    -0.033 A 
ATOM      2  C1  UNL d   1       1.685  -2.350   2.584  0.00  0.00     0.039 A 
ATOM      3  C2  UNL d   1       2.787  -1.863   1.878  0.00  0.00    -0.080 A 
ATOM      4  C3  UNL d   1       2.795  -0.538   1.453  0.00  0.00     0.150 A 
ATOM      5  C4  UNL d   1       1.722   0.305   1.727  0.00  0.00    -0.007 A 
ATOM      6  C5  UNL d   1       0.623  -0.183   2.432  0.00  0.00     0.039 A 
ENDROOT
BRANCH   4   7
ATOM      7  O   UNL d   1       3.845  -0.019   0.756  0.00  0.00    -0.526 OA
ATOM      8  H5  UNL d   1       4.500  -0.723   0.616  0.00  0.00     0.418 HD
ENDBRANCH   4   7
TORSDOF 1
ENDMDL
