MODEL 1
REMARK minimizedAffinity 6.05470705
REMARK minimizedRMSD -1
REMARK  1 active torsions:
REMARK  status: ('A' for Active; 'I' for Inactive)
REMARK    1  A    between atoms: C3_4  and  O_7 
ROOT
ATOM      1  C   UNL d   1       1.170  -0.001   2.393  0.00  0.00    -0.033 A 
ATOM      2  C1  UNL d   1       0.697  -1.270   2.053  0.00  0.00     0.039 A 
ATOM      3  C2  UNL d   1       0.441  -2.211   3.051  0.00  0.00    -0.080 A 
ATOM      4  C3  UNL d   1       0.659  -1.872   4.384  0.00  0.00     0.150 A 
ATOM      5  C4  UNL d   1       1.125  -0.608   4.730  0.00  0.00    -0.007 A 
ATOM      6  C5  UNL d   1       1.382   0.331   3.731  0.00  0.00     0.039 A 
ENDROOT
BRANCH   4   7
ATOM      7  O   UNL d   1       0.427  -2.759   5.393  0.00  0.00    -0.526 OA
ATOM      8  H5  UNL d   1       0.135  -3.599   5.002  0.00  0.00     0.418 HD
ENDBRANCH   4   7
TORSDOF 1
ENDMDL
