MODEL 1
REMARK minimizedAffinity -2.71208811
REMARK minimizedRMSD -1
REMARK  1 active torsions:
REMARK  status: ('A' for Active; 'I' for Inactive)
REMARK    1  A    between atoms: C3_4  and  O_7 
ROOT
ATOM      1  C   UNL d   1       4.930   5.223  -5.615  0.00  0.00    -0.033 A 
ATOM      2  C1  UNL d   1       6.000   5.853  -4.977  0.00  0.00     0.039 A 
ATOM      3  C2  UNL d   1       5.999   6.000  -3.588  0.00  0.00    -0.080 A 
ATOM      4  C3  UNL d   1       4.924   5.511  -2.851  0.00  0.00     0.150 A 
ATOM      5  C4  UNL d   1       3.857   4.879  -3.479  0.00  0.00    -0.007 A 
ATOM      6  C5  UNL d   1       3.859   4.734  -4.866  0.00  0.00     0.039 A 
ENDROOT
BRANCH   4   7
ATOM      7  O   UNL d   1       4.877   5.635  -1.494  0.00  0.00    -0.526 OA
ATOM      8  H5  UNL d   1       5.667   6.118  -1.201  0.00  0.00     0.418 HD
ENDBRANCH   4   7
TORSDOF 1
ENDMDL
