MODEL 1
REMARK minimizedAffinity -3.68335032
REMARK minimizedRMSD -1
REMARK  1 active torsions:
REMARK  status: ('A' for Active; 'I' for Inactive)
REMARK    1  A    between atoms: C3_4  and  O_7 
ROOT
ATOM      1  C   UNL d   1       5.264   4.539  -4.832  0.00  0.00    -0.033 A 
ATOM      2  C1  UNL d   1       4.521   3.792  -3.916  0.00  0.00     0.039 A 
ATOM      3  C2  UNL d   1       4.514   4.146  -2.566  0.00  0.00    -0.080 A 
ATOM      4  C3  UNL d   1       5.252   5.248  -2.145  0.00  0.00     0.150 A 
ATOM      5  C4  UNL d   1       5.992   5.999  -3.052  0.00  0.00    -0.007 A 
ATOM      6  C5  UNL d   1       5.999   5.644  -4.400  0.00  0.00     0.039 A 
ENDROOT
BRANCH   4   7
ATOM      7  O   UNL d   1       5.280   5.629  -0.836  0.00  0.00    -0.526 OA
ATOM      8  H5  UNL d   1       4.746   5.001  -0.321  0.00  0.00     0.418 HD
ENDBRANCH   4   7
TORSDOF 1
ENDMDL
