MODEL 1
REMARK minimizedAffinity 1.71278167
REMARK minimizedRMSD -1
REMARK  1 active torsions:
REMARK  status: ('A' for Active; 'I' for Inactive)
REMARK    1  A    between atoms: C3_4  and  O_7 
ROOT
ATOM      1  C   UNL d   1       1.912  -1.874   3.129  0.00  0.00    -0.033 A 
ATOM      2  C1  UNL d   1       2.968  -2.130   2.252  0.00  0.00     0.039 A 
ATOM      3  C2  UNL d   1       3.437  -1.121   1.408  0.00  0.00    -0.080 A 
ATOM      4  C3  UNL d   1       2.844   0.138   1.453  0.00  0.00     0.150 A 
ATOM      5  C4  UNL d   1       1.795   0.401   2.327  0.00  0.00    -0.007 A 
ATOM      6  C5  UNL d   1       1.327  -0.608   3.168  0.00  0.00     0.039 A 
ENDROOT
BRANCH   4   7
ATOM      7  O   UNL d   1       3.265   1.152   0.645  0.00  0.00    -0.526 OA
ATOM      8  H5  UNL d   1       3.976   0.816   0.074  0.00  0.00     0.418 HD
ENDBRANCH   4   7
TORSDOF 1
ENDMDL
