MODEL 1
REMARK minimizedAffinity 2.24956632
REMARK minimizedRMSD -1
REMARK  3 active torsions:
REMARK  status: ('A' for Active; 'I' for Inactive)
REMARK    1  A    between atoms: C3'_2  and  C2'_3 
REMARK    2  A    between atoms: C2'_3  and  C1'_4 
REMARK    3  A    between atoms: C1'_4  and  C1_5 
ROOT
ATOM      1  C1  N4B d   1      -0.605  -2.387  -1.470  0.00  0.00    -0.075 A 
ATOM      2  C2  N4B d   1      -1.481  -2.471  -2.574  0.00  0.00     0.002 A 
ATOM      3  C3  N4B d   1      -2.833  -2.313  -2.391  0.00  0.00     0.002 A 
ATOM      4  C4  N4B d   1      -3.332  -2.089  -1.116  0.00  0.00    -0.004 A 
ATOM      5  C5  N4B d   1      -2.476  -1.983  -0.059  0.00  0.00     0.002 A 
ATOM      6  C6  N4B d   1      -1.115  -2.137  -0.228  0.00  0.00     0.002 A 
ENDROOT
BRANCH   1   7
ATOM      7  C1' N4B d   1       0.872  -2.638  -1.607  0.00  0.00     0.057 C 
BRANCH   7   8
ATOM      8  C2' N4B d   1       1.287  -2.403  -3.056  0.00  0.00     0.009 C 
BRANCH   8   9
ATOM      9  C3' N4B d   1       2.781  -2.157  -3.185  0.00  0.00     0.004 C 
ATOM     10  C4' N4B d   1       3.439  -3.086  -4.161  0.00  0.00     0.003 C 
ENDBRANCH   8   9
ENDBRANCH   7   8
ENDBRANCH   1   7
TORSDOF 3
ENDMDL
