MODEL 1
REMARK minimizedAffinity -3.62251186
REMARK minimizedRMSD -1
REMARK  3 active torsions:
REMARK  status: ('A' for Active; 'I' for Inactive)
REMARK    1  A    between atoms: C3'_2  and  C2'_3 
REMARK    2  A    between atoms: C2'_3  and  C1'_4 
REMARK    3  A    between atoms: C1'_4  and  C1_5 
ROOT
ATOM      1  C1  N4B d   1      -0.399  -1.087   0.786  0.00  0.00    -0.075 A 
ATOM      2  C2  N4B d   1      -0.546   0.156   0.131  0.00  0.00     0.002 A 
ATOM      3  C3  N4B d   1      -1.092   1.224   0.798  0.00  0.00     0.002 A 
ATOM      4  C4  N4B d   1      -1.515   1.070   2.110  0.00  0.00    -0.004 A 
ATOM      5  C5  N4B d   1      -1.346  -0.126   2.744  0.00  0.00     0.002 A 
ATOM      6  C6  N4B d   1      -0.795  -1.207   2.087  0.00  0.00     0.002 A 
ENDROOT
BRANCH   1   7
ATOM      7  C1' N4B d   1       0.114  -2.306   0.071  0.00  0.00     0.057 C 
BRANCH   7   8
ATOM      8  C2' N4B d   1       0.161  -2.025  -1.428  0.00  0.00     0.009 C 
BRANCH   8   9
ATOM      9  C3' N4B d   1       1.232  -1.007  -1.781  0.00  0.00     0.004 C 
ATOM     10  C4' N4B d   1       1.313  -0.737  -3.254  0.00  0.00     0.003 C 
ENDBRANCH   8   9
ENDBRANCH   7   8
ENDBRANCH   1   7
TORSDOF 3
ENDMDL
