MODEL 1
REMARK minimizedAffinity -4.3032341
REMARK minimizedRMSD -1
REMARK  3 active torsions:
REMARK  status: ('A' for Active; 'I' for Inactive)
REMARK    1  A    between atoms: C3'_2  and  C2'_3 
REMARK    2  A    between atoms: C2'_3  and  C1'_4 
REMARK    3  A    between atoms: C1'_4  and  C1_5 
ROOT
ATOM      1  C1  N4B d   1       0.347   1.134  -0.561  0.00  0.00    -0.075 A 
ATOM      2  C2  N4B d   1       1.707   1.460  -0.368  0.00  0.00     0.002 A 
ATOM      3  C3  N4B d   1       2.638   1.109  -1.314  0.00  0.00     0.002 A 
ATOM      4  C4  N4B d   1       2.238   0.417  -2.447  0.00  0.00    -0.004 A 
ATOM      5  C5  N4B d   1       0.918   0.128  -2.638  0.00  0.00     0.002 A 
ATOM      6  C6  N4B d   1      -0.029   0.478  -1.697  0.00  0.00     0.002 A 
ENDROOT
BRANCH   1   7
ATOM      7  C1' N4B d   1      -0.695   1.421   0.485  0.00  0.00     0.057 C 
BRANCH   7   8
ATOM      8  C2' N4B d   1      -0.718   0.279   1.497  0.00  0.00     0.009 C 
BRANCH   8   9
ATOM      9  C3' N4B d   1      -1.753  -0.774   1.142  0.00  0.00     0.004 C 
ATOM     10  C4' N4B d   1      -1.137  -2.082   0.743  0.00  0.00     0.003 C 
ENDBRANCH   8   9
ENDBRANCH   7   8
ENDBRANCH   1   7
TORSDOF 3
ENDMDL
