MODEL 1
REMARK minimizedAffinity -1.13087797
REMARK minimizedRMSD -1
REMARK  3 active torsions:
REMARK  status: ('A' for Active; 'I' for Inactive)
REMARK    1  A    between atoms: C3'_2  and  C2'_3 
REMARK    2  A    between atoms: C2'_3  and  C1'_4 
REMARK    3  A    between atoms: C1'_4  and  C1_5 
ROOT
ATOM      1  C1  N4B d   1      -0.896   0.735   0.835  0.00  0.00    -0.075 A 
ATOM      2  C2  N4B d   1      -0.767   0.105  -0.422  0.00  0.00     0.002 A 
ATOM      3  C3  N4B d   1      -0.899  -1.258  -0.524  0.00  0.00     0.002 A 
ATOM      4  C4  N4B d   1      -1.140  -2.011   0.616  0.00  0.00    -0.004 A 
ATOM      5  C5  N4B d   1      -1.288  -1.392   1.822  0.00  0.00     0.002 A 
ATOM      6  C6  N4B d   1      -1.162  -0.022   1.939  0.00  0.00     0.002 A 
ENDROOT
BRANCH   1   7
ATOM      7  C1' N4B d   1      -0.675   2.213   1.010  0.00  0.00     0.057 C 
BRANCH   7   8
ATOM      8  C2' N4B d   1       0.824   2.489   1.090  0.00  0.00     0.009 C 
BRANCH   8   9
ATOM      9  C3' N4B d   1       1.117   3.951   1.381  0.00  0.00     0.004 C 
ATOM     10  C4' N4B d   1       2.583   4.230   1.531  0.00  0.00     0.003 C 
ENDBRANCH   8   9
ENDBRANCH   7   8
ENDBRANCH   1   7
TORSDOF 3
ENDMDL
