MODEL 1
REMARK minimizedAffinity -5.95233727
REMARK minimizedRMSD -1
REMARK  3 active torsions:
REMARK  status: ('A' for Active; 'I' for Inactive)
REMARK    1  A    between atoms: C3'_2  and  C2'_3 
REMARK    2  A    between atoms: C2'_3  and  C1'_4 
REMARK    3  A    between atoms: C1'_4  and  C1_5 
ROOT
ATOM      1  C1  N4B d   1       0.304   1.241   0.237  0.00  0.00    -0.075 A 
ATOM      2  C2  N4B d   1       0.861   2.379   0.862  0.00  0.00     0.002 A 
ATOM      3  C3  N4B d   1       2.059   2.887   0.422  0.00  0.00     0.002 A 
ATOM      4  C4  N4B d   1       2.725   2.265  -0.624  0.00  0.00    -0.004 A 
ATOM      5  C5  N4B d   1       2.168   1.182  -1.238  0.00  0.00     0.002 A 
ATOM      6  C6  N4B d   1       0.963   0.663  -0.809  0.00  0.00     0.002 A 
ENDROOT
BRANCH   1   7
ATOM      7  C1' N4B d   1      -0.960   0.599   0.739  0.00  0.00     0.057 C 
BRANCH   7   8
ATOM      8  C2' N4B d   1      -0.602  -0.630   1.570  0.00  0.00     0.009 C 
BRANCH   8   9
ATOM      9  C3' N4B d   1      -0.922  -1.923   0.839  0.00  0.00     0.004 C 
ATOM     10  C4' N4B d   1       0.293  -2.768   0.597  0.00  0.00     0.003 C 
ENDBRANCH   8   9
ENDBRANCH   7   8
ENDBRANCH   1   7
TORSDOF 3
ENDMDL
