MODEL 1
REMARK minimizedAffinity -1.85694873
REMARK minimizedRMSD -1
REMARK  3 active torsions:
REMARK  status: ('A' for Active; 'I' for Inactive)
REMARK    1  A    between atoms: C3'_2  and  C2'_3 
REMARK    2  A    between atoms: C2'_3  and  C1'_4 
REMARK    3  A    between atoms: C1'_4  and  C1_5 
ROOT
ATOM      1  C1  N4B d   1      -0.658   2.144   0.473  0.00  0.00    -0.075 A 
ATOM      2  C2  N4B d   1      -0.073   1.342  -0.531  0.00  0.00     0.002 A 
ATOM      3  C3  N4B d   1      -0.138  -0.027  -0.442  0.00  0.00     0.002 A 
ATOM      4  C4  N4B d   1      -0.765  -0.614   0.647  0.00  0.00    -0.004 A 
ATOM      5  C5  N4B d   1      -1.350   0.168   1.600  0.00  0.00     0.002 A 
ATOM      6  C6  N4B d   1      -1.295   1.545   1.521  0.00  0.00     0.002 A 
ENDROOT
BRANCH   1   7
ATOM      7  C1' N4B d   1      -0.538   3.643   0.463  0.00  0.00     0.057 C 
BRANCH   7   8
ATOM      8  C2' N4B d   1       0.935   4.026   0.351  0.00  0.00     0.009 C 
BRANCH   8   9
ATOM      9  C3' N4B d   1       1.672   3.840   1.667  0.00  0.00     0.004 C 
ATOM     10  C4' N4B d   1       3.104   4.280   1.597  0.00  0.00     0.003 C 
ENDBRANCH   8   9
ENDBRANCH   7   8
ENDBRANCH   1   7
TORSDOF 3
ENDMDL
