MODEL 1
REMARK minimizedAffinity 3.11142707
REMARK minimizedRMSD -1
REMARK  3 active torsions:
REMARK  status: ('A' for Active; 'I' for Inactive)
REMARK    1  A    between atoms: C3'_2  and  C2'_3 
REMARK    2  A    between atoms: C2'_3  and  C1'_4 
REMARK    3  A    between atoms: C1'_4  and  C1_5 
ROOT
ATOM      1  C1  N4B d   1       0.470   1.620   0.477  0.00  0.00    -0.075 A 
ATOM      2  C2  N4B d   1       1.713   1.501  -0.182  0.00  0.00     0.002 A 
ATOM      3  C3  N4B d   1       2.671   2.473  -0.022  0.00  0.00     0.002 A 
ATOM      4  C4  N4B d   1       2.402   3.577   0.773  0.00  0.00    -0.004 A 
ATOM      5  C5  N4B d   1       1.208   3.672   1.427  0.00  0.00     0.002 A 
ATOM      6  C6  N4B d   1       0.238   2.701   1.278  0.00  0.00     0.002 A 
ENDROOT
BRANCH   1   7
ATOM      7  C1' N4B d   1      -0.640   0.627   0.265  0.00  0.00     0.057 C 
BRANCH   7   8
ATOM      8  C2' N4B d   1      -1.138   0.136   1.621  0.00  0.00     0.009 C 
BRANCH   8   9
ATOM      9  C3' N4B d   1      -0.348  -1.063   2.116  0.00  0.00     0.004 C 
ATOM     10  C4' N4B d   1      -0.916  -2.369   1.645  0.00  0.00     0.003 C 
ENDBRANCH   8   9
ENDBRANCH   7   8
ENDBRANCH   1   7
TORSDOF 3
ENDMDL
