MODEL 1
REMARK minimizedAffinity -5.02025795
REMARK minimizedRMSD -1
REMARK  3 active torsions:
REMARK  status: ('A' for Active; 'I' for Inactive)
REMARK    1  A    between atoms: C3'_2  and  C2'_3 
REMARK    2  A    between atoms: C2'_3  and  C1'_4 
REMARK    3  A    between atoms: C1'_4  and  C1_5 
ROOT
ATOM      1  C1  N4B d   1       1.156   1.292  -0.979  0.00  0.00    -0.075 A 
ATOM      2  C2  N4B d   1       0.176   1.939  -0.194  0.00  0.00     0.002 A 
ATOM      3  C3  N4B d   1       0.508   3.056   0.533  0.00  0.00     0.002 A 
ATOM      4  C4  N4B d   1       1.811   3.530   0.506  0.00  0.00    -0.004 A 
ATOM      5  C5  N4B d   1       2.745   2.914  -0.274  0.00  0.00     0.002 A 
ATOM      6  C6  N4B d   1       2.425   1.793  -1.014  0.00  0.00     0.002 A 
ENDROOT
BRANCH   1   7
ATOM      7  C1' N4B d   1       0.862   0.018  -1.724  0.00  0.00     0.057 C 
BRANCH   7   8
ATOM      8  C2' N4B d   1       1.158  -1.172  -0.816  0.00  0.00     0.009 C 
BRANCH   8   9
ATOM      9  C3' N4B d   1       0.006  -1.468   0.128  0.00  0.00     0.004 C 
ATOM     10  C4' N4B d   1      -0.124  -2.927   0.448  0.00  0.00     0.003 C 
ENDBRANCH   8   9
ENDBRANCH   7   8
ENDBRANCH   1   7
TORSDOF 3
ENDMDL
