MODEL 1
REMARK minimizedAffinity 5.30559015
REMARK minimizedRMSD -1
REMARK  3 active torsions:
REMARK  status: ('A' for Active; 'I' for Inactive)
REMARK    1  A    between atoms: C3'_2  and  C2'_3 
REMARK    2  A    between atoms: C2'_3  and  C1'_4 
REMARK    3  A    between atoms: C1'_4  and  C1_5 
ROOT
ATOM      1  C1  N4B d   1       0.745   1.767   0.812  0.00  0.00    -0.075 A 
ATOM      2  C2  N4B d   1       2.104   1.591   0.471  0.00  0.00     0.002 A 
ATOM      3  C3  N4B d   1       3.038   2.512   0.879  0.00  0.00     0.002 A 
ATOM      4  C4  N4B d   1       2.636   3.621   1.609  0.00  0.00    -0.004 A 
ATOM      5  C5  N4B d   1       1.324   3.769   1.955  0.00  0.00     0.002 A 
ATOM      6  C6  N4B d   1       0.376   2.850   1.556  0.00  0.00     0.002 A 
ENDROOT
BRANCH   1   7
ATOM      7  C1' N4B d   1      -0.325   0.832   0.316  0.00  0.00     0.057 C 
BRANCH   7   8
ATOM      8  C2' N4B d   1      -0.994   0.159   1.510  0.00  0.00     0.009 C 
BRANCH   8   9
ATOM      9  C3' N4B d   1      -2.170  -0.706   1.089  0.00  0.00     0.004 C 
ATOM     10  C4' N4B d   1      -1.772  -2.119   0.784  0.00  0.00     0.003 C 
ENDBRANCH   8   9
ENDBRANCH   7   8
ENDBRANCH   1   7
TORSDOF 3
ENDMDL
