MODEL 1
REMARK minimizedAffinity -0.306572109
REMARK minimizedRMSD -1
REMARK  3 active torsions:
REMARK  status: ('A' for Active; 'I' for Inactive)
REMARK    1  A    between atoms: C3'_2  and  C2'_3 
REMARK    2  A    between atoms: C2'_3  and  C1'_4 
REMARK    3  A    between atoms: C1'_4  and  C1_5 
ROOT
ATOM      1  C1  N4B d   1       0.632   0.804  -0.868  0.00  0.00    -0.075 A 
ATOM      2  C2  N4B d   1       0.497   0.283  -2.174  0.00  0.00     0.002 A 
ATOM      3  C3  N4B d   1       1.589   0.225  -3.005  0.00  0.00     0.002 A 
ATOM      4  C4  N4B d   1       2.815   0.697  -2.562  0.00  0.00    -0.004 A 
ATOM      5  C5  N4B d   1       2.942   1.175  -1.290  0.00  0.00     0.002 A 
ATOM      6  C6  N4B d   1       1.854   1.236  -0.442  0.00  0.00     0.002 A 
ENDROOT
BRANCH   1   7
ATOM      7  C1' N4B d   1      -0.551   0.968   0.047  0.00  0.00     0.057 C 
BRANCH   7   8
ATOM      8  C2' N4B d   1      -0.463  -0.064   1.168  0.00  0.00     0.009 C 
BRANCH   8   9
ATOM      9  C3' N4B d   1      -1.802  -0.730   1.433  0.00  0.00     0.004 C 
ATOM     10  C4' N4B d   1      -1.836  -2.163   0.993  0.00  0.00     0.003 C 
ENDBRANCH   8   9
ENDBRANCH   7   8
ENDBRANCH   1   7
TORSDOF 3
ENDMDL
