MODEL 1
REMARK minimizedAffinity 7.61703539
REMARK minimizedRMSD -1
REMARK  1 active torsions:
REMARK  status: ('A' for Active; 'I' for Inactive)
REMARK    1  A    between atoms: C1_2  and  C2_3 
ROOT
ATOM      1  C2  UNL d   1       1.408   3.550  -1.000  0.00  0.00    -0.073 A 
ATOM      2  C3  UNL d   1       1.222   3.623   0.385  0.00  0.00    -0.002 A 
ATOM      3  C4  UNL d   1       1.085   2.458   1.140  0.00  0.00     0.004 A 
ATOM      4  C5  UNL d   1       1.140   1.209   0.521  0.00  0.00    -0.004 A 
ATOM      5  C6  UNL d   1       1.337   1.116  -0.861  0.00  0.00    -0.075 A 
ATOM      6  C7  UNL d   1       1.396  -0.220  -1.543  0.00  0.00     0.076 C 
ATOM      7  C8  UNL d   1       1.471   2.291  -1.613  0.00  0.00     0.001 A 
ENDROOT
BRANCH   1   8
ATOM      8  C1  UNL d   1       1.563   4.806  -1.819  0.00  0.00     0.053 C 
ATOM      9  C   UNL d   1       1.958   5.999  -0.963  0.00  0.00     0.018 C 
ENDBRANCH   1   8
TORSDOF 1
ENDMDL
