MODEL 1
REMARK minimizedAffinity -1.49777102
REMARK minimizedRMSD -1
REMARK  1 active torsions:
REMARK  status: ('A' for Active; 'I' for Inactive)
REMARK    1  A    between atoms: C1_2  and  C2_3 
ROOT
ATOM      1  C2  UNL d   1       1.314   3.135  -0.938  0.00  0.00    -0.073 A 
ATOM      2  C3  UNL d   1       1.254   3.114   0.460  0.00  0.00    -0.002 A 
ATOM      3  C4  UNL d   1       1.064   1.910   1.140  0.00  0.00     0.004 A 
ATOM      4  C5  UNL d   1       0.938   0.716   0.430  0.00  0.00    -0.004 A 
ATOM      5  C6  UNL d   1       1.007   0.715  -0.967  0.00  0.00    -0.075 A 
ATOM      6  C7  UNL d   1       0.871  -0.561  -1.745  0.00  0.00     0.076 C 
ATOM      7  C8  UNL d   1       1.195   1.928  -1.642  0.00  0.00     0.001 A 
ENDROOT
BRANCH   1   8
ATOM      8  C1  UNL d   1       1.525   4.432  -1.676  0.00  0.00     0.053 C 
ATOM      9  C   UNL d   1       1.929   5.561  -0.741  0.00  0.00     0.018 C 
ENDBRANCH   1   8
TORSDOF 1
ENDMDL
