MODEL 1
REMARK minimizedAffinity -1.59614706
REMARK minimizedRMSD -1
REMARK  1 active torsions:
REMARK  status: ('A' for Active; 'I' for Inactive)
REMARK    1  A    between atoms: C1_2  and  C2_3 
ROOT
ATOM      1  C2  UNL d   1       1.529   2.880  -1.208  0.00  0.00    -0.073 A 
ATOM      2  C3  UNL d   1       1.428   1.709  -1.968  0.00  0.00    -0.002 A 
ATOM      3  C4  UNL d   1       1.180   0.484  -1.346  0.00  0.00     0.004 A 
ATOM      4  C5  UNL d   1       1.024   0.418   0.038  0.00  0.00    -0.004 A 
ATOM      5  C6  UNL d   1       1.109   1.579   0.814  0.00  0.00    -0.075 A 
ATOM      6  C7  UNL d   1       0.945   1.525   2.304  0.00  0.00     0.076 C 
ATOM      7  C8  UNL d   1       1.361   2.805   0.183  0.00  0.00     0.001 A 
ENDROOT
BRANCH   1   8
ATOM      8  C1  UNL d   1       1.791   4.205  -1.875  0.00  0.00     0.053 C 
ATOM      9  C   UNL d   1       1.808   5.352  -0.877  0.00  0.00     0.018 C 
ENDBRANCH   1   8
TORSDOF 1
ENDMDL
