MODEL 1
REMARK minimizedAffinity -3.12712526
REMARK minimizedRMSD -1
REMARK  1 active torsions:
REMARK  status: ('A' for Active; 'I' for Inactive)
REMARK    1  A    between atoms: C1_2  and  C2_3 
ROOT
ATOM      1  C2  UNL d   1       1.427   2.920  -1.334  0.00  0.00    -0.073 A 
ATOM      2  C3  UNL d   1       0.872   1.934  -2.158  0.00  0.00    -0.002 A 
ATOM      3  C4  UNL d   1       0.705   0.632  -1.684  0.00  0.00     0.004 A 
ATOM      4  C5  UNL d   1       1.083   0.304  -0.383  0.00  0.00    -0.004 A 
ATOM      5  C6  UNL d   1       1.629   1.278   0.460  0.00  0.00    -0.075 A 
ATOM      6  C7  UNL d   1       2.043   0.941   1.862  0.00  0.00     0.076 C 
ATOM      7  C8  UNL d   1       1.796   2.583  -0.024  0.00  0.00     0.001 A 
ENDROOT
BRANCH   1   8
ATOM      8  C1  UNL d   1       1.604   4.328  -1.839  0.00  0.00     0.053 C 
ATOM      9  C   UNL d   1       1.942   5.298  -0.717  0.00  0.00     0.018 C 
ENDBRANCH   1   8
TORSDOF 1
ENDMDL
