MODEL 1
REMARK minimizedAffinity -2.61478162
REMARK minimizedRMSD -1
REMARK  1 active torsions:
REMARK  status: ('A' for Active; 'I' for Inactive)
REMARK    1  A    between atoms: C1_2  and  C2_3 
ROOT
ATOM      1  C2  UNL d   1       1.135   2.219  -1.244  0.00  0.00    -0.073 A 
ATOM      2  C3  UNL d   1       0.914   1.774   0.065  0.00  0.00    -0.002 A 
ATOM      3  C4  UNL d   1       0.896   2.682   1.124  0.00  0.00     0.004 A 
ATOM      4  C5  UNL d   1       1.093   4.042   0.887  0.00  0.00    -0.004 A 
ATOM      5  C6  UNL d   1       1.303   4.508  -0.415  0.00  0.00    -0.075 A 
ATOM      6  C7  UNL d   1       1.518   5.968  -0.688  0.00  0.00     0.076 C 
ATOM      7  C8  UNL d   1       1.322   3.589  -1.474  0.00  0.00     0.001 A 
ENDROOT
BRANCH   1   8
ATOM      8  C1  UNL d   1       1.149   1.243  -2.392  0.00  0.00     0.053 C 
ATOM      9  C   UNL d   1       0.684  -0.141  -1.969  0.00  0.00     0.018 C 
ENDBRANCH   1   8
TORSDOF 1
ENDMDL
