MODEL 1
REMARK minimizedAffinity 4.00502968
REMARK minimizedRMSD -1
REMARK  1 active torsions:
REMARK  status: ('A' for Active; 'I' for Inactive)
REMARK    1  A    between atoms: C1_2  and  C2_3 
ROOT
ATOM      1  C2  UNL d   1       1.597   2.079  -0.969  0.00  0.00    -0.073 A 
ATOM      2  C3  UNL d   1       1.324   2.770   0.217  0.00  0.00    -0.002 A 
ATOM      3  C4  UNL d   1       1.948   2.399   1.409  0.00  0.00     0.004 A 
ATOM      4  C5  UNL d   1       2.855   1.340   1.426  0.00  0.00    -0.004 A 
ATOM      5  C6  UNL d   1       3.150   0.645   0.249  0.00  0.00    -0.075 A 
ATOM      6  C7  UNL d   1       4.122  -0.499   0.251  0.00  0.00     0.076 C 
ATOM      7  C8  UNL d   1       2.518   1.021  -0.943  0.00  0.00     0.001 A 
ENDROOT
BRANCH   1   8
ATOM      8  C1  UNL d   1       0.931   2.480  -2.259  0.00  0.00     0.053 C 
ATOM      9  C   UNL d   1       0.440   3.919  -2.225  0.00  0.00     0.018 C 
ENDBRANCH   1   8
TORSDOF 1
ENDMDL
