MODEL 1
REMARK minimizedAffinity 1.3466742
REMARK minimizedRMSD -1
REMARK  1 active torsions:
REMARK  status: ('A' for Active; 'I' for Inactive)
REMARK    1  A    between atoms: C1_2  and  C2_3 
ROOT
ATOM      1  C2  UNL d   1       0.862   1.952   0.609  0.00  0.00    -0.073 A 
ATOM      2  C3  UNL d   1       1.232   0.645   0.946  0.00  0.00    -0.002 A 
ATOM      3  C4  UNL d   1       1.493  -0.293  -0.054  0.00  0.00     0.004 A 
ATOM      4  C5  UNL d   1       1.392   0.066  -1.398  0.00  0.00    -0.004 A 
ATOM      5  C6  UNL d   1       1.035   1.370  -1.754  0.00  0.00    -0.075 A 
ATOM      6  C7  UNL d   1       0.920   1.772  -3.196  0.00  0.00     0.076 C 
ATOM      7  C8  UNL d   1       0.772   2.306  -0.745  0.00  0.00     0.001 A 
ENDROOT
BRANCH   1   8
ATOM      8  C1  UNL d   1       0.586   2.971   1.684  0.00  0.00     0.053 C 
ATOM      9  C   UNL d   1       1.141   4.341   1.328  0.00  0.00     0.018 C 
ENDBRANCH   1   8
TORSDOF 1
ENDMDL
