MODEL 1
REMARK minimizedAffinity 7.13974571
REMARK minimizedRMSD -1
REMARK  1 active torsions:
REMARK  status: ('A' for Active; 'I' for Inactive)
REMARK    1  A    between atoms: C1_2  and  C2_3 
ROOT
ATOM      1  C2  UNL d   1       0.785   0.862  -1.850  0.00  0.00    -0.073 A 
ATOM      2  C3  UNL d   1       1.657   1.600  -1.042  0.00  0.00    -0.002 A 
ATOM      3  C4  UNL d   1       1.479   2.976  -0.886  0.00  0.00     0.004 A 
ATOM      4  C5  UNL d   1       0.425   3.625  -1.529  0.00  0.00    -0.004 A 
ATOM      5  C6  UNL d   1      -0.464   2.902  -2.331  0.00  0.00    -0.075 A 
ATOM      6  C7  UNL d   1      -1.602   3.586  -3.032  0.00  0.00     0.076 C 
ATOM      7  C8  UNL d   1      -0.277   1.522  -2.486  0.00  0.00     0.001 A 
ENDROOT
BRANCH   1   8
ATOM      8  C1  UNL d   1       0.969  -0.624  -2.017  0.00  0.00     0.053 C 
ATOM      9  C   UNL d   1       1.505  -1.278  -0.753  0.00  0.00     0.018 C 
ENDBRANCH   1   8
TORSDOF 1
ENDMDL
