MODEL 1
REMARK minimizedAffinity -2.84143186
REMARK minimizedRMSD -1
REMARK  0 active torsions:
REMARK  status: ('A' for Active; 'I' for Inactive)
ROOT
ATOM      1  C   UNL d   1       0.370  -0.867  -2.330  0.00  0.00     0.077 C 
ATOM      2  C1  UNL d   1       0.787  -0.528  -0.929  0.00  0.00    -0.074 A 
ATOM      3  C2  UNL d   1       1.872  -1.171  -0.327  0.00  0.00    -0.005 A 
ATOM      4  C3  UNL d   1       2.254  -0.838   0.973  0.00  0.00     0.006 A 
ATOM      5  C4  UNL d   1       1.556   0.140   1.682  0.00  0.00    -0.005 A 
ATOM      6  C5  UNL d   1       0.468   0.795   1.095  0.00  0.00    -0.074 A 
ATOM      7  C6  UNL d   1      -0.287   1.855   1.839  0.00  0.00     0.077 C 
ATOM      8  C7  UNL d   1       0.095   0.459  -0.214  0.00  0.00    -0.001 A 
ENDROOT
TORSDOF 0
ENDMDL
