MODEL 1
REMARK minimizedAffinity -3.20817733
REMARK minimizedRMSD -1
REMARK  0 active torsions:
REMARK  status: ('A' for Active; 'I' for Inactive)
ROOT
ATOM      1  C   UNL d   1       0.624  -0.627  -1.225  0.00  0.00     0.077 C 
ATOM      2  C1  UNL d   1      -0.357  -0.029  -0.261  0.00  0.00    -0.074 A 
ATOM      3  C2  UNL d   1      -1.728  -0.033  -0.535  0.00  0.00    -0.005 A 
ATOM      4  C3  UNL d   1      -2.629   0.518   0.375  0.00  0.00     0.006 A 
ATOM      5  C4  UNL d   1      -2.169   1.078   1.568  0.00  0.00    -0.005 A 
ATOM      6  C5  UNL d   1      -0.801   1.091   1.860  0.00  0.00    -0.074 A 
ATOM      7  C6  UNL d   1      -0.291   1.680   3.141  0.00  0.00     0.077 C 
ATOM      8  C7  UNL d   1       0.097   0.529   0.943  0.00  0.00    -0.001 A 
ENDROOT
TORSDOF 0
ENDMDL
