MODEL 1
REMARK minimizedAffinity -3.12794304
REMARK minimizedRMSD -1
REMARK  0 active torsions:
REMARK  status: ('A' for Active; 'I' for Inactive)
ROOT
ATOM      1  C   UNL d   1       2.111   0.207   2.515  0.00  0.00     0.077 C 
ATOM      2  C1  UNL d   1       0.823   0.387   1.768  0.00  0.00    -0.074 A 
ATOM      3  C2  UNL d   1      -0.341   0.795   2.428  0.00  0.00    -0.005 A 
ATOM      4  C3  UNL d   1      -1.528   0.967   1.717  0.00  0.00     0.006 A 
ATOM      5  C4  UNL d   1      -1.565   0.734   0.342  0.00  0.00    -0.005 A 
ATOM      6  C5  UNL d   1      -0.411   0.326  -0.335  0.00  0.00    -0.074 A 
ATOM      7  C6  UNL d   1      -0.430   0.080  -1.815  0.00  0.00     0.077 C 
ATOM      8  C7  UNL d   1       0.780   0.162   0.385  0.00  0.00    -0.001 A 
ENDROOT
TORSDOF 0
ENDMDL
