MODEL 1
REMARK minimizedAffinity -4.2043066
REMARK minimizedRMSD -1
REMARK  0 active torsions:
REMARK  status: ('A' for Active; 'I' for Inactive)
ROOT
ATOM      1  C   UNL d   1       2.507  -1.554   0.824  0.00  0.00     0.077 C 
ATOM      2  C1  UNL d   1       1.146  -0.925   0.767  0.00  0.00    -0.074 A 
ATOM      3  C2  UNL d   1       0.278  -1.187  -0.297  0.00  0.00    -0.005 A 
ATOM      4  C3  UNL d   1      -0.988  -0.602  -0.331  0.00  0.00     0.006 A 
ATOM      5  C4  UNL d   1      -1.398   0.249   0.696  0.00  0.00    -0.005 A 
ATOM      6  C5  UNL d   1      -0.543   0.521   1.769  0.00  0.00    -0.074 A 
ATOM      7  C6  UNL d   1      -0.971   1.426   2.886  0.00  0.00     0.077 C 
ATOM      8  C7  UNL d   1       0.725  -0.076   1.800  0.00  0.00    -0.001 A 
ENDROOT
TORSDOF 0
ENDMDL
