MODEL 1
REMARK minimizedAffinity -5.10623503
REMARK minimizedRMSD -1
REMARK  0 active torsions:
REMARK  status: ('A' for Active; 'I' for Inactive)
ROOT
ATOM      1  C   UNL d   1      -0.545   1.877   2.774  0.00  0.00     0.077 C 
ATOM      2  C1  UNL d   1      -0.411   0.917   1.630  0.00  0.00    -0.074 A 
ATOM      3  C2  UNL d   1       0.849   0.519   1.170  0.00  0.00    -0.005 A 
ATOM      4  C3  UNL d   1       0.958  -0.382   0.111  0.00  0.00     0.006 A 
ATOM      5  C4  UNL d   1      -0.188  -0.894  -0.497  0.00  0.00    -0.005 A 
ATOM      6  C5  UNL d   1      -1.456  -0.508  -0.050  0.00  0.00    -0.074 A 
ATOM      7  C6  UNL d   1      -2.699  -1.056  -0.687  0.00  0.00     0.077 C 
ATOM      8  C7  UNL d   1      -1.558   0.393   1.019  0.00  0.00    -0.001 A 
ENDROOT
TORSDOF 0
ENDMDL
