MODEL 1
REMARK minimizedAffinity -3.93912673
REMARK minimizedRMSD -1
REMARK  0 active torsions:
REMARK  status: ('A' for Active; 'I' for Inactive)
ROOT
ATOM      1  C   UNL d   1       0.040  -0.660  -1.957  0.00  0.00     0.077 C 
ATOM      2  C1  UNL d   1       0.460  -0.342  -0.553  0.00  0.00    -0.074 A 
ATOM      3  C2  UNL d   1       1.608  -0.916   0.002  0.00  0.00    -0.005 A 
ATOM      4  C3  UNL d   1       1.991  -0.602   1.306  0.00  0.00     0.006 A 
ATOM      5  C4  UNL d   1       1.231   0.286   2.067  0.00  0.00    -0.005 A 
ATOM      6  C5  UNL d   1       0.080   0.871   1.529  0.00  0.00    -0.074 A 
ATOM      7  C6  UNL d   1      -0.743   1.835   2.330  0.00  0.00     0.077 C 
ATOM      8  C7  UNL d   1      -0.294   0.556   0.215  0.00  0.00    -0.001 A 
ENDROOT
TORSDOF 0
ENDMDL
