MODEL 1
REMARK minimizedAffinity -4.51457977
REMARK minimizedRMSD -1
REMARK  0 active torsions:
REMARK  status: ('A' for Active; 'I' for Inactive)
ROOT
ATOM      1  C   UNL d   1       0.379  -0.389  -1.155  0.00  0.00     0.077 C 
ATOM      2  C1  UNL d   1       0.650  -0.089   0.289  0.00  0.00    -0.074 A 
ATOM      3  C2  UNL d   1       1.870  -0.434   0.878  0.00  0.00    -0.005 A 
ATOM      4  C3  UNL d   1       2.112  -0.140   2.220  0.00  0.00     0.006 A 
ATOM      5  C4  UNL d   1       1.137   0.501   2.985  0.00  0.00    -0.005 A 
ATOM      6  C5  UNL d   1      -0.089   0.855   2.413  0.00  0.00    -0.074 A 
ATOM      7  C6  UNL d   1      -1.144   1.554   3.218  0.00  0.00     0.077 C 
ATOM      8  C7  UNL d   1      -0.321   0.562   1.062  0.00  0.00    -0.001 A 
ENDROOT
TORSDOF 0
ENDMDL
