MODEL 1
REMARK minimizedAffinity -4.96881533
REMARK minimizedRMSD -1
REMARK  0 active torsions:
REMARK  status: ('A' for Active; 'I' for Inactive)
ROOT
ATOM      1  C   UNL d   1      -2.954  -1.960   0.412  0.00  0.00     0.020 A 
ATOM      2  C1  UNL d   1      -2.162  -2.468   1.441  0.00  0.00     0.020 A 
ATOM      3  C2  UNL d   1      -0.834  -2.057   1.568  0.00  0.00     0.034 A 
ATOM      4  C3  UNL d   1      -0.293  -1.134   0.665  0.00  0.00     0.017 A 
ATOM      5  C4  UNL d   1      -1.089  -0.625  -0.368  0.00  0.00     0.017 A 
ATOM      6  C5  UNL d   1      -2.418  -1.040  -0.491  0.00  0.00     0.034 A 
ATOM      7 Cl   UNL d   1      -0.492   0.516  -1.521  0.00  0.00    -0.070 Cl
ATOM      8 Cl1  UNL d   1       1.357  -0.670   0.882  0.00  0.00    -0.070 Cl
ENDROOT
TORSDOF 0
ENDMDL
