MODEL 1
REMARK minimizedAffinity -5.79189539
REMARK minimizedRMSD -1
REMARK  0 active torsions:
REMARK  status: ('A' for Active; 'I' for Inactive)
ROOT
ATOM      1  C   UNL d   1      -0.746   0.589  -1.740  0.00  0.00     0.020 A 
ATOM      2  C1  UNL d   1      -1.981  -0.026  -1.542  0.00  0.00     0.020 A 
ATOM      3  C2  UNL d   1      -2.109  -1.048  -0.598  0.00  0.00     0.034 A 
ATOM      4  C3  UNL d   1      -1.000  -1.457   0.150  0.00  0.00     0.017 A 
ATOM      5  C4  UNL d   1       0.240  -0.839  -0.050  0.00  0.00     0.017 A 
ATOM      6  C5  UNL d   1       0.362   0.183  -0.996  0.00  0.00     0.034 A 
ATOM      7 Cl   UNL d   1       1.654  -1.290   0.836  0.00  0.00    -0.070 Cl
ATOM      8 Cl1  UNL d   1      -1.230  -2.726   1.300  0.00  0.00    -0.070 Cl
ENDROOT
TORSDOF 0
ENDMDL
