MODEL 1
REMARK minimizedAffinity -3.67596078
REMARK minimizedRMSD -1
REMARK  0 active torsions:
REMARK  status: ('A' for Active; 'I' for Inactive)
ROOT
ATOM      1  C   UNL d   1      -2.415  -1.049   0.875  0.00  0.00     0.020 A 
ATOM      2  C1  UNL d   1      -2.791  -1.276  -0.448  0.00  0.00     0.020 A 
ATOM      3  C2  UNL d   1      -2.002  -0.787  -1.492  0.00  0.00     0.034 A 
ATOM      4  C3  UNL d   1      -0.833  -0.070  -1.214  0.00  0.00     0.017 A 
ATOM      5  C4  UNL d   1      -0.456   0.157   0.114  0.00  0.00     0.017 A 
ATOM      6  C5  UNL d   1      -1.250  -0.334   1.156  0.00  0.00     0.034 A 
ATOM      7 Cl   UNL d   1       0.973   1.033   0.536  0.00  0.00    -0.070 Cl
ATOM      8 Cl1  UNL d   1       0.095   0.504  -2.554  0.00  0.00    -0.070 Cl
ENDROOT
TORSDOF 0
ENDMDL
