MODEL 1
REMARK minimizedAffinity -5.18920279
REMARK minimizedRMSD -1
REMARK  0 active torsions:
REMARK  status: ('A' for Active; 'I' for Inactive)
ROOT
ATOM      1  C   UNL d   1       0.234   0.555  -1.282  0.00  0.00     0.020 A 
ATOM      2  C1  UNL d   1       1.161   0.071  -0.360  0.00  0.00     0.020 A 
ATOM      3  C2  UNL d   1       0.729  -0.673   0.740  0.00  0.00     0.034 A 
ATOM      4  C3  UNL d   1      -0.634  -0.935   0.920  0.00  0.00     0.017 A 
ATOM      5  C4  UNL d   1      -1.564  -0.448  -0.006  0.00  0.00     0.017 A 
ATOM      6  C5  UNL d   1      -1.126   0.296  -1.105  0.00  0.00     0.034 A 
ATOM      7 Cl   UNL d   1      -3.262  -0.731   0.150  0.00  0.00    -0.070 Cl
ATOM      8 Cl1  UNL d   1      -1.098  -1.862   2.303  0.00  0.00    -0.070 Cl
ENDROOT
TORSDOF 0
ENDMDL
