MODEL 1
REMARK minimizedAffinity -2.77262092
REMARK minimizedRMSD -1
REMARK  0 active torsions:
REMARK  status: ('A' for Active; 'I' for Inactive)
ROOT
ATOM      1  C   UNL d   1      -2.891  -0.037   0.840  0.00  0.00     0.020 A 
ATOM      2  C1  UNL d   1      -3.057  -0.404  -0.495  0.00  0.00     0.020 A 
ATOM      3  C2  UNL d   1      -1.957  -0.423  -1.356  0.00  0.00     0.034 A 
ATOM      4  C3  UNL d   1      -0.687  -0.073  -0.883  0.00  0.00     0.017 A 
ATOM      5  C4  UNL d   1      -0.522   0.295   0.457  0.00  0.00     0.017 A 
ATOM      6  C5  UNL d   1      -1.626   0.312   1.315  0.00  0.00     0.034 A 
ATOM      7 Cl   UNL d   1       1.015   0.739   1.113  0.00  0.00    -0.070 Cl
ATOM      8 Cl1  UNL d   1       0.628  -0.118  -2.003  0.00  0.00    -0.070 Cl
ENDROOT
TORSDOF 0
ENDMDL
