MODEL 1
REMARK minimizedAffinity -3.11955476
REMARK minimizedRMSD -1
REMARK  0 active torsions:
REMARK  status: ('A' for Active; 'I' for Inactive)
ROOT
ATOM      1  C   UNL d   1      -2.585  -0.555   1.082  0.00  0.00     0.020 A 
ATOM      2  C1  UNL d   1      -2.923  -0.985  -0.200  0.00  0.00     0.020 A 
ATOM      3  C2  UNL d   1      -2.040  -0.777  -1.262  0.00  0.00     0.034 A 
ATOM      4  C3  UNL d   1      -0.814  -0.138  -1.043  0.00  0.00     0.017 A 
ATOM      5  C4  UNL d   1      -0.475   0.293   0.245  0.00  0.00     0.017 A 
ATOM      6  C5  UNL d   1      -1.364   0.082   1.304  0.00  0.00     0.034 A 
ATOM      7 Cl   UNL d   1       1.019   1.088   0.594  0.00  0.00    -0.070 Cl
ATOM      8 Cl1  UNL d   1       0.230   0.085  -2.401  0.00  0.00    -0.070 Cl
ENDROOT
TORSDOF 0
ENDMDL
