MODEL 1
REMARK minimizedAffinity -4.16219997
REMARK minimizedRMSD -1
REMARK  0 active torsions:
REMARK  status: ('A' for Active; 'I' for Inactive)
ROOT
ATOM      1  C   UNL d   1       0.544   0.203  -1.473  0.00  0.00     0.020 A 
ATOM      2  C1  UNL d   1       1.465  -0.214  -0.513  0.00  0.00     0.020 A 
ATOM      3  C2  UNL d   1       1.020  -0.806   0.671  0.00  0.00     0.034 A 
ATOM      4  C3  UNL d   1      -0.350  -0.982   0.898  0.00  0.00     0.017 A 
ATOM      5  C4  UNL d   1      -1.274  -0.563  -0.066  0.00  0.00     0.017 A 
ATOM      6  C5  UNL d   1      -0.822   0.029  -1.250  0.00  0.00     0.034 A 
ATOM      7 Cl   UNL d   1      -2.979  -0.747   0.143  0.00  0.00    -0.070 Cl
ATOM      8 Cl1  UNL d   1      -0.829  -1.720   2.385  0.00  0.00    -0.070 Cl
ENDROOT
TORSDOF 0
ENDMDL
