MODEL 1
REMARK minimizedAffinity -5.5328927
REMARK minimizedRMSD -1
REMARK  0 active torsions:
REMARK  status: ('A' for Active; 'I' for Inactive)
ROOT
ATOM      1  C   UNL d   1      -2.665  -0.074  -0.482  0.00  0.00     0.020 A 
ATOM      2  C1  UNL d   1      -1.659   0.223  -1.401  0.00  0.00     0.020 A 
ATOM      3  C2  UNL d   1      -0.326  -0.050  -1.088  0.00  0.00     0.034 A 
ATOM      4  C3  UNL d   1       0.005  -0.621   0.146  0.00  0.00     0.017 A 
ATOM      5  C4  UNL d   1      -1.005  -0.918   1.068  0.00  0.00     0.017 A 
ATOM      6  C5  UNL d   1      -2.339  -0.643   0.750  0.00  0.00     0.034 A 
ATOM      7 Cl   UNL d   1      -0.675  -1.622   2.611  0.00  0.00    -0.070 Cl
ATOM      8 Cl1  UNL d   1       1.675  -0.931   0.466  0.00  0.00    -0.070 Cl
ENDROOT
TORSDOF 0
ENDMDL
