MODEL 1
REMARK minimizedAffinity -2.05658269
REMARK minimizedRMSD -1
REMARK  0 active torsions:
REMARK  status: ('A' for Active; 'I' for Inactive)
ROOT
ATOM      1  C   UNL d   1       0.664  -0.921   0.936  0.00  0.00     0.020 A 
ATOM      2  C1  UNL d   1       0.216   0.000  -0.010  0.00  0.00     0.020 A 
ATOM      3  C2  UNL d   1       0.787   1.274  -0.069  0.00  0.00     0.034 A 
ATOM      4  C3  UNL d   1       1.808   1.630   0.820  0.00  0.00     0.017 A 
ATOM      5  C4  UNL d   1       2.256   0.704   1.770  0.00  0.00     0.017 A 
ATOM      6  C5  UNL d   1       1.682  -0.569   1.824  0.00  0.00     0.034 A 
ATOM      7 Cl   UNL d   1       3.512   1.071   2.900  0.00  0.00    -0.070 Cl
ATOM      8 Cl1  UNL d   1       2.467   3.221   0.690  0.00  0.00    -0.070 Cl
ENDROOT
TORSDOF 0
ENDMDL
