MODEL 1
REMARK minimizedAffinity -4.19165564
REMARK minimizedRMSD -1
REMARK  0 active torsions:
REMARK  status: ('A' for Active; 'I' for Inactive)
ROOT
ATOM      1  C   UNL d   1      -2.191  -1.921   1.076  0.00  0.00     0.020 A 
ATOM      2  C1  UNL d   1      -2.855  -1.724  -0.134  0.00  0.00     0.020 A 
ATOM      3  C2  UNL d   1      -2.290  -0.905  -1.114  0.00  0.00     0.034 A 
ATOM      4  C3  UNL d   1      -1.058  -0.280  -0.886  0.00  0.00     0.017 A 
ATOM      5  C4  UNL d   1      -0.394  -0.479   0.330  0.00  0.00     0.017 A 
ATOM      6  C5  UNL d   1      -0.964  -1.300   1.308  0.00  0.00     0.034 A 
ATOM      7 Cl   UNL d   1       1.129   0.258   0.685  0.00  0.00    -0.070 Cl
ATOM      8 Cl1  UNL d   1      -0.419   0.719  -2.142  0.00  0.00    -0.070 Cl
ENDROOT
TORSDOF 0
ENDMDL
