MODEL 1
REMARK minimizedAffinity -5.50402832
REMARK minimizedRMSD -1
REMARK  0 active torsions:
REMARK  status: ('A' for Active; 'I' for Inactive)
ROOT
ATOM      1  C   UNL d   1      -0.615   0.691  -1.784  0.00  0.00     0.020 A 
ATOM      2  C1  UNL d   1       0.484   0.341  -1.001  0.00  0.00     0.020 A 
ATOM      3  C2  UNL d   1       0.304  -0.426   0.152  0.00  0.00     0.034 A 
ATOM      4  C3  UNL d   1      -0.978  -0.846   0.525  0.00  0.00     0.017 A 
ATOM      5  C4  UNL d   1      -2.081  -0.495  -0.262  0.00  0.00     0.017 A 
ATOM      6  C5  UNL d   1      -1.895   0.274  -1.416  0.00  0.00     0.034 A 
ATOM      7 Cl   UNL d   1      -3.693  -0.976   0.133  0.00  0.00    -0.070 Cl
ATOM      8 Cl1  UNL d   1      -1.127  -1.793   1.962  0.00  0.00    -0.070 Cl
ENDROOT
TORSDOF 0
ENDMDL
