MODEL 1
REMARK minimizedAffinity -2.99568415
REMARK minimizedRMSD -1
REMARK  0 active torsions:
REMARK  status: ('A' for Active; 'I' for Inactive)
ROOT
ATOM      1  C   UNL d   1       0.787   0.303  -0.736  0.00  0.00     0.020 A 
ATOM      2  C1  UNL d   1       1.406  -0.381   0.310  0.00  0.00     0.020 A 
ATOM      3  C2  UNL d   1       0.739  -1.425   0.953  0.00  0.00     0.034 A 
ATOM      4  C3  UNL d   1      -0.551  -1.789   0.551  0.00  0.00     0.017 A 
ATOM      5  C4  UNL d   1      -1.172  -1.102  -0.498  0.00  0.00     0.017 A 
ATOM      6  C5  UNL d   1      -0.499  -0.057  -1.139  0.00  0.00     0.034 A 
ATOM      7 Cl   UNL d   1      -2.762  -1.494  -1.050  0.00  0.00    -0.070 Cl
ATOM      8 Cl1  UNL d   1      -1.317  -3.091   1.390  0.00  0.00    -0.070 Cl
ENDROOT
TORSDOF 0
ENDMDL
