MODEL 1
REMARK minimizedAffinity -4.73705387
REMARK minimizedRMSD -1
REMARK  0 active torsions:
REMARK  status: ('A' for Active; 'I' for Inactive)
ROOT
ATOM      1  C   UNL d   1      -3.212  -0.761  -0.095  0.00  0.00     0.020 A 
ATOM      2  C1  UNL d   1      -3.376  -1.932   0.644  0.00  0.00     0.020 A 
ATOM      3  C2  UNL d   1      -2.316  -2.432   1.403  0.00  0.00     0.034 A 
ATOM      4  C3  UNL d   1      -1.087  -1.762   1.425  0.00  0.00     0.017 A 
ATOM      5  C4  UNL d   1      -0.924  -0.586   0.683  0.00  0.00     0.017 A 
ATOM      6  C5  UNL d   1      -1.989  -0.089  -0.075  0.00  0.00     0.034 A 
ATOM      7 Cl   UNL d   1       0.561   0.297   0.660  0.00  0.00    -0.070 Cl
ATOM      8 Cl1  UNL d   1       0.180  -2.437   2.385  0.00  0.00    -0.070 Cl
ENDROOT
TORSDOF 0
ENDMDL
