MODEL 1
REMARK minimizedAffinity -3.36874866
REMARK minimizedRMSD -1
REMARK  0 active torsions:
REMARK  status: ('A' for Active; 'I' for Inactive)
ROOT
ATOM      1  C   UNL d   1       4.380   3.268  -2.810  0.00  0.00     0.020 A 
ATOM      2  C1  UNL d   1       4.521   4.512  -2.195  0.00  0.00     0.020 A 
ATOM      3  C2  UNL d   1       3.903   4.758  -0.967  0.00  0.00     0.034 A 
ATOM      4  C3  UNL d   1       3.141   3.759  -0.350  0.00  0.00     0.017 A 
ATOM      5  C4  UNL d   1       3.000   2.511  -0.968  0.00  0.00     0.017 A 
ATOM      6  C5  UNL d   1       3.622   2.270  -2.197  0.00  0.00     0.034 A 
ATOM      7 Cl   UNL d   1       2.077   1.229  -0.267  0.00  0.00    -0.070 Cl
ATOM      8 Cl1  UNL d   1       2.405   4.132   1.168  0.00  0.00    -0.070 Cl
ENDROOT
TORSDOF 0
ENDMDL
