MODEL 1
REMARK minimizedAffinity -5.0006752
REMARK minimizedRMSD -1
REMARK  0 active torsions:
REMARK  status: ('A' for Active; 'I' for Inactive)
ROOT
ATOM      1  C   UNL d   1      -2.341  -0.589  -1.132  0.00  0.00     0.020 A 
ATOM      2  C1  UNL d   1      -2.741  -1.687  -0.372  0.00  0.00     0.020 A 
ATOM      3  C2  UNL d   1      -1.875  -2.232   0.578  0.00  0.00     0.034 A 
ATOM      4  C3  UNL d   1      -0.604  -1.678   0.771  0.00  0.00     0.017 A 
ATOM      5  C4  UNL d   1      -0.204  -0.575   0.008  0.00  0.00     0.017 A 
ATOM      6  C5  UNL d   1      -1.075  -0.034  -0.942  0.00  0.00     0.034 A 
ATOM      7 Cl   UNL d   1       1.349   0.163   0.190  0.00  0.00    -0.070 Cl
ATOM      8 Cl1  UNL d   1       0.415  -2.402   1.964  0.00  0.00    -0.070 Cl
ENDROOT
TORSDOF 0
ENDMDL
