MODEL 1
REMARK minimizedAffinity -2.72743821
REMARK minimizedRMSD -1
REMARK  0 active torsions:
REMARK  status: ('A' for Active; 'I' for Inactive)
ROOT
ATOM      1  C   UNL d   1       4.097   4.282  -1.898  0.00  0.00     0.020 A 
ATOM      2  C1  UNL d   1       3.861   3.062  -2.532  0.00  0.00     0.020 A 
ATOM      3  C2  UNL d   1       3.077   2.091  -1.906  0.00  0.00     0.034 A 
ATOM      4  C3  UNL d   1       2.526   2.337  -0.643  0.00  0.00     0.017 A 
ATOM      5  C4  UNL d   1       2.764   3.561  -0.008  0.00  0.00     0.017 A 
ATOM      6  C5  UNL d   1       3.550   4.530  -0.639  0.00  0.00     0.034 A 
ATOM      7 Cl   UNL d   1       2.118   3.937   1.551  0.00  0.00    -0.070 Cl
ATOM      8 Cl1  UNL d   1       1.566   1.090   0.071  0.00  0.00    -0.070 Cl
ENDROOT
TORSDOF 0
ENDMDL
