MODEL 1
REMARK minimizedAffinity -1.69826126
REMARK minimizedRMSD -1
REMARK  0 active torsions:
REMARK  status: ('A' for Active; 'I' for Inactive)
ROOT
ATOM      1  C   UNL d   1       1.909   3.057   1.118  0.00  0.00     0.020 A 
ATOM      2  C1  UNL d   1       2.197   1.745   0.742  0.00  0.00     0.020 A 
ATOM      3  C2  UNL d   1       3.146   1.496  -0.252  0.00  0.00     0.034 A 
ATOM      4  C3  UNL d   1       3.810   2.560  -0.873  0.00  0.00     0.017 A 
ATOM      5  C4  UNL d   1       3.520   3.876  -0.495  0.00  0.00     0.017 A 
ATOM      6  C5  UNL d   1       2.569   4.120   0.501  0.00  0.00     0.034 A 
ATOM      7 Cl   UNL d   1       4.298   5.240  -1.216  0.00  0.00    -0.070 Cl
ATOM      8 Cl1  UNL d   1       4.972   2.179  -2.094  0.00  0.00    -0.070 Cl
ENDROOT
TORSDOF 0
ENDMDL
