MODEL 1
REMARK minimizedAffinity -4.05280924
REMARK minimizedRMSD -1
REMARK  0 active torsions:
REMARK  status: ('A' for Active; 'I' for Inactive)
ROOT
ATOM      1  C   UNL d   1      -1.928  -0.752  -1.755  0.00  0.00     0.020 A 
ATOM      2  C1  UNL d   1      -0.776  -0.003  -1.992  0.00  0.00     0.020 A 
ATOM      3  C2  UNL d   1       0.364  -0.210  -1.212  0.00  0.00     0.034 A 
ATOM      4  C3  UNL d   1       0.355  -1.167  -0.192  0.00  0.00     0.017 A 
ATOM      5  C4  UNL d   1      -0.802  -1.918   0.046  0.00  0.00     0.017 A 
ATOM      6  C5  UNL d   1      -1.941  -1.707  -0.738  0.00  0.00     0.034 A 
ATOM      7 Cl   UNL d   1      -0.890  -3.118   1.287  0.00  0.00    -0.070 Cl
ATOM      8 Cl1  UNL d   1       1.800  -1.370   0.733  0.00  0.00    -0.070 Cl
ENDROOT
TORSDOF 0
ENDMDL
