MODEL 1
REMARK minimizedAffinity -3.2565906
REMARK minimizedRMSD -1
REMARK  0 active torsions:
REMARK  status: ('A' for Active; 'I' for Inactive)
ROOT
ATOM      1  C   UNL d   1      -2.340  -1.274  -0.888  0.00  0.00     0.020 A 
ATOM      2  C1  UNL d   1      -2.174  -0.027  -1.489  0.00  0.00     0.020 A 
ATOM      3  C2  UNL d   1      -1.002   0.701  -1.276  0.00  0.00     0.034 A 
ATOM      4  C3  UNL d   1       0.010   0.182  -0.460  0.00  0.00     0.017 A 
ATOM      5  C4  UNL d   1      -0.157  -1.070   0.143  0.00  0.00     0.017 A 
ATOM      6  C5  UNL d   1      -1.333  -1.795  -0.074  0.00  0.00     0.034 A 
ATOM      7 Cl   UNL d   1       1.047  -1.776   1.162  0.00  0.00    -0.070 Cl
ATOM      8 Cl1  UNL d   1       1.434   1.136  -0.240  0.00  0.00    -0.070 Cl
ENDROOT
TORSDOF 0
ENDMDL
