MODEL 1
REMARK minimizedAffinity -1.11243272
REMARK minimizedRMSD -1
REMARK  0 active torsions:
REMARK  status: ('A' for Active; 'I' for Inactive)
ROOT
ATOM      1  C1  BNZ d   1      -0.012   0.179  -0.323  0.00  0.00     0.000 A 
ATOM      2  C2  BNZ d   1       0.355   0.504   0.956  0.00  0.00     0.000 A 
ATOM      3  C3  BNZ d   1       1.559   0.102   1.463  0.00  0.00     0.000 A 
ATOM      4  C4  BNZ d   1       2.376  -0.658   0.706  0.00  0.00     0.000 A 
ATOM      5  C5  BNZ d   1       2.017  -1.002  -0.582  0.00  0.00     0.000 A 
ATOM      6  C6  BNZ d   1       0.821  -0.563  -1.102  0.00  0.00     0.000 A 
ENDROOT
TORSDOF 0
ENDMDL
