MODEL 1
REMARK minimizedAffinity -3.47490668
REMARK minimizedRMSD -1
REMARK  0 active torsions:
REMARK  status: ('A' for Active; 'I' for Inactive)
ROOT
ATOM      1  C1  BNZ d   1      -0.686   0.106  -0.088  0.00  0.00     0.000 A 
ATOM      2  C2  BNZ d   1       0.663  -0.118  -0.007  0.00  0.00     0.000 A 
ATOM      3  C3  BNZ d   1       1.246  -0.459   1.181  0.00  0.00     0.000 A 
ATOM      4  C4  BNZ d   1       0.487  -0.536   2.294  0.00  0.00     0.000 A 
ATOM      5  C5  BNZ d   1      -0.872  -0.305   2.230  0.00  0.00     0.000 A 
ATOM      6  C6  BNZ d   1      -1.462   0.000   1.025  0.00  0.00     0.000 A 
ENDROOT
TORSDOF 0
ENDMDL
