MODEL 1
REMARK minimizedAffinity 0.237653807
REMARK minimizedRMSD -1
REMARK  0 active torsions:
REMARK  status: ('A' for Active; 'I' for Inactive)
ROOT
ATOM      1  C1  BNZ d   1      -4.025   0.635  -3.420  0.00  0.00     0.000 A 
ATOM      2  C2  BNZ d   1      -4.854  -0.113  -4.213  0.00  0.00     0.000 A 
ATOM      3  C3  BNZ d   1      -4.795  -1.478  -4.194  0.00  0.00     0.000 A 
ATOM      4  C4  BNZ d   1      -3.884  -2.092  -3.413  0.00  0.00     0.000 A 
ATOM      5  C5  BNZ d   1      -3.035  -1.352  -2.614  0.00  0.00     0.000 A 
ATOM      6  C6  BNZ d   1      -3.123   0.021  -2.607  0.00  0.00     0.000 A 
ENDROOT
TORSDOF 0
ENDMDL
