MODEL 1
REMARK minimizedAffinity -2.00809622
REMARK minimizedRMSD -1
REMARK  0 active torsions:
REMARK  status: ('A' for Active; 'I' for Inactive)
ROOT
ATOM      1  C1  BNZ d   1       1.157  -0.345   1.198  0.00  0.00     0.000 A 
ATOM      2  C2  BNZ d   1       0.498   0.145   0.102  0.00  0.00     0.000 A 
ATOM      3  C3  BNZ d   1      -0.834   0.446   0.163  0.00  0.00     0.000 A 
ATOM      4  C4  BNZ d   1      -1.513   0.220   1.306  0.00  0.00     0.000 A 
ATOM      5  C5  BNZ d   1      -0.865  -0.282   2.417  0.00  0.00     0.000 A 
ATOM      6  C6  BNZ d   1       0.484  -0.547   2.364  0.00  0.00     0.000 A 
ENDROOT
TORSDOF 0
ENDMDL
