MODEL 1
REMARK minimizedAffinity -4.404181
REMARK minimizedRMSD -1
REMARK  0 active torsions:
REMARK  status: ('A' for Active; 'I' for Inactive)
ROOT
ATOM      1  C1  BNZ d   1      -0.953   0.120   0.986  0.00  0.00     0.000 A 
ATOM      2  C2  BNZ d   1       0.088  -0.260   1.790  0.00  0.00     0.000 A 
ATOM      3  C3  BNZ d   1       1.302  -0.589   1.256  0.00  0.00     0.000 A 
ATOM      4  C4  BNZ d   1       1.462  -0.575  -0.083  0.00  0.00     0.000 A 
ATOM      5  C5  BNZ d   1       0.420  -0.203  -0.909  0.00  0.00     0.000 A 
ATOM      6  C6  BNZ d   1      -0.789   0.164  -0.365  0.00  0.00     0.000 A 
ENDROOT
TORSDOF 0
ENDMDL
