MODEL 1
REMARK minimizedAffinity -1.64889717
REMARK minimizedRMSD -1
REMARK  0 active torsions:
REMARK  status: ('A' for Active; 'I' for Inactive)
ROOT
ATOM      1  C1  BNZ d   1       1.401  -0.446   1.078  0.00  0.00     0.000 A 
ATOM      2  C2  BNZ d   1       0.645   0.013   0.032  0.00  0.00     0.000 A 
ATOM      3  C3  BNZ d   1      -0.719   0.030   0.109  0.00  0.00     0.000 A 
ATOM      4  C4  BNZ d   1      -1.327  -0.450   1.214  0.00  0.00     0.000 A 
ATOM      5  C5  BNZ d   1      -0.579  -0.925   2.273  0.00  0.00     0.000 A 
ATOM      6  C6  BNZ d   1       0.795  -0.904   2.207  0.00  0.00     0.000 A 
ENDROOT
TORSDOF 0
ENDMDL
