MODEL 1
REMARK minimizedAffinity -3.4299109
REMARK minimizedRMSD -1
REMARK  0 active torsions:
REMARK  status: ('A' for Active; 'I' for Inactive)
ROOT
ATOM      1  C1  BNZ d   1      -0.381  -0.268   2.683  0.00  0.00     0.000 A 
ATOM      2  C2  BNZ d   1      -1.106   0.173   1.608  0.00  0.00     0.000 A 
ATOM      3  C3  BNZ d   1      -0.539   0.253   0.367  0.00  0.00     0.000 A 
ATOM      4  C4  BNZ d   1       0.762  -0.068   0.210  0.00  0.00     0.000 A 
ATOM      5  C5  BNZ d   1       1.508  -0.505   1.286  0.00  0.00     0.000 A 
ATOM      6  C6  BNZ d   1       0.924  -0.622   2.526  0.00  0.00     0.000 A 
ENDROOT
TORSDOF 0
ENDMDL
