MODEL 1
REMARK minimizedAffinity 4.73380232
REMARK minimizedRMSD -1
REMARK  0 active torsions:
REMARK  status: ('A' for Active; 'I' for Inactive)
ROOT
ATOM      1  C   UNL d   1       2.844  -0.766  -0.707  0.00  0.00    -0.002 A 
ATOM      2  C1  UNL d   1       4.160  -1.148  -0.928  0.00  0.00     0.010 A 
ATOM      3  C2  UNL d   1       4.627  -2.382  -0.471  0.00  0.00     0.041 A 
ATOM      4  C3  UNL d   1       3.740  -3.235   0.216  0.00  0.00    -0.075 A 
ATOM      5  S   UNL d   1       4.090  -4.793   0.865  0.00  0.00     0.015 SA
ATOM      6  C4  UNL d   1       2.501  -4.989   1.449  0.00  0.00     0.022 A 
ATOM      7  C5  UNL d   1       1.710  -3.901   1.165  0.00  0.00     0.026 A 
ATOM      8  C6  UNL d   1       2.411  -2.873   0.449  0.00  0.00    -0.082 A 
ATOM      9  C7  UNL d   1       1.968  -1.614  -0.026  0.00  0.00     0.045 A 
ENDROOT
TORSDOF 0
ENDMDL
