MODEL 1
REMARK minimizedAffinity 8.0473547
REMARK minimizedRMSD -1
REMARK  0 active torsions:
REMARK  status: ('A' for Active; 'I' for Inactive)
ROOT
ATOM      1  C   UNL d   1       3.781  -4.926   0.600  0.00  0.00    -0.002 A 
ATOM      2  C1  UNL d   1       2.645  -5.003   1.393  0.00  0.00     0.010 A 
ATOM      3  C2  UNL d   1       1.702  -3.973   1.386  0.00  0.00     0.041 A 
ATOM      4  C3  UNL d   1       1.921  -2.855   0.557  0.00  0.00    -0.075 A 
ATOM      5  S   UNL d   1       0.903  -1.474   0.384  0.00  0.00     0.015 SA
ATOM      6  C4  UNL d   1       1.951  -0.750  -0.748  0.00  0.00     0.022 A 
ATOM      7  C5  UNL d   1       3.056  -1.529  -0.999  0.00  0.00     0.026 A 
ATOM      8  C6  UNL d   1       3.057  -2.755  -0.251  0.00  0.00    -0.082 A 
ATOM      9  C7  UNL d   1       3.995  -3.815  -0.221  0.00  0.00     0.045 A 
ENDROOT
TORSDOF 0
ENDMDL
