MODEL 1
REMARK minimizedAffinity 4.9446454
REMARK minimizedRMSD -1
REMARK  0 active torsions:
REMARK  status: ('A' for Active; 'I' for Inactive)
ROOT
ATOM      1  C   UNL d   1       1.466  -4.857   2.263  0.00  0.00    -0.002 A 
ATOM      2  C1  UNL d   1       0.417  -4.378   3.036  0.00  0.00     0.010 A 
ATOM      3  C2  UNL d   1      -0.093  -3.095   2.824  0.00  0.00     0.041 A 
ATOM      4  C3  UNL d   1       0.473  -2.295   1.811  0.00  0.00    -0.075 A 
ATOM      5  S   UNL d   1       0.010  -0.694   1.372  0.00  0.00     0.015 SA
ATOM      6  C4  UNL d   1       1.193  -0.608   0.148  0.00  0.00     0.022 A 
ATOM      7  C5  UNL d   1       1.933  -1.764   0.063  0.00  0.00     0.026 A 
ATOM      8  C6  UNL d   1       1.529  -2.756   1.020  0.00  0.00    -0.082 A 
ATOM      9  C7  UNL d   1       2.025  -4.060   1.260  0.00  0.00     0.045 A 
ENDROOT
TORSDOF 0
ENDMDL
