MODEL 1
REMARK minimizedAffinity -4.1084981
REMARK minimizedRMSD -1
REMARK  0 active torsions:
REMARK  status: ('A' for Active; 'I' for Inactive)
ROOT
ATOM      1  C   UNL d   1      -0.865  -0.308   1.808  0.00  0.00    -0.002 A 
ATOM      2  C1  UNL d   1      -0.813  -0.300   0.422  0.00  0.00     0.010 A 
ATOM      3  C2  UNL d   1       0.159  -1.038  -0.257  0.00  0.00     0.041 A 
ATOM      4  C3  UNL d   1       1.085  -1.794   0.489  0.00  0.00    -0.075 A 
ATOM      5  S   UNL d   1       2.361  -2.775  -0.127  0.00  0.00     0.015 SA
ATOM      6  C4  UNL d   1       2.866  -3.230   1.436  0.00  0.00     0.022 A 
ATOM      7  C5  UNL d   1       2.091  -2.656   2.416  0.00  0.00     0.026 A 
ATOM      8  C6  UNL d   1       1.051  -1.819   1.886  0.00  0.00    -0.082 A 
ATOM      9  C7  UNL d   1       0.055  -1.059   2.545  0.00  0.00     0.045 A 
ENDROOT
TORSDOF 0
ENDMDL
