MODEL 1
REMARK minimizedAffinity 11.253046
REMARK minimizedRMSD -1
REMARK  0 active torsions:
REMARK  status: ('A' for Active; 'I' for Inactive)
ROOT
ATOM      1  C   UNL d   1      -5.673   0.164   1.641  0.00  0.00    -0.002 A 
ATOM      2  C1  UNL d   1      -5.105   0.957   2.629  0.00  0.00     0.010 A 
ATOM      3  C2  UNL d   1      -3.721   1.121   2.699  0.00  0.00     0.041 A 
ATOM      4  C3  UNL d   1      -2.908   0.471   1.750  0.00  0.00    -0.075 A 
ATOM      5  S   UNL d   1      -1.188   0.529   1.640  0.00  0.00     0.015 SA
ATOM      6  C4  UNL d   1      -1.166  -0.497   0.279  0.00  0.00     0.022 A 
ATOM      7  C5  UNL d   1      -2.431  -0.883  -0.096  0.00  0.00     0.026 A 
ATOM      8  C6  UNL d   1      -3.456  -0.331   0.745  0.00  0.00    -0.082 A 
ATOM      9  C7  UNL d   1      -4.863  -0.479   0.701  0.00  0.00     0.045 A 
ENDROOT
TORSDOF 0
ENDMDL
