MODEL 1
REMARK minimizedAffinity -1.98595524
REMARK minimizedRMSD -1
REMARK  0 active torsions:
REMARK  status: ('A' for Active; 'I' for Inactive)
ROOT
ATOM      1  C2' OXE d   1      -1.500   0.710   2.535  0.00  0.00     0.078 C 
ATOM      2  C1' OXE d   1       0.237   2.876   2.948  0.00  0.00     0.078 C 
ATOM      3  C1  OXE d   1       0.749   1.707   2.143  0.00  0.00    -0.078 A 
ATOM      4  C2  OXE d   1      -0.091   0.632   1.986  0.00  0.00    -0.078 A 
ATOM      5  C3  OXE d   1       0.311  -0.449   1.206  0.00  0.00     0.003 A 
ATOM      6  C4  OXE d   1       1.618  -0.518   0.710  0.00  0.00    -0.002 A 
ATOM      7  C5  OXE d   1       2.504   0.550   0.893  0.00  0.00    -0.002 A 
ATOM      8  C6  OXE d   1       2.072   1.685   1.569  0.00  0.00     0.003 A 
ENDROOT
TORSDOF 0
ENDMDL
