MODEL 1
REMARK minimizedAffinity -3.51623869
REMARK minimizedRMSD -1
REMARK  0 active torsions:
REMARK  status: ('A' for Active; 'I' for Inactive)
ROOT
ATOM      1  C2' OXE d   1       2.815   2.125  -2.266  0.00  0.00     0.078 C 
ATOM      2  C1' OXE d   1       0.899   0.861  -3.882  0.00  0.00     0.078 C 
ATOM      3  C1  OXE d   1       0.982   0.447  -2.434  0.00  0.00    -0.078 A 
ATOM      4  C2  OXE d   1       1.954   1.037  -1.662  0.00  0.00    -0.078 A 
ATOM      5  C3  OXE d   1       2.038   0.731  -0.307  0.00  0.00     0.003 A 
ATOM      6  C4  OXE d   1       1.245  -0.284   0.241  0.00  0.00    -0.002 A 
ATOM      7  C5  OXE d   1       0.276  -0.926  -0.537  0.00  0.00    -0.002 A 
ATOM      8  C6  OXE d   1       0.103  -0.544  -1.863  0.00  0.00     0.003 A 
ENDROOT
TORSDOF 0
ENDMDL
