MODEL 1
REMARK minimizedAffinity 6.2793684
REMARK minimizedRMSD -1
REMARK  0 active torsions:
REMARK  status: ('A' for Active; 'I' for Inactive)
ROOT
ATOM      1  C2' OXE d   1       1.591  -0.892   0.979  0.00  0.00     0.078 C 
ATOM      2  C1' OXE d   1       1.448   1.452  -0.559  0.00  0.00     0.078 C 
ATOM      3  C1  OXE d   1       0.171   0.683  -0.329  0.00  0.00    -0.078 A 
ATOM      4  C2  OXE d   1       0.258  -0.488   0.386  0.00  0.00    -0.078 A 
ATOM      5  C3  OXE d   1      -0.898  -1.208   0.673  0.00  0.00     0.003 A 
ATOM      6  C4  OXE d   1      -2.124  -0.833   0.112  0.00  0.00    -0.002 A 
ATOM      7  C5  OXE d   1      -2.228   0.335  -0.652  0.00  0.00    -0.002 A 
ATOM      8  C6  OXE d   1      -1.101   1.125  -0.846  0.00  0.00     0.003 A 
ENDROOT
TORSDOF 0
ENDMDL
