MODEL 1
REMARK minimizedAffinity 4.65861702
REMARK minimizedRMSD -1
REMARK  0 active torsions:
REMARK  status: ('A' for Active; 'I' for Inactive)
ROOT
ATOM      1  C2' OXE d   1      -1.850  -1.099  -0.201  0.00  0.00     0.078 C 
ATOM      2  C1' OXE d   1      -1.452   1.646  -0.634  0.00  0.00     0.078 C 
ATOM      3  C1  OXE d   1      -0.235   0.788  -0.399  0.00  0.00    -0.078 A 
ATOM      4  C2  OXE d   1      -0.442  -0.546  -0.142  0.00  0.00    -0.078 A 
ATOM      5  C3  OXE d   1       0.650  -1.393   0.027  0.00  0.00     0.003 A 
ATOM      6  C4  OXE d   1       1.948  -0.873   0.090  0.00  0.00    -0.002 A 
ATOM      7  C5  OXE d   1       2.178   0.489  -0.130  0.00  0.00    -0.002 A 
ATOM      8  C6  OXE d   1       1.104   1.324  -0.418  0.00  0.00     0.003 A 
ENDROOT
TORSDOF 0
ENDMDL
