MODEL 1
REMARK minimizedAffinity -3.31832433
REMARK minimizedRMSD -1
REMARK  0 active torsions:
REMARK  status: ('A' for Active; 'I' for Inactive)
ROOT
ATOM      1  C2' OXE d   1       1.347   1.093  -0.347  0.00  0.00     0.078 C 
ATOM      2  C1' OXE d   1       2.013  -0.804   1.612  0.00  0.00     0.078 C 
ATOM      3  C1  OXE d   1       0.904   0.169   1.924  0.00  0.00    -0.078 A 
ATOM      4  C2  OXE d   1       0.616   1.124   0.978  0.00  0.00    -0.078 A 
ATOM      5  C3  OXE d   1      -0.435   2.011   1.192  0.00  0.00     0.003 A 
ATOM      6  C4  OXE d   1      -1.099   2.039   2.425  0.00  0.00    -0.002 A 
ATOM      7  C5  OXE d   1      -0.794   1.101   3.417  0.00  0.00    -0.002 A 
ATOM      8  C6  OXE d   1       0.173   0.135   3.166  0.00  0.00     0.003 A 
ENDROOT
TORSDOF 0
ENDMDL
