MODEL 1
REMARK minimizedAffinity -3.07792187
REMARK minimizedRMSD -1
REMARK  0 active torsions:
REMARK  status: ('A' for Active; 'I' for Inactive)
ROOT
ATOM      1  C2' OXE d   1      -1.382   0.860   2.326  0.00  0.00     0.078 C 
ATOM      2  C1' OXE d   1      -2.592   0.214  -0.123  0.00  0.00     0.078 C 
ATOM      3  C1  OXE d   1      -1.107  -0.018   0.011  0.00  0.00    -0.078 A 
ATOM      4  C2  OXE d   1      -0.516   0.344   1.197  0.00  0.00    -0.078 A 
ATOM      5  C3  OXE d   1       0.841   0.100   1.393  0.00  0.00     0.003 A 
ATOM      6  C4  OXE d   1       1.636  -0.368   0.341  0.00  0.00    -0.002 A 
ATOM      7  C5  OXE d   1       1.061  -0.706  -0.888  0.00  0.00    -0.002 A 
ATOM      8  C6  OXE d   1      -0.314  -0.578  -1.055  0.00  0.00     0.003 A 
ENDROOT
TORSDOF 0
ENDMDL
