MODEL 1
REMARK minimizedAffinity 2.85234356
REMARK minimizedRMSD -1
REMARK  0 active torsions:
REMARK  status: ('A' for Active; 'I' for Inactive)
ROOT
ATOM      1  C2' OXE d   1      -4.664   0.544  -0.207  0.00  0.00     0.078 C 
ATOM      2  C1' OXE d   1      -4.072  -2.129  -0.828  0.00  0.00     0.078 C 
ATOM      3  C1  OXE d   1      -2.957  -1.268  -0.289  0.00  0.00    -0.078 A 
ATOM      4  C2  OXE d   1      -3.244   0.051  -0.032  0.00  0.00    -0.078 A 
ATOM      5  C3  OXE d   1      -2.266   0.875   0.518  0.00  0.00     0.003 A 
ATOM      6  C4  OXE d   1      -0.953   0.414   0.668  0.00  0.00    -0.002 A 
ATOM      7  C5  OXE d   1      -0.629  -0.915   0.374  0.00  0.00    -0.002 A 
ATOM      8  C6  OXE d   1      -1.627  -1.779  -0.064  0.00  0.00     0.003 A 
ENDROOT
TORSDOF 0
ENDMDL
